MODEL 1
REMARK minimizedAffinity 4.34208012
REMARK minimizedRMSD -1
REMARK  1 active torsions:
REMARK  status: ('A' for Active; 'I' for Inactive)
REMARK    1  A    between atoms: C1_2  and  C2_3 
ROOT
ATOM      1  C2  UNL d   1      -3.457  -0.334   5.886  0.00  0.00    -0.077 A 
ATOM      2  C3  UNL d   1      -4.837  -0.576   5.927  0.00  0.00     0.002 A 
ATOM      3  C4  UNL d   1      -5.739   0.488   5.985  0.00  0.00     0.002 A 
ATOM      4  C5  UNL d   1      -5.271   1.801   5.998  0.00  0.00    -0.004 A 
ATOM      5  C6  UNL d   1      -3.900   2.052   5.959  0.00  0.00     0.002 A 
ATOM      6  C7  UNL d   1      -2.997   0.989   5.903  0.00  0.00     0.002 A 
ENDROOT
BRANCH   1   7
ATOM      7  C1  UNL d   1      -2.484  -1.479   5.774  0.00  0.00     0.055 C 
ATOM      8  C   UNL d   1      -2.740  -2.302   4.520  0.00  0.00     0.019 C 
ENDBRANCH   1   7
TORSDOF 1
ENDMDL
