MODEL 1
REMARK minimizedAffinity 8.02773857
REMARK minimizedRMSD -1
REMARK  1 active torsions:
REMARK  status: ('A' for Active; 'I' for Inactive)
REMARK    1  A    between atoms: C1_2  and  C2_3 
ROOT
ATOM      1  C2  UNL d   1      -2.875  -0.605   5.508  0.00  0.00    -0.077 A 
ATOM      2  C3  UNL d   1      -4.178  -1.014   5.827  0.00  0.00     0.002 A 
ATOM      3  C4  UNL d   1      -5.193  -0.070   5.995  0.00  0.00     0.002 A 
ATOM      4  C5  UNL d   1      -4.917   1.287   5.843  0.00  0.00    -0.004 A 
ATOM      5  C6  UNL d   1      -3.624   1.704   5.528  0.00  0.00     0.002 A 
ATOM      6  C7  UNL d   1      -2.608   0.762   5.361  0.00  0.00     0.002 A 
ENDROOT
BRANCH   1   7
ATOM      7  C1  UNL d   1      -1.790  -1.624   5.278  0.00  0.00     0.055 C 
ATOM      8  C   UNL d   1      -2.264  -2.738   4.355  0.00  0.00     0.019 C 
ENDBRANCH   1   7
TORSDOF 1
ENDMDL
