MODEL 1
REMARK minimizedAffinity 8.69218922
REMARK minimizedRMSD -1
REMARK  1 active torsions:
REMARK  status: ('A' for Active; 'I' for Inactive)
REMARK    1  A    between atoms: C1_2  and  C2_3 
ROOT
ATOM      1  C2  UNL d   1      -1.467  -2.037  -0.509  0.00  0.00    -0.077 A 
ATOM      2  C3  UNL d   1      -2.689  -1.496  -0.085  0.00  0.00     0.002 A 
ATOM      3  C4  UNL d   1      -3.443  -0.693  -0.944  0.00  0.00     0.002 A 
ATOM      4  C5  UNL d   1      -2.985  -0.429  -2.233  0.00  0.00    -0.004 A 
ATOM      5  C6  UNL d   1      -1.770  -0.961  -2.664  0.00  0.00     0.002 A 
ATOM      6  C7  UNL d   1      -1.015  -1.762  -1.806  0.00  0.00     0.002 A 
ENDROOT
BRANCH   1   7
ATOM      7  C1  UNL d   1      -0.677  -2.942   0.399  0.00  0.00     0.055 C 
ATOM      8  C   UNL d   1      -0.453  -4.306  -0.237  0.00  0.00     0.019 C 
ENDBRANCH   1   7
TORSDOF 1
ENDMDL
