MODEL 1
REMARK minimizedAffinity 11.223567
REMARK minimizedRMSD -1
REMARK  1 active torsions:
REMARK  status: ('A' for Active; 'I' for Inactive)
REMARK    1  A    between atoms: C1_2  and  C2_3 
ROOT
ATOM      1  C2  UNL d   1       1.880   1.211  -1.805  0.00  0.00    -0.077 A 
ATOM      2  C3  UNL d   1       0.551   0.834  -2.041  0.00  0.00     0.002 A 
ATOM      3  C4  UNL d   1       0.260  -0.402  -2.623  0.00  0.00     0.002 A 
ATOM      4  C5  UNL d   1       1.293  -1.270  -2.970  0.00  0.00    -0.004 A 
ATOM      5  C6  UNL d   1       2.618  -0.903  -2.742  0.00  0.00     0.002 A 
ATOM      6  C7  UNL d   1       2.911   0.332  -2.161  0.00  0.00     0.002 A 
ENDROOT
BRANCH   1   7
ATOM      7  C1  UNL d   1       2.194   2.522  -1.132  0.00  0.00     0.055 C 
ATOM      8  C   UNL d   1       3.319   2.370  -0.120  0.00  0.00     0.019 C 
ENDBRANCH   1   7
TORSDOF 1
ENDMDL
