MODEL 1
REMARK minimizedAffinity 7.6577673
REMARK minimizedRMSD -1
REMARK  1 active torsions:
REMARK  status: ('A' for Active; 'I' for Inactive)
REMARK    1  A    between atoms: C1_2  and  C2_3 
ROOT
ATOM      1  C2  UNL d   1      -3.439  -0.344   5.323  0.00  0.00    -0.077 A 
ATOM      2  C3  UNL d   1      -4.829  -0.477   5.189  0.00  0.00     0.002 A 
ATOM      3  C4  UNL d   1      -5.670   0.603   5.461  0.00  0.00     0.002 A 
ATOM      4  C5  UNL d   1      -5.133   1.824   5.862  0.00  0.00    -0.004 A 
ATOM      5  C6  UNL d   1      -3.752   1.966   6.000  0.00  0.00     0.002 A 
ATOM      6  C7  UNL d   1      -2.909   0.887   5.731  0.00  0.00     0.002 A 
ENDROOT
BRANCH   1   7
ATOM      7  C1  UNL d   1      -2.527  -1.494   4.984  0.00  0.00     0.055 C 
ATOM      8  C   UNL d   1      -2.995  -2.222   3.732  0.00  0.00     0.019 C 
ENDBRANCH   1   7
TORSDOF 1
ENDMDL
