MODEL 1
REMARK minimizedAffinity 10.1074915
REMARK minimizedRMSD -1
REMARK  1 active torsions:
REMARK  status: ('A' for Active; 'I' for Inactive)
REMARK    1  A    between atoms: C1_2  and  C2_3 
ROOT
ATOM      1  C2  UNL d   1       3.820   3.076  -0.224  0.00  0.00    -0.077 A 
ATOM      2  C3  UNL d   1       3.810   4.398   0.241  0.00  0.00     0.002 A 
ATOM      3  C4  UNL d   1       4.886   5.248  -0.025  0.00  0.00     0.002 A 
ATOM      4  C5  UNL d   1       5.976   4.786  -0.759  0.00  0.00    -0.004 A 
ATOM      5  C6  UNL d   1       5.996   3.472  -1.224  0.00  0.00     0.002 A 
ATOM      6  C7  UNL d   1       4.922   2.621  -0.959  0.00  0.00     0.002 A 
ENDROOT
BRANCH   1   7
ATOM      7  C1  UNL d   1       2.639   2.172   0.019  0.00  0.00     0.055 C 
ATOM      8  C   UNL d   1       2.460   1.178  -1.119  0.00  0.00     0.019 C 
ENDBRANCH   1   7
TORSDOF 1
ENDMDL
