MODEL 1
REMARK minimizedAffinity 6.37177658
REMARK minimizedRMSD -1
REMARK  1 active torsions:
REMARK  status: ('A' for Active; 'I' for Inactive)
REMARK    1  A    between atoms: C1_2  and  C2_3 
ROOT
ATOM      1  C2  UNL d   1      -3.215  -0.279   5.545  0.00  0.00    -0.077 A 
ATOM      2  C3  UNL d   1      -4.478  -0.881   5.630  0.00  0.00     0.002 A 
ATOM      3  C4  UNL d   1      -5.617  -0.106   5.858  0.00  0.00     0.002 A 
ATOM      4  C5  UNL d   1      -5.504   1.275   6.000  0.00  0.00    -0.004 A 
ATOM      5  C6  UNL d   1      -4.252   1.884   5.919  0.00  0.00     0.002 A 
ATOM      6  C7  UNL d   1      -3.113   1.111   5.692  0.00  0.00     0.002 A 
ENDROOT
BRANCH   1   7
ATOM      7  C1  UNL d   1      -1.992  -1.107   5.249  0.00  0.00     0.055 C 
ATOM      8  C   UNL d   1      -2.241  -2.070   4.097  0.00  0.00     0.019 C 
ENDBRANCH   1   7
TORSDOF 1
ENDMDL
