MODEL 1
REMARK minimizedAffinity 5.34785843
REMARK minimizedRMSD -1
REMARK  1 active torsions:
REMARK  status: ('A' for Active; 'I' for Inactive)
REMARK    1  A    between atoms: C1_2  and  C2_3 
ROOT
ATOM      1  C2  UNL d   1      -4.515   3.404   5.966  0.00  0.00    -0.077 A 
ATOM      2  C3  UNL d   1      -5.809   2.866   5.978  0.00  0.00     0.002 A 
ATOM      3  C4  UNL d   1      -5.998   1.483   5.992  0.00  0.00     0.002 A 
ATOM      4  C5  UNL d   1      -4.898   0.627   5.999  0.00  0.00    -0.004 A 
ATOM      5  C6  UNL d   1      -3.607   1.153   5.985  0.00  0.00     0.002 A 
ATOM      6  C7  UNL d   1      -3.416   2.535   5.970  0.00  0.00     0.002 A 
ENDROOT
BRANCH   1   7
ATOM      7  C1  UNL d   1      -4.308   4.896   6.000  0.00  0.00     0.055 C 
ATOM      8  C   UNL d   1      -5.604   5.641   5.716  0.00  0.00     0.019 C 
ENDBRANCH   1   7
TORSDOF 1
ENDMDL
