MODEL 1
REMARK minimizedAffinity 14.3753395
REMARK minimizedRMSD -1
REMARK  1 active torsions:
REMARK  status: ('A' for Active; 'I' for Inactive)
REMARK    1  A    between atoms: C1_2  and  C2_3 
ROOT
ATOM      1  C2  UNL d   1      -1.650  -1.852  -0.691  0.00  0.00    -0.077 A 
ATOM      2  C3  UNL d   1      -1.385  -1.745  -2.064  0.00  0.00     0.002 A 
ATOM      3  C4  UNL d   1      -0.740  -2.782  -2.741  0.00  0.00     0.002 A 
ATOM      4  C5  UNL d   1      -0.359  -3.934  -2.056  0.00  0.00    -0.004 A 
ATOM      5  C6  UNL d   1      -0.617  -4.049  -0.691  0.00  0.00     0.002 A 
ATOM      6  C7  UNL d   1      -1.260  -3.013  -0.011  0.00  0.00     0.002 A 
ENDROOT
BRANCH   1   7
ATOM      7  C1  UNL d   1      -2.389  -0.756   0.031  0.00  0.00     0.055 C 
ATOM      8  C   UNL d   1      -3.673  -1.277   0.662  0.00  0.00     0.019 C 
ENDBRANCH   1   7
TORSDOF 1
ENDMDL
