MODEL 1
REMARK minimizedAffinity 3.34301162
REMARK minimizedRMSD -1
REMARK  1 active torsions:
REMARK  status: ('A' for Active; 'I' for Inactive)
REMARK    1  A    between atoms: C1_2  and  C2_3 
ROOT
ATOM      1  C2  UNL d   1       2.833   1.731  -0.882  0.00  0.00    -0.077 A 
ATOM      2  C3  UNL d   1       3.514   2.603  -1.743  0.00  0.00     0.002 A 
ATOM      3  C4  UNL d   1       4.253   3.670  -1.228  0.00  0.00     0.002 A 
ATOM      4  C5  UNL d   1       4.321   3.872   0.149  0.00  0.00    -0.004 A 
ATOM      5  C6  UNL d   1       3.646   3.011   1.013  0.00  0.00     0.002 A 
ATOM      6  C7  UNL d   1       2.906   1.945   0.500  0.00  0.00     0.002 A 
ENDROOT
BRANCH   1   7
ATOM      7  C1  UNL d   1       2.076   0.551  -1.433  0.00  0.00     0.055 C 
ATOM      8  C   UNL d   1       2.864  -0.147  -2.533  0.00  0.00     0.019 C 
ENDBRANCH   1   7
TORSDOF 1
ENDMDL
