MODEL 1
REMARK minimizedAffinity 5.8831749
REMARK minimizedRMSD -1
REMARK  1 active torsions:
REMARK  status: ('A' for Active; 'I' for Inactive)
REMARK    1  A    between atoms: C1_2  and  C2_3 
ROOT
ATOM      1  C2  UNL d   1       3.544   0.249  -2.754  0.00  0.00    -0.077 A 
ATOM      2  C3  UNL d   1       4.250  -0.958  -2.859  0.00  0.00     0.002 A 
ATOM      3  C4  UNL d   1       5.467  -1.006  -3.543  0.00  0.00     0.002 A 
ATOM      4  C5  UNL d   1       5.989   0.148  -4.122  0.00  0.00    -0.004 A 
ATOM      5  C6  UNL d   1       5.293   1.353  -4.024  0.00  0.00     0.002 A 
ATOM      6  C7  UNL d   1       4.077   1.403  -3.342  0.00  0.00     0.002 A 
ENDROOT
BRANCH   1   7
ATOM      7  C1  UNL d   1       2.257   0.314  -1.975  0.00  0.00     0.055 C 
ATOM      8  C   UNL d   1       1.160  -0.498  -2.649  0.00  0.00     0.019 C 
ENDBRANCH   1   7
TORSDOF 1
ENDMDL
