MODEL 1
REMARK minimizedAffinity 12.4900713
REMARK minimizedRMSD -1
REMARK  1 active torsions:
REMARK  status: ('A' for Active; 'I' for Inactive)
REMARK    1  A    between atoms: C1_2  and  C2_3 
ROOT
ATOM      1  C2  UNL d   1      -3.616  -2.488   1.201  0.00  0.00    -0.077 A 
ATOM      2  C3  UNL d   1      -3.425  -1.725   0.040  0.00  0.00     0.002 A 
ATOM      3  C4  UNL d   1      -2.144  -1.556  -0.490  0.00  0.00     0.002 A 
ATOM      4  C5  UNL d   1      -1.047  -2.151   0.130  0.00  0.00    -0.004 A 
ATOM      5  C6  UNL d   1      -1.227  -2.910   1.286  0.00  0.00     0.002 A 
ATOM      6  C7  UNL d   1      -2.506  -3.079   1.818  0.00  0.00     0.002 A 
ENDROOT
BRANCH   1   7
ATOM      7  C1  UNL d   1      -5.002  -2.713   1.747  0.00  0.00     0.055 C 
ATOM      8  C   UNL d   1      -5.992  -3.026   0.634  0.00  0.00     0.019 C 
ENDBRANCH   1   7
TORSDOF 1
ENDMDL
