MODEL 1
REMARK minimizedAffinity 10.8431377
REMARK minimizedRMSD -1
REMARK  1 active torsions:
REMARK  status: ('A' for Active; 'I' for Inactive)
REMARK    1  A    between atoms: C1_2  and  C2_3 
ROOT
ATOM      1  C2  UNL d   1      -0.138  -2.971  -1.244  0.00  0.00    -0.077 A 
ATOM      2  C3  UNL d   1      -0.035  -4.004  -2.186  0.00  0.00     0.002 A 
ATOM      3  C4  UNL d   1       0.059  -5.334  -1.770  0.00  0.00     0.002 A 
ATOM      4  C5  UNL d   1       0.046  -5.642  -0.411  0.00  0.00    -0.004 A 
ATOM      5  C6  UNL d   1      -0.054  -4.622   0.534  0.00  0.00     0.002 A 
ATOM      6  C7  UNL d   1      -0.146  -3.293   0.119  0.00  0.00     0.002 A 
ENDROOT
BRANCH   1   7
ATOM      7  C1  UNL d   1      -0.289  -1.541  -1.692  0.00  0.00     0.055 C 
ATOM      8  C   UNL d   1       0.313  -1.328  -3.074  0.00  0.00     0.019 C 
ENDBRANCH   1   7
TORSDOF 1
ENDMDL
