MODEL 1
REMARK minimizedAffinity 7.71662474
REMARK minimizedRMSD -1
REMARK  1 active torsions:
REMARK  status: ('A' for Active; 'I' for Inactive)
REMARK    1  A    between atoms: C1_2  and  C2_3 
ROOT
ATOM      1  C2  UNL d   1      -2.054  -2.939   1.390  0.00  0.00    -0.077 A 
ATOM      2  C3  UNL d   1      -0.983  -3.393   0.607  0.00  0.00     0.002 A 
ATOM      3  C4  UNL d   1      -0.635  -2.726  -0.569  0.00  0.00     0.002 A 
ATOM      4  C5  UNL d   1      -1.349  -1.599  -0.970  0.00  0.00    -0.004 A 
ATOM      5  C6  UNL d   1      -2.417  -1.141  -0.200  0.00  0.00     0.002 A 
ATOM      6  C7  UNL d   1      -2.767  -1.807   0.975  0.00  0.00     0.002 A 
ENDROOT
BRANCH   1   7
ATOM      7  C1  UNL d   1      -2.399  -3.628   2.684  0.00  0.00     0.055 C 
ATOM      8  C   UNL d   1      -2.795  -2.624   3.757  0.00  0.00     0.019 C 
ENDBRANCH   1   7
TORSDOF 1
ENDMDL
