MODEL 1
REMARK minimizedAffinity -5.21100426
REMARK minimizedRMSD -1
REMARK  1 active torsions:
REMARK  status: ('A' for Active; 'I' for Inactive)
REMARK    1  A    between atoms: N_2  and  C1_3 
ROOT
ATOM      1  C1  UNL d   1       1.790   2.939  -1.027  0.00  0.00     0.143 A 
ATOM      2  C2  UNL d   1       1.246   2.040  -1.951  0.00  0.00    -0.057 A 
ATOM      3  C3  UNL d   1       0.687   0.824  -1.539  0.00  0.00     0.033 A 
ATOM      4  C4  UNL d   1       0.688   0.471  -0.193  0.00  0.00    -0.042 A 
ATOM      5  C5  UNL d   1       1.246   1.338   0.740  0.00  0.00     0.033 A 
ATOM      6  C6  UNL d   1       1.797   2.554   0.323  0.00  0.00    -0.057 A 
ENDROOT
BRANCH   1   7
ATOM      7  N   UNL d   1       2.448   4.118  -1.383  0.00  0.00    -0.732 N 
ATOM      8  C   UNL d   1       2.061   5.384  -0.799  0.00  0.00     0.284 C 
ATOM      9  H3  UNL d   1       3.454   3.990  -1.470  0.00  0.00     0.395 HD
ENDBRANCH   1   7
TORSDOF 1
ENDMDL
