MODEL 1
REMARK minimizedAffinity -5.03260136
REMARK minimizedRMSD -1
REMARK  1 active torsions:
REMARK  status: ('A' for Active; 'I' for Inactive)
REMARK    1  A    between atoms: N_2  and  C1_3 
ROOT
ATOM      1  C1  UNL d   1       1.303   2.876  -1.272  0.00  0.00     0.143 A 
ATOM      2  C2  UNL d   1       1.622   1.724  -1.998  0.00  0.00    -0.057 A 
ATOM      3  C3  UNL d   1       1.481   0.449  -1.437  0.00  0.00     0.033 A 
ATOM      4  C4  UNL d   1       1.043   0.306  -0.124  0.00  0.00    -0.042 A 
ATOM      5  C5  UNL d   1       0.744   1.438   0.625  0.00  0.00     0.033 A 
ATOM      6  C6  UNL d   1       0.881   2.708   0.056  0.00  0.00    -0.057 A 
ENDROOT
BRANCH   1   7
ATOM      7  N   UNL d   1       1.516   4.175  -1.741  0.00  0.00    -0.732 N 
ATOM      8  C   UNL d   1       1.852   5.243  -0.825  0.00  0.00     0.284 C 
ATOM      9  H3  UNL d   1       2.042   4.192  -2.611  0.00  0.00     0.395 HD
ENDBRANCH   1   7
TORSDOF 1
ENDMDL
