MODEL 1
REMARK minimizedAffinity 1.10014462
REMARK minimizedRMSD -1
REMARK  1 active torsions:
REMARK  status: ('A' for Active; 'I' for Inactive)
REMARK    1  A    between atoms: N_2  and  C1_3 
ROOT
ATOM      1  C1  UNL d   1       1.711   2.488  -1.407  0.00  0.00     0.143 A 
ATOM      2  C2  UNL d   1       2.038   1.272  -2.017  0.00  0.00    -0.057 A 
ATOM      3  C3  UNL d   1       1.775   0.050  -1.387  0.00  0.00     0.033 A 
ATOM      4  C4  UNL d   1       1.205   0.023  -0.118  0.00  0.00    -0.042 A 
ATOM      5  C5  UNL d   1       0.895   1.220   0.518  0.00  0.00     0.033 A 
ATOM      6  C6  UNL d   1       1.154   2.437  -0.120  0.00  0.00    -0.057 A 
ENDROOT
BRANCH   1   7
ATOM      7  N   UNL d   1       2.037   3.738  -1.940  0.00  0.00    -0.732 N 
ATOM      8  C   UNL d   1       1.867   4.941  -1.154  0.00  0.00     0.284 C 
ATOM      9  H3  UNL d   1       2.895   3.715  -2.486  0.00  0.00     0.395 HD
ENDBRANCH   1   7
TORSDOF 1
ENDMDL
