MODEL 1
REMARK minimizedAffinity -0.00437542936
REMARK minimizedRMSD -1
REMARK  1 active torsions:
REMARK  status: ('A' for Active; 'I' for Inactive)
REMARK    1  A    between atoms: N_2  and  C1_3 
ROOT
ATOM      1  C1  UNL d   1       1.253   3.247  -0.547  0.00  0.00     0.143 A 
ATOM      2  C2  UNL d   1       1.378   2.819  -1.873  0.00  0.00    -0.057 A 
ATOM      3  C3  UNL d   1       1.200   1.474  -2.221  0.00  0.00     0.033 A 
ATOM      4  C4  UNL d   1       0.922   0.527  -1.241  0.00  0.00    -0.042 A 
ATOM      5  C5  UNL d   1       0.818   0.926   0.087  0.00  0.00     0.033 A 
ATOM      6  C6  UNL d   1       0.991   2.271   0.427  0.00  0.00    -0.057 A 
ENDROOT
BRANCH   1   7
ATOM      7  N   UNL d   1       1.516   4.553  -0.123  0.00  0.00    -0.732 N 
ATOM      8  C   UNL d   1       2.148   5.503  -1.013  0.00  0.00     0.284 C 
ATOM      9  H3  UNL d   1       0.755   4.942   0.428  0.00  0.00     0.395 HD
ENDBRANCH   1   7
TORSDOF 1
ENDMDL
