MODEL 1
REMARK minimizedAffinity 1.97930741
REMARK minimizedRMSD -1
REMARK  1 active torsions:
REMARK  status: ('A' for Active; 'I' for Inactive)
REMARK    1  A    between atoms: N_2  and  C1_3 
ROOT
ATOM      1  C1  UNL d   1       1.570   0.193  -0.611  0.00  0.00     0.143 A 
ATOM      2  C2  UNL d   1       2.174   1.008  -1.574  0.00  0.00    -0.057 A 
ATOM      3  C3  UNL d   1       2.003   2.398  -1.561  0.00  0.00     0.033 A 
ATOM      4  C4  UNL d   1       1.197   2.996  -0.598  0.00  0.00    -0.042 A 
ATOM      5  C5  UNL d   1       0.566   2.203   0.354  0.00  0.00     0.033 A 
ATOM      6  C6  UNL d   1       0.747   0.817   0.340  0.00  0.00    -0.057 A 
ENDROOT
BRANCH   1   7
ATOM      7  N   UNL d   1       1.622  -1.203  -0.630  0.00  0.00    -0.732 N 
ATOM      8  C   UNL d   1       0.475  -1.989  -0.231  0.00  0.00     0.284 C 
ATOM      9  H3  UNL d   1       2.109  -1.562  -1.448  0.00  0.00     0.395 HD
ENDBRANCH   1   7
TORSDOF 1
ENDMDL
