MODEL 1
REMARK minimizedAffinity -1.72714996
REMARK minimizedRMSD -1
REMARK  1 active torsions:
REMARK  status: ('A' for Active; 'I' for Inactive)
REMARK    1  A    between atoms: N_2  and  C1_3 
ROOT
ATOM      1  C1  UNL d   1       1.151   0.580  -0.808  0.00  0.00     0.143 A 
ATOM      2  C2  UNL d   1       0.818   0.965   0.495  0.00  0.00    -0.057 A 
ATOM      3  C3  UNL d   1       0.931   2.298   0.909  0.00  0.00     0.033 A 
ATOM      4  C4  UNL d   1       1.408   3.267   0.032  0.00  0.00    -0.042 A 
ATOM      5  C5  UNL d   1       1.768   2.902  -1.260  0.00  0.00     0.033 A 
ATOM      6  C6  UNL d   1       1.647   1.571  -1.670  0.00  0.00    -0.057 A 
ENDROOT
BRANCH   1   7
ATOM      7  N   UNL d   1       1.155  -0.746  -1.251  0.00  0.00    -0.732 N 
ATOM      8  C   UNL d   1       1.862  -1.768  -0.510  0.00  0.00     0.284 C 
ATOM      9  H3  UNL d   1       0.247  -1.040  -1.603  0.00  0.00     0.395 HD
ENDBRANCH   1   7
TORSDOF 1
ENDMDL
