MODEL 1
REMARK minimizedAffinity 8.28209305
REMARK minimizedRMSD -1
REMARK  1 active torsions:
REMARK  status: ('A' for Active; 'I' for Inactive)
REMARK    1  A    between atoms: N_2  and  C1_3 
ROOT
ATOM      1  C1  UNL d   1       1.283   1.868  -1.309  0.00  0.00     0.143 A 
ATOM      2  C2  UNL d   1       0.768   0.677  -1.832  0.00  0.00    -0.057 A 
ATOM      3  C3  UNL d   1       0.949  -0.544  -1.172  0.00  0.00     0.033 A 
ATOM      4  C4  UNL d   1       1.675  -0.600   0.013  0.00  0.00    -0.042 A 
ATOM      5  C5  UNL d   1       2.217   0.568   0.539  0.00  0.00     0.033 A 
ATOM      6  C6  UNL d   1       2.027   1.785  -0.122  0.00  0.00    -0.057 A 
ENDROOT
BRANCH   1   7
ATOM      7  N   UNL d   1       1.221   3.099  -1.968  0.00  0.00    -0.732 N 
ATOM      8  C   UNL d   1       2.010   4.221  -1.509  0.00  0.00     0.284 C 
ATOM      9  H3  UNL d   1       1.193   2.996  -2.980  0.00  0.00     0.395 HD
ENDBRANCH   1   7
TORSDOF 1
ENDMDL
