MODEL 1
REMARK minimizedAffinity -3.72889018
REMARK minimizedRMSD -1
REMARK  1 active torsions:
REMARK  status: ('A' for Active; 'I' for Inactive)
REMARK    1  A    between atoms: N_2  and  C1_3 
ROOT
ATOM      1  C1  UNL d   1       1.454   2.905  -0.923  0.00  0.00     0.143 A 
ATOM      2  C2  UNL d   1       1.485   1.633  -1.506  0.00  0.00    -0.057 A 
ATOM      3  C3  UNL d   1       1.211   0.483  -0.756  0.00  0.00     0.033 A 
ATOM      4  C4  UNL d   1       0.930   0.583   0.603  0.00  0.00    -0.042 A 
ATOM      5  C5  UNL d   1       0.918   1.834   1.209  0.00  0.00     0.033 A 
ATOM      6  C6  UNL d   1       1.186   2.979   0.453  0.00  0.00    -0.057 A 
ENDROOT
BRANCH   1   7
ATOM      7  N   UNL d   1       1.813   4.077  -1.593  0.00  0.00    -0.732 N 
ATOM      8  C   UNL d   1       2.044   5.303  -0.861  0.00  0.00     0.284 C 
ATOM      9  H3  UNL d   1       2.481   3.907  -2.342  0.00  0.00     0.395 HD
ENDBRANCH   1   7
TORSDOF 1
ENDMDL
