MODEL 1
REMARK minimizedAffinity -4.66901827
REMARK minimizedRMSD -1
REMARK  1 active torsions:
REMARK  status: ('A' for Active; 'I' for Inactive)
REMARK    1  A    between atoms: N_2  and  C1_3 
ROOT
ATOM      1  C1  UNL d   1       1.645   3.605  -1.269  0.00  0.00     0.143 A 
ATOM      2  C2  UNL d   1       1.191   3.345   0.028  0.00  0.00    -0.057 A 
ATOM      3  C3  UNL d   1       0.856   2.047   0.433  0.00  0.00     0.033 A 
ATOM      4  C4  UNL d   1       0.943   0.987  -0.464  0.00  0.00    -0.042 A 
ATOM      5  C5  UNL d   1       1.369   1.227  -1.766  0.00  0.00     0.033 A 
ATOM      6  C6  UNL d   1       1.708   2.524  -2.162  0.00  0.00    -0.057 A 
ENDROOT
BRANCH   1   7
ATOM      7  N   UNL d   1       1.899   4.888  -1.761  0.00  0.00    -0.732 N 
ATOM      8  C   UNL d   1       2.099   5.999  -0.855  0.00  0.00     0.284 C 
ATOM      9  H3  UNL d   1       2.535   4.880  -2.555  0.00  0.00     0.395 HD
ENDBRANCH   1   7
TORSDOF 1
ENDMDL
