MODEL 1
REMARK minimizedAffinity -3.51925969
REMARK minimizedRMSD -1
REMARK  1 active torsions:
REMARK  status: ('A' for Active; 'I' for Inactive)
REMARK    1  A    between atoms: N_2  and  C1_3 
ROOT
ATOM      1  C1  UNL d   1       1.097   1.220  -0.264  0.00  0.00     0.143 A 
ATOM      2  C2  UNL d   1       0.989   1.842   0.984  0.00  0.00    -0.057 A 
ATOM      3  C3  UNL d   1       1.041   3.236   1.108  0.00  0.00     0.033 A 
ATOM      4  C4  UNL d   1       1.231   4.033  -0.016  0.00  0.00    -0.042 A 
ATOM      5  C5  UNL d   1       1.366   3.435  -1.264  0.00  0.00     0.033 A 
ATOM      6  C6  UNL d   1       1.307   2.044  -1.382  0.00  0.00    -0.057 A 
ENDROOT
BRANCH   1   7
ATOM      7  N   UNL d   1       1.152  -0.165  -0.442  0.00  0.00    -0.732 N 
ATOM      8  C   UNL d   1       0.725  -0.766  -1.687  0.00  0.00     0.284 C 
ATOM      9  H3  UNL d   1       1.999  -0.573  -0.052  0.00  0.00     0.395 HD
ENDBRANCH   1   7
TORSDOF 1
ENDMDL
