MODEL 1
REMARK minimizedAffinity -1.68741572
REMARK minimizedRMSD -1
REMARK  1 active torsions:
REMARK  status: ('A' for Active; 'I' for Inactive)
REMARK    1  A    between atoms: N_2  and  C1_3 
ROOT
ATOM      1  C1  UNL d   1       1.655   0.381  -0.393  0.00  0.00     0.143 A 
ATOM      2  C2  UNL d   1       1.041   1.269   0.497  0.00  0.00    -0.057 A 
ATOM      3  C3  UNL d   1       0.647   2.549   0.091  0.00  0.00     0.033 A 
ATOM      4  C4  UNL d   1       0.888   2.977  -1.211  0.00  0.00    -0.042 A 
ATOM      5  C5  UNL d   1       1.519   2.121  -2.106  0.00  0.00     0.033 A 
ATOM      6  C6  UNL d   1       1.904   0.841  -1.696  0.00  0.00    -0.057 A 
ENDROOT
BRANCH   1   7
ATOM      7  N   UNL d   1       2.158  -0.868  -0.023  0.00  0.00    -0.732 N 
ATOM      8  C   UNL d   1       3.523  -1.007   0.437  0.00  0.00     0.284 C 
ATOM      9  H3  UNL d   1       1.483  -1.418   0.505  0.00  0.00     0.395 HD
ENDBRANCH   1   7
TORSDOF 1
ENDMDL
