MODEL 1
REMARK minimizedAffinity 5.0979414
REMARK minimizedRMSD -1
REMARK  1 active torsions:
REMARK  status: ('A' for Active; 'I' for Inactive)
REMARK    1  A    between atoms: N_2  and  C1_3 
ROOT
ATOM      1  C1  UNL d   1       1.464   1.765  -0.781  0.00  0.00     0.143 A 
ATOM      2  C2  UNL d   1       1.020   2.740  -1.681  0.00  0.00    -0.057 A 
ATOM      3  C3  UNL d   1       0.702   4.034  -1.252  0.00  0.00     0.033 A 
ATOM      4  C4  UNL d   1       0.796   4.369   0.095  0.00  0.00    -0.042 A 
ATOM      5  C5  UNL d   1       1.211   3.409   1.011  0.00  0.00     0.033 A 
ATOM      6  C6  UNL d   1       1.533   2.120   0.575  0.00  0.00    -0.057 A 
ENDROOT
BRANCH   1   7
ATOM      7  N   UNL d   1       1.700   0.433  -1.131  0.00  0.00    -0.732 N 
ATOM      8  C   UNL d   1       2.465  -0.433  -0.259  0.00  0.00     0.284 C 
ATOM      9  H3  UNL d   1       0.884  -0.010  -1.546  0.00  0.00     0.395 HD
ENDBRANCH   1   7
TORSDOF 1
ENDMDL
