MODEL 1
REMARK minimizedAffinity -0.889178038
REMARK minimizedRMSD -1
REMARK  1 active torsions:
REMARK  status: ('A' for Active; 'I' for Inactive)
REMARK    1  A    between atoms: N_2  and  C1_3 
ROOT
ATOM      1  C1  UNL d   1       1.306   3.298  -1.212  0.00  0.00     0.143 A 
ATOM      2  C2  UNL d   1       1.173   2.265  -2.145  0.00  0.00    -0.057 A 
ATOM      3  C3  UNL d   1       0.948   0.944  -1.740  0.00  0.00     0.033 A 
ATOM      4  C4  UNL d   1       0.882   0.627  -0.387  0.00  0.00    -0.042 A 
ATOM      5  C5  UNL d   1       1.037   1.634   0.560  0.00  0.00     0.033 A 
ATOM      6  C6  UNL d   1       1.254   2.952   0.148  0.00  0.00    -0.057 A 
ENDROOT
BRANCH   1   7
ATOM      7  N   UNL d   1       1.629   4.615  -1.549  0.00  0.00    -0.732 N 
ATOM      8  C   UNL d   1       1.625   5.656  -0.543  0.00  0.00     0.284 C 
ATOM      9  H3  UNL d   1       2.408   4.669  -2.201  0.00  0.00     0.395 HD
ENDBRANCH   1   7
TORSDOF 1
ENDMDL
