MODEL 1
REMARK minimizedAffinity -1.89651239
REMARK minimizedRMSD -1
REMARK  1 active torsions:
REMARK  status: ('A' for Active; 'I' for Inactive)
REMARK    1  A    between atoms: N_2  and  C1_3 
ROOT
ATOM      1  C1  UNL d   1       1.190   0.399  -0.420  0.00  0.00     0.143 A 
ATOM      2  C2  UNL d   1       1.060   1.356   0.593  0.00  0.00    -0.057 A 
ATOM      3  C3  UNL d   1       1.070   2.725   0.303  0.00  0.00     0.033 A 
ATOM      4  C4  UNL d   1       1.240   3.165  -1.005  0.00  0.00    -0.042 A 
ATOM      5  C5  UNL d   1       1.396   2.232  -2.025  0.00  0.00     0.033 A 
ATOM      6  C6  UNL d   1       1.379   0.865  -1.730  0.00  0.00    -0.057 A 
ENDROOT
BRANCH   1   7
ATOM      7  N   UNL d   1       1.287  -0.975  -0.184  0.00  0.00    -0.732 N 
ATOM      8  C   UNL d   1       1.070  -1.923  -1.255  0.00  0.00     0.284 C 
ATOM      9  H3  UNL d   1       2.065  -1.210   0.428  0.00  0.00     0.395 HD
ENDBRANCH   1   7
TORSDOF 1
ENDMDL
