MODEL 1
REMARK minimizedAffinity 0.52377373
REMARK minimizedRMSD -1
REMARK  1 active torsions:
REMARK  status: ('A' for Active; 'I' for Inactive)
REMARK    1  A    between atoms: C1_2  and  C2_3 
ROOT
ATOM      1  C2  UNL d   1      -0.620   0.840  -0.616  0.00  0.00    -0.077 A 
ATOM      2  C3  UNL d   1       0.413   1.782  -0.519  0.00  0.00     0.002 A 
ATOM      3  C4  UNL d   1       1.622   1.444   0.092  0.00  0.00     0.002 A 
ATOM      4  C5  UNL d   1       1.810   0.162   0.607  0.00  0.00    -0.004 A 
ATOM      5  C6  UNL d   1       0.787  -0.781   0.516  0.00  0.00     0.002 A 
ATOM      6  C7  UNL d   1      -0.422  -0.444  -0.093  0.00  0.00     0.002 A 
ENDROOT
BRANCH   1   7
ATOM      7  C1  UNL d   1      -1.907   1.188  -1.319  0.00  0.00     0.055 C 
ATOM      8  C   UNL d   1      -2.091   0.357  -2.580  0.00  0.00     0.019 C 
ENDBRANCH   1   7
TORSDOF 1
ENDMDL
