MODEL 1
REMARK minimizedAffinity -3.84797311
REMARK minimizedRMSD -1
REMARK  1 active torsions:
REMARK  status: ('A' for Active; 'I' for Inactive)
REMARK    1  A    between atoms: C1_2  and  C2_3 
ROOT
ATOM      1  C2  UNL d   1      -0.209  -0.119   0.404  0.00  0.00    -0.077 A 
ATOM      2  C3  UNL d   1       0.333  -1.071   1.279  0.00  0.00     0.002 A 
ATOM      3  C4  UNL d   1       1.638  -0.932   1.754  0.00  0.00     0.002 A 
ATOM      4  C5  UNL d   1       2.411   0.160   1.363  0.00  0.00    -0.004 A 
ATOM      5  C6  UNL d   1       1.882   1.111   0.492  0.00  0.00     0.002 A 
ATOM      6  C7  UNL d   1       0.578   0.973   0.015  0.00  0.00     0.002 A 
ENDROOT
BRANCH   1   7
ATOM      7  C1  UNL d   1      -1.633  -0.241  -0.071  0.00  0.00     0.055 C 
ATOM      8  C   UNL d   1      -1.736  -0.023  -1.574  0.00  0.00     0.019 C 
ENDBRANCH   1   7
TORSDOF 1
ENDMDL
