MODEL 1
REMARK minimizedAffinity -6.35192108
REMARK minimizedRMSD -1
REMARK  1 active torsions:
REMARK  status: ('A' for Active; 'I' for Inactive)
REMARK    1  A    between atoms: C1_2  and  C2_3 
ROOT
ATOM      1  C2  UNL d   1      -0.060  -0.496   0.565  0.00  0.00    -0.077 A 
ATOM      2  C3  UNL d   1       0.571  -1.583   1.186  0.00  0.00     0.002 A 
ATOM      3  C4  UNL d   1       1.942  -1.550   1.447  0.00  0.00     0.002 A 
ATOM      4  C5  UNL d   1       2.693  -0.431   1.094  0.00  0.00    -0.004 A 
ATOM      5  C6  UNL d   1       2.076   0.655   0.473  0.00  0.00     0.002 A 
ATOM      6  C7  UNL d   1       0.706   0.623   0.211  0.00  0.00     0.002 A 
ENDROOT
BRANCH   1   7
ATOM      7  C1  UNL d   1      -1.547  -0.509   0.327  0.00  0.00     0.055 C 
ATOM      8  C   UNL d   1      -1.894   0.051  -1.044  0.00  0.00     0.019 C 
ENDBRANCH   1   7
TORSDOF 1
ENDMDL
