MODEL 1
REMARK minimizedAffinity 11.7345791
REMARK minimizedRMSD -1
REMARK  0 active torsions:
REMARK  status: ('A' for Active; 'I' for Inactive)
ROOT
ATOM      1  C1  DEN d   1       0.744  -5.814  -2.050  0.00  0.00     0.130 A 
ATOM      2  C2  DEN d   1       1.819  -4.833  -2.177  0.00  0.00    -0.031 A 
ATOM      3  C3  DEN d   1       1.514  -3.702  -1.278  0.00  0.00     0.027 A 
ATOM      4  C4  DEN d   1      -0.506  -3.378   0.293  0.00  0.00     0.027 A 
ATOM      5  C5  DEN d   1      -1.685  -3.935   0.735  0.00  0.00    -0.003 A 
ATOM      6  C6  DEN d   1      -2.151  -5.132   0.259  0.00  0.00     0.001 A 
ATOM      7  C7  DEN d   1      -1.410  -5.833  -0.656  0.00  0.00     0.017 A 
ATOM      8  C8  DEN d   1      -0.223  -5.274  -1.112  0.00  0.00    -0.094 A 
ATOM      9  C9  DEN d   1       0.236  -4.068  -0.609  0.00  0.00    -0.072 A 
ENDROOT
TORSDOF 0
ENDMDL
