MODEL 1
REMARK minimizedAffinity 9.91399574
REMARK minimizedRMSD -1
REMARK  0 active torsions:
REMARK  status: ('A' for Active; 'I' for Inactive)
ROOT
ATOM      1  C1  DEN d   1       1.900  -2.646   1.655  0.00  0.00     0.130 A 
ATOM      2  C2  DEN d   1       1.903  -1.254   2.095  0.00  0.00    -0.031 A 
ATOM      3  C3  DEN d   1       0.535  -0.722   1.935  0.00  0.00     0.027 A 
ATOM      4  C4  DEN d   1      -1.578  -1.914   1.059  0.00  0.00     0.027 A 
ATOM      5  C5  DEN d   1      -2.072  -3.097   0.555  0.00  0.00    -0.003 A 
ATOM      6  C6  DEN d   1      -1.276  -4.193   0.353  0.00  0.00     0.001 A 
ATOM      7  C7  DEN d   1       0.049  -4.143   0.698  0.00  0.00     0.017 A 
ATOM      8  C8  DEN d   1       0.556  -2.951   1.199  0.00  0.00    -0.094 A 
ATOM      9  C9  DEN d   1      -0.268  -1.858   1.408  0.00  0.00    -0.072 A 
ENDROOT
TORSDOF 0
ENDMDL
