MODEL 1
REMARK minimizedAffinity 16.2089195
REMARK minimizedRMSD -1
REMARK  0 active torsions:
REMARK  status: ('A' for Active; 'I' for Inactive)
ROOT
ATOM      1  C1  DEN d   1       1.109  -0.758   2.973  0.00  0.00     0.130 A 
ATOM      2  C2  DEN d   1       1.685  -1.153   1.691  0.00  0.00    -0.031 A 
ATOM      3  C3  DEN d   1       2.372  -2.447   1.878  0.00  0.00     0.027 A 
ATOM      4  C4  DEN d   1       2.593  -3.872   4.017  0.00  0.00     0.027 A 
ATOM      5  C5  DEN d   1       2.279  -3.942   5.356  0.00  0.00    -0.003 A 
ATOM      6  C6  DEN d   1       1.588  -2.949   5.998  0.00  0.00     0.001 A 
ATOM      7  C7  DEN d   1       1.149  -1.861   5.290  0.00  0.00     0.017 A 
ATOM      8  C8  DEN d   1       1.468  -1.780   3.940  0.00  0.00    -0.094 A 
ATOM      9  C9  DEN d   1       2.156  -2.801   3.308  0.00  0.00    -0.072 A 
ENDROOT
TORSDOF 0
ENDMDL
