MODEL 1
REMARK minimizedAffinity 9.23528004
REMARK minimizedRMSD -1
REMARK  0 active torsions:
REMARK  status: ('A' for Active; 'I' for Inactive)
ROOT
ATOM      1  C1  DEN d   1       2.753  -3.839   4.687  0.00  0.00     0.130 A 
ATOM      2  C2  DEN d   1       2.280  -3.403   5.998  0.00  0.00    -0.031 A 
ATOM      3  C3  DEN d   1       1.639  -2.083   5.836  0.00  0.00     0.027 A 
ATOM      4  C4  DEN d   1       1.329  -0.681   3.693  0.00  0.00     0.027 A 
ATOM      5  C5  DEN d   1       1.575  -0.632   2.339  0.00  0.00    -0.003 A 
ATOM      6  C6  DEN d   1       2.255  -1.624   1.684  0.00  0.00     0.001 A 
ATOM      7  C7  DEN d   1       2.674  -2.730   2.375  0.00  0.00     0.017 A 
ATOM      8  C8  DEN d   1       2.436  -2.784   3.742  0.00  0.00    -0.094 A 
ATOM      9  C9  DEN d   1       1.736  -1.776   4.384  0.00  0.00    -0.072 A 
ENDROOT
TORSDOF 0
ENDMDL
