MODEL 1
REMARK minimizedAffinity 19.9694271
REMARK minimizedRMSD -1
REMARK  0 active torsions:
REMARK  status: ('A' for Active; 'I' for Inactive)
ROOT
ATOM      1  C1  DEN d   1      -3.380  -0.462  -3.141  0.00  0.00     0.130 A 
ATOM      2  C2  DEN d   1      -2.669   0.009  -1.956  0.00  0.00    -0.031 A 
ATOM      3  C3  DEN d   1      -2.351   1.437  -2.151  0.00  0.00     0.027 A 
ATOM      4  C4  DEN d   1      -2.892   2.960  -4.162  0.00  0.00     0.027 A 
ATOM      5  C5  DEN d   1      -3.472   3.007  -5.410  0.00  0.00    -0.003 A 
ATOM      6  C6  DEN d   1      -4.027   1.902  -6.000  0.00  0.00     0.001 A 
ATOM      7  C7  DEN d   1      -4.054   0.712  -5.321  0.00  0.00     0.017 A 
ATOM      8  C8  DEN d   1      -3.465   0.655  -4.065  0.00  0.00    -0.094 A 
ATOM      9  C9  DEN d   1      -2.920   1.786  -3.481  0.00  0.00    -0.072 A 
ENDROOT
TORSDOF 0
ENDMDL
