MODEL 1
REMARK minimizedAffinity 12.9870186
REMARK minimizedRMSD -1
REMARK  0 active torsions:
REMARK  status: ('A' for Active; 'I' for Inactive)
ROOT
ATOM      1  C1  DEN d   1       2.453  -1.503   1.171  0.00  0.00     0.130 A 
ATOM      2  C2  DEN d   1       1.490  -1.809   2.225  0.00  0.00    -0.031 A 
ATOM      3  C3  DEN d   1       0.624  -2.906   1.747  0.00  0.00     0.027 A 
ATOM      4  C4  DEN d   1       0.684  -4.155  -0.509  0.00  0.00     0.027 A 
ATOM      5  C5  DEN d   1       1.318  -4.240  -1.728  0.00  0.00    -0.003 A 
ATOM      6  C6  DEN d   1       2.345  -3.403  -2.077  0.00  0.00     0.001 A 
ATOM      7  C7  DEN d   1       2.798  -2.473  -1.179  0.00  0.00     0.017 A 
ATOM      8  C8  DEN d   1       2.158  -2.377   0.050  0.00  0.00    -0.094 A 
ATOM      9  C9  DEN d   1       1.130  -3.240   0.388  0.00  0.00    -0.072 A 
ENDROOT
TORSDOF 0
ENDMDL
