MODEL 1
REMARK minimizedAffinity 13.3330555
REMARK minimizedRMSD -1
REMARK  0 active torsions:
REMARK  status: ('A' for Active; 'I' for Inactive)
ROOT
ATOM      1  C1  DEN d   1       2.259  -5.098  -1.889  0.00  0.00     0.130 A 
ATOM      2  C2  DEN d   1       1.396  -4.477  -0.888  0.00  0.00    -0.031 A 
ATOM      3  C3  DEN d   1       2.259  -3.847   0.131  0.00  0.00     0.027 A 
ATOM      4  C4  DEN d   1       4.835  -3.770   0.253  0.00  0.00     0.027 A 
ATOM      5  C5  DEN d   1       6.000  -4.168  -0.365  0.00  0.00    -0.003 A 
ATOM      6  C6  DEN d   1       6.000  -4.926  -1.505  0.00  0.00     0.001 A 
ATOM      7  C7  DEN d   1       4.810  -5.273  -2.090  0.00  0.00     0.017 A 
ATOM      8  C8  DEN d   1       3.631  -4.882  -1.469  0.00  0.00    -0.094 A 
ATOM      9  C9  DEN d   1       3.652  -4.105  -0.323  0.00  0.00    -0.072 A 
ENDROOT
TORSDOF 0
ENDMDL
