MODEL 1
REMARK minimizedAffinity 6.5384531
REMARK minimizedRMSD -1
REMARK  0 active torsions:
REMARK  status: ('A' for Active; 'I' for Inactive)
ROOT
ATOM      1  C1  DEN d   1      -4.218   1.961  -2.619  0.00  0.00     0.130 A 
ATOM      2  C2  DEN d   1      -3.522   1.246  -3.685  0.00  0.00    -0.031 A 
ATOM      3  C3  DEN d   1      -3.187   2.218  -4.744  0.00  0.00     0.027 A 
ATOM      4  C4  DEN d   1      -3.672   4.750  -4.836  0.00  0.00     0.027 A 
ATOM      5  C5  DEN d   1      -4.251   5.807  -4.168  0.00  0.00    -0.003 A 
ATOM      6  C6  DEN d   1      -4.883   5.651  -2.963  0.00  0.00     0.001 A 
ATOM      7  C7  DEN d   1      -4.913   4.418  -2.366  0.00  0.00     0.017 A 
ATOM      8  C8  DEN d   1      -4.339   3.346  -3.037  0.00  0.00    -0.094 A 
ATOM      9  C9  DEN d   1      -3.693   3.526  -4.249  0.00  0.00    -0.072 A 
ENDROOT
TORSDOF 0
ENDMDL
