MODEL 1
REMARK minimizedAffinity 4.68253613
REMARK minimizedRMSD -1
REMARK  0 active torsions:
REMARK  status: ('A' for Active; 'I' for Inactive)
ROOT
ATOM      1  C1  DEN d   1      -3.669   2.146  -4.906  0.00  0.00     0.130 A 
ATOM      2  C2  DEN d   1      -3.874   1.076  -3.934  0.00  0.00    -0.031 A 
ATOM      3  C3  DEN d   1      -4.220   1.695  -2.639  0.00  0.00     0.027 A 
ATOM      4  C4  DEN d   1      -4.461   4.195  -2.049  0.00  0.00     0.027 A 
ATOM      5  C5  DEN d   1      -4.373   5.478  -2.542  0.00  0.00    -0.003 A 
ATOM      6  C6  DEN d   1      -4.013   5.740  -3.837  0.00  0.00     0.001 A 
ATOM      7  C7  DEN d   1      -3.773   4.701  -4.698  0.00  0.00     0.017 A 
ATOM      8  C8  DEN d   1      -3.853   3.405  -4.207  0.00  0.00    -0.094 A 
ATOM      9  C9  DEN d   1      -4.230   3.160  -2.897  0.00  0.00    -0.072 A 
ENDROOT
TORSDOF 0
ENDMDL
