MODEL 1
REMARK minimizedAffinity -1.1413976
REMARK minimizedRMSD -1
REMARK  0 active torsions:
REMARK  status: ('A' for Active; 'I' for Inactive)
ROOT
ATOM      1  C   UNL d   1      -0.215   1.350   1.603  0.00  0.00    -0.002 A 
ATOM      2  C1  UNL d   1      -0.533   0.938   0.316  0.00  0.00     0.010 A 
ATOM      3  C2  UNL d   1      -1.474  -0.072   0.106  0.00  0.00     0.041 A 
ATOM      4  C3  UNL d   1      -2.098  -0.665   1.221  0.00  0.00    -0.075 A 
ATOM      5  S   UNL d   1      -3.281  -1.919   1.205  0.00  0.00     0.015 SA
ATOM      6  C4  UNL d   1      -3.393  -1.937   2.905  0.00  0.00     0.022 A 
ATOM      7  C5  UNL d   1      -2.555  -1.016   3.487  0.00  0.00     0.026 A 
ATOM      8  C6  UNL d   1      -1.795  -0.267   2.526  0.00  0.00    -0.082 A 
ATOM      9  C7  UNL d   1      -0.836   0.758   2.706  0.00  0.00     0.045 A 
ENDROOT
TORSDOF 0
ENDMDL
