MODEL 1
REMARK minimizedAffinity 1.04106414
REMARK minimizedRMSD -1
REMARK  0 active torsions:
REMARK  status: ('A' for Active; 'I' for Inactive)
ROOT
ATOM      1  C   UNL d   1       0.762   0.150  -1.173  0.00  0.00    -0.002 A 
ATOM      2  C1  UNL d   1      -0.377  -0.634  -1.285  0.00  0.00     0.010 A 
ATOM      3  C2  UNL d   1      -1.265  -0.753  -0.214  0.00  0.00     0.041 A 
ATOM      4  C3  UNL d   1      -0.987  -0.062   0.982  0.00  0.00    -0.075 A 
ATOM      5  S   UNL d   1      -1.933  -0.059   2.423  0.00  0.00     0.015 SA
ATOM      6  C4  UNL d   1      -0.847   0.985   3.221  0.00  0.00     0.022 A 
ATOM      7  C5  UNL d   1       0.216   1.332   2.422  0.00  0.00     0.026 A 
ATOM      8  C6  UNL d   1       0.153   0.735   1.118  0.00  0.00    -0.082 A 
ATOM      9  C7  UNL d   1       1.034   0.834   0.015  0.00  0.00     0.045 A 
ENDROOT
TORSDOF 0
ENDMDL
