MODEL 1
REMARK minimizedAffinity -1.08078825
REMARK minimizedRMSD -1
REMARK  0 active torsions:
REMARK  status: ('A' for Active; 'I' for Inactive)
ROOT
ATOM      1  C   UNL d   1       0.177  -0.081  -1.406  0.00  0.00    -0.002 A 
ATOM      2  C1  UNL d   1      -1.102  -0.604  -1.538  0.00  0.00     0.010 A 
ATOM      3  C2  UNL d   1      -1.982  -0.611  -0.454  0.00  0.00     0.041 A 
ATOM      4  C3  UNL d   1      -1.552  -0.077   0.776  0.00  0.00    -0.075 A 
ATOM      5  S   UNL d   1      -2.457   0.021   2.240  0.00  0.00     0.015 SA
ATOM      6  C4  UNL d   1      -1.169   0.760   3.075  0.00  0.00     0.022 A 
ATOM      7  C5  UNL d   1      -0.066   0.935   2.272  0.00  0.00     0.026 A 
ATOM      8  C6  UNL d   1      -0.269   0.456   0.934  0.00  0.00    -0.082 A 
ATOM      9  C7  UNL d   1       0.600   0.448  -0.183  0.00  0.00     0.045 A 
ENDROOT
TORSDOF 0
ENDMDL
