MODEL 1
REMARK minimizedAffinity 4.0004034
REMARK minimizedRMSD -1
REMARK  0 active torsions:
REMARK  status: ('A' for Active; 'I' for Inactive)
ROOT
ATOM      1  C   UNL d   1       0.080  -0.610   0.390  0.00  0.00    -0.002 A 
ATOM      2  C1  UNL d   1      -1.191  -0.584  -0.166  0.00  0.00     0.010 A 
ATOM      3  C2  UNL d   1      -1.384  -0.143  -1.476  0.00  0.00     0.041 A 
ATOM      4  C3  UNL d   1      -0.267   0.275  -2.226  0.00  0.00    -0.075 A 
ATOM      5  S   UNL d   1      -0.263   0.854  -3.850  0.00  0.00     0.015 SA
ATOM      6  C4  UNL d   1       1.426   1.080  -3.845  0.00  0.00     0.022 A 
ATOM      7  C5  UNL d   1       1.990   0.728  -2.641  0.00  0.00     0.026 A 
ATOM      8  C6  UNL d   1       1.023   0.257  -1.689  0.00  0.00    -0.082 A 
ATOM      9  C7  UNL d   1       1.186  -0.195  -0.357  0.00  0.00     0.045 A 
ENDROOT
TORSDOF 0
ENDMDL
