MODEL 1
REMARK minimizedAffinity -1.74722528
REMARK minimizedRMSD -1
REMARK  0 active torsions:
REMARK  status: ('A' for Active; 'I' for Inactive)
ROOT
ATOM      1  C   UNL d   1       0.323   0.756   1.031  0.00  0.00    -0.002 A 
ATOM      2  C1  UNL d   1       0.448  -0.615   0.856  0.00  0.00     0.010 A 
ATOM      3  C2  UNL d   1       0.617  -1.156  -0.421  0.00  0.00     0.041 A 
ATOM      4  C3  UNL d   1       0.659  -0.287  -1.529  0.00  0.00    -0.075 A 
ATOM      5  S   UNL d   1       0.858  -0.723  -3.185  0.00  0.00     0.015 SA
ATOM      6  C4  UNL d   1       0.782   0.900  -3.699  0.00  0.00     0.022 A 
ATOM      7  C5  UNL d   1       0.609   1.767  -2.646  0.00  0.00     0.026 A 
ATOM      8  C6  UNL d   1       0.536   1.097  -1.378  0.00  0.00    -0.082 A 
ATOM      9  C7  UNL d   1       0.365   1.615  -0.071  0.00  0.00     0.045 A 
ENDROOT
TORSDOF 0
ENDMDL
