MODEL 1
REMARK minimizedAffinity -2.23996711
REMARK minimizedRMSD -1
REMARK  1 active torsions:
REMARK  status: ('A' for Active; 'I' for Inactive)
REMARK    1  A    between atoms: N_2  and  C1_3 
ROOT
ATOM      1  C1  UNL d   1       5.226   0.206   4.459  0.00  0.00     0.143 A 
ATOM      2  C2  UNL d   1       4.938   1.316   5.260  0.00  0.00    -0.057 A 
ATOM      3  C3  UNL d   1       5.146   2.620   4.794  0.00  0.00     0.033 A 
ATOM      4  C4  UNL d   1       5.674   2.836   3.525  0.00  0.00    -0.042 A 
ATOM      5  C5  UNL d   1       5.990   1.747   2.722  0.00  0.00     0.033 A 
ATOM      6  C6  UNL d   1       5.774   0.447   3.190  0.00  0.00    -0.057 A 
ENDROOT
BRANCH   1   7
ATOM      7  N   UNL d   1       5.134  -1.117   4.901  0.00  0.00    -0.732 N 
ATOM      8  C   UNL d   1       5.951  -1.585   5.999  0.00  0.00     0.284 C 
ATOM      9  H3  UNL d   1       4.174  -1.452   4.924  0.00  0.00     0.395 HD
ENDBRANCH   1   7
TORSDOF 1
ENDMDL
