MODEL 1
REMARK minimizedAffinity -2.19290829
REMARK minimizedRMSD -1
REMARK  1 active torsions:
REMARK  status: ('A' for Active; 'I' for Inactive)
REMARK    1  A    between atoms: N_2  and  C1_3 
ROOT
ATOM      1  C1  UNL d   1       5.999   1.975   4.700  0.00  0.00     0.143 A 
ATOM      2  C2  UNL d   1       5.921   1.309   5.927  0.00  0.00    -0.057 A 
ATOM      3  C3  UNL d   1       5.892  -0.090   5.994  0.00  0.00     0.033 A 
ATOM      4  C4  UNL d   1       5.912  -0.848   4.827  0.00  0.00    -0.042 A 
ATOM      5  C5  UNL d   1       5.965  -0.206   3.595  0.00  0.00     0.033 A 
ATOM      6  C6  UNL d   1       6.000   1.191   3.536  0.00  0.00    -0.057 A 
ENDROOT
BRANCH   1   7
ATOM      7  N   UNL d   1       5.932   3.364   4.564  0.00  0.00    -0.732 N 
ATOM      8  C   UNL d   1       6.000   3.981   3.256  0.00  0.00     0.284 C 
ATOM      9  H3  UNL d   1       5.244   3.782   5.186  0.00  0.00     0.395 HD
ENDBRANCH   1   7
TORSDOF 1
ENDMDL
