MODEL 1
REMARK minimizedAffinity -3.27742887
REMARK minimizedRMSD -1
REMARK  1 active torsions:
REMARK  status: ('A' for Active; 'I' for Inactive)
REMARK    1  A    between atoms: N_2  and  C1_3 
ROOT
ATOM      1  C1  UNL d   1       5.828   0.590   5.093  0.00  0.00     0.143 A 
ATOM      2  C2  UNL d   1       5.681   1.789   5.798  0.00  0.00    -0.057 A 
ATOM      3  C3  UNL d   1       5.659   3.023   5.136  0.00  0.00     0.033 A 
ATOM      4  C4  UNL d   1       5.814   3.080   3.755  0.00  0.00    -0.042 A 
ATOM      5  C5  UNL d   1       5.986   1.902   3.036  0.00  0.00     0.033 A 
ATOM      6  C6  UNL d   1       6.000   0.673   3.702  0.00  0.00    -0.057 A 
ENDROOT
BRANCH   1   7
ATOM      7  N   UNL d   1       5.955  -0.661   5.703  0.00  0.00    -0.732 N 
ATOM      8  C   UNL d   1       6.000  -1.868   4.907  0.00  0.00     0.284 C 
ATOM      9  H3  UNL d   1       6.615  -0.649   6.478  0.00  0.00     0.395 HD
ENDBRANCH   1   7
TORSDOF 1
ENDMDL
