MODEL 1
REMARK minimizedAffinity -3.63344908
REMARK minimizedRMSD -1
REMARK  1 active torsions:
REMARK  status: ('A' for Active; 'I' for Inactive)
REMARK    1  A    between atoms: N_2  and  C1_3 
ROOT
ATOM      1  C1  UNL d   1       5.688   1.207   4.630  0.00  0.00     0.143 A 
ATOM      2  C2  UNL d   1       5.336   0.023   5.286  0.00  0.00    -0.057 A 
ATOM      3  C3  UNL d   1       5.340  -1.207   4.617  0.00  0.00     0.033 A 
ATOM      4  C4  UNL d   1       5.670  -1.270   3.267  0.00  0.00    -0.042 A 
ATOM      5  C5  UNL d   1       5.998  -0.102   2.588  0.00  0.00     0.033 A 
ATOM      6  C6  UNL d   1       5.999   1.122   3.264  0.00  0.00    -0.057 A 
ENDROOT
BRANCH   1   7
ATOM      7  N   UNL d   1       5.607   2.474   5.214  0.00  0.00    -0.732 N 
ATOM      8  C   UNL d   1       5.850   3.665   4.429  0.00  0.00     0.284 C 
ATOM      9  H3  UNL d   1       4.826   2.555   5.861  0.00  0.00     0.395 HD
ENDBRANCH   1   7
TORSDOF 1
ENDMDL
