MODEL 1
REMARK minimizedAffinity -2.1389997
REMARK minimizedRMSD -1
REMARK  1 active torsions:
REMARK  status: ('A' for Active; 'I' for Inactive)
REMARK    1  A    between atoms: N_2  and  C1_3 
ROOT
ATOM      1  C1  UNL d   1       5.666   2.674   3.573  0.00  0.00     0.143 A 
ATOM      2  C2  UNL d   1       5.161   1.686   2.720  0.00  0.00    -0.057 A 
ATOM      3  C3  UNL d   1       4.944   0.378   3.172  0.00  0.00     0.033 A 
ATOM      4  C4  UNL d   1       5.256   0.028   4.481  0.00  0.00    -0.042 A 
ATOM      5  C5  UNL d   1       5.782   0.987   5.339  0.00  0.00     0.033 A 
ATOM      6  C6  UNL d   1       5.991   2.292   4.884  0.00  0.00    -0.057 A 
ENDROOT
BRANCH   1   7
ATOM      7  N   UNL d   1       5.996   3.966   3.157  0.00  0.00    -0.732 N 
ATOM      8  C   UNL d   1       5.999   5.065   4.098  0.00  0.00     0.284 C 
ATOM      9  H3  UNL d   1       6.775   3.976   2.503  0.00  0.00     0.395 HD
ENDBRANCH   1   7
TORSDOF 1
ENDMDL
