MODEL 1
REMARK minimizedAffinity -1.20882893
REMARK minimizedRMSD -1
REMARK  1 active torsions:
REMARK  status: ('A' for Active; 'I' for Inactive)
REMARK    1  A    between atoms: N_2  and  C1_3 
ROOT
ATOM      1  C1  UNL d   1       5.912   1.056   4.706  0.00  0.00     0.143 A 
ATOM      2  C2  UNL d   1       5.938   2.451   4.611  0.00  0.00    -0.057 A 
ATOM      3  C3  UNL d   1       5.966   3.094   3.367  0.00  0.00     0.033 A 
ATOM      4  C4  UNL d   1       5.999   2.349   2.193  0.00  0.00    -0.042 A 
ATOM      5  C5  UNL d   1       6.000   0.960   2.264  0.00  0.00     0.033 A 
ATOM      6  C6  UNL d   1       5.964   0.325   3.509  0.00  0.00    -0.057 A 
ENDROOT
BRANCH   1   7
ATOM      7  N   UNL d   1       5.982   0.357   5.913  0.00  0.00    -0.732 N 
ATOM      8  C   UNL d   1       5.526  -1.014   6.000  0.00  0.00     0.284 C 
ATOM      9  H3  UNL d   1       6.846   0.540   6.418  0.00  0.00     0.395 HD
ENDBRANCH   1   7
TORSDOF 1
ENDMDL
