MODEL 1
REMARK minimizedAffinity 0.298975646
REMARK minimizedRMSD -1
REMARK  1 active torsions:
REMARK  status: ('A' for Active; 'I' for Inactive)
REMARK    1  A    between atoms: N_2  and  C1_3 
ROOT
ATOM      1  C1  UNL d   1       5.273   0.519   4.429  0.00  0.00     0.143 A 
ATOM      2  C2  UNL d   1       4.508   0.656   3.265  0.00  0.00    -0.057 A 
ATOM      3  C3  UNL d   1       4.504   1.850   2.535  0.00  0.00     0.033 A 
ATOM      4  C4  UNL d   1       5.246   2.943   2.974  0.00  0.00    -0.042 A 
ATOM      5  C5  UNL d   1       5.993   2.837   4.141  0.00  0.00     0.033 A 
ATOM      6  C6  UNL d   1       5.998   1.639   4.862  0.00  0.00    -0.057 A 
ENDROOT
BRANCH   1   7
ATOM      7  N   UNL d   1       5.241  -0.610   5.252  0.00  0.00    -0.732 N 
ATOM      8  C   UNL d   1       5.939  -1.819   4.872  0.00  0.00     0.284 C 
ATOM      9  H3  UNL d   1       5.325  -0.374   6.238  0.00  0.00     0.395 HD
ENDBRANCH   1   7
TORSDOF 1
ENDMDL
