MODEL 1
REMARK minimizedAffinity -1.85180843
REMARK minimizedRMSD -1
REMARK  1 active torsions:
REMARK  status: ('A' for Active; 'I' for Inactive)
REMARK    1  A    between atoms: N_2  and  C1_3 
ROOT
ATOM      1  C1  UNL d   1       5.878   1.317   3.524  0.00  0.00     0.143 A 
ATOM      2  C2  UNL d   1       5.988   0.206   2.681  0.00  0.00    -0.057 A 
ATOM      3  C3  UNL d   1       5.964  -1.097   3.191  0.00  0.00     0.033 A 
ATOM      4  C4  UNL d   1       5.860  -1.313   4.561  0.00  0.00    -0.042 A 
ATOM      5  C5  UNL d   1       5.775  -0.223   5.420  0.00  0.00     0.033 A 
ATOM      6  C6  UNL d   1       5.792   1.076   4.904  0.00  0.00    -0.057 A 
ENDROOT
BRANCH   1   7
ATOM      7  N   UNL d   1       5.994   2.639   3.088  0.00  0.00    -0.732 N 
ATOM      8  C   UNL d   1       5.982   3.732   4.036  0.00  0.00     0.284 C 
ATOM      9  H3  UNL d   1       6.678   2.744   2.342  0.00  0.00     0.395 HD
ENDBRANCH   1   7
TORSDOF 1
ENDMDL
