MODEL 1
REMARK minimizedAffinity -3.72901797
REMARK minimizedRMSD -1
REMARK  1 active torsions:
REMARK  status: ('A' for Active; 'I' for Inactive)
REMARK    1  A    between atoms: N_2  and  C1_3 
ROOT
ATOM      1  C1  UNL d   1       5.491  -0.615   4.622  0.00  0.00     0.143 A 
ATOM      2  C2  UNL d   1       5.287   0.006   5.859  0.00  0.00    -0.057 A 
ATOM      3  C3  UNL d   1       5.303   1.401   5.982  0.00  0.00     0.033 A 
ATOM      4  C4  UNL d   1       5.553   2.201   4.872  0.00  0.00    -0.042 A 
ATOM      5  C5  UNL d   1       5.784   1.604   3.638  0.00  0.00     0.033 A 
ATOM      6  C6  UNL d   1       5.760   0.211   3.519  0.00  0.00    -0.057 A 
ENDROOT
BRANCH   1   7
ATOM      7  N   UNL d   1       5.585  -1.998   4.452  0.00  0.00    -0.732 N 
ATOM      8  C   UNL d   1       5.988  -2.850   5.551  0.00  0.00     0.284 C 
ATOM      9  H3  UNL d   1       4.823  -2.374   3.893  0.00  0.00     0.395 HD
ENDBRANCH   1   7
TORSDOF 1
ENDMDL
