MODEL 1
REMARK minimizedAffinity 1.25275934
REMARK minimizedRMSD -1
REMARK  1 active torsions:
REMARK  status: ('A' for Active; 'I' for Inactive)
REMARK    1  A    between atoms: N_2  and  C1_3 
ROOT
ATOM      1  C1  UNL d   1       5.911   1.577   3.850  0.00  0.00     0.143 A 
ATOM      2  C2  UNL d   1       5.945   0.331   3.215  0.00  0.00    -0.057 A 
ATOM      3  C3  UNL d   1       5.971  -0.859   3.953  0.00  0.00     0.033 A 
ATOM      4  C4  UNL d   1       5.994  -0.822   5.343  0.00  0.00    -0.042 A 
ATOM      5  C5  UNL d   1       5.987   0.406   5.995  0.00  0.00     0.033 A 
ATOM      6  C6  UNL d   1       5.954   1.590   5.253  0.00  0.00    -0.057 A 
ENDROOT
BRANCH   1   7
ATOM      7  N   UNL d   1       5.984   2.797   3.172  0.00  0.00    -0.732 N 
ATOM      8  C   UNL d   1       5.998   4.046   3.903  0.00  0.00     0.284 C 
ATOM      9  H3  UNL d   1       6.630   2.767   2.387  0.00  0.00     0.395 HD
ENDBRANCH   1   7
TORSDOF 1
ENDMDL
