MODEL 1
REMARK minimizedAffinity -2.35197377
REMARK minimizedRMSD -1
REMARK  1 active torsions:
REMARK  status: ('A' for Active; 'I' for Inactive)
REMARK    1  A    between atoms: N_2  and  C1_3 
ROOT
ATOM      1  C1  UNL d   1       5.964   2.097   4.080  0.00  0.00     0.143 A 
ATOM      2  C2  UNL d   1       5.884   1.885   5.460  0.00  0.00    -0.057 A 
ATOM      3  C3  UNL d   1       5.888   0.592   5.998  0.00  0.00     0.033 A 
ATOM      4  C4  UNL d   1       5.943  -0.517   5.159  0.00  0.00    -0.042 A 
ATOM      5  C5  UNL d   1       5.998  -0.330   3.782  0.00  0.00     0.033 A 
ATOM      6  C6  UNL d   1       6.000   0.963   3.252  0.00  0.00    -0.057 A 
ENDROOT
BRANCH   1   7
ATOM      7  N   UNL d   1       5.864   3.354   3.479  0.00  0.00    -0.732 N 
ATOM      8  C   UNL d   1       5.999   4.560   4.267  0.00  0.00     0.284 C 
ATOM      9  H3  UNL d   1       6.334   3.391   2.577  0.00  0.00     0.395 HD
ENDBRANCH   1   7
TORSDOF 1
ENDMDL
