MODEL 1
REMARK minimizedAffinity -4.01724863
REMARK minimizedRMSD -1
REMARK  1 active torsions:
REMARK  status: ('A' for Active; 'I' for Inactive)
REMARK    1  A    between atoms: N_2  and  C1_3 
ROOT
ATOM      1  C1  UNL d   1       5.327  -0.198   4.584  0.00  0.00     0.143 A 
ATOM      2  C2  UNL d   1       5.418   0.274   3.270  0.00  0.00    -0.057 A 
ATOM      3  C3  UNL d   1       5.464   1.645   2.993  0.00  0.00     0.033 A 
ATOM      4  C4  UNL d   1       5.391   2.573   4.027  0.00  0.00    -0.042 A 
ATOM      5  C5  UNL d   1       5.276   2.127   5.339  0.00  0.00     0.033 A 
ATOM      6  C6  UNL d   1       5.237   0.756   5.609  0.00  0.00    -0.057 A 
ENDROOT
BRANCH   1   7
ATOM      7  N   UNL d   1       5.178  -1.547   4.917  0.00  0.00    -0.732 N 
ATOM      8  C   UNL d   1       5.971  -2.137   5.975  0.00  0.00     0.284 C 
ATOM      9  H3  UNL d   1       4.205  -1.843   4.913  0.00  0.00     0.395 HD
ENDBRANCH   1   7
TORSDOF 1
ENDMDL
