MODEL 1
REMARK minimizedAffinity 27.8264027
REMARK minimizedRMSD -1
REMARK  0 active torsions:
REMARK  status: ('A' for Active; 'I' for Inactive)
ROOT
ATOM      1  C   UNL d   1      -0.894   2.636   2.560  0.00  0.00     0.124 A 
ATOM      2  C1  UNL d   1      -2.198   3.009   2.266  0.00  0.00     0.062 A 
ATOM      3  C2  UNL d   1      -3.092   2.077   1.748  0.00  0.00     0.162 A 
ATOM      4  C3  UNL d   1      -2.686   0.762   1.521  0.00  0.00    -0.034 A 
ATOM      5  C4  UNL d   1      -1.372   0.395   1.819  0.00  0.00     0.162 A 
ATOM      6  C5  UNL d   1      -0.482   1.330   2.336  0.00  0.00     0.062 A 
ATOM      7  F   UNL d   1       0.778   0.968   2.620  0.00  0.00    -0.097 F 
ATOM      8  F1  UNL d   1      -0.948  -0.861   1.613  0.00  0.00    -0.096 F 
ATOM      9  I   UNL d   1      -4.020  -0.635   0.747  0.00  0.00    -0.060 I 
ATOM     10  F2  UNL d   1      -4.347   2.464   1.473  0.00  0.00    -0.096 F 
ATOM     11  F3  UNL d   1      -2.598   4.270   2.480  0.00  0.00    -0.097 F 
ATOM     12  F4  UNL d   1      -0.035   3.536   3.058  0.00  0.00    -0.092 F 
ENDROOT
TORSDOF 0
ENDMDL
