MODEL 1
REMARK minimizedAffinity 18.1879425
REMARK minimizedRMSD -1
REMARK  0 active torsions:
REMARK  status: ('A' for Active; 'I' for Inactive)
ROOT
ATOM      1  C   UNL d   1      -0.735   2.381   2.443  0.00  0.00     0.124 A 
ATOM      2  C1  UNL d   1      -0.345   1.055   2.316  0.00  0.00     0.062 A 
ATOM      3  C2  UNL d   1      -1.218   0.117   1.772  0.00  0.00     0.162 A 
ATOM      4  C3  UNL d   1      -2.491   0.503   1.350  0.00  0.00    -0.034 A 
ATOM      5  C4  UNL d   1      -2.876   1.838   1.482  0.00  0.00     0.162 A 
ATOM      6  C5  UNL d   1      -2.000   2.771   2.026  0.00  0.00     0.062 A 
ATOM      7  F   UNL d   1      -2.378   4.052   2.148  0.00  0.00    -0.097 F 
ATOM      8  F1  UNL d   1      -4.092   2.243   1.086  0.00  0.00    -0.096 F 
ATOM      9  I   UNL d   1      -3.800  -0.896   0.536  0.00  0.00    -0.060 I 
ATOM     10  F2  UNL d   1      -0.815  -1.157   1.661  0.00  0.00    -0.096 F 
ATOM     11  F3  UNL d   1       0.876   0.675   2.719  0.00  0.00    -0.097 F 
ATOM     12  F4  UNL d   1       0.107   3.280   2.968  0.00  0.00    -0.092 F 
ENDROOT
TORSDOF 0
ENDMDL
