MODEL 1
REMARK minimizedAffinity 17.0511589
REMARK minimizedRMSD -1
REMARK  0 active torsions:
REMARK  status: ('A' for Active; 'I' for Inactive)
ROOT
ATOM      1  C   UNL d   1       2.406   3.723  -2.901  0.00  0.00     0.124 A 
ATOM      2  C1  UNL d   1       2.037   2.596  -2.179  0.00  0.00     0.062 A 
ATOM      3  C2  UNL d   1       2.168   1.330  -2.742  0.00  0.00     0.162 A 
ATOM      4  C3  UNL d   1       2.672   1.183  -4.035  0.00  0.00    -0.034 A 
ATOM      5  C4  UNL d   1       3.040   2.321  -4.755  0.00  0.00     0.162 A 
ATOM      6  C5  UNL d   1       2.907   3.584  -4.188  0.00  0.00     0.062 A 
ATOM      7  F   UNL d   1       3.264   4.671  -4.887  0.00  0.00    -0.097 F 
ATOM      8  F1  UNL d   1       3.527   2.216  -6.000  0.00  0.00    -0.096 F 
ATOM      9  I   UNL d   1       2.869  -0.709  -4.880  0.00  0.00    -0.060 I 
ATOM     10  F2  UNL d   1       1.804   0.259  -2.021  0.00  0.00    -0.096 F 
ATOM     11  F3  UNL d   1       1.552   2.727  -0.936  0.00  0.00    -0.097 F 
ATOM     12  F4  UNL d   1       2.278   4.940  -2.357  0.00  0.00    -0.092 F 
ENDROOT
TORSDOF 0
ENDMDL
