MODEL 1
REMARK minimizedAffinity -3.19942141
REMARK minimizedRMSD -1
REMARK  0 active torsions:
REMARK  status: ('A' for Active; 'I' for Inactive)
ROOT
ATOM      1  C   UNL d   1       0.650   0.023   2.073  0.00  0.00     0.124 A 
ATOM      2  C1  UNL d   1       1.309   0.380   0.905  0.00  0.00     0.062 A 
ATOM      3  C2  UNL d   1       0.699   0.184  -0.331  0.00  0.00     0.162 A 
ATOM      4  C3  UNL d   1      -0.579  -0.371  -0.405  0.00  0.00    -0.034 A 
ATOM      5  C4  UNL d   1      -1.235  -0.727   0.775  0.00  0.00     0.162 A 
ATOM      6  C5  UNL d   1      -0.621  -0.529   2.007  0.00  0.00     0.062 A 
ATOM      7  F   UNL d   1      -1.260  -0.874   3.135  0.00  0.00    -0.097 F 
ATOM      8  F1  UNL d   1      -2.465  -1.262   0.740  0.00  0.00    -0.096 F 
ATOM      9  I   UNL d   1      -1.494  -0.665  -2.250  0.00  0.00    -0.060 I 
ATOM     10  F2  UNL d   1       1.360   0.537  -1.443  0.00  0.00    -0.096 F 
ATOM     11  F3  UNL d   1       2.538   0.913   0.966  0.00  0.00    -0.097 F 
ATOM     12  F4  UNL d   1       1.239   0.212   3.261  0.00  0.00    -0.092 F 
ENDROOT
TORSDOF 0
ENDMDL
