MODEL 1
REMARK minimizedAffinity -5.08504772
REMARK minimizedRMSD -1
REMARK  0 active torsions:
REMARK  status: ('A' for Active; 'I' for Inactive)
ROOT
ATOM      1  C   UNL d   1      -1.780  -1.018  -3.655  0.00  0.00     0.124 A 
ATOM      2  C1  UNL d   1      -0.413  -1.258  -3.608  0.00  0.00     0.062 A 
ATOM      3  C2  UNL d   1       0.335  -0.833  -2.515  0.00  0.00     0.162 A 
ATOM      4  C3  UNL d   1      -0.282  -0.163  -1.458  0.00  0.00    -0.034 A 
ATOM      5  C4  UNL d   1      -1.656   0.076  -1.513  0.00  0.00     0.162 A 
ATOM      6  C5  UNL d   1      -2.399  -0.352  -2.608  0.00  0.00     0.062 A 
ATOM      7  F   UNL d   1      -3.719  -0.119  -2.652  0.00  0.00    -0.097 F 
ATOM      8  F1  UNL d   1      -2.281   0.717  -0.514  0.00  0.00    -0.096 F 
ATOM      9  I   UNL d   1       0.834   0.475   0.180  0.00  0.00    -0.060 I 
ATOM     10  F2  UNL d   1       1.654  -1.079  -2.496  0.00  0.00    -0.096 F 
ATOM     11  F3  UNL d   1       0.188  -1.902  -4.619  0.00  0.00    -0.097 F 
ATOM     12  F4  UNL d   1      -2.497  -1.428  -4.709  0.00  0.00    -0.092 F 
ENDROOT
TORSDOF 0
ENDMDL
