MODEL 1
REMARK minimizedAffinity 3.06946611
REMARK minimizedRMSD -1
REMARK  0 active torsions:
REMARK  status: ('A' for Active; 'I' for Inactive)
ROOT
ATOM      1  C   UNL d   1       1.470  -1.189  -2.441  0.00  0.00     0.124 A 
ATOM      2  C1  UNL d   1       0.664  -2.192  -2.961  0.00  0.00     0.062 A 
ATOM      3  C2  UNL d   1      -0.709  -2.178  -2.729  0.00  0.00     0.162 A 
ATOM      4  C3  UNL d   1      -1.284  -1.157  -1.974  0.00  0.00    -0.034 A 
ATOM      5  C4  UNL d   1      -0.467  -0.152  -1.453  0.00  0.00     0.162 A 
ATOM      6  C5  UNL d   1       0.904  -0.170  -1.688  0.00  0.00     0.062 A 
ATOM      7  F   UNL d   1       1.681   0.800  -1.184  0.00  0.00    -0.097 F 
ATOM      8  F1  UNL d   1      -0.988   0.845  -0.722  0.00  0.00    -0.096 F 
ATOM      9  I   UNL d   1      -3.336  -1.133  -1.625  0.00  0.00    -0.060 I 
ATOM     10  F2  UNL d   1      -1.463  -3.161  -3.244  0.00  0.00    -0.096 F 
ATOM     11  F3  UNL d   1       1.208  -3.178  -3.689  0.00  0.00    -0.097 F 
ATOM     12  F4  UNL d   1       2.790  -1.205  -2.665  0.00  0.00    -0.092 F 
ENDROOT
TORSDOF 0
ENDMDL
