MODEL 1
REMARK minimizedAffinity 9.52412796
REMARK minimizedRMSD -1
REMARK  0 active torsions:
REMARK  status: ('A' for Active; 'I' for Inactive)
ROOT
ATOM      1  C   UNL d   1       1.029   0.477   1.777  0.00  0.00     0.124 A 
ATOM      2  C1  UNL d   1       2.147  -0.163   1.258  0.00  0.00     0.062 A 
ATOM      3  C2  UNL d   1       2.218  -0.458  -0.100  0.00  0.00     0.162 A 
ATOM      4  C3  UNL d   1       1.168  -0.113  -0.951  0.00  0.00    -0.034 A 
ATOM      5  C4  UNL d   1       0.046   0.529  -0.422  0.00  0.00     0.162 A 
ATOM      6  C5  UNL d   1      -0.020   0.822   0.936  0.00  0.00     0.062 A 
ATOM      7  F   UNL d   1      -1.100   1.439   1.435  0.00  0.00    -0.097 F 
ATOM      8  F1  UNL d   1      -0.982   0.875  -1.212  0.00  0.00    -0.096 F 
ATOM      9  I   UNL d   1       1.270  -0.552  -2.983  0.00  0.00    -0.060 I 
ATOM     10  F2  UNL d   1       3.310  -1.076  -0.574  0.00  0.00    -0.096 F 
ATOM     11  F3  UNL d   1       3.162  -0.498   2.068  0.00  0.00    -0.097 F 
ATOM     12  F4  UNL d   1       0.964   0.758   3.084  0.00  0.00    -0.092 F 
ENDROOT
TORSDOF 0
ENDMDL
