MODEL 1
REMARK minimizedAffinity -4.43613577
REMARK minimizedRMSD -1
REMARK  0 active torsions:
REMARK  status: ('A' for Active; 'I' for Inactive)
ROOT
ATOM      1  C   UNL d   1      -2.287  -0.351   0.718  0.00  0.00     0.124 A 
ATOM      2  C1  UNL d   1      -1.605  -0.113  -0.467  0.00  0.00     0.062 A 
ATOM      3  C2  UNL d   1      -0.241   0.162  -0.446  0.00  0.00     0.162 A 
ATOM      4  C3  UNL d   1       0.451   0.200   0.765  0.00  0.00    -0.034 A 
ATOM      5  C4  UNL d   1      -0.242  -0.039   1.953  0.00  0.00     0.162 A 
ATOM      6  C5  UNL d   1      -1.606  -0.314   1.926  0.00  0.00     0.062 A 
ATOM      7  F   UNL d   1      -2.263  -0.544   3.072  0.00  0.00    -0.097 F 
ATOM      8  F1  UNL d   1       0.392  -0.010   3.134  0.00  0.00    -0.096 F 
ATOM      9  I   UNL d   1       2.491   0.612   0.801  0.00  0.00    -0.060 I 
ATOM     10  F2  UNL d   1       0.393   0.389  -1.606  0.00  0.00    -0.096 F 
ATOM     11  F3  UNL d   1      -2.261  -0.148  -1.635  0.00  0.00    -0.097 F 
ATOM     12  F4  UNL d   1      -3.600  -0.615   0.695  0.00  0.00    -0.092 F 
ENDROOT
TORSDOF 0
ENDMDL
