MODEL 1
REMARK minimizedAffinity -3.78681087
REMARK minimizedRMSD -1
REMARK  0 active torsions:
REMARK  status: ('A' for Active; 'I' for Inactive)
ROOT
ATOM      1  C   UNL d   1      -1.695  -0.784  -3.047  0.00  0.00     0.124 A 
ATOM      2  C1  UNL d   1      -0.311  -0.880  -3.086  0.00  0.00     0.062 A 
ATOM      3  C2  UNL d   1       0.451  -0.469  -1.996  0.00  0.00     0.162 A 
ATOM      4  C3  UNL d   1      -0.170   0.041  -0.856  0.00  0.00    -0.034 A 
ATOM      5  C4  UNL d   1      -1.563   0.136  -0.824  0.00  0.00     0.162 A 
ATOM      6  C5  UNL d   1      -2.320  -0.276  -1.916  0.00  0.00     0.062 A 
ATOM      7  F   UNL d   1      -3.657  -0.183  -1.876  0.00  0.00    -0.097 F 
ATOM      8  F1  UNL d   1      -2.192   0.621   0.257  0.00  0.00    -0.096 F 
ATOM      9  I   UNL d   1       0.965   0.656   0.777  0.00  0.00    -0.060 I 
ATOM     10  F2  UNL d   1       1.786  -0.573  -2.062  0.00  0.00    -0.096 F 
ATOM     11  F3  UNL d   1       0.295  -1.369  -4.178  0.00  0.00    -0.097 F 
ATOM     12  F4  UNL d   1      -2.425  -1.179  -4.097  0.00  0.00    -0.092 F 
ENDROOT
TORSDOF 0
ENDMDL
