MODEL 1
REMARK minimizedAffinity 2.98163795
REMARK minimizedRMSD -1
REMARK  0 active torsions:
REMARK  status: ('A' for Active; 'I' for Inactive)
ROOT
ATOM      1  C   UNL d   1      -1.441  -1.648  -2.593  0.00  0.00     0.124 A 
ATOM      2  C1  UNL d   1      -2.046  -0.731  -1.745  0.00  0.00     0.062 A 
ATOM      3  C2  UNL d   1      -1.271   0.059  -0.900  0.00  0.00     0.162 A 
ATOM      4  C3  UNL d   1       0.118  -0.064  -0.900  0.00  0.00    -0.034 A 
ATOM      5  C4  UNL d   1       0.720  -0.989  -1.755  0.00  0.00     0.162 A 
ATOM      6  C5  UNL d   1      -0.059  -1.776  -2.597  0.00  0.00     0.062 A 
ATOM      7  F   UNL d   1       0.527  -2.662  -3.416  0.00  0.00    -0.097 F 
ATOM      8  F1  UNL d   1       2.053  -1.133  -1.781  0.00  0.00    -0.096 F 
ATOM      9  I   UNL d   1       1.281   1.115   0.361  0.00  0.00    -0.060 I 
ATOM     10  F2  UNL d   1      -1.882   0.937  -0.091  0.00  0.00    -0.096 F 
ATOM     11  F3  UNL d   1      -3.381  -0.605  -1.738  0.00  0.00    -0.097 F 
ATOM     12  F4  UNL d   1      -2.189  -2.407  -3.404  0.00  0.00    -0.092 F 
ENDROOT
TORSDOF 0
ENDMDL
