MODEL 1
REMARK minimizedAffinity -3.56661749
REMARK minimizedRMSD -1
REMARK  0 active torsions:
REMARK  status: ('A' for Active; 'I' for Inactive)
ROOT
ATOM      1  C   UNL d   1      -1.821  -1.042  -3.001  0.00  0.00     0.124 A 
ATOM      2  C1  UNL d   1      -2.231  -0.786  -1.700  0.00  0.00     0.062 A 
ATOM      3  C2  UNL d   1      -1.297  -0.440  -0.727  0.00  0.00     0.162 A 
ATOM      4  C3  UNL d   1       0.057  -0.348  -1.053  0.00  0.00    -0.034 A 
ATOM      5  C4  UNL d   1       0.461  -0.608  -2.363  0.00  0.00     0.162 A 
ATOM      6  C5  UNL d   1      -0.477  -0.954  -3.331  0.00  0.00     0.062 A 
ATOM      7  F   UNL d   1      -0.079  -1.201  -4.588  0.00  0.00    -0.097 F 
ATOM      8  F1  UNL d   1       1.754  -0.529  -2.710  0.00  0.00    -0.096 F 
ATOM      9  I   UNL d   1       1.457   0.169   0.398  0.00  0.00    -0.060 I 
ATOM     10  F2  UNL d   1      -1.720  -0.197   0.522  0.00  0.00    -0.096 F 
ATOM     11  F3  UNL d   1      -3.529  -0.872  -1.377  0.00  0.00    -0.097 F 
ATOM     12  F4  UNL d   1      -2.722  -1.376  -3.934  0.00  0.00    -0.092 F 
ENDROOT
TORSDOF 0
ENDMDL
