MODEL 1
REMARK minimizedAffinity -0.865057468
REMARK minimizedRMSD -1
REMARK  0 active torsions:
REMARK  status: ('A' for Active; 'I' for Inactive)
ROOT
ATOM      1  C   UNL d   1      -2.603  -1.236  -1.590  0.00  0.00     0.124 A 
ATOM      2  C1  UNL d   1      -1.907  -0.187  -1.004  0.00  0.00     0.062 A 
ATOM      3  C2  UNL d   1      -0.564   0.019  -1.309  0.00  0.00     0.162 A 
ATOM      4  C3  UNL d   1       0.091  -0.824  -2.206  0.00  0.00    -0.034 A 
ATOM      5  C4  UNL d   1      -0.615  -1.877  -2.791  0.00  0.00     0.162 A 
ATOM      6  C5  UNL d   1      -1.957  -2.079  -2.482  0.00  0.00     0.062 A 
ATOM      7  F   UNL d   1      -2.627  -3.092  -3.050  0.00  0.00    -0.097 F 
ATOM      8  F1  UNL d   1      -0.016  -2.707  -3.658  0.00  0.00    -0.096 F 
ATOM      9  I   UNL d   1       2.098  -0.519  -2.665  0.00  0.00    -0.060 I 
ATOM     10  F2  UNL d   1       0.083   1.040  -0.728  0.00  0.00    -0.096 F 
ATOM     11  F3  UNL d   1      -2.528   0.628  -0.140  0.00  0.00    -0.097 F 
ATOM     12  F4  UNL d   1      -3.894  -1.432  -1.293  0.00  0.00    -0.092 F 
ENDROOT
TORSDOF 0
ENDMDL
