MODEL 1
REMARK minimizedAffinity 1.74092495
REMARK minimizedRMSD -1
REMARK  0 active torsions:
REMARK  status: ('A' for Active; 'I' for Inactive)
ROOT
ATOM      1  C   UNL d   1      -1.508   0.239  -0.423  0.00  0.00     0.124 A 
ATOM      2  C1  UNL d   1      -1.906  -0.780  -1.277  0.00  0.00     0.062 A 
ATOM      3  C2  UNL d   1      -0.977  -1.405  -2.103  0.00  0.00     0.162 A 
ATOM      4  C3  UNL d   1       0.362  -1.012  -2.080  0.00  0.00    -0.034 A 
ATOM      5  C4  UNL d   1       0.755   0.014  -1.219  0.00  0.00     0.162 A 
ATOM      6  C5  UNL d   1      -0.178   0.635  -0.395  0.00  0.00     0.062 A 
ATOM      7  F   UNL d   1       0.209   1.620   0.429  0.00  0.00    -0.097 F 
ATOM      8  F1  UNL d   1       2.034   0.416  -1.171  0.00  0.00    -0.096 F 
ATOM      9  I   UNL d   1       1.755  -1.943  -3.314  0.00  0.00    -0.060 I 
ATOM     10  F2  UNL d   1      -1.390  -2.387  -2.918  0.00  0.00    -0.096 F 
ATOM     11  F3  UNL d   1      -3.191  -1.164  -1.307  0.00  0.00    -0.097 F 
ATOM     12  F4  UNL d   1      -2.405   0.839   0.370  0.00  0.00    -0.092 F 
ENDROOT
TORSDOF 0
ENDMDL
