MODEL 1
REMARK minimizedAffinity -0.305896282
REMARK minimizedRMSD -1
REMARK  0 active torsions:
REMARK  status: ('A' for Active; 'I' for Inactive)
ROOT
ATOM      1  C   UNL d   1      -1.932  -0.126  -0.281  0.00  0.00     0.124 A 
ATOM      2  C1  UNL d   1      -2.156  -0.761  -1.495  0.00  0.00     0.062 A 
ATOM      3  C2  UNL d   1      -1.083  -1.109  -2.311  0.00  0.00     0.162 A 
ATOM      4  C3  UNL d   1       0.224  -0.824  -1.915  0.00  0.00    -0.034 A 
ATOM      5  C4  UNL d   1       0.441  -0.184  -0.693  0.00  0.00     0.162 A 
ATOM      6  C5  UNL d   1      -0.635   0.162   0.118  0.00  0.00     0.062 A 
ATOM      7  F   UNL d   1      -0.417   0.775   1.291  0.00  0.00    -0.097 F 
ATOM      8  F1  UNL d   1       1.684   0.105  -0.282  0.00  0.00    -0.096 F 
ATOM      9  I   UNL d   1       1.830  -1.342  -3.133  0.00  0.00    -0.060 I 
ATOM     10  F2  UNL d   1      -1.328  -1.721  -3.479  0.00  0.00    -0.096 F 
ATOM     11  F3  UNL d   1      -3.408  -1.039  -1.884  0.00  0.00    -0.097 F 
ATOM     12  F4  UNL d   1      -2.966   0.208   0.501  0.00  0.00    -0.092 F 
ENDROOT
TORSDOF 0
ENDMDL
