MODEL 1
REMARK minimizedAffinity -5.18536186
REMARK minimizedRMSD -1
REMARK  0 active torsions:
REMARK  status: ('A' for Active; 'I' for Inactive)
ROOT
ATOM      1  C   UNL d   1       0.130   0.376   2.152  0.00  0.00     0.124 A 
ATOM      2  C1  UNL d   1      -1.161  -0.110   2.304  0.00  0.00     0.062 A 
ATOM      3  C2  UNL d   1      -1.920  -0.443   1.185  0.00  0.00     0.162 A 
ATOM      4  C3  UNL d   1      -1.388  -0.292  -0.096  0.00  0.00    -0.034 A 
ATOM      5  C4  UNL d   1      -0.089   0.198  -0.240  0.00  0.00     0.162 A 
ATOM      6  C5  UNL d   1       0.665   0.530   0.881  0.00  0.00     0.062 A 
ATOM      7  F   UNL d   1       1.912   0.999   0.733  0.00  0.00    -0.097 F 
ATOM      8  F1  UNL d   1       0.453   0.356  -1.457  0.00  0.00    -0.096 F 
ATOM      9  I   UNL d   1      -2.519  -0.789  -1.771  0.00  0.00    -0.060 I 
ATOM     10  F2  UNL d   1      -3.164  -0.910   1.362  0.00  0.00    -0.096 F 
ATOM     11  F3  UNL d   1      -1.680  -0.258   3.531  0.00  0.00    -0.097 F 
ATOM     12  F4  UNL d   1       0.857   0.697   3.230  0.00  0.00    -0.092 F 
ENDROOT
TORSDOF 0
ENDMDL
