MODEL 1
REMARK minimizedAffinity -3.81506324
REMARK minimizedRMSD -1
REMARK  0 active torsions:
REMARK  status: ('A' for Active; 'I' for Inactive)
ROOT
ATOM      1  C   UNL d   1       0.300   0.690   2.133  0.00  0.00     0.124 A 
ATOM      2  C1  UNL d   1       0.812   0.728   0.843  0.00  0.00     0.062 A 
ATOM      3  C2  UNL d   1       0.012   0.370  -0.238  0.00  0.00     0.162 A 
ATOM      4  C3  UNL d   1      -1.309  -0.029  -0.035  0.00  0.00    -0.034 A 
ATOM      5  C4  UNL d   1      -1.817  -0.065   1.265  0.00  0.00     0.162 A 
ATOM      6  C5  UNL d   1      -1.014   0.294   2.343  0.00  0.00     0.062 A 
ATOM      7  F   UNL d   1      -1.510   0.257   3.588  0.00  0.00    -0.097 F 
ATOM      8  F1  UNL d   1      -3.083  -0.443   1.496  0.00  0.00    -0.096 F 
ATOM      9  I   UNL d   1      -2.508  -0.565  -1.649  0.00  0.00    -0.060 I 
ATOM     10  F2  UNL d   1       0.533   0.415  -1.473  0.00  0.00    -0.096 F 
ATOM     11  F3  UNL d   1       2.081   1.110   0.638  0.00  0.00    -0.097 F 
ATOM     12  F4  UNL d   1       1.072   1.035   3.172  0.00  0.00    -0.092 F 
ENDROOT
TORSDOF 0
ENDMDL
