MODEL 1
REMARK minimizedAffinity 15.5309982
REMARK minimizedRMSD -1
REMARK  0 active torsions:
REMARK  status: ('A' for Active; 'I' for Inactive)
ROOT
ATOM      1  O1  BZF d   1      -3.806  -5.481  -4.403  0.00  0.00    -0.204 OA
ATOM      2  C2  BZF d   1      -3.623  -5.968  -5.683  0.00  0.00     0.174 A 
ATOM      3  C3  BZF d   1      -2.313  -6.000  -6.000  0.00  0.00    -0.012 A 
ATOM      4  C3A BZF d   1      -1.628  -5.588  -4.813  0.00  0.00    -0.107 A 
ATOM      5  C4  BZF d   1      -0.309  -5.434  -4.496  0.00  0.00     0.055 A 
ATOM      6  C5  BZF d   1       0.023  -4.946  -3.272  0.00  0.00    -0.016 A 
ATOM      7  C6  BZF d   1      -0.936  -4.597  -2.344  0.00  0.00     0.022 A 
ATOM      8  C7  BZF d   1      -2.257  -4.736  -2.612  0.00  0.00     0.029 A 
ATOM      9  C7A BZF d   1      -2.596  -5.261  -3.835  0.00  0.00     0.058 A 
ENDROOT
TORSDOF 0
ENDMDL
