MODEL 1
REMARK minimizedAffinity 17.9979172
REMARK minimizedRMSD -1
REMARK  0 active torsions:
REMARK  status: ('A' for Active; 'I' for Inactive)
ROOT
ATOM      1  O1  BZF d   1      -4.799  -0.278  -2.836  0.00  0.00    -0.204 OA
ATOM      2  C2  BZF d   1      -5.131   0.095  -1.548  0.00  0.00     0.174 A 
ATOM      3  C3  BZF d   1      -4.876   1.404  -1.347  0.00  0.00    -0.012 A 
ATOM      4  C3A BZF d   1      -4.438   1.900  -2.615  0.00  0.00    -0.107 A 
ATOM      5  C4  BZF d   1      -4.052   3.133  -3.059  0.00  0.00     0.055 A 
ATOM      6  C5  BZF d   1      -3.612   3.267  -4.337  0.00  0.00    -0.016 A 
ATOM      7  C6  BZF d   1      -3.539   2.191  -5.197  0.00  0.00     0.022 A 
ATOM      8  C7  BZF d   1      -3.915   0.949  -4.804  0.00  0.00     0.029 A 
ATOM      9  C7A BZF d   1      -4.392   0.817  -3.523  0.00  0.00     0.058 A 
ENDROOT
TORSDOF 0
ENDMDL
