MODEL 1
REMARK minimizedAffinity 9.07479763
REMARK minimizedRMSD -1
REMARK  0 active torsions:
REMARK  status: ('A' for Active; 'I' for Inactive)
ROOT
ATOM      1  O1  BZF d   1       4.366  -5.890  -1.064  0.00  0.00    -0.204 OA
ATOM      2  C2  BZF d   1       5.603  -5.522  -0.572  0.00  0.00     0.174 A 
ATOM      3  C3  BZF d   1       5.622  -4.212  -0.254  0.00  0.00    -0.012 A 
ATOM      4  C3A BZF d   1       4.286  -3.751  -0.480  0.00  0.00    -0.107 A 
ATOM      5  C4  BZF d   1       3.672  -2.540  -0.329  0.00  0.00     0.055 A 
ATOM      6  C5  BZF d   1       2.374  -2.406  -0.708  0.00  0.00    -0.016 A 
ATOM      7  C6  BZF d   1       1.662  -3.459  -1.246  0.00  0.00     0.022 A 
ATOM      8  C7  BZF d   1       2.227  -4.680  -1.410  0.00  0.00     0.029 A 
ATOM      9  C7A BZF d   1       3.528  -4.827  -0.997  0.00  0.00     0.058 A 
ENDROOT
TORSDOF 0
ENDMDL
