MODEL 1
REMARK minimizedAffinity 1.11764765
REMARK minimizedRMSD -1
REMARK  0 active torsions:
REMARK  status: ('A' for Active; 'I' for Inactive)
ROOT
ATOM      1  O1  BZF d   1      -2.482  -5.940  -5.239  0.00  0.00    -0.204 OA
ATOM      2  C2  BZF d   1      -1.536  -4.935  -5.301  0.00  0.00     0.174 A 
ATOM      3  C3  BZF d   1      -2.108  -3.758  -5.626  0.00  0.00    -0.012 A 
ATOM      4  C3A BZF d   1      -3.512  -4.027  -5.686  0.00  0.00    -0.107 A 
ATOM      5  C4  BZF d   1      -4.606  -3.252  -5.947  0.00  0.00     0.055 A 
ATOM      6  C5  BZF d   1      -5.832  -3.836  -6.000  0.00  0.00    -0.016 A 
ATOM      7  C6  BZF d   1      -6.000  -5.191  -5.802  0.00  0.00     0.022 A 
ATOM      8  C7  BZF d   1      -4.945  -5.999  -5.535  0.00  0.00     0.029 A 
ATOM      9  C7A BZF d   1      -3.709  -5.406  -5.448  0.00  0.00     0.058 A 
ENDROOT
TORSDOF 0
ENDMDL
