MODEL 1
REMARK minimizedAffinity 5.71769142
REMARK minimizedRMSD -1
REMARK  0 active torsions:
REMARK  status: ('A' for Active; 'I' for Inactive)
ROOT
ATOM      1  O1  BZF d   1       1.144   3.036  -0.681  0.00  0.00    -0.204 OA
ATOM      2  C2  BZF d   1       0.106   3.630  -1.373  0.00  0.00     0.174 A 
ATOM      3  C3  BZF d   1      -1.053   3.511  -0.693  0.00  0.00    -0.012 A 
ATOM      4  C3A BZF d   1      -0.701   2.879   0.542  0.00  0.00    -0.107 A 
ATOM      5  C4  BZF d   1      -1.418   2.505   1.643  0.00  0.00     0.055 A 
ATOM      6  C5  BZF d   1      -0.787   1.844   2.648  0.00  0.00    -0.016 A 
ATOM      7  C6  BZF d   1       0.556   1.534   2.583  0.00  0.00     0.022 A 
ATOM      8  C7  BZF d   1       1.309   1.888   1.514  0.00  0.00     0.029 A 
ATOM      9  C7A BZF d   1       0.682   2.586   0.511  0.00  0.00     0.058 A 
ENDROOT
TORSDOF 0
ENDMDL
