MODEL 1
REMARK minimizedAffinity 9.616745
REMARK minimizedRMSD -1
REMARK  0 active torsions:
REMARK  status: ('A' for Active; 'I' for Inactive)
ROOT
ATOM      1  O1  BZF d   1       1.012  -4.235  -3.018  0.00  0.00    -0.204 OA
ATOM      2  C2  BZF d   1       0.468  -4.329  -1.751  0.00  0.00     0.174 A 
ATOM      3  C3  BZF d   1       1.331  -4.926  -0.903  0.00  0.00    -0.012 A 
ATOM      4  C3A BZF d   1       2.522  -5.140  -1.666  0.00  0.00    -0.107 A 
ATOM      5  C4  BZF d   1       3.740  -5.682  -1.373  0.00  0.00     0.055 A 
ATOM      6  C5  BZF d   1       4.662  -5.810  -2.363  0.00  0.00    -0.016 A 
ATOM      7  C6  BZF d   1       4.397  -5.413  -3.657  0.00  0.00     0.022 A 
ATOM      8  C7  BZF d   1       3.204  -4.866  -3.996  0.00  0.00     0.029 A 
ATOM      9  C7A BZF d   1       2.283  -4.704  -2.990  0.00  0.00     0.058 A 
ENDROOT
TORSDOF 0
ENDMDL
