MODEL 1
REMARK minimizedAffinity 18.6434422
REMARK minimizedRMSD -1
REMARK  0 active torsions:
REMARK  status: ('A' for Active; 'I' for Inactive)
ROOT
ATOM      1  O1  BZF d   1       0.879  -4.019   0.216  0.00  0.00    -0.204 OA
ATOM      2  C2  BZF d   1       1.936  -3.322   0.769  0.00  0.00     0.174 A 
ATOM      3  C3  BZF d   1       2.965  -3.246  -0.098  0.00  0.00    -0.012 A 
ATOM      4  C3A BZF d   1       2.490  -3.858  -1.301  0.00  0.00    -0.107 A 
ATOM      5  C4  BZF d   1       3.047  -4.073  -2.529  0.00  0.00     0.055 A 
ATOM      6  C5  BZF d   1       2.343  -4.764  -3.463  0.00  0.00    -0.016 A 
ATOM      7  C6  BZF d   1       1.082  -5.259  -3.201  0.00  0.00     0.022 A 
ATOM      8  C7  BZF d   1       0.485  -5.067  -1.999  0.00  0.00     0.029 A 
ATOM      9  C7A BZF d   1       1.182  -4.340  -1.065  0.00  0.00     0.058 A 
ENDROOT
TORSDOF 0
ENDMDL
