MODEL 1
REMARK minimizedAffinity 6.60473061
REMARK minimizedRMSD -1
REMARK  0 active torsions:
REMARK  status: ('A' for Active; 'I' for Inactive)
ROOT
ATOM      1  O1  BZF d   1      -0.207   2.265   3.223  0.00  0.00    -0.204 OA
ATOM      2  C2  BZF d   1       1.087   1.966   2.843  0.00  0.00     0.174 A 
ATOM      3  C3  BZF d   1       1.221   2.034   1.503  0.00  0.00    -0.012 A 
ATOM      4  C3A BZF d   1      -0.048   2.488   1.021  0.00  0.00    -0.107 A 
ATOM      5  C4  BZF d   1      -0.535   2.766  -0.224  0.00  0.00     0.055 A 
ATOM      6  C5  BZF d   1      -1.840   3.119  -0.360  0.00  0.00    -0.016 A 
ATOM      7  C6  BZF d   1      -2.687   3.199   0.726  0.00  0.00     0.022 A 
ATOM      8  C7  BZF d   1      -2.248   2.938   1.982  0.00  0.00     0.029 A 
ATOM      9  C7A BZF d   1      -0.922   2.613   2.126  0.00  0.00     0.058 A 
ENDROOT
TORSDOF 0
ENDMDL
