MODEL 1
REMARK minimizedAffinity 9.31960392
REMARK minimizedRMSD -1
REMARK  0 active torsions:
REMARK  status: ('A' for Active; 'I' for Inactive)
ROOT
ATOM      1  O1  BZF d   1       0.707   4.846  -2.072  0.00  0.00    -0.204 OA
ATOM      2  C2  BZF d   1      -0.057   5.995  -2.114  0.00  0.00     0.174 A 
ATOM      3  C3  BZF d   1      -1.066   5.932  -1.221  0.00  0.00    -0.012 A 
ATOM      4  C3A BZF d   1      -0.868   4.703  -0.516  0.00  0.00    -0.107 A 
ATOM      5  C4  BZF d   1      -1.536   4.088   0.504  0.00  0.00     0.055 A 
ATOM      6  C5  BZF d   1      -1.127   2.858   0.914  0.00  0.00    -0.016 A 
ATOM      7  C6  BZF d   1      -0.060   2.213   0.323  0.00  0.00     0.022 A 
ATOM      8  C7  BZF d   1       0.636   2.786  -0.688  0.00  0.00     0.029 A 
ATOM      9  C7A BZF d   1       0.247   4.043  -1.083  0.00  0.00     0.058 A 
ENDROOT
TORSDOF 0
ENDMDL
