MODEL 1
REMARK minimizedAffinity 11.319376
REMARK minimizedRMSD -1
REMARK  0 active torsions:
REMARK  status: ('A' for Active; 'I' for Inactive)
ROOT
ATOM      1  O1  BZF d   1       2.720  -3.833  -4.097  0.00  0.00    -0.204 OA
ATOM      2  C2  BZF d   1       1.916  -2.900  -4.723  0.00  0.00     0.174 A 
ATOM      3  C3  BZF d   1       0.843  -2.605  -3.961  0.00  0.00    -0.012 A 
ATOM      4  C3A BZF d   1       1.033  -3.334  -2.745  0.00  0.00    -0.107 A 
ATOM      5  C4  BZF d   1       0.312  -3.438  -1.590  0.00  0.00     0.055 A 
ATOM      6  C5  BZF d   1       0.735  -4.293  -0.622  0.00  0.00    -0.016 A 
ATOM      7  C6  BZF d   1       1.871  -5.060  -0.777  0.00  0.00     0.022 A 
ATOM      8  C7  BZF d   1       2.622  -4.987  -1.902  0.00  0.00     0.029 A 
ATOM      9  C7A BZF d   1       2.215  -4.101  -2.869  0.00  0.00     0.058 A 
ENDROOT
TORSDOF 0
ENDMDL
