MODEL 1
REMARK minimizedAffinity 12.4579792
REMARK minimizedRMSD -1
REMARK  0 active torsions:
REMARK  status: ('A' for Active; 'I' for Inactive)
ROOT
ATOM      1  O1  BZF d   1       3.474  -4.037   0.279  0.00  0.00    -0.204 OA
ATOM      2  C2  BZF d   1       2.201  -4.570   0.211  0.00  0.00     0.174 A 
ATOM      3  C3  BZF d   1       2.046  -5.295  -0.915  0.00  0.00    -0.012 A 
ATOM      4  C3A BZF d   1       3.329  -5.288  -1.548  0.00  0.00    -0.107 A 
ATOM      5  C4  BZF d   1       3.814  -5.849  -2.694  0.00  0.00     0.055 A 
ATOM      6  C5  BZF d   1       5.095  -5.589  -3.066  0.00  0.00    -0.016 A 
ATOM      7  C6  BZF d   1       5.916  -4.769  -2.320  0.00  0.00     0.022 A 
ATOM      8  C7  BZF d   1       5.481  -4.193  -1.172  0.00  0.00     0.029 A 
ATOM      9  C7A BZF d   1       4.198  -4.481  -0.776  0.00  0.00     0.058 A 
ENDROOT
TORSDOF 0
ENDMDL
