MODEL 1
REMARK minimizedAffinity 9.09460926
REMARK minimizedRMSD -1
REMARK  0 active torsions:
REMARK  status: ('A' for Active; 'I' for Inactive)
ROOT
ATOM      1  O1  BZF d   1       2.622   4.354  -1.271  0.00  0.00    -0.204 OA
ATOM      2  C2  BZF d   1       2.318   5.654  -1.625  0.00  0.00     0.174 A 
ATOM      3  C3  BZF d   1       0.993   5.882  -1.515  0.00  0.00    -0.012 A 
ATOM      4  C3A BZF d   1       0.446   4.675  -0.976  0.00  0.00    -0.107 A 
ATOM      5  C4  BZF d   1      -0.816   4.290  -0.627  0.00  0.00     0.055 A 
ATOM      6  C5  BZF d   1      -1.024   3.017  -0.200  0.00  0.00    -0.016 A 
ATOM      7  C6  BZF d   1       0.005   2.102  -0.114  0.00  0.00     0.022 A 
ATOM      8  C7  BZF d   1       1.276   2.439  -0.444  0.00  0.00     0.029 A 
ATOM      9  C7A BZF d   1       1.495   3.734  -0.845  0.00  0.00     0.058 A 
ENDROOT
TORSDOF 0
ENDMDL
