MODEL 1
REMARK minimizedAffinity -4.13229704
REMARK minimizedRMSD -1
REMARK  2 active torsions:
REMARK  status: ('A' for Active; 'I' for Inactive)
REMARK    1  A    between atoms: C2'_3  and  C1'_4 
REMARK    2  A    between atoms: C1'_4  and  C1_5 
ROOT
ATOM      1  C1  I4B d   1      -0.694  -0.358   1.717  0.00  0.00    -0.075 A 
ATOM      2  C2  I4B d   1      -1.623   0.100   0.816  0.00  0.00     0.003 A 
ATOM      3  C3  I4B d   1      -2.955   0.346   1.228  0.00  0.00     0.002 A 
ATOM      4  C4  I4B d   1      -3.325   0.075   2.529  0.00  0.00    -0.004 A 
ATOM      5  C5  I4B d   1      -2.377  -0.367   3.447  0.00  0.00     0.002 A 
ATOM      6  C6  I4B d   1      -1.050  -0.573   3.042  0.00  0.00     0.003 A 
ENDROOT
BRANCH   1   7
ATOM      7  C1' I4B d   1       0.695  -0.638   1.240  0.00  0.00     0.060 C 
BRANCH   7   8
ATOM      8  C2' I4B d   1       1.142   0.533   0.388  0.00  0.00    -0.013 C 
ATOM      9  C4' I4B d   1       2.544   0.956   0.736  0.00  0.00     0.013 C 
ATOM     10  C3' I4B d   1       1.041   0.123  -1.051  0.00  0.00     0.013 C 
ENDBRANCH   7   8
ENDBRANCH   1   7
TORSDOF 2
ENDMDL
