MODEL 1
REMARK minimizedAffinity -2.46209574
REMARK minimizedRMSD -1
REMARK  2 active torsions:
REMARK  status: ('A' for Active; 'I' for Inactive)
REMARK    1  A    between atoms: C2'_3  and  C1'_4 
REMARK    2  A    between atoms: C1'_4  and  C1_5 
ROOT
ATOM      1  C1  I4B d   1       0.509  -0.115  -0.364  0.00  0.00    -0.075 A 
ATOM      2  C2  I4B d   1       1.086   0.924   0.322  0.00  0.00     0.003 A 
ATOM      3  C3  I4B d   1       1.172   0.886   1.734  0.00  0.00     0.002 A 
ATOM      4  C4  I4B d   1       0.626  -0.179   2.420  0.00  0.00    -0.004 A 
ATOM      5  C5  I4B d   1       0.061  -1.243   1.723  0.00  0.00     0.002 A 
ATOM      6  C6  I4B d   1       0.013  -1.217   0.321  0.00  0.00     0.003 A 
ENDROOT
BRANCH   1   7
ATOM      7  C1' I4B d   1       0.405  -0.027  -1.853  0.00  0.00     0.060 C 
BRANCH   7   8
ATOM      8  C2' I4B d   1       0.862  -1.351  -2.432  0.00  0.00    -0.013 C 
ATOM      9  C4' I4B d   1      -0.171  -1.923  -3.367  0.00  0.00     0.013 C 
ATOM     10  C3' I4B d   1       2.165  -1.122  -3.139  0.00  0.00     0.013 C 
ENDBRANCH   7   8
ENDBRANCH   1   7
TORSDOF 2
ENDMDL
