MODEL 1
REMARK minimizedAffinity -4.55203629
REMARK minimizedRMSD -1
REMARK  2 active torsions:
REMARK  status: ('A' for Active; 'I' for Inactive)
REMARK    1  A    between atoms: C2'_3  and  C1'_4 
REMARK    2  A    between atoms: C1'_4  and  C1_5 
ROOT
ATOM      1  C1  I4B d   1      -0.118   0.055  -0.069  0.00  0.00    -0.075 A 
ATOM      2  C2  I4B d   1       1.078   0.006   0.603  0.00  0.00     0.003 A 
ATOM      3  C3  I4B d   1       1.099  -0.135   2.011  0.00  0.00     0.002 A 
ATOM      4  C4  I4B d   1      -0.091  -0.172   2.709  0.00  0.00    -0.004 A 
ATOM      5  C5  I4B d   1      -1.303  -0.145   2.024  0.00  0.00     0.002 A 
ATOM      6  C6  I4B d   1      -1.317  -0.043   0.626  0.00  0.00     0.003 A 
ENDROOT
BRANCH   1   7
ATOM      7  C1' I4B d   1      -0.104   0.238  -1.554  0.00  0.00     0.060 C 
BRANCH   7   8
ATOM      8  C2' I4B d   1       1.056  -0.561  -2.111  0.00  0.00    -0.013 C 
ATOM      9  C4' I4B d   1       0.577  -1.812  -2.799  0.00  0.00     0.013 C 
ATOM     10  C3' I4B d   1       1.813   0.322  -3.058  0.00  0.00     0.013 C 
ENDBRANCH   7   8
ENDBRANCH   1   7
TORSDOF 2
ENDMDL
