MODEL 1
REMARK minimizedAffinity -5.02510929
REMARK minimizedRMSD -1
REMARK  2 active torsions:
REMARK  status: ('A' for Active; 'I' for Inactive)
REMARK    1  A    between atoms: C2'_3  and  C1'_4 
REMARK    2  A    between atoms: C1'_4  and  C1_5 
ROOT
ATOM      1  C1  I4B d   1       0.404   0.039  -0.323  0.00  0.00    -0.075 A 
ATOM      2  C2  I4B d   1       1.453   0.469   0.451  0.00  0.00     0.003 A 
ATOM      3  C3  I4B d   1       1.355   0.440   1.863  0.00  0.00     0.002 A 
ATOM      4  C4  I4B d   1       0.181   0.024   2.455  0.00  0.00    -0.004 A 
ATOM      5  C5  I4B d   1      -0.873  -0.434   1.670  0.00  0.00     0.002 A 
ATOM      6  C6  I4B d   1      -0.757  -0.438   0.272  0.00  0.00     0.003 A 
ENDROOT
BRANCH   1   7
ATOM      7  C1' I4B d   1       0.528   0.114  -1.811  0.00  0.00     0.060 C 
BRANCH   7   8
ATOM      8  C2' I4B d   1       0.421  -1.294  -2.360  0.00  0.00    -0.013 C 
ATOM      9  C4' I4B d   1      -0.712  -1.411  -3.346  0.00  0.00     0.013 C 
ATOM     10  C3' I4B d   1       1.732  -1.642  -3.000  0.00  0.00     0.013 C 
ENDBRANCH   7   8
ENDBRANCH   1   7
TORSDOF 2
ENDMDL
