MODEL 1
REMARK minimizedAffinity -5.80490303
REMARK minimizedRMSD -1
REMARK  2 active torsions:
REMARK  status: ('A' for Active; 'I' for Inactive)
REMARK    1  A    between atoms: C2'_3  and  C1'_4 
REMARK    2  A    between atoms: C1'_4  and  C1_5 
ROOT
ATOM      1  C1  I4B d   1       0.214  -0.305   0.873  0.00  0.00    -0.075 A 
ATOM      2  C2  I4B d   1       0.952  -0.543   2.005  0.00  0.00     0.003 A 
ATOM      3  C3  I4B d   1       0.312  -0.950   3.201  0.00  0.00     0.002 A 
ATOM      4  C4  I4B d   1      -1.064  -1.057   3.233  0.00  0.00    -0.004 A 
ATOM      5  C5  I4B d   1      -1.808  -0.838   2.077  0.00  0.00     0.002 A 
ATOM      6  C6  I4B d   1      -1.165  -0.471   0.886  0.00  0.00     0.003 A 
ENDROOT
BRANCH   1   7
ATOM      7  C1' I4B d   1       0.919   0.155  -0.363  0.00  0.00     0.060 C 
BRANCH   7   8
ATOM      8  C2' I4B d   1       0.264  -0.518  -1.552  0.00  0.00    -0.013 C 
ATOM      9  C4' I4B d   1      -0.323   0.497  -2.498  0.00  0.00     0.013 C 
ATOM     10  C3' I4B d   1       1.300  -1.359  -2.237  0.00  0.00     0.013 C 
ENDBRANCH   7   8
ENDBRANCH   1   7
TORSDOF 2
ENDMDL
