MODEL 1
REMARK minimizedAffinity -5.31272697
REMARK minimizedRMSD -1
REMARK  2 active torsions:
REMARK  status: ('A' for Active; 'I' for Inactive)
REMARK    1  A    between atoms: C2'_3  and  C1'_4 
REMARK    2  A    between atoms: C1'_4  and  C1_5 
ROOT
ATOM      1  C1  I4B d   1      -0.373   0.032   1.223  0.00  0.00    -0.075 A 
ATOM      2  C2  I4B d   1       0.129  -0.307   2.455  0.00  0.00     0.003 A 
ATOM      3  C3  I4B d   1      -0.743  -0.485   3.556  0.00  0.00     0.002 A 
ATOM      4  C4  I4B d   1      -2.096  -0.267   3.394  0.00  0.00    -0.004 A 
ATOM      5  C5  I4B d   1      -2.606   0.055   2.139  0.00  0.00     0.002 A 
ATOM      6  C6  I4B d   1      -1.741   0.193   1.044  0.00  0.00     0.003 A 
ENDROOT
BRANCH   1   7
ATOM      7  C1' I4B d   1       0.580   0.245   0.090  0.00  0.00     0.060 C 
BRANCH   7   8
ATOM      8  C2' I4B d   1      -0.200   0.127  -1.204  0.00  0.00    -0.013 C 
ATOM      9  C4' I4B d   1      -0.693   1.472  -1.668  0.00  0.00     0.013 C 
ATOM     10  C3' I4B d   1       0.695  -0.504  -2.228  0.00  0.00     0.013 C 
ENDBRANCH   7   8
ENDBRANCH   1   7
TORSDOF 2
ENDMDL
