MODEL 1
REMARK minimizedAffinity -3.61723948
REMARK minimizedRMSD -1
REMARK  2 active torsions:
REMARK  status: ('A' for Active; 'I' for Inactive)
REMARK    1  A    between atoms: C2'_3  and  C1'_4 
REMARK    2  A    between atoms: C1'_4  and  C1_5 
ROOT
ATOM      1  C1  I4B d   1      -0.582   0.015   0.867  0.00  0.00    -0.075 A 
ATOM      2  C2  I4B d   1      -1.846   0.373   0.471  0.00  0.00     0.003 A 
ATOM      3  C3  I4B d   1      -2.767   0.894   1.412  0.00  0.00     0.002 A 
ATOM      4  C4  I4B d   1      -2.402   0.992   2.739  0.00  0.00    -0.004 A 
ATOM      5  C5  I4B d   1      -1.112   0.649   3.135  0.00  0.00     0.002 A 
ATOM      6  C6  I4B d   1      -0.192   0.169   2.191  0.00  0.00     0.003 A 
ENDROOT
BRANCH   1   7
ATOM      7  C1' I4B d   1       0.355  -0.563  -0.146  0.00  0.00     0.060 C 
BRANCH   7   8
ATOM      8  C2' I4B d   1       0.063   0.095  -1.479  0.00  0.00    -0.013 C 
ATOM      9  C4' I4B d   1       0.428   1.556  -1.458  0.00  0.00     0.013 C 
ATOM     10  C3' I4B d   1       0.833  -0.639  -2.536  0.00  0.00     0.013 C 
ENDBRANCH   7   8
ENDBRANCH   1   7
TORSDOF 2
ENDMDL
