MODEL 1
REMARK minimizedAffinity -3.54197383
REMARK minimizedRMSD -1
REMARK  2 active torsions:
REMARK  status: ('A' for Active; 'I' for Inactive)
REMARK    1  A    between atoms: C2'_3  and  C1'_4 
REMARK    2  A    between atoms: C1'_4  and  C1_5 
ROOT
ATOM      1  C1  I4B d   1       0.512  -0.033  -1.913  0.00  0.00    -0.075 A 
ATOM      2  C2  I4B d   1       1.559   0.228  -2.762  0.00  0.00     0.003 A 
ATOM      3  C3  I4B d   1       1.746  -0.558  -3.925  0.00  0.00     0.002 A 
ATOM      4  C4  I4B d   1       0.899  -1.619  -4.171  0.00  0.00    -0.004 A 
ATOM      5  C5  I4B d   1      -0.175  -1.868  -3.322  0.00  0.00     0.002 A 
ATOM      6  C6  I4B d   1      -0.377  -1.062  -2.192  0.00  0.00     0.003 A 
ENDROOT
BRANCH   1   7
ATOM      7  C1' I4B d   1       0.363   0.796  -0.677  0.00  0.00     0.060 C 
BRANCH   7   8
ATOM      8  C2' I4B d   1       0.334  -0.141   0.513  0.00  0.00    -0.013 C 
ATOM      9  C4' I4B d   1       1.693  -0.737   0.771  0.00  0.00     0.013 C 
ATOM     10  C3' I4B d   1      -0.152   0.634   1.701  0.00  0.00     0.013 C 
ENDBRANCH   7   8
ENDBRANCH   1   7
TORSDOF 2
ENDMDL
