MODEL 1
REMARK minimizedAffinity -6.40396929
REMARK minimizedRMSD -1
REMARK  2 active torsions:
REMARK  status: ('A' for Active; 'I' for Inactive)
REMARK    1  A    between atoms: C2'_3  and  C1'_4 
REMARK    2  A    between atoms: C1'_4  and  C1_5 
ROOT
ATOM      1  C1  I4B d   1      -1.613   0.304   1.054  0.00  0.00    -0.075 A 
ATOM      2  C2  I4B d   1      -2.897   0.514   1.492  0.00  0.00     0.003 A 
ATOM      3  C3  I4B d   1      -3.291   0.078   2.780  0.00  0.00     0.002 A 
ATOM      4  C4  I4B d   1      -2.390  -0.604   3.572  0.00  0.00    -0.004 A 
ATOM      5  C5  I4B d   1      -1.083  -0.796   3.136  0.00  0.00     0.002 A 
ATOM      6  C6  I4B d   1      -0.688  -0.329   1.874  0.00  0.00     0.003 A 
ENDROOT
BRANCH   1   7
ATOM      7  C1' I4B d   1      -1.240   0.747  -0.325  0.00  0.00     0.060 C 
BRANCH   7   8
ATOM      8  C2' I4B d   1       0.198   0.341  -0.573  0.00  0.00    -0.013 C 
ATOM      9  C4' I4B d   1       0.511   0.314  -2.046  0.00  0.00     0.013 C 
ATOM     10  C3' I4B d   1       1.084   1.310   0.152  0.00  0.00     0.013 C 
ENDBRANCH   7   8
ENDBRANCH   1   7
TORSDOF 2
ENDMDL
