MODEL 1
REMARK minimizedAffinity -5.20093155
REMARK minimizedRMSD -1
REMARK  2 active torsions:
REMARK  status: ('A' for Active; 'I' for Inactive)
REMARK    1  A    between atoms: C2'_3  and  C1'_4 
REMARK    2  A    between atoms: C1'_4  and  C1_5 
ROOT
ATOM      1  C1  I4B d   1      -0.950  -0.606   1.651  0.00  0.00    -0.075 A 
ATOM      2  C2  I4B d   1      -2.061   0.124   1.308  0.00  0.00     0.003 A 
ATOM      3  C3  I4B d   1      -3.041   0.430   2.283  0.00  0.00     0.002 A 
ATOM      4  C4  I4B d   1      -2.896  -0.053   3.568  0.00  0.00    -0.004 A 
ATOM      5  C5  I4B d   1      -1.758  -0.773   3.919  0.00  0.00     0.002 A 
ATOM      6  C6  I4B d   1      -0.772  -1.041   2.958  0.00  0.00     0.003 A 
ENDROOT
BRANCH   1   7
ATOM      7  C1' I4B d   1       0.049  -0.939   0.589  0.00  0.00     0.060 C 
BRANCH   7   8
ATOM      8  C2' I4B d   1       0.388   0.339  -0.151  0.00  0.00    -0.013 C 
ATOM      9  C4' I4B d   1       1.599   1.008   0.443  0.00  0.00     0.013 C 
ATOM     10  C3' I4B d   1       0.613  -0.006  -1.593  0.00  0.00     0.013 C 
ENDBRANCH   7   8
ENDBRANCH   1   7
TORSDOF 2
ENDMDL
