MODEL 1
REMARK minimizedAffinity 4.67254066
REMARK minimizedRMSD -1
REMARK  0 active torsions:
REMARK  status: ('A' for Active; 'I' for Inactive)
ROOT
ATOM      1  O1  BZF d   1      -2.477   3.078   1.946  0.00  0.00    -0.204 OA
ATOM      2  C2  BZF d   1      -2.873   1.755   1.945  0.00  0.00     0.174 A 
ATOM      3  C3  BZF d   1      -1.961   0.982   1.322  0.00  0.00    -0.012 A 
ATOM      4  C3A BZF d   1      -0.885   1.865   0.988  0.00  0.00    -0.107 A 
ATOM      5  C4  BZF d   1       0.319   1.685   0.370  0.00  0.00     0.055 A 
ATOM      6  C5  BZF d   1       1.107   2.766   0.132  0.00  0.00    -0.016 A 
ATOM      7  C6  BZF d   1       0.720   4.040   0.493  0.00  0.00     0.022 A 
ATOM      8  C7  BZF d   1      -0.463   4.268   1.113  0.00  0.00     0.029 A 
ATOM      9  C7A BZF d   1      -1.247   3.173   1.385  0.00  0.00     0.058 A 
ENDROOT
TORSDOF 0
ENDMDL
