MODEL 1
REMARK minimizedAffinity -2.76067853
REMARK minimizedRMSD -1
REMARK  0 active torsions:
REMARK  status: ('A' for Active; 'I' for Inactive)
ROOT
ATOM      1  O1  BZF d   1      -3.628   1.809   1.625  0.00  0.00    -0.204 OA
ATOM      2  C2  BZF d   1      -4.372   1.287   0.584  0.00  0.00     0.174 A 
ATOM      3  C3  BZF d   1      -3.597   1.075  -0.499  0.00  0.00    -0.012 A 
ATOM      4  C3A BZF d   1      -2.269   1.404  -0.081  0.00  0.00    -0.107 A 
ATOM      5  C4  BZF d   1      -1.055   1.382  -0.708  0.00  0.00     0.055 A 
ATOM      6  C5  BZF d   1       0.040   1.835  -0.042  0.00  0.00    -0.016 A 
ATOM      7  C6  BZF d   1      -0.043   2.321   1.246  0.00  0.00     0.022 A 
ATOM      8  C7  BZF d   1      -1.224   2.357   1.910  0.00  0.00     0.029 A 
ATOM      9  C7A BZF d   1      -2.327   1.870   1.252  0.00  0.00     0.058 A 
ENDROOT
TORSDOF 0
ENDMDL
