MODEL 1
REMARK minimizedAffinity 6.93601751
REMARK minimizedRMSD -1
REMARK  0 active torsions:
REMARK  status: ('A' for Active; 'I' for Inactive)
ROOT
ATOM      1  O1  BZF d   1       2.157  -3.800   0.425  0.00  0.00    -0.204 OA
ATOM      2  C2  BZF d   1       1.105  -3.437   1.243  0.00  0.00     0.174 A 
ATOM      3  C3  BZF d   1       0.359  -2.474   0.664  0.00  0.00    -0.012 A 
ATOM      4  C3A BZF d   1       0.930  -2.285  -0.634  0.00  0.00    -0.107 A 
ATOM      5  C4  BZF d   1       0.619  -1.474  -1.688  0.00  0.00     0.055 A 
ATOM      6  C5  BZF d   1       1.420  -1.480  -2.785  0.00  0.00    -0.016 A 
ATOM      7  C6  BZF d   1       2.542  -2.280  -2.861  0.00  0.00     0.022 A 
ATOM      8  C7  BZF d   1       2.888  -3.106  -1.843  0.00  0.00     0.029 A 
ATOM      9  C7A BZF d   1       2.061  -3.126  -0.746  0.00  0.00     0.058 A 
ENDROOT
TORSDOF 0
ENDMDL
