MODEL 1
REMARK minimizedAffinity 7.97810078
REMARK minimizedRMSD -1
REMARK  0 active torsions:
REMARK  status: ('A' for Active; 'I' for Inactive)
ROOT
ATOM      1  O1  BZF d   1       0.053   1.296  -0.568  0.00  0.00    -0.204 OA
ATOM      2  C2  BZF d   1       1.028   2.161  -0.110  0.00  0.00     0.174 A 
ATOM      3  C3  BZF d   1       2.164   1.493   0.175  0.00  0.00    -0.012 A 
ATOM      4  C3A BZF d   1       1.911   0.138  -0.210  0.00  0.00    -0.107 A 
ATOM      5  C4  BZF d   1       2.664  -1.001  -0.187  0.00  0.00     0.055 A 
ATOM      6  C5  BZF d   1       2.096  -2.176  -0.566  0.00  0.00    -0.016 A 
ATOM      7  C6  BZF d   1       0.779  -2.249  -0.969  0.00  0.00     0.022 A 
ATOM      8  C7  BZF d   1      -0.006  -1.145  -1.014  0.00  0.00     0.029 A 
ATOM      9  C7A BZF d   1       0.574   0.049  -0.663  0.00  0.00     0.058 A 
ENDROOT
TORSDOF 0
ENDMDL
