MODEL 1
REMARK minimizedAffinity 6.49783516
REMARK minimizedRMSD -1
REMARK  0 active torsions:
REMARK  status: ('A' for Active; 'I' for Inactive)
ROOT
ATOM      1  O1  BZF d   1       0.396   3.417   0.100  0.00  0.00    -0.204 OA
ATOM      2  C2  BZF d   1       1.548   2.695   0.348  0.00  0.00     0.174 A 
ATOM      3  C3  BZF d   1       1.395   1.911   1.434  0.00  0.00    -0.012 A 
ATOM      4  C3A BZF d   1       0.034   2.088   1.839  0.00  0.00    -0.107 A 
ATOM      5  C4  BZF d   1      -0.721   1.561   2.847  0.00  0.00     0.055 A 
ATOM      6  C5  BZF d   1      -1.998   1.998   3.012  0.00  0.00    -0.016 A 
ATOM      7  C6  BZF d   1      -2.548   2.961   2.193  0.00  0.00     0.022 A 
ATOM      8  C7  BZF d   1      -1.838   3.509   1.176  0.00  0.00     0.029 A 
ATOM      9  C7A BZF d   1      -0.559   3.047   0.986  0.00  0.00     0.058 A 
ENDROOT
TORSDOF 0
ENDMDL
