MODEL 1
REMARK minimizedAffinity 3.85286736
REMARK minimizedRMSD -1
REMARK  0 active torsions:
REMARK  status: ('A' for Active; 'I' for Inactive)
ROOT
ATOM      1  O1  BZF d   1       1.510   1.039   1.159  0.00  0.00    -0.204 OA
ATOM      2  C2  BZF d   1       1.399   1.590  -0.103  0.00  0.00     0.174 A 
ATOM      3  C3  BZF d   1       0.172   2.118  -0.289  0.00  0.00    -0.012 A 
ATOM      4  C3A BZF d   1      -0.498   1.963   0.966  0.00  0.00    -0.107 A 
ATOM      5  C4  BZF d   1      -1.741   2.305   1.415  0.00  0.00     0.055 A 
ATOM      6  C5  BZF d   1      -2.111   1.947   2.673  0.00  0.00    -0.016 A 
ATOM      7  C6  BZF d   1      -1.267   1.242   3.505  0.00  0.00     0.022 A 
ATOM      8  C7  BZF d   1      -0.022   0.884   3.106  0.00  0.00     0.029 A 
ATOM      9  C7A BZF d   1       0.367   1.274   1.847  0.00  0.00     0.058 A 
ENDROOT
TORSDOF 0
ENDMDL
