MODEL 1
REMARK minimizedAffinity 0.878254652
REMARK minimizedRMSD -1
REMARK  0 active torsions:
REMARK  status: ('A' for Active; 'I' for Inactive)
ROOT
ATOM      1  O1  BZF d   1      -5.800   1.329  -0.965  0.00  0.00    -0.204 OA
ATOM      2  C2  BZF d   1      -5.152   0.270  -0.359  0.00  0.00     0.174 A 
ATOM      3  C3  BZF d   1      -4.346  -0.363  -1.235  0.00  0.00    -0.012 A 
ATOM      4  C3A BZF d   1      -4.430   0.400  -2.443  0.00  0.00    -0.107 A 
ATOM      5  C4  BZF d   1      -3.844   0.283  -3.670  0.00  0.00     0.055 A 
ATOM      6  C5  BZF d   1      -4.194   1.151  -4.656  0.00  0.00    -0.016 A 
ATOM      7  C6  BZF d   1      -5.130   2.143  -4.450  0.00  0.00     0.022 A 
ATOM      8  C7  BZF d   1      -5.735   2.302  -3.248  0.00  0.00     0.029 A 
ATOM      9  C7A BZF d   1      -5.358   1.447  -2.240  0.00  0.00     0.058 A 
ENDROOT
TORSDOF 0
ENDMDL
