MODEL 1
REMARK minimizedAffinity 2.39458656
REMARK minimizedRMSD -1
REMARK  0 active torsions:
REMARK  status: ('A' for Active; 'I' for Inactive)
ROOT
ATOM      1  O1  BZF d   1       0.079   0.635  -1.039  0.00  0.00    -0.204 OA
ATOM      2  C2  BZF d   1       0.827   1.655  -0.483  0.00  0.00     0.174 A 
ATOM      3  C3  BZF d   1       1.875   1.159   0.206  0.00  0.00    -0.012 A 
ATOM      4  C3A BZF d   1       1.829  -0.255  -0.005  0.00  0.00    -0.107 A 
ATOM      5  C4  BZF d   1       2.614  -1.293   0.409  0.00  0.00     0.055 A 
ATOM      6  C5  BZF d   1       2.254  -2.563   0.089  0.00  0.00    -0.016 A 
ATOM      7  C6  BZF d   1       1.113  -2.832  -0.638  0.00  0.00     0.022 A 
ATOM      8  C7  BZF d   1       0.305  -1.836  -1.076  0.00  0.00     0.029 A 
ATOM      9  C7A BZF d   1       0.684  -0.549  -0.782  0.00  0.00     0.058 A 
ENDROOT
TORSDOF 0
ENDMDL
