MODEL 1
REMARK minimizedAffinity 4.82448912
REMARK minimizedRMSD -1
REMARK  0 active torsions:
REMARK  status: ('A' for Active; 'I' for Inactive)
ROOT
ATOM      1  O1  BZF d   1      -0.371  -0.770  -1.505  0.00  0.00    -0.204 OA
ATOM      2  C2  BZF d   1      -1.071  -1.957  -1.406  0.00  0.00     0.174 A 
ATOM      3  C3  BZF d   1      -0.326  -2.902  -0.797  0.00  0.00    -0.012 A 
ATOM      4  C3A BZF d   1       0.883  -2.240  -0.414  0.00  0.00    -0.107 A 
ATOM      5  C4  BZF d   1       2.009  -2.647   0.241  0.00  0.00     0.055 A 
ATOM      6  C5  BZF d   1       3.039  -1.773   0.391  0.00  0.00    -0.016 A 
ATOM      7  C6  BZF d   1       2.978  -0.488  -0.106  0.00  0.00     0.022 A 
ATOM      8  C7  BZF d   1       1.880  -0.036  -0.759  0.00  0.00     0.029 A 
ATOM      9  C7A BZF d   1       0.825  -0.907  -0.883  0.00  0.00     0.058 A 
ENDROOT
TORSDOF 0
ENDMDL
