MODEL 1
REMARK minimizedAffinity 6.01387024
REMARK minimizedRMSD -1
REMARK  0 active torsions:
REMARK  status: ('A' for Active; 'I' for Inactive)
ROOT
ATOM      1  O1  BZF d   1       2.462   1.800   0.228  0.00  0.00    -0.204 OA
ATOM      2  C2  BZF d   1       1.225   2.414   0.190  0.00  0.00     0.174 A 
ATOM      3  C3  BZF d   1       0.253   1.517  -0.075  0.00  0.00    -0.012 A 
ATOM      4  C3A BZF d   1       0.914   0.249  -0.119  0.00  0.00    -0.107 A 
ATOM      5  C4  BZF d   1       0.480  -1.029  -0.327  0.00  0.00     0.055 A 
ATOM      6  C5  BZF d   1       1.391  -2.036  -0.381  0.00  0.00    -0.016 A 
ATOM      7  C6  BZF d   1       2.743  -1.800  -0.236  0.00  0.00     0.022 A 
ATOM      8  C7  BZF d   1       3.221  -0.550  -0.023  0.00  0.00     0.029 A 
ATOM      9  C7A BZF d   1       2.299   0.465   0.065  0.00  0.00     0.058 A 
ENDROOT
TORSDOF 0
ENDMDL
