MODEL 1
REMARK minimizedAffinity 5.48219013
REMARK minimizedRMSD -1
REMARK  0 active torsions:
REMARK  status: ('A' for Active; 'I' for Inactive)
ROOT
ATOM      1  O1  BZF d   1       1.308   0.797  -1.033  0.00  0.00    -0.204 OA
ATOM      2  C2  BZF d   1       2.317  -0.128  -0.846  0.00  0.00     0.174 A 
ATOM      3  C3  BZF d   1       2.438  -0.447   0.459  0.00  0.00    -0.012 A 
ATOM      4  C3A BZF d   1       1.381   0.258   1.118  0.00  0.00    -0.107 A 
ATOM      5  C4  BZF d   1       0.969   0.332   2.418  0.00  0.00     0.055 A 
ATOM      6  C5  BZF d   1      -0.052   1.169   2.741  0.00  0.00    -0.016 A 
ATOM      7  C6  BZF d   1      -0.680   1.947   1.791  0.00  0.00     0.022 A 
ATOM      8  C7  BZF d   1      -0.311   1.904   0.488  0.00  0.00     0.029 A 
ATOM      9  C7A BZF d   1       0.699   1.035   0.153  0.00  0.00     0.058 A 
ENDROOT
TORSDOF 0
ENDMDL
