MODEL 1
REMARK minimizedAffinity 5.23042631
REMARK minimizedRMSD -1
REMARK  0 active torsions:
REMARK  status: ('A' for Active; 'I' for Inactive)
ROOT
ATOM      1  O1  BZF d   1      -3.538   3.004   2.188  0.00  0.00    -0.204 OA
ATOM      2  C2  BZF d   1      -4.372   2.607   1.161  0.00  0.00     0.174 A 
ATOM      3  C3  BZF d   1      -3.656   2.193   0.096  0.00  0.00    -0.012 A 
ATOM      4  C3A BZF d   1      -2.290   2.252   0.515  0.00  0.00    -0.107 A 
ATOM      5  C4  BZF d   1      -1.106   1.950  -0.096  0.00  0.00     0.055 A 
ATOM      6  C5  BZF d   1       0.058   2.191   0.563  0.00  0.00    -0.016 A 
ATOM      7  C6  BZF d   1       0.075   2.736   1.830  0.00  0.00     0.022 A 
ATOM      8  C7  BZF d   1      -1.073   3.047   2.479  0.00  0.00     0.029 A 
ATOM      9  C7A BZF d   1      -2.252   2.775   1.828  0.00  0.00     0.058 A 
ENDROOT
TORSDOF 0
ENDMDL
