MODEL 1
REMARK minimizedAffinity 8.71638298
REMARK minimizedRMSD -1
REMARK  0 active torsions:
REMARK  status: ('A' for Active; 'I' for Inactive)
ROOT
ATOM      1  O1  BZF d   1      -2.939   0.688   2.190  0.00  0.00    -0.204 OA
ATOM      2  C2  BZF d   1      -3.603   1.196   1.090  0.00  0.00     0.174 A 
ATOM      3  C3  BZF d   1      -2.870   2.155   0.489  0.00  0.00    -0.012 A 
ATOM      4  C3A BZF d   1      -1.633   2.188   1.207  0.00  0.00    -0.107 A 
ATOM      5  C4  BZF d   1      -0.490   2.924   1.075  0.00  0.00     0.055 A 
ATOM      6  C5  BZF d   1       0.507   2.764   1.985  0.00  0.00    -0.016 A 
ATOM      7  C6  BZF d   1       0.393   1.883   3.040  0.00  0.00     0.022 A 
ATOM      8  C7  BZF d   1      -0.719   1.127   3.209  0.00  0.00     0.029 A 
ATOM      9  C7A BZF d   1      -1.715   1.262   2.273  0.00  0.00     0.058 A 
ENDROOT
TORSDOF 0
ENDMDL
