MODEL 1
REMARK minimizedAffinity 5.16805935
REMARK minimizedRMSD -1
REMARK  0 active torsions:
REMARK  status: ('A' for Active; 'I' for Inactive)
ROOT
ATOM      1  O1  BZF d   1       0.596  -1.078   2.810  0.00  0.00    -0.204 OA
ATOM      2  C2  BZF d   1       1.205  -0.293   1.849  0.00  0.00     0.174 A 
ATOM      3  C3  BZF d   1       2.532  -0.206   2.073  0.00  0.00    -0.012 A 
ATOM      4  C3A BZF d   1       2.781  -1.061   3.194  0.00  0.00    -0.107 A 
ATOM      5  C4  BZF d   1       3.911  -1.405   3.879  0.00  0.00     0.055 A 
ATOM      6  C5  BZF d   1       3.803  -2.205   4.971  0.00  0.00    -0.016 A 
ATOM      7  C6  BZF d   1       2.582  -2.674   5.410  0.00  0.00     0.022 A 
ATOM      8  C7  BZF d   1       1.434  -2.364   4.760  0.00  0.00     0.029 A 
ATOM      9  C7A BZF d   1       1.544  -1.582   3.636  0.00  0.00     0.058 A 
ENDROOT
TORSDOF 0
ENDMDL
