MODEL 1
REMARK minimizedAffinity 10.2798777
REMARK minimizedRMSD -1
REMARK  0 active torsions:
REMARK  status: ('A' for Active; 'I' for Inactive)
ROOT
ATOM      1  O1  BZF d   1       5.120  -3.381   5.795  0.00  0.00    -0.204 OA
ATOM      2  C2  BZF d   1       5.993  -2.330   6.000  0.00  0.00     0.174 A 
ATOM      3  C3  BZF d   1       5.585  -1.232   5.330  0.00  0.00    -0.012 A 
ATOM      4  C3A BZF d   1       4.333  -1.595   4.740  0.00  0.00    -0.107 A 
ATOM      5  C4  BZF d   1       3.431  -0.923   3.966  0.00  0.00     0.055 A 
ATOM      6  C5  BZF d   1       2.343  -1.587   3.493  0.00  0.00    -0.016 A 
ATOM      7  C6  BZF d   1       2.130  -2.922   3.769  0.00  0.00     0.022 A 
ATOM      8  C7  BZF d   1       2.995  -3.629   4.537  0.00  0.00     0.029 A 
ATOM      9  C7A BZF d   1       4.078  -2.952   5.044  0.00  0.00     0.058 A 
ENDROOT
TORSDOF 0
ENDMDL
