MODEL 1
REMARK minimizedAffinity 13.6531925
REMARK minimizedRMSD -1
REMARK  0 active torsions:
REMARK  status: ('A' for Active; 'I' for Inactive)
ROOT
ATOM      1  O1  BZF d   1       2.845  -2.878   2.357  0.00  0.00    -0.204 OA
ATOM      2  C2  BZF d   1       2.871  -1.502   2.243  0.00  0.00     0.174 A 
ATOM      3  C3  BZF d   1       3.364  -0.938   3.364  0.00  0.00    -0.012 A 
ATOM      4  C3A BZF d   1       3.751  -2.035   4.198  0.00  0.00    -0.107 A 
ATOM      5  C4  BZF d   1       4.321  -2.118   5.436  0.00  0.00     0.055 A 
ATOM      6  C5  BZF d   1       4.501  -3.341   6.000  0.00  0.00    -0.016 A 
ATOM      7  C6  BZF d   1       4.120  -4.500   5.357  0.00  0.00     0.022 A 
ATOM      8  C7  BZF d   1       3.555  -4.469   4.125  0.00  0.00     0.029 A 
ATOM      9  C7A BZF d   1       3.401  -3.236   3.539  0.00  0.00     0.058 A 
ENDROOT
TORSDOF 0
ENDMDL
