MODEL 1
REMARK minimizedAffinity 13.6648827
REMARK minimizedRMSD -1
REMARK  0 active torsions:
REMARK  status: ('A' for Active; 'I' for Inactive)
ROOT
ATOM      1  O1  BZF d   1       1.622  -1.823   4.616  0.00  0.00    -0.204 OA
ATOM      2  C2  BZF d   1       1.429  -1.506   3.285  0.00  0.00     0.174 A 
ATOM      3  C3  BZF d   1       2.597  -1.535   2.612  0.00  0.00    -0.012 A 
ATOM      4  C3A BZF d   1       3.568  -1.983   3.563  0.00  0.00    -0.107 A 
ATOM      5  C4  BZF d   1       4.910  -2.228   3.491  0.00  0.00     0.055 A 
ATOM      6  C5  BZF d   1       5.578  -2.585   4.619  0.00  0.00    -0.016 A 
ATOM      7  C6  BZF d   1       4.938  -2.701   5.835  0.00  0.00     0.022 A 
ATOM      8  C7  BZF d   1       3.607  -2.473   5.956  0.00  0.00     0.029 A 
ATOM      9  C7A BZF d   1       2.923  -2.144   4.811  0.00  0.00     0.058 A 
ENDROOT
TORSDOF 0
ENDMDL
