MODEL 1
REMARK minimizedAffinity -2.59767938
REMARK minimizedRMSD -1
REMARK  0 active torsions:
REMARK  status: ('A' for Active; 'I' for Inactive)
ROOT
ATOM      1  C2' OXE d   1      -1.170   2.063   1.833  0.00  0.00     0.078 C 
ATOM      2  C1' OXE d   1       0.718   0.306   2.942  0.00  0.00     0.078 C 
ATOM      3  C1  OXE d   1       0.366   0.133   1.486  0.00  0.00    -0.078 A 
ATOM      4  C2  OXE d   1      -0.594   0.967   0.964  0.00  0.00    -0.078 A 
ATOM      5  C3  OXE d   1      -0.917   0.885  -0.388  0.00  0.00     0.003 A 
ATOM      6  C4  OXE d   1      -0.386  -0.138  -1.183  0.00  0.00    -0.002 A 
ATOM      7  C5  OXE d   1       0.563  -1.023  -0.661  0.00  0.00    -0.002 A 
ATOM      8  C6  OXE d   1       0.981  -0.875   0.657  0.00  0.00     0.003 A 
ENDROOT
TORSDOF 0
ENDMDL
