MODEL 1
REMARK minimizedAffinity -4.9180274
REMARK minimizedRMSD -1
REMARK  0 active torsions:
REMARK  status: ('A' for Active; 'I' for Inactive)
ROOT
ATOM      1  C2' OXE d   1       0.536  -1.144  -0.190  0.00  0.00     0.078 C 
ATOM      2  C1' OXE d   1       0.611  -0.705   2.582  0.00  0.00     0.078 C 
ATOM      3  C1  OXE d   1      -0.062   0.336   1.723  0.00  0.00    -0.078 A 
ATOM      4  C2  OXE d   1      -0.053   0.136   0.364  0.00  0.00    -0.078 A 
ATOM      5  C3  OXE d   1      -0.707   1.038  -0.470  0.00  0.00     0.003 A 
ATOM      6  C4  OXE d   1      -1.241   2.224   0.048  0.00  0.00    -0.002 A 
ATOM      7  C5  OXE d   1      -1.225   2.467   1.426  0.00  0.00    -0.002 A 
ATOM      8  C6  OXE d   1      -0.679   1.515   2.280  0.00  0.00     0.003 A 
ENDROOT
TORSDOF 0
ENDMDL
