MODEL 1
REMARK minimizedAffinity -5.01249838
REMARK minimizedRMSD -1
REMARK  0 active torsions:
REMARK  status: ('A' for Active; 'I' for Inactive)
ROOT
ATOM      1  C2' OXE d   1      -1.772   2.272   1.816  0.00  0.00     0.078 C 
ATOM      2  C1' OXE d   1       0.487   1.202   3.093  0.00  0.00     0.078 C 
ATOM      3  C1  OXE d   1       0.174   0.722   1.698  0.00  0.00    -0.078 A 
ATOM      4  C2  OXE d   1      -0.959   1.217   1.099  0.00  0.00    -0.078 A 
ATOM      5  C3  OXE d   1      -1.264   0.849  -0.209  0.00  0.00     0.003 A 
ATOM      6  C4  OXE d   1      -0.512  -0.135  -0.862  0.00  0.00    -0.002 A 
ATOM      7  C5  OXE d   1       0.623  -0.681  -0.254  0.00  0.00    -0.002 A 
ATOM      8  C6  OXE d   1       1.004  -0.233   1.006  0.00  0.00     0.003 A 
ENDROOT
TORSDOF 0
ENDMDL
