MODEL 1
REMARK minimizedAffinity -1.41854751
REMARK minimizedRMSD -1
REMARK  0 active torsions:
REMARK  status: ('A' for Active; 'I' for Inactive)
ROOT
ATOM      1  C2' OXE d   1      -0.118   2.099   2.280  0.00  0.00     0.078 C 
ATOM      2  C1' OXE d   1       1.217  -0.275   2.962  0.00  0.00     0.078 C 
ATOM      3  C1  OXE d   1       0.621  -0.175   1.580  0.00  0.00    -0.078 A 
ATOM      4  C2  OXE d   1      -0.070   0.971   1.271  0.00  0.00    -0.078 A 
ATOM      5  C3  OXE d   1      -0.593   1.137  -0.008  0.00  0.00     0.003 A 
ATOM      6  C4  OXE d   1      -0.553   0.086  -0.932  0.00  0.00    -0.002 A 
ATOM      7  C5  OXE d   1       0.112  -1.105  -0.623  0.00  0.00    -0.002 A 
ATOM      8  C6  OXE d   1       0.740  -1.235   0.610  0.00  0.00     0.003 A 
ENDROOT
TORSDOF 0
ENDMDL
