MODEL 1
REMARK minimizedAffinity -4.49684525
REMARK minimizedRMSD -1
REMARK  0 active torsions:
REMARK  status: ('A' for Active; 'I' for Inactive)
ROOT
ATOM      1  C2' OXE d   1      -0.090  -0.753  -0.370  0.00  0.00     0.078 C 
ATOM      2  C1' OXE d   1       1.528  -0.310   1.881  0.00  0.00     0.078 C 
ATOM      3  C1  OXE d   1       0.562   0.777   1.485  0.00  0.00    -0.078 A 
ATOM      4  C2  OXE d   1      -0.193   0.572   0.355  0.00  0.00    -0.078 A 
ATOM      5  C3  OXE d   1      -1.139   1.520  -0.024  0.00  0.00     0.003 A 
ATOM      6  C4  OXE d   1      -1.222   2.746   0.646  0.00  0.00    -0.002 A 
ATOM      7  C5  OXE d   1      -0.434   2.992   1.776  0.00  0.00    -0.002 A 
ATOM      8  C6  OXE d   1       0.430   2.003   2.233  0.00  0.00     0.003 A 
ENDROOT
TORSDOF 0
ENDMDL
