MODEL 1
REMARK minimizedAffinity -5.11324358
REMARK minimizedRMSD -1
REMARK  0 active torsions:
REMARK  status: ('A' for Active; 'I' for Inactive)
ROOT
ATOM      1  C2' OXE d   1      -1.396   2.434   1.359  0.00  0.00     0.078 C 
ATOM      2  C1' OXE d   1       0.030   0.238   2.372  0.00  0.00     0.078 C 
ATOM      3  C1  OXE d   1      -0.145   0.334   0.877  0.00  0.00    -0.078 A 
ATOM      4  C2  OXE d   1      -0.884   1.387   0.394  0.00  0.00    -0.078 A 
ATOM      5  C3  OXE d   1      -1.030   1.552  -0.981  0.00  0.00     0.003 A 
ATOM      6  C4  OXE d   1      -0.562   0.574  -1.866  0.00  0.00    -0.002 A 
ATOM      7  C5  OXE d   1       0.159  -0.526  -1.392  0.00  0.00    -0.002 A 
ATOM      8  C6  OXE d   1       0.413  -0.639  -0.029  0.00  0.00     0.003 A 
ENDROOT
TORSDOF 0
ENDMDL
