MODEL 1
REMARK minimizedAffinity -4.3409729
REMARK minimizedRMSD -1
REMARK  0 active torsions:
REMARK  status: ('A' for Active; 'I' for Inactive)
ROOT
ATOM      1  C2' OXE d   1       1.663  -0.409   2.016  0.00  0.00     0.078 C 
ATOM      2  C1' OXE d   1       0.545  -1.004  -0.490  0.00  0.00     0.078 C 
ATOM      3  C1  OXE d   1      -0.075   0.115   0.309  0.00  0.00    -0.078 A 
ATOM      4  C2  OXE d   1       0.449   0.368   1.554  0.00  0.00    -0.078 A 
ATOM      5  C3  OXE d   1      -0.050   1.426   2.310  0.00  0.00     0.003 A 
ATOM      6  C4  OXE d   1      -1.179   2.133   1.880  0.00  0.00    -0.002 A 
ATOM      7  C5  OXE d   1      -1.753   1.865   0.632  0.00  0.00    -0.002 A 
ATOM      8  C6  OXE d   1      -1.187   0.890  -0.182  0.00  0.00     0.003 A 
ENDROOT
TORSDOF 0
ENDMDL
