MODEL 1
REMARK minimizedAffinity -0.522132576
REMARK minimizedRMSD -1
REMARK  0 active torsions:
REMARK  status: ('A' for Active; 'I' for Inactive)
ROOT
ATOM      1  C2' OXE d   1       0.442  -1.484  -0.656  0.00  0.00     0.078 C 
ATOM      2  C1' OXE d   1      -0.376   1.051  -1.543  0.00  0.00     0.078 C 
ATOM      3  C1  OXE d   1       0.005   0.903  -0.091  0.00  0.00    -0.078 A 
ATOM      4  C2  OXE d   1       0.359  -0.351   0.345  0.00  0.00    -0.078 A 
ATOM      5  C3  OXE d   1       0.773  -0.532   1.661  0.00  0.00     0.003 A 
ATOM      6  C4  OXE d   1       0.684   0.519   2.583  0.00  0.00    -0.002 A 
ATOM      7  C5  OXE d   1       0.287   1.795   2.168  0.00  0.00    -0.002 A 
ATOM      8  C6  OXE d   1      -0.014   2.013   0.829  0.00  0.00     0.003 A 
ENDROOT
TORSDOF 0
ENDMDL
