MODEL 1
REMARK minimizedAffinity -3.51660633
REMARK minimizedRMSD -1
REMARK  0 active torsions:
REMARK  status: ('A' for Active; 'I' for Inactive)
ROOT
ATOM      1  C2' OXE d   1       1.836  -0.891   2.055  0.00  0.00     0.078 C 
ATOM      2  C1' OXE d   1       0.351  -1.364  -0.280  0.00  0.00     0.078 C 
ATOM      3  C1  OXE d   1       0.035  -0.122   0.515  0.00  0.00    -0.078 A 
ATOM      4  C2  OXE d   1       0.734   0.077   1.681  0.00  0.00    -0.078 A 
ATOM      5  C3  OXE d   1       0.520   1.235   2.424  0.00  0.00     0.003 A 
ATOM      6  C4  OXE d   1      -0.508   2.120   2.077  0.00  0.00    -0.002 A 
ATOM      7  C5  OXE d   1      -1.259   1.915   0.915  0.00  0.00    -0.002 A 
ATOM      8  C6  OXE d   1      -0.972   0.824   0.102  0.00  0.00     0.003 A 
ENDROOT
TORSDOF 0
ENDMDL
