MODEL 1
REMARK minimizedAffinity -6.36414909
REMARK minimizedRMSD -1
REMARK  0 active torsions:
REMARK  status: ('A' for Active; 'I' for Inactive)
ROOT
ATOM      1  C2' OXE d   1       0.419  -0.664  -0.320  0.00  0.00     0.078 C 
ATOM      2  C1' OXE d   1       0.048   0.016   2.379  0.00  0.00     0.078 C 
ATOM      3  C1  OXE d   1      -0.246   1.070   1.341  0.00  0.00    -0.078 A 
ATOM      4  C2  OXE d   1      -0.018   0.744   0.026  0.00  0.00    -0.078 A 
ATOM      5  C3  OXE d   1      -0.325   1.661  -0.975  0.00  0.00     0.003 A 
ATOM      6  C4  OXE d   1      -0.719   2.963  -0.647  0.00  0.00    -0.002 A 
ATOM      7  C5  OXE d   1      -0.920   3.329   0.689  0.00  0.00    -0.002 A 
ATOM      8  C6  OXE d   1      -0.729   2.383   1.690  0.00  0.00     0.003 A 
ENDROOT
TORSDOF 0
ENDMDL
