MODEL 1
REMARK minimizedAffinity -3.47465324
REMARK minimizedRMSD -1
REMARK  0 active torsions:
REMARK  status: ('A' for Active; 'I' for Inactive)
ROOT
ATOM      1  C2' OXE d   1       1.878  -0.485   2.860  0.00  0.00     0.078 C 
ATOM      2  C1' OXE d   1       0.331   1.844   2.605  0.00  0.00     0.078 C 
ATOM      3  C1  OXE d   1       0.308   0.856   1.466  0.00  0.00    -0.078 A 
ATOM      4  C2  OXE d   1       1.105  -0.259   1.579  0.00  0.00    -0.078 A 
ATOM      5  C3  OXE d   1       1.079  -1.229   0.581  0.00  0.00     0.003 A 
ATOM      6  C4  OXE d   1       0.369  -1.007  -0.605  0.00  0.00    -0.002 A 
ATOM      7  C5  OXE d   1      -0.417   0.140  -0.758  0.00  0.00    -0.002 A 
ATOM      8  C6  OXE d   1      -0.492   1.059   0.283  0.00  0.00     0.003 A 
ENDROOT
TORSDOF 0
ENDMDL
