MODEL 1
REMARK minimizedAffinity 6.72276497
REMARK minimizedRMSD -1
REMARK  0 active torsions:
REMARK  status: ('A' for Active; 'I' for Inactive)
ROOT
ATOM      1  C2' OXE d   1       5.943  -1.878  -1.935  0.00  0.00     0.078 C 
ATOM      2  C1' OXE d   1       4.911  -3.934  -0.327  0.00  0.00     0.078 C 
ATOM      3  C1  OXE d   1       4.138  -2.641  -0.398  0.00  0.00    -0.078 A 
ATOM      4  C2  OXE d   1       4.674  -1.624  -1.150  0.00  0.00    -0.078 A 
ATOM      5  C3  OXE d   1       3.974  -0.430  -1.293  0.00  0.00     0.003 A 
ATOM      6  C4  OXE d   1       2.806  -0.200  -0.556  0.00  0.00    -0.002 A 
ATOM      7  C5  OXE d   1       2.264  -1.208   0.248  0.00  0.00    -0.002 A 
ATOM      8  C6  OXE d   1       2.893  -2.447   0.304  0.00  0.00     0.003 A 
ENDROOT
TORSDOF 0
ENDMDL
