MODEL 1
REMARK minimizedAffinity 6.4654336
REMARK minimizedRMSD -1
REMARK  0 active torsions:
REMARK  status: ('A' for Active; 'I' for Inactive)
ROOT
ATOM      1  C2' OXE d   1      -2.797   1.420  -0.672  0.00  0.00     0.078 C 
ATOM      2  C1' OXE d   1      -4.880   0.215  -2.117  0.00  0.00     0.078 C 
ATOM      3  C1  OXE d   1      -4.560   1.659  -2.415  0.00  0.00    -0.078 A 
ATOM      4  C2  OXE d   1      -3.570   2.254  -1.671  0.00  0.00    -0.078 A 
ATOM      5  C3  OXE d   1      -3.198   3.567  -1.943  0.00  0.00     0.003 A 
ATOM      6  C4  OXE d   1      -3.926   4.334  -2.861  0.00  0.00    -0.002 A 
ATOM      7  C5  OXE d   1      -4.964   3.759  -3.602  0.00  0.00    -0.002 A 
ATOM      8  C6  OXE d   1      -5.265   2.414  -3.422  0.00  0.00     0.003 A 
ENDROOT
TORSDOF 0
ENDMDL
