MODEL 1
REMARK minimizedAffinity -0.239893228
REMARK minimizedRMSD -1
REMARK  1 active torsions:
REMARK  status: ('A' for Active; 'I' for Inactive)
REMARK    1  A    between atoms: C1_2  and  C2_3 
ROOT
ATOM      1  C2  UNL d   1       0.225  -0.788   2.781  0.00  0.00    -0.077 A 
ATOM      2  C3  UNL d   1       0.939  -1.358   3.845  0.00  0.00     0.002 A 
ATOM      3  C4  UNL d   1       0.274  -2.093   4.828  0.00  0.00     0.002 A 
ATOM      4  C5  UNL d   1      -1.106  -2.268   4.756  0.00  0.00    -0.004 A 
ATOM      5  C6  UNL d   1      -1.825  -1.704   3.703  0.00  0.00     0.002 A 
ATOM      6  C7  UNL d   1      -1.163  -0.968   2.719  0.00  0.00     0.002 A 
ENDROOT
BRANCH   1   7
ATOM      7  C1  UNL d   1       0.947  -0.037   1.693  0.00  0.00     0.055 C 
ATOM      8  C   UNL d   1       2.098  -0.855   1.125  0.00  0.00     0.019 C 
ENDBRANCH   1   7
TORSDOF 1
ENDMDL
