MODEL 1
REMARK minimizedAffinity -0.458748162
REMARK minimizedRMSD -1
REMARK  1 active torsions:
REMARK  status: ('A' for Active; 'I' for Inactive)
REMARK    1  A    between atoms: C1_2  and  C2_3 
ROOT
ATOM      1  C2  UNL d   1      -0.454  -0.573   2.597  0.00  0.00    -0.077 A 
ATOM      2  C3  UNL d   1       0.340  -0.078   1.554  0.00  0.00     0.002 A 
ATOM      3  C4  UNL d   1       1.720  -0.294   1.552  0.00  0.00     0.002 A 
ATOM      4  C5  UNL d   1       2.316  -1.011   2.588  0.00  0.00    -0.004 A 
ATOM      5  C6  UNL d   1       1.534  -1.506   3.631  0.00  0.00     0.002 A 
ATOM      6  C7  UNL d   1       0.156  -1.289   3.636  0.00  0.00     0.002 A 
ENDROOT
BRANCH   1   7
ATOM      7  C1  UNL d   1      -1.948  -0.383   2.576  0.00  0.00     0.055 C 
ATOM      8  C   UNL d   1      -2.673  -1.645   3.018  0.00  0.00     0.019 C 
ENDBRANCH   1   7
TORSDOF 1
ENDMDL
