MODEL 1
REMARK minimizedAffinity -0.864171028
REMARK minimizedRMSD -1
REMARK  1 active torsions:
REMARK  status: ('A' for Active; 'I' for Inactive)
REMARK    1  A    between atoms: C1_2  and  C2_3 
ROOT
ATOM      1  C2  UNL d   1       0.002  -1.454   3.889  0.00  0.00    -0.077 A 
ATOM      2  C3  UNL d   1      -0.210  -0.467   2.915  0.00  0.00     0.002 A 
ATOM      3  C4  UNL d   1      -1.482  -0.270   2.375  0.00  0.00     0.002 A 
ATOM      4  C5  UNL d   1      -2.552  -1.051   2.806  0.00  0.00    -0.004 A 
ATOM      5  C6  UNL d   1      -2.351  -2.036   3.772  0.00  0.00     0.002 A 
ATOM      6  C7  UNL d   1      -1.080  -2.236   4.311  0.00  0.00     0.002 A 
ENDROOT
BRANCH   1   7
ATOM      7  C1  UNL d   1       1.364  -1.635   4.508  0.00  0.00     0.055 C 
ATOM      8  C   UNL d   1       1.260  -1.925   5.998  0.00  0.00     0.019 C 
ENDBRANCH   1   7
TORSDOF 1
ENDMDL
