MODEL 1
REMARK minimizedAffinity 1.24180651
REMARK minimizedRMSD -1
REMARK  1 active torsions:
REMARK  status: ('A' for Active; 'I' for Inactive)
REMARK    1  A    between atoms: C1_2  and  C2_3 
ROOT
ATOM      1  C2  UNL d   1      -0.442  -1.132   2.677  0.00  0.00    -0.077 A 
ATOM      2  C3  UNL d   1      -0.644  -2.199   3.564  0.00  0.00     0.002 A 
ATOM      3  C4  UNL d   1       0.445  -2.841   4.156  0.00  0.00     0.002 A 
ATOM      4  C5  UNL d   1       1.742  -2.422   3.871  0.00  0.00    -0.004 A 
ATOM      5  C6  UNL d   1       1.954  -1.363   2.989  0.00  0.00     0.002 A 
ATOM      6  C7  UNL d   1       0.867  -0.721   2.395  0.00  0.00     0.002 A 
ENDROOT
BRANCH   1   7
ATOM      7  C1  UNL d   1      -1.617  -0.406   2.076  0.00  0.00     0.055 C 
ATOM      8  C   UNL d   1      -1.508   1.096   2.290  0.00  0.00     0.019 C 
ENDBRANCH   1   7
TORSDOF 1
ENDMDL
