MODEL 1
REMARK minimizedAffinity 3.43143177
REMARK minimizedRMSD -1
REMARK  1 active torsions:
REMARK  status: ('A' for Active; 'I' for Inactive)
REMARK    1  A    between atoms: C1_2  and  C2_3 
ROOT
ATOM      1  C2  UNL d   1      -0.723  -3.822  -4.646  0.00  0.00    -0.077 A 
ATOM      2  C3  UNL d   1      -0.394  -3.646  -3.294  0.00  0.00     0.002 A 
ATOM      3  C4  UNL d   1       0.301  -4.640  -2.602  0.00  0.00     0.002 A 
ATOM      4  C5  UNL d   1       0.676  -5.812  -3.253  0.00  0.00    -0.004 A 
ATOM      5  C6  UNL d   1       0.353  -5.997  -4.597  0.00  0.00     0.002 A 
ATOM      6  C7  UNL d   1      -0.343  -5.006  -5.290  0.00  0.00     0.002 A 
ENDROOT
BRANCH   1   7
ATOM      7  C1  UNL d   1      -1.429  -2.731  -5.408  0.00  0.00     0.055 C 
ATOM      8  C   UNL d   1      -1.439  -1.426  -4.625  0.00  0.00     0.019 C 
ENDBRANCH   1   7
TORSDOF 1
ENDMDL
