MODEL 1
REMARK minimizedAffinity 3.09036016
REMARK minimizedRMSD -1
REMARK  1 active torsions:
REMARK  status: ('A' for Active; 'I' for Inactive)
REMARK    1  A    between atoms: C1_2  and  C2_3 
ROOT
ATOM      1  C2  UNL d   1      -1.228  -0.299   1.228  0.00  0.00    -0.077 A 
ATOM      2  C3  UNL d   1      -1.714  -1.229   0.298  0.00  0.00     0.002 A 
ATOM      3  C4  UNL d   1      -2.456  -0.802  -0.805  0.00  0.00     0.002 A 
ATOM      4  C5  UNL d   1      -2.715   0.554  -0.991  0.00  0.00    -0.004 A 
ATOM      5  C6  UNL d   1      -2.237   1.486  -0.071  0.00  0.00     0.002 A 
ATOM      6  C7  UNL d   1      -1.496   1.062   1.033  0.00  0.00     0.002 A 
ENDROOT
BRANCH   1   7
ATOM      7  C1  UNL d   1      -0.386  -0.753   2.391  0.00  0.00     0.055 C 
ATOM      8  C   UNL d   1       1.085  -0.836   2.011  0.00  0.00     0.019 C 
ENDBRANCH   1   7
TORSDOF 1
ENDMDL
