MODEL 1
REMARK minimizedAffinity -2.9179163
REMARK minimizedRMSD -1
REMARK  1 active torsions:
REMARK  status: ('A' for Active; 'I' for Inactive)
REMARK    1  A    between atoms: C1_2  and  C2_3 
ROOT
ATOM      1  C2  UNL d   1       1.165  -0.763   3.344  0.00  0.00    -0.077 A 
ATOM      2  C3  UNL d   1       2.118  -0.238   4.229  0.00  0.00     0.002 A 
ATOM      3  C4  UNL d   1       2.741  -1.064   5.167  0.00  0.00     0.002 A 
ATOM      4  C5  UNL d   1       2.423  -2.419   5.225  0.00  0.00    -0.004 A 
ATOM      5  C6  UNL d   1       1.475  -2.950   4.350  0.00  0.00     0.002 A 
ATOM      6  C7  UNL d   1       0.850  -2.126   3.414  0.00  0.00     0.002 A 
ENDROOT
BRANCH   1   7
ATOM      7  C1  UNL d   1       0.528   0.116   2.300  0.00  0.00     0.055 C 
ATOM      8  C   UNL d   1      -0.922  -0.276   2.057  0.00  0.00     0.019 C 
ENDBRANCH   1   7
TORSDOF 1
ENDMDL
