MODEL 1
REMARK minimizedAffinity 3.18794394
REMARK minimizedRMSD -1
REMARK  0 active torsions:
REMARK  status: ('A' for Active; 'I' for Inactive)
ROOT
ATOM      1  C   UNL d   1      -4.872   5.284   2.627  0.00  0.00     0.020 A 
ATOM      2  C1  UNL d   1      -5.989   4.451   2.671  0.00  0.00     0.020 A 
ATOM      3  C2  UNL d   1      -6.000   3.260   1.941  0.00  0.00     0.034 A 
ATOM      4  C3  UNL d   1      -4.892   2.899   1.166  0.00  0.00     0.017 A 
ATOM      5  C4  UNL d   1      -3.771   3.736   1.123  0.00  0.00     0.017 A 
ATOM      6  C5  UNL d   1      -3.766   4.928   1.855  0.00  0.00     0.034 A 
ATOM      7 Cl   UNL d   1      -2.367   3.358   0.190  0.00  0.00    -0.070 Cl
ATOM      8 Cl1  UNL d   1      -4.974   1.412   0.290  0.00  0.00    -0.070 Cl
ENDROOT
TORSDOF 0
ENDMDL
