MODEL 1
REMARK minimizedAffinity 4.45868349
REMARK minimizedRMSD -1
REMARK  0 active torsions:
REMARK  status: ('A' for Active; 'I' for Inactive)
ROOT
ATOM      1  C   UNL d   1       2.312  -0.678  -3.050  0.00  0.00     0.020 A 
ATOM      2  C1  UNL d   1       1.915  -1.762  -2.268  0.00  0.00     0.020 A 
ATOM      3  C2  UNL d   1       2.062  -1.713  -0.880  0.00  0.00     0.034 A 
ATOM      4  C3  UNL d   1       2.607  -0.577  -0.270  0.00  0.00     0.017 A 
ATOM      5  C4  UNL d   1       3.004   0.511  -1.056  0.00  0.00     0.017 A 
ATOM      6  C5  UNL d   1       2.855   0.456  -2.445  0.00  0.00     0.034 A 
ATOM      7 Cl   UNL d   1       3.684   1.946  -0.374  0.00  0.00    -0.070 Cl
ATOM      8 Cl1  UNL d   1       2.759  -0.585   1.451  0.00  0.00    -0.070 Cl
ENDROOT
TORSDOF 0
ENDMDL
