MODEL 1
REMARK minimizedAffinity -2.406358
REMARK minimizedRMSD -1
REMARK  0 active torsions:
REMARK  status: ('A' for Active; 'I' for Inactive)
ROOT
ATOM      1  C   UNL d   1      -4.090   3.614  -2.809  0.00  0.00     0.020 A 
ATOM      2  C1  UNL d   1      -5.466   3.407  -2.892  0.00  0.00     0.020 A 
ATOM      3  C2  UNL d   1      -5.963   2.243  -3.481  0.00  0.00     0.034 A 
ATOM      4  C3  UNL d   1      -5.084   1.280  -3.989  0.00  0.00     0.017 A 
ATOM      5  C4  UNL d   1      -3.702   1.488  -3.905  0.00  0.00     0.017 A 
ATOM      6  C5  UNL d   1      -3.210   2.656  -3.314  0.00  0.00     0.034 A 
ATOM      7 Cl   UNL d   1      -2.554   0.346  -4.510  0.00  0.00    -0.070 Cl
ATOM      8 Cl1  UNL d   1      -5.768  -0.136  -4.704  0.00  0.00    -0.070 Cl
ENDROOT
TORSDOF 0
ENDMDL
