MODEL 1
REMARK minimizedAffinity 2.29742742
REMARK minimizedRMSD -1
REMARK  0 active torsions:
REMARK  status: ('A' for Active; 'I' for Inactive)
ROOT
ATOM      1  C   UNL d   1      -4.320   2.359  -3.772  0.00  0.00     0.020 A 
ATOM      2  C1  UNL d   1      -3.487   1.453  -4.428  0.00  0.00     0.020 A 
ATOM      3  C2  UNL d   1      -3.231   0.203  -3.860  0.00  0.00     0.034 A 
ATOM      4  C3  UNL d   1      -3.809  -0.144  -2.633  0.00  0.00     0.017 A 
ATOM      5  C4  UNL d   1      -4.645   0.766  -1.976  0.00  0.00     0.017 A 
ATOM      6  C5  UNL d   1      -4.897   2.017  -2.549  0.00  0.00     0.034 A 
ATOM      7 Cl   UNL d   1      -5.394   0.410  -0.460  0.00  0.00    -0.070 Cl
ATOM      8 Cl1  UNL d   1      -3.450  -1.707  -1.990  0.00  0.00    -0.070 Cl
ENDROOT
TORSDOF 0
ENDMDL
