MODEL 1
REMARK minimizedAffinity -2.36443949
REMARK minimizedRMSD -1
REMARK  0 active torsions:
REMARK  status: ('A' for Active; 'I' for Inactive)
ROOT
ATOM      1  C   UNL d   1       5.309  -0.514  -3.844  0.00  0.00     0.023 A 
ATOM      2  C1  UNL d   1       4.499  -1.497  -3.275  0.00  0.00     0.003 A 
ATOM      3  C2  UNL d   1       4.376  -2.744  -3.890  0.00  0.00     0.048 A 
ATOM      4  C3  UNL d   1       5.068  -3.003  -5.073  0.00  0.00     0.023 A 
ATOM      5  C4  UNL d   1       5.881  -2.023  -5.645  0.00  0.00     0.048 A 
ATOM      6  C5  UNL d   1       6.000  -0.777  -5.027  0.00  0.00     0.003 A 
ATOM      7  I   UNL d   1       4.888  -4.859  -5.990  0.00  0.00    -0.146 I 
ENDROOT
TORSDOF 0
ENDMDL
