MODEL 1
REMARK minimizedAffinity 0.142844006
REMARK minimizedRMSD -1
REMARK  0 active torsions:
REMARK  status: ('A' for Active; 'I' for Inactive)
ROOT
ATOM      1  C   UNL d   1      -5.995   3.883  -2.838  0.00  0.00     0.023 A 
ATOM      2  C1  UNL d   1      -4.939   4.307  -3.645  0.00  0.00     0.003 A 
ATOM      3  C2  UNL d   1      -3.824   3.486  -3.826  0.00  0.00     0.048 A 
ATOM      4  C3  UNL d   1      -3.772   2.242  -3.198  0.00  0.00     0.023 A 
ATOM      5  C4  UNL d   1      -4.826   1.814  -2.390  0.00  0.00     0.048 A 
ATOM      6  C5  UNL d   1      -5.938   2.638  -2.211  0.00  0.00     0.003 A 
ATOM      7  I   UNL d   1      -2.113   1.019  -3.467  0.00  0.00    -0.146 I 
ENDROOT
TORSDOF 0
ENDMDL
