MODEL 1
REMARK minimizedAffinity 8.46663475
REMARK minimizedRMSD -1
REMARK  0 active torsions:
REMARK  status: ('A' for Active; 'I' for Inactive)
ROOT
ATOM      1  C   UNL d   1      -0.907   0.072  -2.498  0.00  0.00     0.023 A 
ATOM      2  C1  UNL d   1      -0.718   1.406  -2.135  0.00  0.00     0.003 A 
ATOM      3  C2  UNL d   1      -1.732   2.341  -2.353  0.00  0.00     0.048 A 
ATOM      4  C3  UNL d   1      -2.933   1.935  -2.933  0.00  0.00     0.023 A 
ATOM      5  C4  UNL d   1      -3.128   0.602  -3.297  0.00  0.00     0.048 A 
ATOM      6  C5  UNL d   1      -2.111  -0.329  -3.079  0.00  0.00     0.003 A 
ATOM      7  I   UNL d   1      -4.444   3.325  -3.258  0.00  0.00    -0.146 I 
ENDROOT
TORSDOF 0
ENDMDL
