MODEL 1
REMARK minimizedAffinity 2.2302773
REMARK minimizedRMSD -1
REMARK  0 active torsions:
REMARK  status: ('A' for Active; 'I' for Inactive)
ROOT
ATOM      1  C   UNL d   1       5.511  -0.499  -4.127  0.00  0.00     0.023 A 
ATOM      2  C1  UNL d   1       5.244  -1.614  -3.331  0.00  0.00     0.003 A 
ATOM      3  C2  UNL d   1       5.354  -2.898  -3.867  0.00  0.00     0.048 A 
ATOM      4  C3  UNL d   1       5.731  -3.062  -5.199  0.00  0.00     0.023 A 
ATOM      5  C4  UNL d   1       6.000  -1.950  -5.999  0.00  0.00     0.048 A 
ATOM      6  C5  UNL d   1       5.888  -0.667  -5.459  0.00  0.00     0.003 A 
ATOM      7  I   UNL d   1       5.896  -4.973  -5.999  0.00  0.00    -0.146 I 
ENDROOT
TORSDOF 0
ENDMDL
