MODEL 1
REMARK minimizedAffinity -1.01795089
REMARK minimizedRMSD -1
REMARK  0 active torsions:
REMARK  status: ('A' for Active; 'I' for Inactive)
ROOT
ATOM      1  C   UNL d   1      -5.648   4.213  -2.773  0.00  0.00     0.023 A 
ATOM      2  C1  UNL d   1      -5.637   2.937  -2.209  0.00  0.00     0.003 A 
ATOM      3  C2  UNL d   1      -4.600   2.050  -2.505  0.00  0.00     0.048 A 
ATOM      4  C3  UNL d   1      -3.576   2.446  -3.364  0.00  0.00     0.023 A 
ATOM      5  C4  UNL d   1      -3.582   3.722  -3.930  0.00  0.00     0.048 A 
ATOM      6  C5  UNL d   1      -4.622   4.605  -3.632  0.00  0.00     0.003 A 
ATOM      7  I   UNL d   1      -2.031   1.129  -3.806  0.00  0.00    -0.146 I 
ENDROOT
TORSDOF 0
ENDMDL
