MODEL 1
REMARK minimizedAffinity 4.63742876
REMARK minimizedRMSD -1
REMARK  0 active torsions:
REMARK  status: ('A' for Active; 'I' for Inactive)
ROOT
ATOM      1  C   UNL d   1       5.653  -1.341  -5.020  0.00  0.00     0.023 A 
ATOM      2  C1  UNL d   1       4.930  -1.745  -3.898  0.00  0.00     0.003 A 
ATOM      3  C2  UNL d   1       4.551  -3.081  -3.753  0.00  0.00     0.048 A 
ATOM      4  C3  UNL d   1       4.899  -4.009  -4.734  0.00  0.00     0.023 A 
ATOM      5  C4  UNL d   1       5.624  -3.610  -5.859  0.00  0.00     0.048 A 
ATOM      6  C5  UNL d   1       5.999  -2.272  -6.000  0.00  0.00     0.003 A 
ATOM      7  I   UNL d   1       4.337  -5.998  -4.521  0.00  0.00    -0.146 I 
ENDROOT
TORSDOF 0
ENDMDL
