MODEL 1
REMARK minimizedAffinity 14.2245188
REMARK minimizedRMSD -1
REMARK  0 active torsions:
REMARK  status: ('A' for Active; 'I' for Inactive)
ROOT
ATOM      1  C   UNL d   1      -2.545   0.654  -3.024  0.00  0.00     0.023 A 
ATOM      2  C1  UNL d   1      -2.403   1.538  -4.094  0.00  0.00     0.003 A 
ATOM      3  C2  UNL d   1      -3.159   2.712  -4.136  0.00  0.00     0.048 A 
ATOM      4  C3  UNL d   1      -4.053   2.996  -3.105  0.00  0.00     0.023 A 
ATOM      5  C4  UNL d   1      -4.197   2.115  -2.032  0.00  0.00     0.048 A 
ATOM      6  C5  UNL d   1      -3.440   0.942  -1.995  0.00  0.00     0.003 A 
ATOM      7  I   UNL d   1      -5.179   4.742  -3.165  0.00  0.00    -0.146 I 
ENDROOT
TORSDOF 0
ENDMDL
