MODEL 1
REMARK minimizedAffinity 0.872303665
REMARK minimizedRMSD -1
REMARK  0 active torsions:
REMARK  status: ('A' for Active; 'I' for Inactive)
ROOT
ATOM      1  C   UNL d   1       5.657  -5.685  -5.502  0.00  0.00     0.023 A 
ATOM      2  C1  UNL d   1       5.759  -4.385  -5.999  0.00  0.00     0.003 A 
ATOM      3  C2  UNL d   1       4.875  -3.398  -5.560  0.00  0.00     0.048 A 
ATOM      4  C3  UNL d   1       3.892  -3.717  -4.623  0.00  0.00     0.023 A 
ATOM      5  C4  UNL d   1       3.787  -5.016  -4.123  0.00  0.00     0.048 A 
ATOM      6  C5  UNL d   1       4.673  -6.000  -4.566  0.00  0.00     0.003 A 
ATOM      7  I   UNL d   1       2.575  -2.248  -3.968  0.00  0.00    -0.146 I 
ENDROOT
TORSDOF 0
ENDMDL
