MODEL 1
REMARK minimizedAffinity 2.8932755
REMARK minimizedRMSD -1
REMARK  0 active torsions:
REMARK  status: ('A' for Active; 'I' for Inactive)
ROOT
ATOM      1  C   UNL d   1      -2.282   0.564  -2.725  0.00  0.00     0.023 A 
ATOM      2  C1  UNL d   1      -2.934   0.909  -3.909  0.00  0.00     0.003 A 
ATOM      3  C2  UNL d   1      -3.779   2.020  -3.944  0.00  0.00     0.048 A 
ATOM      4  C3  UNL d   1      -3.967   2.783  -2.792  0.00  0.00     0.023 A 
ATOM      5  C4  UNL d   1      -3.316   2.442  -1.606  0.00  0.00     0.048 A 
ATOM      6  C5  UNL d   1      -2.473   1.330  -1.575  0.00  0.00     0.003 A 
ATOM      7  I   UNL d   1      -5.223   4.438  -2.842  0.00  0.00    -0.146 I 
ENDROOT
TORSDOF 0
ENDMDL
