MODEL 1
REMARK minimizedAffinity 14.1764784
REMARK minimizedRMSD -1
REMARK  0 active torsions:
REMARK  status: ('A' for Active; 'I' for Inactive)
ROOT
ATOM      1  C   UNL d   1      -1.566   0.230  -1.552  0.00  0.00     0.023 A 
ATOM      2  C1  UNL d   1      -1.597   1.480  -0.932  0.00  0.00     0.003 A 
ATOM      3  C2  UNL d   1      -2.421   2.489  -1.434  0.00  0.00     0.048 A 
ATOM      4  C3  UNL d   1      -3.212   2.242  -2.555  0.00  0.00     0.023 A 
ATOM      5  C4  UNL d   1      -3.185   0.994  -3.178  0.00  0.00     0.048 A 
ATOM      6  C5  UNL d   1      -2.359  -0.012  -2.674  0.00  0.00     0.003 A 
ATOM      7  I   UNL d   1      -4.440   3.743  -3.303  0.00  0.00    -0.146 I 
ENDROOT
TORSDOF 0
ENDMDL
