MODEL 1
REMARK minimizedAffinity 9.01173496
REMARK minimizedRMSD -1
REMARK  0 active torsions:
REMARK  status: ('A' for Active; 'I' for Inactive)
ROOT
ATOM      1  C   UNL d   1      -5.274   4.156  -2.724  0.00  0.00     0.023 A 
ATOM      2  C1  UNL d   1      -4.387   4.044  -3.795  0.00  0.00     0.003 A 
ATOM      3  C2  UNL d   1      -3.492   2.973  -3.852  0.00  0.00     0.048 A 
ATOM      4  C3  UNL d   1      -3.490   2.018  -2.837  0.00  0.00     0.023 A 
ATOM      5  C4  UNL d   1      -4.377   2.126  -1.764  0.00  0.00     0.048 A 
ATOM      6  C5  UNL d   1      -5.269   3.198  -1.710  0.00  0.00     0.003 A 
ATOM      7  I   UNL d   1      -2.159   0.424  -2.920  0.00  0.00    -0.146 I 
ENDROOT
TORSDOF 0
ENDMDL
