MODEL 1
REMARK minimizedAffinity 9.81546497
REMARK minimizedRMSD -1
REMARK  0 active torsions:
REMARK  status: ('A' for Active; 'I' for Inactive)
ROOT
ATOM      1  C   UNL d   1      -0.308  -2.474  -0.268  0.00  0.00     0.023 A 
ATOM      2  C1  UNL d   1      -0.558  -1.673  -1.382  0.00  0.00     0.003 A 
ATOM      3  C2  UNL d   1      -0.963  -0.347  -1.213  0.00  0.00     0.048 A 
ATOM      4  C3  UNL d   1      -1.115   0.171   0.072  0.00  0.00     0.023 A 
ATOM      5  C4  UNL d   1      -0.866  -0.627   1.190  0.00  0.00     0.048 A 
ATOM      6  C5  UNL d   1      -0.462  -1.952   1.016  0.00  0.00     0.003 A 
ATOM      7  I   UNL d   1      -1.718   2.144   0.326  0.00  0.00    -0.146 I 
ENDROOT
TORSDOF 0
ENDMDL
