MODEL 1
REMARK minimizedAffinity -0.153370455
REMARK minimizedRMSD -1
REMARK  1 active torsions:
REMARK  status: ('A' for Active; 'I' for Inactive)
REMARK    1  A    between atoms: C1_2  and  C2_3 
ROOT
ATOM      1  C2  UNL d   1      -0.362  -0.449  -0.264  0.00  0.00    -0.077 A 
ATOM      2  C3  UNL d   1      -0.408  -1.484  -1.209  0.00  0.00     0.002 A 
ATOM      3  C4  UNL d   1      -0.832  -2.761  -0.838  0.00  0.00     0.002 A 
ATOM      4  C5  UNL d   1      -1.218  -3.014   0.477  0.00  0.00    -0.004 A 
ATOM      5  C6  UNL d   1      -1.174  -1.992   1.425  0.00  0.00     0.002 A 
ATOM      6  C7  UNL d   1      -0.749  -0.715   1.055  0.00  0.00     0.002 A 
ENDROOT
BRANCH   1   7
ATOM      7  C1  UNL d   1       0.049   0.941  -0.674  0.00  0.00     0.055 C 
ATOM      8  C   UNL d   1       1.206   1.449   0.174  0.00  0.00     0.019 C 
ENDBRANCH   1   7
TORSDOF 1
ENDMDL
