MODEL 1
REMARK minimizedAffinity 1.55120599
REMARK minimizedRMSD -1
REMARK  1 active torsions:
REMARK  status: ('A' for Active; 'I' for Inactive)
REMARK    1  A    between atoms: C1_2  and  C2_3 
ROOT
ATOM      1  C2  UNL d   1       0.274   0.432  -0.332  0.00  0.00    -0.077 A 
ATOM      2  C3  UNL d   1      -0.388   0.132  -1.531  0.00  0.00     0.002 A 
ATOM      3  C4  UNL d   1       0.340  -0.153  -2.687  0.00  0.00     0.002 A 
ATOM      4  C5  UNL d   1       1.733  -0.145  -2.655  0.00  0.00    -0.004 A 
ATOM      5  C6  UNL d   1       2.401   0.155  -1.468  0.00  0.00     0.002 A 
ATOM      6  C7  UNL d   1       1.674   0.441  -0.312  0.00  0.00     0.002 A 
ENDROOT
BRANCH   1   7
ATOM      7  C1  UNL d   1      -0.510   0.692   0.928  0.00  0.00     0.055 C 
ATOM      8  C   UNL d   1      -1.533  -0.406   1.180  0.00  0.00     0.019 C 
ENDBRANCH   1   7
TORSDOF 1
ENDMDL
