MODEL 1
REMARK minimizedAffinity -0.991825819
REMARK minimizedRMSD -1
REMARK  1 active torsions:
REMARK  status: ('A' for Active; 'I' for Inactive)
REMARK    1  A    between atoms: C1_2  and  C2_3 
ROOT
ATOM      1  C2  UNL d   1       0.983   1.598   0.037  0.00  0.00    -0.077 A 
ATOM      2  C3  UNL d   1       2.342   1.469  -0.281  0.00  0.00     0.002 A 
ATOM      3  C4  UNL d   1       3.266   2.413   0.173  0.00  0.00     0.002 A 
ATOM      4  C5  UNL d   1       2.842   3.488   0.950  0.00  0.00    -0.004 A 
ATOM      5  C6  UNL d   1       1.491   3.627   1.270  0.00  0.00     0.002 A 
ATOM      6  C7  UNL d   1       0.566   2.685   0.816  0.00  0.00     0.002 A 
ENDROOT
BRANCH   1   7
ATOM      7  C1  UNL d   1      -0.008   0.555  -0.410  0.00  0.00     0.055 C 
ATOM      8  C   UNL d   1      -0.840   0.045   0.758  0.00  0.00     0.019 C 
ENDBRANCH   1   7
TORSDOF 1
ENDMDL
