MODEL 1
REMARK minimizedAffinity -1.6965729
REMARK minimizedRMSD -1
REMARK  1 active torsions:
REMARK  status: ('A' for Active; 'I' for Inactive)
REMARK    1  A    between atoms: C1_2  and  C2_3 
ROOT
ATOM      1  C2  UNL d   1       0.679   1.761   0.438  0.00  0.00    -0.077 A 
ATOM      2  C3  UNL d   1      -0.290   2.752   0.652  0.00  0.00     0.002 A 
ATOM      3  C4  UNL d   1       0.072   3.988   1.189  0.00  0.00     0.002 A 
ATOM      4  C5  UNL d   1       1.402   4.247   1.514  0.00  0.00    -0.004 A 
ATOM      5  C6  UNL d   1       2.372   3.267   1.307  0.00  0.00     0.002 A 
ATOM      6  C7  UNL d   1       2.012   2.030   0.770  0.00  0.00     0.002 A 
ENDROOT
BRANCH   1   7
ATOM      7  C1  UNL d   1       0.299   0.444  -0.188  0.00  0.00     0.055 C 
ATOM      8  C   UNL d   1      -0.943  -0.143   0.468  0.00  0.00     0.019 C 
ENDBRANCH   1   7
TORSDOF 1
ENDMDL
