MODEL 1
REMARK minimizedAffinity 1.74060965
REMARK minimizedRMSD -1
REMARK  1 active torsions:
REMARK  status: ('A' for Active; 'I' for Inactive)
REMARK    1  A    between atoms: C1_2  and  C2_3 
ROOT
ATOM      1  C2  UNL d   1      -0.366  -0.343  -0.285  0.00  0.00    -0.077 A 
ATOM      2  C3  UNL d   1      -0.260   0.089   1.044  0.00  0.00     0.002 A 
ATOM      3  C4  UNL d   1      -0.636  -0.752   2.093  0.00  0.00     0.002 A 
ATOM      4  C5  UNL d   1      -1.118  -2.032   1.823  0.00  0.00    -0.004 A 
ATOM      5  C6  UNL d   1      -1.230  -2.470   0.505  0.00  0.00     0.002 A 
ATOM      6  C7  UNL d   1      -0.855  -1.630  -0.545  0.00  0.00     0.002 A 
ENDROOT
BRANCH   1   7
ATOM      7  C1  UNL d   1       0.086   0.544  -1.415  0.00  0.00     0.055 C 
ATOM      8  C   UNL d   1       0.425  -0.269  -2.656  0.00  0.00     0.019 C 
ENDBRANCH   1   7
TORSDOF 1
ENDMDL
