MODEL 1
REMARK minimizedAffinity 3.76667047
REMARK minimizedRMSD -1
REMARK  1 active torsions:
REMARK  status: ('A' for Active; 'I' for Inactive)
REMARK    1  A    between atoms: C1_2  and  C2_3 
ROOT
ATOM      1  C2  UNL d   1       1.634   2.228   0.954  0.00  0.00    -0.077 A 
ATOM      2  C3  UNL d   1       0.326   1.821   1.250  0.00  0.00     0.002 A 
ATOM      3  C4  UNL d   1      -0.225   0.702   0.622  0.00  0.00     0.002 A 
ATOM      4  C5  UNL d   1       0.526  -0.020  -0.303  0.00  0.00    -0.004 A 
ATOM      5  C6  UNL d   1       1.828   0.378  -0.605  0.00  0.00     0.002 A 
ATOM      6  C7  UNL d   1       2.379   1.496   0.021  0.00  0.00     0.002 A 
ENDROOT
BRANCH   1   7
ATOM      7  C1  UNL d   1       2.247   3.405   1.667  0.00  0.00     0.055 C 
ATOM      8  C   UNL d   1       1.272   4.020   2.660  0.00  0.00     0.019 C 
ENDBRANCH   1   7
TORSDOF 1
ENDMDL
