MODEL 1
REMARK minimizedAffinity -1.67093182
REMARK minimizedRMSD -1
REMARK  1 active torsions:
REMARK  status: ('A' for Active; 'I' for Inactive)
REMARK    1  A    between atoms: C1_2  and  C2_3 
ROOT
ATOM      1  C2  UNL d   1       0.784   2.096  -0.033  0.00  0.00    -0.077 A 
ATOM      2  C3  UNL d   1       0.253   3.201   0.648  0.00  0.00     0.002 A 
ATOM      3  C4  UNL d   1       1.093   4.209   1.123  0.00  0.00     0.002 A 
ATOM      4  C5  UNL d   1       2.469   4.125   0.919  0.00  0.00    -0.004 A 
ATOM      5  C6  UNL d   1       3.008   3.030   0.245  0.00  0.00     0.002 A 
ATOM      6  C7  UNL d   1       2.169   2.020  -0.229  0.00  0.00     0.002 A 
ENDROOT
BRANCH   1   7
ATOM      7  C1  UNL d   1      -0.126   1.032  -0.589  0.00  0.00     0.055 C 
ATOM      8  C   UNL d   1      -0.694   0.156   0.518  0.00  0.00     0.019 C 
ENDBRANCH   1   7
TORSDOF 1
ENDMDL
