MODEL 1
REMARK minimizedAffinity -2.34110475
REMARK minimizedRMSD -1
REMARK  1 active torsions:
REMARK  status: ('A' for Active; 'I' for Inactive)
REMARK    1  A    between atoms: C1_2  and  C2_3 
ROOT
ATOM      1  C2  UNL d   1      -0.536  -0.065  -0.506  0.00  0.00    -0.077 A 
ATOM      2  C3  UNL d   1      -0.292   0.512   0.748  0.00  0.00     0.002 A 
ATOM      3  C4  UNL d   1      -0.597  -0.186   1.918  0.00  0.00     0.002 A 
ATOM      4  C5  UNL d   1      -1.142  -1.466   1.846  0.00  0.00    -0.004 A 
ATOM      5  C6  UNL d   1      -1.390  -2.048   0.603  0.00  0.00     0.002 A 
ATOM      6  C7  UNL d   1      -1.088  -1.351  -0.568  0.00  0.00     0.002 A 
ENDROOT
BRANCH   1   7
ATOM      7  C1  UNL d   1      -0.163   0.667  -1.769  0.00  0.00     0.055 C 
ATOM      8  C   UNL d   1       0.373  -0.289  -2.825  0.00  0.00     0.019 C 
ENDBRANCH   1   7
TORSDOF 1
ENDMDL
