MODEL 1
REMARK minimizedAffinity 5.72696781
REMARK minimizedRMSD -1
REMARK  1 active torsions:
REMARK  status: ('A' for Active; 'I' for Inactive)
REMARK    1  A    between atoms: C1_2  and  C2_3 
ROOT
ATOM      1  C2  UNL d   1       0.134   1.419   0.666  0.00  0.00    -0.077 A 
ATOM      2  C3  UNL d   1      -0.309   2.701   1.019  0.00  0.00     0.002 A 
ATOM      3  C4  UNL d   1       0.580   3.777   1.032  0.00  0.00     0.002 A 
ATOM      4  C5  UNL d   1       1.917   3.583   0.690  0.00  0.00    -0.004 A 
ATOM      5  C6  UNL d   1       2.368   2.311   0.340  0.00  0.00     0.002 A 
ATOM      6  C7  UNL d   1       1.481   1.234   0.327  0.00  0.00     0.002 A 
ENDROOT
BRANCH   1   7
ATOM      7  C1  UNL d   1      -0.834   0.266   0.604  0.00  0.00     0.055 C 
ATOM      8  C   UNL d   1      -1.328  -0.117   1.991  0.00  0.00     0.019 C 
ENDBRANCH   1   7
TORSDOF 1
ENDMDL
