MODEL 1
REMARK minimizedAffinity -4.33308744
REMARK minimizedRMSD -1
REMARK  1 active torsions:
REMARK  status: ('A' for Active; 'I' for Inactive)
REMARK    1  A    between atoms: C1_2  and  C2_3 
ROOT
ATOM      1  C2  UNL d   1       1.871   2.002   0.115  0.00  0.00    -0.077 A 
ATOM      2  C3  UNL d   1       0.523   1.701   0.357  0.00  0.00     0.002 A 
ATOM      3  C4  UNL d   1      -0.093   0.636  -0.303  0.00  0.00     0.002 A 
ATOM      4  C5  UNL d   1       0.632  -0.138  -1.207  0.00  0.00    -0.004 A 
ATOM      5  C6  UNL d   1       1.972   0.154  -1.456  0.00  0.00     0.002 A 
ATOM      6  C7  UNL d   1       2.589   1.219  -0.798  0.00  0.00     0.002 A 
ENDROOT
BRANCH   1   7
ATOM      7  C1  UNL d   1       2.550   3.119   0.863  0.00  0.00     0.055 C 
ATOM      8  C   UNL d   1       1.545   3.959   1.637  0.00  0.00     0.019 C 
ENDBRANCH   1   7
TORSDOF 1
ENDMDL
