MODEL 1
REMARK minimizedAffinity -5.67902946
REMARK minimizedRMSD -1
REMARK  1 active torsions:
REMARK  status: ('A' for Active; 'I' for Inactive)
REMARK    1  A    between atoms: C1_2  and  C2_3 
ROOT
ATOM      1  C2  UNL d   1      -0.215  -0.397   0.020  0.00  0.00    -0.077 A 
ATOM      2  C3  UNL d   1      -0.038  -1.143  -1.154  0.00  0.00     0.002 A 
ATOM      3  C4  UNL d   1       0.080  -2.533  -1.096  0.00  0.00     0.002 A 
ATOM      4  C5  UNL d   1       0.018  -3.189   0.132  0.00  0.00    -0.004 A 
ATOM      5  C6  UNL d   1      -0.155  -2.456   1.305  0.00  0.00     0.002 A 
ATOM      6  C7  UNL d   1      -0.272  -1.066   1.249  0.00  0.00     0.002 A 
ENDROOT
BRANCH   1   7
ATOM      7  C1  UNL d   1      -0.392   1.097  -0.045  0.00  0.00     0.055 C 
ATOM      8  C   UNL d   1       0.742   1.820   0.668  0.00  0.00     0.019 C 
ENDBRANCH   1   7
TORSDOF 1
ENDMDL
