MODEL 1
REMARK minimizedAffinity -3.56886935
REMARK minimizedRMSD -1
REMARK  1 active torsions:
REMARK  status: ('A' for Active; 'I' for Inactive)
REMARK    1  A    between atoms: C1_2  and  C2_3 
ROOT
ATOM      1  C2  UNL d   1      -0.469   0.038  -0.074  0.00  0.00    -0.077 A 
ATOM      2  C3  UNL d   1      -0.691   0.068   1.310  0.00  0.00     0.002 A 
ATOM      3  C4  UNL d   1      -1.016  -1.102   1.999  0.00  0.00     0.002 A 
ATOM      4  C5  UNL d   1      -1.118  -2.311   1.313  0.00  0.00    -0.004 A 
ATOM      5  C6  UNL d   1      -0.901  -2.351  -0.063  0.00  0.00     0.002 A 
ATOM      6  C7  UNL d   1      -0.577  -1.182  -0.754  0.00  0.00     0.002 A 
ENDROOT
BRANCH   1   7
ATOM      7  C1  UNL d   1      -0.069   1.289  -0.810  0.00  0.00     0.055 C 
ATOM      8  C   UNL d   1       0.726   2.229   0.085  0.00  0.00     0.019 C 
ENDBRANCH   1   7
TORSDOF 1
ENDMDL
