MODEL 1
REMARK minimizedAffinity -4.47666073
REMARK minimizedRMSD -1
REMARK  1 active torsions:
REMARK  status: ('A' for Active; 'I' for Inactive)
REMARK    1  A    between atoms: C1_2  and  C2_3 
ROOT
ATOM      1  C2  UNL d   1      -0.601  -1.208  -0.154  0.00  0.00    -0.077 A 
ATOM      2  C3  UNL d   1      -0.596   0.106   0.334  0.00  0.00     0.002 A 
ATOM      3  C4  UNL d   1      -0.154   1.157  -0.471  0.00  0.00     0.002 A 
ATOM      4  C5  UNL d   1       0.282   0.906  -1.770  0.00  0.00    -0.004 A 
ATOM      5  C6  UNL d   1       0.283  -0.398  -2.265  0.00  0.00     0.002 A 
ATOM      6  C7  UNL d   1      -0.157  -1.450  -1.461  0.00  0.00     0.002 A 
ENDROOT
BRANCH   1   7
ATOM      7  C1  UNL d   1      -1.124  -2.337   0.695  0.00  0.00     0.055 C 
ATOM      8  C   UNL d   1      -0.634  -3.685   0.188  0.00  0.00     0.019 C 
ENDBRANCH   1   7
TORSDOF 1
ENDMDL
