MODEL 1
REMARK minimizedAffinity 4.88768816
REMARK minimizedRMSD -1
REMARK  3 active torsions:
REMARK  status: ('A' for Active; 'I' for Inactive)
REMARK    1  A    between atoms: C3'_2  and  C2'_3 
REMARK    2  A    between atoms: C2'_3  and  C1'_4 
REMARK    3  A    between atoms: C1'_4  and  C1_5 
ROOT
ATOM      1  C1  N4B d   1       0.089  -0.044   0.533  0.00  0.00    -0.075 A 
ATOM      2  C2  N4B d   1      -0.451  -0.552  -0.669  0.00  0.00     0.002 A 
ATOM      3  C3  N4B d   1      -1.790  -0.406  -0.935  0.00  0.00     0.002 A 
ATOM      4  C4  N4B d   1      -2.609   0.225  -0.011  0.00  0.00    -0.004 A 
ATOM      5  C5  N4B d   1      -2.074   0.736   1.136  0.00  0.00     0.002 A 
ATOM      6  C6  N4B d   1      -0.729   0.600   1.415  0.00  0.00     0.002 A 
ENDROOT
BRANCH   1   7
ATOM      7  C1' N4B d   1       1.531  -0.255   0.907  0.00  0.00     0.057 C 
BRANCH   7   8
ATOM      8  C2' N4B d   1       2.370   0.880   0.329  0.00  0.00     0.009 C 
BRANCH   8   9
ATOM      9  C3' N4B d   1       2.748   1.904   1.386  0.00  0.00     0.004 C 
ATOM     10  C4' N4B d   1       1.946   3.167   1.284  0.00  0.00     0.003 C 
ENDBRANCH   8   9
ENDBRANCH   7   8
ENDBRANCH   1   7
TORSDOF 3
ENDMDL
