MODEL 1
REMARK minimizedAffinity -1.22768688
REMARK minimizedRMSD -1
REMARK  3 active torsions:
REMARK  status: ('A' for Active; 'I' for Inactive)
REMARK    1  A    between atoms: C3'_2  and  C2'_3 
REMARK    2  A    between atoms: C2'_3  and  C1'_4 
REMARK    3  A    between atoms: C1'_4  and  C1_5 
ROOT
ATOM      1  C1  N4B d   1      -1.429  -0.456   3.476  0.00  0.00    -0.075 A 
ATOM      2  C2  N4B d   1      -2.513  -1.217   3.966  0.00  0.00     0.002 A 
ATOM      3  C3  N4B d   1      -2.284  -2.271   4.816  0.00  0.00     0.002 A 
ATOM      4  C4  N4B d   1      -0.983  -2.595   5.172  0.00  0.00    -0.004 A 
ATOM      5  C5  N4B d   1       0.057  -1.840   4.714  0.00  0.00     0.002 A 
ATOM      6  C6  N4B d   1      -0.160  -0.774   3.863  0.00  0.00     0.002 A 
ENDROOT
BRANCH   1   7
ATOM      7  C1' N4B d   1      -1.624   0.652   2.478  0.00  0.00     0.057 C 
BRANCH   7   8
ATOM      8  C2' N4B d   1      -0.994   0.245   1.149  0.00  0.00     0.009 C 
BRANCH   8   9
ATOM      9  C3' N4B d   1      -2.042  -0.043   0.088  0.00  0.00     0.004 C 
ATOM     10  C4' N4B d   1      -1.474  -0.728  -1.119  0.00  0.00     0.003 C 
ENDBRANCH   8   9
ENDBRANCH   7   8
ENDBRANCH   1   7
TORSDOF 3
ENDMDL
