MODEL 1
REMARK minimizedAffinity -0.181789324
REMARK minimizedRMSD -1
REMARK  3 active torsions:
REMARK  status: ('A' for Active; 'I' for Inactive)
REMARK    1  A    between atoms: C3'_2  and  C2'_3 
REMARK    2  A    between atoms: C2'_3  and  C1'_4 
REMARK    3  A    between atoms: C1'_4  and  C1_5 
ROOT
ATOM      1  C1  N4B d   1      -0.057  -0.441   1.964  0.00  0.00    -0.075 A 
ATOM      2  C2  N4B d   1      -1.293   0.079   2.406  0.00  0.00     0.002 A 
ATOM      3  C3  N4B d   1      -2.281   0.371   1.497  0.00  0.00     0.002 A 
ATOM      4  C4  N4B d   1      -2.049   0.170   0.145  0.00  0.00    -0.004 A 
ATOM      5  C5  N4B d   1      -0.861  -0.356  -0.272  0.00  0.00     0.002 A 
ATOM      6  C6  N4B d   1       0.138  -0.658   0.630  0.00  0.00     0.002 A 
ENDROOT
BRANCH   1   7
ATOM      7  C1' N4B d   1       1.083  -0.694   2.911  0.00  0.00     0.057 C 
BRANCH   7   8
ATOM      8  C2' N4B d   1       0.573  -1.496   4.105  0.00  0.00     0.009 C 
BRANCH   8   9
ATOM      9  C3' N4B d   1       1.654  -1.709   5.151  0.00  0.00     0.004 C 
ATOM     10  C4' N4B d   1       1.893  -0.493   5.994  0.00  0.00     0.003 C 
ENDBRANCH   8   9
ENDBRANCH   7   8
ENDBRANCH   1   7
TORSDOF 3
ENDMDL
