MODEL 1
REMARK minimizedAffinity 5.24798775
REMARK minimizedRMSD -1
REMARK  3 active torsions:
REMARK  status: ('A' for Active; 'I' for Inactive)
REMARK    1  A    between atoms: C3'_2  and  C2'_3 
REMARK    2  A    between atoms: C2'_3  and  C1'_4 
REMARK    3  A    between atoms: C1'_4  and  C1_5 
ROOT
ATOM      1  C1  N4B d   1      -0.483   0.190  -3.773  0.00  0.00    -0.075 A 
ATOM      2  C2  N4B d   1      -0.887  -0.796  -4.700  0.00  0.00     0.002 A 
ATOM      3  C3  N4B d   1      -0.026  -1.201  -5.690  0.00  0.00     0.002 A 
ATOM      4  C4  N4B d   1       1.231  -0.624  -5.785  0.00  0.00    -0.004 A 
ATOM      5  C5  N4B d   1       1.623   0.309  -4.870  0.00  0.00     0.002 A 
ATOM      6  C6  N4B d   1       0.770   0.723  -3.867  0.00  0.00     0.002 A 
ENDROOT
BRANCH   1   7
ATOM      7  C1' N4B d   1      -1.420   0.727  -2.726  0.00  0.00     0.057 C 
BRANCH   7   8
ATOM      8  C2' N4B d   1      -1.474  -0.249  -1.555  0.00  0.00     0.009 C 
BRANCH   8   9
ATOM      9  C3' N4B d   1      -2.671   0.009  -0.655  0.00  0.00     0.004 C 
ATOM     10  C4' N4B d   1      -2.277   0.429   0.729  0.00  0.00     0.003 C 
ENDBRANCH   8   9
ENDBRANCH   7   8
ENDBRANCH   1   7
TORSDOF 3
ENDMDL
