MODEL 1
REMARK minimizedAffinity -3.6771071
REMARK minimizedRMSD -1
REMARK  1 active torsions:
REMARK  status: ('A' for Active; 'I' for Inactive)
REMARK    1  A    between atoms: N_2  and  C1_3 
ROOT
ATOM      1  C1  UNL d   1       0.150  -2.834   0.896  0.00  0.00     0.143 A 
ATOM      2  C2  UNL d   1       0.338  -4.088   0.304  0.00  0.00    -0.057 A 
ATOM      3  C3  UNL d   1       0.417  -4.229  -1.086  0.00  0.00     0.033 A 
ATOM      4  C4  UNL d   1       0.280  -3.120  -1.914  0.00  0.00    -0.042 A 
ATOM      5  C5  UNL d   1       0.067  -1.867  -1.349  0.00  0.00     0.033 A 
ATOM      6  C6  UNL d   1      -0.004  -1.731   0.041  0.00  0.00    -0.057 A 
ENDROOT
BRANCH   1   7
ATOM      7  N   UNL d   1      -0.035  -2.641   2.267  0.00  0.00    -0.732 N 
ATOM      8  C   UNL d   1      -1.149  -1.857   2.758  0.00  0.00     0.284 C 
ATOM      9  H3  UNL d   1       0.149  -3.484   2.806  0.00  0.00     0.395 HD
ENDBRANCH   1   7
TORSDOF 1
ENDMDL
