MODEL 1
REMARK minimizedAffinity 7.70684385
REMARK minimizedRMSD -1
REMARK  1 active torsions:
REMARK  status: ('A' for Active; 'I' for Inactive)
REMARK    1  A    between atoms: N_2  and  C1_3 
ROOT
ATOM      1  C1  UNL d   1      -0.634  -2.956  -0.316  0.00  0.00     0.143 A 
ATOM      2  C2  UNL d   1      -0.218  -3.631   0.836  0.00  0.00    -0.057 A 
ATOM      3  C3  UNL d   1      -0.663  -3.242   2.106  0.00  0.00     0.033 A 
ATOM      4  C4  UNL d   1      -1.512  -2.150   2.247  0.00  0.00    -0.042 A 
ATOM      5  C5  UNL d   1      -1.918  -1.448   1.118  0.00  0.00     0.033 A 
ATOM      6  C6  UNL d   1      -1.476  -1.845  -0.148  0.00  0.00    -0.057 A 
ENDROOT
BRANCH   1   7
ATOM      7  N   UNL d   1      -0.149  -3.232  -1.597  0.00  0.00    -0.732 N 
ATOM      8  C   UNL d   1       0.751  -2.312  -2.259  0.00  0.00     0.284 C 
ATOM      9  H3  UNL d   1       0.097  -4.212  -1.717  0.00  0.00     0.395 HD
ENDBRANCH   1   7
TORSDOF 1
ENDMDL
