MODEL 1
REMARK minimizedAffinity 1.22107029
REMARK minimizedRMSD -1
REMARK  1 active torsions:
REMARK  status: ('A' for Active; 'I' for Inactive)
REMARK    1  A    between atoms: N_2  and  C1_3 
ROOT
ATOM      1  C1  UNL d   1       0.312  -2.498  -1.961  0.00  0.00     0.143 A 
ATOM      2  C2  UNL d   1       0.589  -3.848  -1.725  0.00  0.00    -0.057 A 
ATOM      3  C3  UNL d   1       0.480  -4.399  -0.442  0.00  0.00     0.033 A 
ATOM      4  C4  UNL d   1       0.118  -3.598   0.636  0.00  0.00    -0.042 A 
ATOM      5  C5  UNL d   1      -0.138  -2.247   0.430  0.00  0.00     0.033 A 
ATOM      6  C6  UNL d   1      -0.033  -1.705  -0.855  0.00  0.00    -0.057 A 
ENDROOT
BRANCH   1   7
ATOM      7  N   UNL d   1       0.498  -1.870  -3.195  0.00  0.00    -0.732 N 
ATOM      8  C   UNL d   1       1.192  -2.546  -4.269  0.00  0.00     0.284 C 
ATOM      9  H3  UNL d   1      -0.324  -1.350  -3.494  0.00  0.00     0.395 HD
ENDBRANCH   1   7
TORSDOF 1
ENDMDL
