MODEL 1
REMARK minimizedAffinity 4.65529251
REMARK minimizedRMSD -1
REMARK  1 active torsions:
REMARK  status: ('A' for Active; 'I' for Inactive)
REMARK    1  A    between atoms: N_2  and  C1_3 
ROOT
ATOM      1  C1  UNL d   1      -0.012  -1.701  -1.407  0.00  0.00     0.143 A 
ATOM      2  C2  UNL d   1      -0.423  -0.460  -0.907  0.00  0.00    -0.057 A 
ATOM      3  C3  UNL d   1      -0.939  -0.334   0.388  0.00  0.00     0.033 A 
ATOM      4  C4  UNL d   1      -1.081  -1.456   1.199  0.00  0.00    -0.042 A 
ATOM      5  C5  UNL d   1      -0.703  -2.703   0.714  0.00  0.00     0.033 A 
ATOM      6  C6  UNL d   1      -0.182  -2.821  -0.578  0.00  0.00    -0.057 A 
ENDROOT
BRANCH   1   7
ATOM      7  N   UNL d   1       0.417  -1.906  -2.720  0.00  0.00    -0.732 N 
ATOM      8  C   UNL d   1      -0.038  -3.056  -3.473  0.00  0.00     0.284 C 
ATOM      9  H3  UNL d   1       0.449  -1.043  -3.258  0.00  0.00     0.395 HD
ENDBRANCH   1   7
TORSDOF 1
ENDMDL
