MODEL 1
REMARK minimizedAffinity 2.38646603
REMARK minimizedRMSD -1
REMARK  1 active torsions:
REMARK  status: ('A' for Active; 'I' for Inactive)
REMARK    1  A    between atoms: N_2  and  C1_3 
ROOT
ATOM      1  C1  UNL d   1       0.645  -0.977  -1.363  0.00  0.00     0.143 A 
ATOM      2  C2  UNL d   1       0.130  -1.632  -0.239  0.00  0.00    -0.057 A 
ATOM      3  C3  UNL d   1      -0.285  -2.968  -0.305  0.00  0.00     0.033 A 
ATOM      4  C4  UNL d   1      -0.219  -3.665  -1.507  0.00  0.00    -0.042 A 
ATOM      5  C5  UNL d   1       0.266  -3.026  -2.642  0.00  0.00     0.033 A 
ATOM      6  C6  UNL d   1       0.685  -1.694  -2.569  0.00  0.00    -0.057 A 
ENDROOT
BRANCH   1   7
ATOM      7  N   UNL d   1       0.983   0.379  -1.386  0.00  0.00    -0.732 N 
ATOM      8  C   UNL d   1       1.762   0.963  -0.316  0.00  0.00     0.284 C 
ATOM      9  H3  UNL d   1       1.248   0.697  -2.315  0.00  0.00     0.395 HD
ENDBRANCH   1   7
TORSDOF 1
ENDMDL
