MODEL 1
REMARK minimizedAffinity 6.2686677
REMARK minimizedRMSD -1
REMARK  1 active torsions:
REMARK  status: ('A' for Active; 'I' for Inactive)
REMARK    1  A    between atoms: N_2  and  C1_3 
ROOT
ATOM      1  C1  UNL d   1       1.397  -0.664  -1.466  0.00  0.00     0.143 A 
ATOM      2  C2  UNL d   1       2.427  -1.039  -0.598  0.00  0.00    -0.057 A 
ATOM      3  C3  UNL d   1       3.141  -0.085   0.137  0.00  0.00     0.033 A 
ATOM      4  C4  UNL d   1       2.855   1.269  -0.006  0.00  0.00    -0.042 A 
ATOM      5  C5  UNL d   1       1.851   1.667  -0.883  0.00  0.00     0.033 A 
ATOM      6  C6  UNL d   1       1.138   0.709  -1.609  0.00  0.00    -0.057 A 
ENDROOT
BRANCH   1   7
ATOM      7  N   UNL d   1       0.717  -1.557  -2.298  0.00  0.00    -0.732 N 
ATOM      8  C   UNL d   1      -0.117  -2.598  -1.737  0.00  0.00     0.284 C 
ATOM      9  H3  UNL d   1       0.317  -1.100  -3.115  0.00  0.00     0.395 HD
ENDBRANCH   1   7
TORSDOF 1
ENDMDL
