MODEL 1
REMARK minimizedAffinity 4.61671543
REMARK minimizedRMSD -1
REMARK  1 active torsions:
REMARK  status: ('A' for Active; 'I' for Inactive)
REMARK    1  A    between atoms: N_2  and  C1_3 
ROOT
ATOM      1  C1  UNL d   1       1.733  -0.680  -2.235  0.00  0.00     0.143 A 
ATOM      2  C2  UNL d   1       2.995  -1.001  -1.724  0.00  0.00    -0.057 A 
ATOM      3  C3  UNL d   1       3.599  -0.213  -0.736  0.00  0.00     0.033 A 
ATOM      4  C4  UNL d   1       2.962   0.928  -0.262  0.00  0.00    -0.042 A 
ATOM      5  C5  UNL d   1       1.718   1.280  -0.774  0.00  0.00     0.033 A 
ATOM      6  C6  UNL d   1       1.117   0.486  -1.755  0.00  0.00    -0.057 A 
ENDROOT
BRANCH   1   7
ATOM      7  N   UNL d   1       1.123  -1.367  -3.288  0.00  0.00    -0.732 N 
ATOM      8  C   UNL d   1       0.193  -2.444  -3.024  0.00  0.00     0.284 C 
ATOM      9  H3  UNL d   1       0.838  -0.747  -4.043  0.00  0.00     0.395 HD
ENDBRANCH   1   7
TORSDOF 1
ENDMDL
