MODEL 1
REMARK minimizedAffinity 5.41406345
REMARK minimizedRMSD -1
REMARK  1 active torsions:
REMARK  status: ('A' for Active; 'I' for Inactive)
REMARK    1  A    between atoms: N_2  and  C1_3 
ROOT
ATOM      1  C1  UNL d   1       1.511  -0.932  -2.035  0.00  0.00     0.143 A 
ATOM      2  C2  UNL d   1       1.984  -0.615  -0.758  0.00  0.00    -0.057 A 
ATOM      3  C3  UNL d   1       2.918   0.410  -0.563  0.00  0.00     0.033 A 
ATOM      4  C4  UNL d   1       3.419   1.118  -1.650  0.00  0.00    -0.042 A 
ATOM      5  C5  UNL d   1       2.982   0.803  -2.932  0.00  0.00     0.033 A 
ATOM      6  C6  UNL d   1       2.044  -0.217  -3.119  0.00  0.00    -0.057 A 
ENDROOT
BRANCH   1   7
ATOM      7  N   UNL d   1       0.657  -2.005  -2.305  0.00  0.00    -0.732 N 
ATOM      8  C   UNL d   1       0.027  -2.734  -1.225  0.00  0.00     0.284 C 
ATOM      9  H3  UNL d   1       0.046  -1.826  -3.098  0.00  0.00     0.395 HD
ENDBRANCH   1   7
TORSDOF 1
ENDMDL
