MODEL 1
REMARK minimizedAffinity 0.785223484
REMARK minimizedRMSD -1
REMARK  1 active torsions:
REMARK  status: ('A' for Active; 'I' for Inactive)
REMARK    1  A    between atoms: N_2  and  C1_3 
ROOT
ATOM      1  C1  UNL d   1      -2.071  -3.105  -0.401  0.00  0.00     0.143 A 
ATOM      2  C2  UNL d   1      -1.329  -3.811   0.551  0.00  0.00    -0.057 A 
ATOM      3  C3  UNL d   1      -0.676  -3.151   1.599  0.00  0.00     0.033 A 
ATOM      4  C4  UNL d   1      -0.730  -1.765   1.696  0.00  0.00    -0.042 A 
ATOM      5  C5  UNL d   1      -1.441  -1.040   0.747  0.00  0.00     0.033 A 
ATOM      6  C6  UNL d   1      -2.096  -1.705  -0.293  0.00  0.00    -0.057 A 
ENDROOT
BRANCH   1   7
ATOM      7  N   UNL d   1      -2.661  -3.694  -1.522  0.00  0.00    -0.732 N 
ATOM      8  C   UNL d   1      -1.860  -4.055  -2.672  0.00  0.00     0.284 C 
ATOM      9  H3  UNL d   1      -3.365  -4.385  -1.272  0.00  0.00     0.395 HD
ENDBRANCH   1   7
TORSDOF 1
ENDMDL
