MODEL 1
REMARK minimizedAffinity 7.24822378
REMARK minimizedRMSD -1
REMARK  1 active torsions:
REMARK  status: ('A' for Active; 'I' for Inactive)
REMARK    1  A    between atoms: N_2  and  C1_3 
ROOT
ATOM      1  C1  UNL d   1       0.952  -0.471  -2.034  0.00  0.00     0.143 A 
ATOM      2  C2  UNL d   1       1.079  -0.822  -3.383  0.00  0.00    -0.057 A 
ATOM      3  C3  UNL d   1       0.498  -1.992  -3.886  0.00  0.00     0.033 A 
ATOM      4  C4  UNL d   1      -0.197  -2.850  -3.041  0.00  0.00    -0.042 A 
ATOM      5  C5  UNL d   1      -0.315  -2.535  -1.692  0.00  0.00     0.033 A 
ATOM      6  C6  UNL d   1       0.261  -1.361  -1.196  0.00  0.00    -0.057 A 
ENDROOT
BRANCH   1   7
ATOM      7  N   UNL d   1       1.589   0.628  -1.453  0.00  0.00    -0.732 N 
ATOM      8  C   UNL d   1       2.783   0.451  -0.655  0.00  0.00     0.284 C 
ATOM      9  H3  UNL d   1       1.620   1.433  -2.075  0.00  0.00     0.395 HD
ENDBRANCH   1   7
TORSDOF 1
ENDMDL
