MODEL 1
REMARK minimizedAffinity 12.3912516
REMARK minimizedRMSD -1
REMARK  1 active torsions:
REMARK  status: ('A' for Active; 'I' for Inactive)
REMARK    1  A    between atoms: N_2  and  C1_3 
ROOT
ATOM      1  C1  UNL d   1       3.288  -0.961  -0.002  0.00  0.00     0.143 A 
ATOM      2  C2  UNL d   1       3.583   0.406  -0.042  0.00  0.00    -0.057 A 
ATOM      3  C3  UNL d   1       2.757   1.307  -0.726  0.00  0.00     0.033 A 
ATOM      4  C4  UNL d   1       1.634   0.850  -1.408  0.00  0.00    -0.042 A 
ATOM      5  C5  UNL d   1       1.336  -0.508  -1.403  0.00  0.00     0.033 A 
ATOM      6  C6  UNL d   1       2.160  -1.402  -0.712  0.00  0.00    -0.057 A 
ENDROOT
BRANCH   1   7
ATOM      7  N   UNL d   1       4.122  -1.920   0.578  0.00  0.00    -0.732 N 
ATOM      8  C   UNL d   1       3.707  -2.640   1.763  0.00  0.00     0.284 C 
ATOM      9  H3  UNL d   1       4.592  -2.497  -0.116  0.00  0.00     0.395 HD
ENDBRANCH   1   7
TORSDOF 1
ENDMDL
