MODEL 1
REMARK minimizedAffinity 0.18557395
REMARK minimizedRMSD -1
REMARK  1 active torsions:
REMARK  status: ('A' for Active; 'I' for Inactive)
REMARK    1  A    between atoms: N_2  and  C1_3 
ROOT
ATOM      1  C1  UNL d   1      -2.438   3.543  -0.574  0.00  0.00     0.143 A 
ATOM      2  C2  UNL d   1      -3.354   4.086  -1.481  0.00  0.00    -0.057 A 
ATOM      3  C3  UNL d   1      -3.988   5.309  -1.229  0.00  0.00     0.033 A 
ATOM      4  C4  UNL d   1      -3.738   5.998  -0.047  0.00  0.00    -0.042 A 
ATOM      5  C5  UNL d   1      -2.850   5.465   0.881  0.00  0.00     0.033 A 
ATOM      6  C6  UNL d   1      -2.215   4.246   0.620  0.00  0.00    -0.057 A 
ENDROOT
BRANCH   1   7
ATOM      7  N   UNL d   1      -1.850   2.284  -0.722  0.00  0.00    -0.732 N 
ATOM      8  C   UNL d   1      -2.217   1.192   0.154  0.00  0.00     0.284 C 
ATOM      9  H3  UNL d   1      -1.744   2.017  -1.698  0.00  0.00     0.395 HD
ENDBRANCH   1   7
TORSDOF 1
ENDMDL
