MODEL 1
REMARK minimizedAffinity 4.08999014
REMARK minimizedRMSD -1
REMARK  1 active torsions:
REMARK  status: ('A' for Active; 'I' for Inactive)
REMARK    1  A    between atoms: N_2  and  C1_3 
ROOT
ATOM      1  C1  UNL d   1       1.031  -1.219  -2.151  0.00  0.00     0.143 A 
ATOM      2  C2  UNL d   1       0.761   0.146  -2.304  0.00  0.00    -0.057 A 
ATOM      3  C3  UNL d   1       1.581   1.118  -1.718  0.00  0.00     0.033 A 
ATOM      4  C4  UNL d   1       2.672   0.740  -0.942  0.00  0.00    -0.042 A 
ATOM      5  C5  UNL d   1       2.945  -0.610  -0.756  0.00  0.00     0.033 A 
ATOM      6  C6  UNL d   1       2.126  -1.576  -1.349  0.00  0.00    -0.057 A 
ENDROOT
BRANCH   1   7
ATOM      7  N   UNL d   1       0.197  -2.234  -2.627  0.00  0.00    -0.732 N 
ATOM      8  C   UNL d   1      -0.326  -3.240  -1.727  0.00  0.00     0.284 C 
ATOM      9  H3  UNL d   1      -0.477  -1.895  -3.309  0.00  0.00     0.395 HD
ENDBRANCH   1   7
TORSDOF 1
ENDMDL
