MODEL 1
REMARK minimizedAffinity 1.33471572
REMARK minimizedRMSD -1
REMARK  0 active torsions:
REMARK  status: ('A' for Active; 'I' for Inactive)
ROOT
ATOM      1  C   UNL d   1      -1.031  -0.110   2.892  0.00  0.00    -0.002 A 
ATOM      2  C1  UNL d   1      -1.274   1.101   2.259  0.00  0.00     0.010 A 
ATOM      3  C2  UNL d   1      -0.797   1.336   0.967  0.00  0.00     0.041 A 
ATOM      4  C3  UNL d   1      -0.066   0.323   0.316  0.00  0.00    -0.075 A 
ATOM      5  S   UNL d   1       0.615   0.386  -1.266  0.00  0.00     0.015 SA
ATOM      6  C4  UNL d   1       1.244  -1.193  -1.140  0.00  0.00     0.022 A 
ATOM      7  C5  UNL d   1       0.951  -1.769   0.074  0.00  0.00     0.026 A 
ATOM      8  C6  UNL d   1       0.191  -0.905   0.933  0.00  0.00    -0.082 A 
ATOM      9  C7  UNL d   1      -0.305  -1.112   2.242  0.00  0.00     0.045 A 
ENDROOT
TORSDOF 0
ENDMDL
