MODEL 1
REMARK minimizedAffinity 0.195028007
REMARK minimizedRMSD -1
REMARK  0 active torsions:
REMARK  status: ('A' for Active; 'I' for Inactive)
ROOT
ATOM      1  C   UNL d   1       0.354   0.601   0.084  0.00  0.00    -0.002 A 
ATOM      2  C1  UNL d   1      -0.273  -0.264   0.970  0.00  0.00     0.010 A 
ATOM      3  C2  UNL d   1      -0.431  -1.614   0.653  0.00  0.00     0.041 A 
ATOM      4  C3  UNL d   1       0.059  -2.087  -0.581  0.00  0.00    -0.075 A 
ATOM      5  S   UNL d   1      -0.020  -3.701  -1.181  0.00  0.00     0.015 SA
ATOM      6  C4  UNL d   1       0.777  -3.281  -2.628  0.00  0.00     0.022 A 
ATOM      7  C5  UNL d   1       1.103  -1.946  -2.668  0.00  0.00     0.026 A 
ATOM      8  C6  UNL d   1       0.695  -1.236  -1.489  0.00  0.00    -0.082 A 
ATOM      9  C7  UNL d   1       0.839   0.128  -1.139  0.00  0.00     0.045 A 
ENDROOT
TORSDOF 0
ENDMDL
