MODEL 1
REMARK minimizedAffinity -3.86233854
REMARK minimizedRMSD -1
REMARK  0 active torsions:
REMARK  status: ('A' for Active; 'I' for Inactive)
ROOT
ATOM      1  C   UNL d   1      -1.543   1.818   1.838  0.00  0.00    -0.002 A 
ATOM      2  C1  UNL d   1      -1.831   2.233   0.546  0.00  0.00     0.010 A 
ATOM      3  C2  UNL d   1      -1.456   1.454  -0.551  0.00  0.00     0.041 A 
ATOM      4  C3  UNL d   1      -0.782   0.238  -0.324  0.00  0.00    -0.075 A 
ATOM      5  S   UNL d   1      -0.227  -0.880  -1.514  0.00  0.00     0.015 SA
ATOM      6  C4  UNL d   1       0.405  -1.936  -0.334  0.00  0.00     0.022 A 
ATOM      7  C5  UNL d   1       0.206  -1.462   0.941  0.00  0.00     0.026 A 
ATOM      8  C6  UNL d   1      -0.482  -0.202   0.968  0.00  0.00    -0.082 A 
ATOM      9  C7  UNL d   1      -0.874   0.611   2.059  0.00  0.00     0.045 A 
ENDROOT
TORSDOF 0
ENDMDL
