MODEL 1
REMARK minimizedAffinity -1.11287451
REMARK minimizedRMSD -1
REMARK  0 active torsions:
REMARK  status: ('A' for Active; 'I' for Inactive)
ROOT
ATOM      1  C   UNL d   1      -1.402   1.472   1.600  0.00  0.00    -0.002 A 
ATOM      2  C1  UNL d   1      -1.432   2.162   0.396  0.00  0.00     0.010 A 
ATOM      3  C2  UNL d   1      -0.560   1.821  -0.640  0.00  0.00     0.041 A 
ATOM      4  C3  UNL d   1       0.350   0.764  -0.445  0.00  0.00    -0.075 A 
ATOM      5  S   UNL d   1       1.512   0.171  -1.572  0.00  0.00     0.015 SA
ATOM      6  C4  UNL d   1       2.075  -1.013  -0.483  0.00  0.00     0.022 A 
ATOM      7  C5  UNL d   1       1.404  -0.971   0.716  0.00  0.00     0.026 A 
ATOM      8  C6  UNL d   1       0.399   0.054   0.758  0.00  0.00    -0.082 A 
ATOM      9  C7  UNL d   1      -0.497   0.424   1.790  0.00  0.00     0.045 A 
ENDROOT
TORSDOF 0
ENDMDL
