MODEL 1
REMARK minimizedAffinity -0.648871303
REMARK minimizedRMSD -1
REMARK  0 active torsions:
REMARK  status: ('A' for Active; 'I' for Inactive)
ROOT
ATOM      1  C   UNL d   1      -1.553   0.438   2.454  0.00  0.00    -0.002 A 
ATOM      2  C1  UNL d   1      -1.854   1.626   1.803  0.00  0.00     0.010 A 
ATOM      3  C2  UNL d   1      -1.308   1.906   0.548  0.00  0.00     0.041 A 
ATOM      4  C3  UNL d   1      -0.448   0.962  -0.047  0.00  0.00    -0.075 A 
ATOM      5  S   UNL d   1       0.335   1.090  -1.577  0.00  0.00     0.015 SA
ATOM      6  C4  UNL d   1       1.087  -0.430  -1.403  0.00  0.00     0.022 A 
ATOM      7  C5  UNL d   1       0.760  -1.034  -0.212  0.00  0.00     0.026 A 
ATOM      8  C6  UNL d   1      -0.131  -0.242   0.589  0.00  0.00    -0.082 A 
ATOM      9  C7  UNL d   1      -0.700  -0.496   1.860  0.00  0.00     0.045 A 
ENDROOT
TORSDOF 0
ENDMDL
