MODEL 1
REMARK minimizedAffinity -3.26784301
REMARK minimizedRMSD -1
REMARK  0 active torsions:
REMARK  status: ('A' for Active; 'I' for Inactive)
ROOT
ATOM      1  C   UNL d   1      -1.868   1.245   1.882  0.00  0.00    -0.002 A 
ATOM      2  C1  UNL d   1      -1.658   2.316   1.025  0.00  0.00     0.010 A 
ATOM      3  C2  UNL d   1      -0.723   2.227  -0.008  0.00  0.00     0.041 A 
ATOM      4  C3  UNL d   1       0.003   1.030  -0.168  0.00  0.00    -0.075 A 
ATOM      5  S   UNL d   1       1.199   0.692  -1.363  0.00  0.00     0.015 SA
ATOM      6  C4  UNL d   1       1.459  -0.882  -0.765  0.00  0.00     0.022 A 
ATOM      7  C5  UNL d   1       0.661  -1.160   0.320  0.00  0.00     0.026 A 
ATOM      8  C6  UNL d   1      -0.191  -0.063   0.682  0.00  0.00    -0.082 A 
ATOM      9  C7  UNL d   1      -1.146   0.060   1.720  0.00  0.00     0.045 A 
ENDROOT
TORSDOF 0
ENDMDL
