MODEL 1
REMARK minimizedAffinity -2.61443424
REMARK minimizedRMSD -1
REMARK  0 active torsions:
REMARK  status: ('A' for Active; 'I' for Inactive)
ROOT
ATOM      1  C   UNL d   1       1.731   0.975  -1.805  0.00  0.00    -0.002 A 
ATOM      2  C1  UNL d   1       1.839  -0.263  -1.187  0.00  0.00     0.010 A 
ATOM      3  C2  UNL d   1       0.898  -0.667  -0.238  0.00  0.00     0.041 A 
ATOM      4  C3  UNL d   1      -0.164   0.201   0.082  0.00  0.00    -0.075 A 
ATOM      5  S   UNL d   1      -1.434  -0.082   1.213  0.00  0.00     0.015 SA
ATOM      6  C4  UNL d   1      -2.150   1.433   0.903  0.00  0.00     0.022 A 
ATOM      7  C5  UNL d   1      -1.450   2.151  -0.038  0.00  0.00     0.026 A 
ATOM      8  C6  UNL d   1      -0.295   1.452  -0.527  0.00  0.00    -0.082 A 
ATOM      9  C7  UNL d   1       0.676   1.834  -1.485  0.00  0.00     0.045 A 
ENDROOT
TORSDOF 0
ENDMDL
