MODEL 1
REMARK minimizedAffinity -2.65615535
REMARK minimizedRMSD -1
REMARK  0 active torsions:
REMARK  status: ('A' for Active; 'I' for Inactive)
ROOT
ATOM      1  C   UNL d   1      -1.787   0.596   2.076  0.00  0.00    -0.002 A 
ATOM      2  C1  UNL d   1      -2.140   1.774   1.434  0.00  0.00     0.010 A 
ATOM      3  C2  UNL d   1      -1.426   2.219   0.320  0.00  0.00     0.041 A 
ATOM      4  C3  UNL d   1      -0.340   1.450  -0.144  0.00  0.00    -0.075 A 
ATOM      5  S   UNL d   1       0.678   1.798  -1.491  0.00  0.00     0.015 SA
ATOM      6  C4  UNL d   1       1.607   0.390  -1.248  0.00  0.00     0.022 A 
ATOM      7  C5  UNL d   1       1.164  -0.339  -0.169  0.00  0.00     0.026 A 
ATOM      8  C6  UNL d   1       0.034   0.260   0.484  0.00  0.00    -0.082 A 
ATOM      9  C7  UNL d   1      -0.709  -0.164   1.612  0.00  0.00     0.045 A 
ENDROOT
TORSDOF 0
ENDMDL
