MODEL 1
REMARK minimizedAffinity -3.67639089
REMARK minimizedRMSD -1
REMARK  0 active torsions:
REMARK  status: ('A' for Active; 'I' for Inactive)
ROOT
ATOM      1  C   UNL d   1      -2.354   1.560   1.752  0.00  0.00    -0.002 A 
ATOM      2  C1  UNL d   1      -2.177   2.332   0.612  0.00  0.00     0.010 A 
ATOM      3  C2  UNL d   1      -1.184   2.012  -0.315  0.00  0.00     0.041 A 
ATOM      4  C3  UNL d   1      -0.363   0.892  -0.076  0.00  0.00    -0.075 A 
ATOM      5  S   UNL d   1       0.917   0.310  -1.073  0.00  0.00     0.015 SA
ATOM      6  C4  UNL d   1       1.260  -0.977  -0.010  0.00  0.00     0.022 A 
ATOM      7  C5  UNL d   1       0.427  -0.978   1.084  0.00  0.00     0.026 A 
ATOM      8  C6  UNL d   1      -0.522   0.099   1.064  0.00  0.00    -0.082 A 
ATOM      9  C7  UNL d   1      -1.538   0.450   1.985  0.00  0.00     0.045 A 
ENDROOT
TORSDOF 0
ENDMDL
