MODEL 1
REMARK minimizedAffinity -2.03587723
REMARK minimizedRMSD -1
REMARK  0 active torsions:
REMARK  status: ('A' for Active; 'I' for Inactive)
ROOT
ATOM      1  C   UNL d   1      -1.666  -0.077   2.197  0.00  0.00    -0.002 A 
ATOM      2  C1  UNL d   1      -2.213   1.148   1.840  0.00  0.00     0.010 A 
ATOM      3  C2  UNL d   1      -1.689   1.875   0.770  0.00  0.00     0.041 A 
ATOM      4  C3  UNL d   1      -0.596   1.345   0.056  0.00  0.00    -0.075 A 
ATOM      5  S   UNL d   1       0.210   2.058  -1.291  0.00  0.00     0.015 SA
ATOM      6  C4  UNL d   1       1.299   0.754  -1.426  0.00  0.00     0.022 A 
ATOM      7  C5  UNL d   1       1.067  -0.211  -0.474  0.00  0.00     0.026 A 
ATOM      8  C6  UNL d   1      -0.029   0.113   0.395  0.00  0.00    -0.082 A 
ATOM      9  C7  UNL d   1      -0.582  -0.599   1.486  0.00  0.00     0.045 A 
ENDROOT
TORSDOF 0
ENDMDL
