MODEL 1
REMARK minimizedAffinity -3.17462397
REMARK minimizedRMSD -1
REMARK  0 active torsions:
REMARK  status: ('A' for Active; 'I' for Inactive)
ROOT
ATOM      1  C   UNL d   1      -1.960   2.013   1.862  0.00  0.00    -0.002 A 
ATOM      2  C1  UNL d   1      -2.400   2.036   0.546  0.00  0.00     0.010 A 
ATOM      3  C2  UNL d   1      -1.786   1.238  -0.422  0.00  0.00     0.041 A 
ATOM      4  C3  UNL d   1      -0.715   0.407  -0.041  0.00  0.00    -0.075 A 
ATOM      5  S   UNL d   1       0.187  -0.656  -1.055  0.00  0.00     0.015 SA
ATOM      6  C4  UNL d   1       1.176  -1.168   0.235  0.00  0.00     0.022 A 
ATOM      7  C5  UNL d   1       0.841  -0.552   1.418  0.00  0.00     0.026 A 
ATOM      8  C6  UNL d   1      -0.255   0.365   1.278  0.00  0.00    -0.082 A 
ATOM      9  C7  UNL d   1      -0.897   1.186   2.236  0.00  0.00     0.045 A 
ENDROOT
TORSDOF 0
ENDMDL
