MODEL 1
REMARK minimizedAffinity -1.77133203
REMARK minimizedRMSD -1
REMARK  0 active torsions:
REMARK  status: ('A' for Active; 'I' for Inactive)
ROOT
ATOM      1  C   UNL d   1      -1.451   2.672   0.057  0.00  0.00    -0.002 A 
ATOM      2  C1  UNL d   1      -0.759   3.063  -1.081  0.00  0.00     0.010 A 
ATOM      3  C2  UNL d   1       0.187   2.217  -1.662  0.00  0.00     0.041 A 
ATOM      4  C3  UNL d   1       0.428   0.958  -1.076  0.00  0.00    -0.075 A 
ATOM      5  S   UNL d   1       1.540  -0.244  -1.616  0.00  0.00     0.015 SA
ATOM      6  C4  UNL d   1       1.123  -1.305  -0.349  0.00  0.00     0.022 A 
ATOM      7  C5  UNL d   1       0.161  -0.771   0.475  0.00  0.00     0.026 A 
ATOM      8  C6  UNL d   1      -0.256   0.542   0.069  0.00  0.00    -0.082 A 
ATOM      9  C7  UNL d   1      -1.209   1.423   0.635  0.00  0.00     0.045 A 
ENDROOT
TORSDOF 0
ENDMDL
