MODEL 1
REMARK minimizedAffinity 0.804314494
REMARK minimizedRMSD -1
REMARK  1 active torsions:
REMARK  status: ('A' for Active; 'I' for Inactive)
REMARK    1  A    between atoms: C1_2  and  C2_3 
ROOT
ATOM      1  C2  UNL d   1       4.556  -1.704   3.952  0.00  0.00    -0.073 A 
ATOM      2  C3  UNL d   1       4.210  -0.678   3.065  0.00  0.00    -0.002 A 
ATOM      3  C4  UNL d   1       2.905  -0.574   2.582  0.00  0.00     0.004 A 
ATOM      4  C5  UNL d   1       1.932  -1.488   2.985  0.00  0.00    -0.004 A 
ATOM      5  C6  UNL d   1       2.255  -2.513   3.881  0.00  0.00    -0.075 A 
ATOM      6  C7  UNL d   1       1.220  -3.505   4.323  0.00  0.00     0.076 C 
ATOM      7  C8  UNL d   1       3.568  -2.613   4.359  0.00  0.00     0.001 A 
ENDROOT
BRANCH   1   8
ATOM      8  C1  UNL d   1       5.962  -1.817   4.481  0.00  0.00     0.053 C 
ATOM      9  C   UNL d   1       5.994  -1.920   5.997  0.00  0.00     0.018 C 
ENDBRANCH   1   8
TORSDOF 1
ENDMDL
