MODEL 1
REMARK minimizedAffinity 1.11231804
REMARK minimizedRMSD -1
REMARK  1 active torsions:
REMARK  status: ('A' for Active; 'I' for Inactive)
REMARK    1  A    between atoms: C1_2  and  C2_3 
ROOT
ATOM      1  C2  UNL d   1       4.480  -1.879   4.021  0.00  0.00    -0.073 A 
ATOM      2  C3  UNL d   1       4.117  -0.937   3.052  0.00  0.00    -0.002 A 
ATOM      3  C4  UNL d   1       2.792  -0.843   2.623  0.00  0.00     0.004 A 
ATOM      4  C5  UNL d   1       1.818  -1.683   3.162  0.00  0.00    -0.004 A 
ATOM      5  C6  UNL d   1       2.160  -2.623   4.140  0.00  0.00    -0.075 A 
ATOM      6  C7  UNL d   1       1.124  -3.536   4.728  0.00  0.00     0.076 C 
ATOM      7  C8  UNL d   1       3.492  -2.714   4.564  0.00  0.00     0.001 A 
ENDROOT
BRANCH   1   8
ATOM      8  C1  UNL d   1       5.908  -1.981   4.492  0.00  0.00     0.053 C 
ATOM      9  C   UNL d   1       5.999  -2.172   5.998  0.00  0.00     0.018 C 
ENDBRANCH   1   8
TORSDOF 1
ENDMDL
