MODEL 1
REMARK minimizedAffinity 4.34764814
REMARK minimizedRMSD -1
REMARK  1 active torsions:
REMARK  status: ('A' for Active; 'I' for Inactive)
REMARK    1  A    between atoms: C1_2  and  C2_3 
ROOT
ATOM      1  C2  UNL d   1       2.335  -1.875   3.830  0.00  0.00    -0.073 A 
ATOM      2  C3  UNL d   1       1.733  -2.509   4.922  0.00  0.00    -0.002 A 
ATOM      3  C4  UNL d   1       2.507  -2.944   5.999  0.00  0.00     0.004 A 
ATOM      4  C5  UNL d   1       3.887  -2.743   5.999  0.00  0.00    -0.004 A 
ATOM      5  C6  UNL d   1       4.505  -2.100   4.921  0.00  0.00    -0.075 A 
ATOM      6  C7  UNL d   1       5.989  -1.878   4.904  0.00  0.00     0.076 C 
ATOM      7  C8  UNL d   1       3.722  -1.669   3.842  0.00  0.00     0.001 A 
ENDROOT
BRANCH   1   8
ATOM      8  C1  UNL d   1       1.503  -1.398   2.667  0.00  0.00     0.053 C 
ATOM      9  C   UNL d   1       1.833   0.035   2.280  0.00  0.00     0.018 C 
ENDBRANCH   1   8
TORSDOF 1
ENDMDL
