MODEL 1
REMARK minimizedAffinity 3.79383469
REMARK minimizedRMSD -1
REMARK  1 active torsions:
REMARK  status: ('A' for Active; 'I' for Inactive)
REMARK    1  A    between atoms: C1_2  and  C2_3 
ROOT
ATOM      1  C2  UNL d   1       4.463  -2.265   4.135  0.00  0.00    -0.073 A 
ATOM      2  C3  UNL d   1       3.381  -2.657   4.932  0.00  0.00    -0.002 A 
ATOM      3  C4  UNL d   1       2.080  -2.292   4.584  0.00  0.00     0.004 A 
ATOM      4  C5  UNL d   1       1.847  -1.539   3.433  0.00  0.00    -0.004 A 
ATOM      5  C6  UNL d   1       2.913  -1.147   2.618  0.00  0.00    -0.075 A 
ATOM      6  C7  UNL d   1       2.680  -0.335   1.378  0.00  0.00     0.076 C 
ATOM      7  C8  UNL d   1       4.217  -1.516   2.976  0.00  0.00     0.001 A 
ENDROOT
BRANCH   1   8
ATOM      8  C1  UNL d   1       5.869  -2.663   4.504  0.00  0.00     0.053 C 
ATOM      9  C   UNL d   1       6.000  -2.986   5.984  0.00  0.00     0.018 C 
ENDBRANCH   1   8
TORSDOF 1
ENDMDL
