MODEL 1
REMARK minimizedAffinity 1.05668843
REMARK minimizedRMSD -1
REMARK  1 active torsions:
REMARK  status: ('A' for Active; 'I' for Inactive)
REMARK    1  A    between atoms: C1_2  and  C2_3 
ROOT
ATOM      1  C2  UNL d   1       3.284  -1.361   3.545  0.00  0.00    -0.073 A 
ATOM      2  C3  UNL d   1       4.076  -1.200   2.402  0.00  0.00    -0.002 A 
ATOM      3  C4  UNL d   1       5.428  -1.547   2.427  0.00  0.00     0.004 A 
ATOM      4  C5  UNL d   1       5.999  -2.062   3.590  0.00  0.00    -0.004 A 
ATOM      5  C6  UNL d   1       5.221  -2.242   4.739  0.00  0.00    -0.075 A 
ATOM      6  C7  UNL d   1       5.821  -2.793   5.999  0.00  0.00     0.076 C 
ATOM      7  C8  UNL d   1       3.866  -1.889   4.707  0.00  0.00     0.001 A 
ENDROOT
BRANCH   1   8
ATOM      8  C1  UNL d   1       1.823  -0.995   3.521  0.00  0.00     0.053 C 
ATOM      9  C   UNL d   1       1.327  -0.722   2.110  0.00  0.00     0.018 C 
ENDBRANCH   1   8
TORSDOF 1
ENDMDL
