MODEL 1
REMARK minimizedAffinity 21.3277187
REMARK minimizedRMSD -1
REMARK  0 active torsions:
REMARK  status: ('A' for Active; 'I' for Inactive)
ROOT
ATOM      1  C   UNL d   1      -2.586  -1.655   0.674  0.00  0.00    -0.002 A 
ATOM      2  C1  UNL d   1      -2.438  -0.388   1.221  0.00  0.00     0.010 A 
ATOM      3  C2  UNL d   1      -1.244  -0.017   1.840  0.00  0.00     0.041 A 
ATOM      4  C3  UNL d   1      -0.189  -0.949   1.900  0.00  0.00    -0.075 A 
ATOM      5  S   UNL d   1       1.365  -0.715   2.609  0.00  0.00     0.015 SA
ATOM      6  C4  UNL d   1       1.871  -2.291   2.202  0.00  0.00     0.022 A 
ATOM      7  C5  UNL d   1       0.890  -2.992   1.541  0.00  0.00     0.026 A 
ATOM      8  C6  UNL d   1      -0.313  -2.230   1.356  0.00  0.00    -0.082 A 
ATOM      9  C7  UNL d   1      -1.537  -2.577   0.735  0.00  0.00     0.045 A 
ENDROOT
TORSDOF 0
ENDMDL
