MODEL 1
REMARK minimizedAffinity 15.1198273
REMARK minimizedRMSD -1
REMARK  0 active torsions:
REMARK  status: ('A' for Active; 'I' for Inactive)
ROOT
ATOM      1  C   UNL d   1      -2.003  -5.514  -6.000  0.00  0.00    -0.002 A 
ATOM      2  C1  UNL d   1      -3.001  -6.000  -5.167  0.00  0.00     0.010 A 
ATOM      3  C2  UNL d   1      -3.051  -5.623  -3.824  0.00  0.00     0.041 A 
ATOM      4  C3  UNL d   1      -2.073  -4.739  -3.327  0.00  0.00    -0.075 A 
ATOM      5  S   UNL d   1      -1.936  -4.139  -1.717  0.00  0.00     0.015 SA
ATOM      6  C4  UNL d   1      -0.550  -3.222  -2.097  0.00  0.00     0.022 A 
ATOM      7  C5  UNL d   1      -0.187  -3.360  -3.415  0.00  0.00     0.026 A 
ATOM      8  C6  UNL d   1      -1.059  -4.236  -4.146  0.00  0.00    -0.082 A 
ATOM      9  C7  UNL d   1      -1.035  -4.638  -5.504  0.00  0.00     0.045 A 
ENDROOT
TORSDOF 0
ENDMDL
