MODEL 1
REMARK minimizedAffinity 19.5240803
REMARK minimizedRMSD -1
REMARK  0 active torsions:
REMARK  status: ('A' for Active; 'I' for Inactive)
ROOT
ATOM      1  C   UNL d   1       6.000   4.865  -0.868  0.00  0.00    -0.002 A 
ATOM      2  C1  UNL d   1       5.828   5.563  -2.055  0.00  0.00     0.010 A 
ATOM      3  C2  UNL d   1       4.891   5.140  -2.999  0.00  0.00     0.041 A 
ATOM      4  C3  UNL d   1       4.120   3.993  -2.727  0.00  0.00    -0.075 A 
ATOM      5  S   UNL d   1       2.911   3.289  -3.735  0.00  0.00     0.015 SA
ATOM      6  C4  UNL d   1       2.593   2.046  -2.613  0.00  0.00     0.022 A 
ATOM      7  C5  UNL d   1       3.381   2.150  -1.491  0.00  0.00     0.026 A 
ATOM      8  C6  UNL d   1       4.274   3.274  -1.538  0.00  0.00    -0.082 A 
ATOM      9  C7  UNL d   1       5.233   3.728  -0.601  0.00  0.00     0.045 A 
ENDROOT
TORSDOF 0
ENDMDL
