MODEL 1
REMARK minimizedAffinity 18.3053894
REMARK minimizedRMSD -1
REMARK  0 active torsions:
REMARK  status: ('A' for Active; 'I' for Inactive)
ROOT
ATOM      1  C   UNL d   1       0.012   3.614  -3.477  0.00  0.00    -0.002 A 
ATOM      2  C1  UNL d   1      -0.156   2.891  -2.304  0.00  0.00     0.010 A 
ATOM      3  C2  UNL d   1       0.944   2.331  -1.652  0.00  0.00     0.041 A 
ATOM      4  C3  UNL d   1       2.228   2.513  -2.202  0.00  0.00    -0.075 A 
ATOM      5  S   UNL d   1       3.721   1.920  -1.576  0.00  0.00     0.015 SA
ATOM      6  C4  UNL d   1       4.617   2.612  -2.850  0.00  0.00     0.022 A 
ATOM      7  C5  UNL d   1       3.812   3.283  -3.740  0.00  0.00     0.026 A 
ATOM      8  C6  UNL d   1       2.423   3.238  -3.381  0.00  0.00    -0.082 A 
ATOM      9  C7  UNL d   1       1.287   3.792  -4.020  0.00  0.00     0.045 A 
ENDROOT
TORSDOF 0
ENDMDL
