MODEL 1
REMARK minimizedAffinity 14.583231
REMARK minimizedRMSD -1
REMARK  0 active torsions:
REMARK  status: ('A' for Active; 'I' for Inactive)
ROOT
ATOM      1  C   UNL d   1       1.554   2.788  -2.245  0.00  0.00    -0.002 A 
ATOM      2  C1  UNL d   1       2.191   4.020  -2.250  0.00  0.00     0.010 A 
ATOM      3  C2  UNL d   1       1.700   5.070  -3.029  0.00  0.00     0.041 A 
ATOM      4  C3  UNL d   1       0.546   4.859  -3.809  0.00  0.00    -0.075 A 
ATOM      5  S   UNL d   1      -0.235   5.999  -4.839  0.00  0.00     0.015 SA
ATOM      6  C4  UNL d   1      -1.433   4.877  -5.297  0.00  0.00     0.022 A 
ATOM      7  C5  UNL d   1      -1.257   3.657  -4.688  0.00  0.00     0.026 A 
ATOM      8  C6  UNL d   1      -0.113   3.627  -3.820  0.00  0.00    -0.082 A 
ATOM      9  C7  UNL d   1       0.409   2.582  -3.020  0.00  0.00     0.045 A 
ENDROOT
TORSDOF 0
ENDMDL
