MODEL 1
REMARK minimizedAffinity 6.01569271
REMARK minimizedRMSD -1
REMARK  0 active torsions:
REMARK  status: ('A' for Active; 'I' for Inactive)
ROOT
ATOM      1  C   UNL d   1      -5.480   1.477   2.353  0.00  0.00    -0.002 A 
ATOM      2  C1  UNL d   1      -5.109   1.641   3.680  0.00  0.00     0.010 A 
ATOM      3  C2  UNL d   1      -3.918   1.090   4.158  0.00  0.00     0.041 A 
ATOM      4  C3  UNL d   1      -3.097   0.367   3.270  0.00  0.00    -0.075 A 
ATOM      5  S   UNL d   1      -1.594  -0.395   3.632  0.00  0.00     0.015 SA
ATOM      6  C4  UNL d   1      -1.408  -0.956   2.033  0.00  0.00     0.022 A 
ATOM      7  C5  UNL d   1      -2.458  -0.580   1.229  0.00  0.00     0.026 A 
ATOM      8  C6  UNL d   1      -3.449   0.189   1.929  0.00  0.00    -0.082 A 
ATOM      9  C7  UNL d   1      -4.663   0.758   1.475  0.00  0.00     0.045 A 
ENDROOT
TORSDOF 0
ENDMDL
