MODEL 1
REMARK minimizedAffinity 10.8481369
REMARK minimizedRMSD -1
REMARK  0 active torsions:
REMARK  status: ('A' for Active; 'I' for Inactive)
ROOT
ATOM      1  C   UNL d   1      -5.994   1.358  -0.040  0.00  0.00    -0.002 A 
ATOM      2  C1  UNL d   1      -5.992   2.446  -0.902  0.00  0.00     0.010 A 
ATOM      3  C2  UNL d   1      -5.990   2.256  -2.285  0.00  0.00     0.041 A 
ATOM      4  C3  UNL d   1      -5.993   0.941  -2.792  0.00  0.00    -0.075 A 
ATOM      5  S   UNL d   1      -5.993   0.467  -4.450  0.00  0.00     0.015 SA
ATOM      6  C4  UNL d   1      -5.997  -1.191  -4.053  0.00  0.00     0.022 A 
ATOM      7  C5  UNL d   1      -5.999  -1.395  -2.693  0.00  0.00     0.026 A 
ATOM      8  C6  UNL d   1      -5.997  -0.170  -1.944  0.00  0.00    -0.082 A 
ATOM      9  C7  UNL d   1      -5.998   0.056  -0.547  0.00  0.00     0.045 A 
ENDROOT
TORSDOF 0
ENDMDL
