MODEL 1
REMARK minimizedAffinity 15.3296518
REMARK minimizedRMSD -1
REMARK  0 active torsions:
REMARK  status: ('A' for Active; 'I' for Inactive)
ROOT
ATOM      1  C   UNL d   1       0.843   3.723  -2.451  0.00  0.00    -0.002 A 
ATOM      2  C1  UNL d   1       1.591   2.638  -2.886  0.00  0.00     0.010 A 
ATOM      3  C2  UNL d   1       2.986   2.679  -2.854  0.00  0.00     0.041 A 
ATOM      4  C3  UNL d   1       3.623   3.839  -2.372  0.00  0.00    -0.075 A 
ATOM      5  S   UNL d   1       5.320   4.115  -2.240  0.00  0.00     0.015 SA
ATOM      6  C4  UNL d   1       5.092   5.679  -1.602  0.00  0.00     0.022 A 
ATOM      7  C5  UNL d   1       3.760   5.999  -1.486  0.00  0.00     0.026 A 
ATOM      8  C6  UNL d   1       2.891   4.944  -1.927  0.00  0.00    -0.082 A 
ATOM      9  C7  UNL d   1       1.478   4.872  -1.973  0.00  0.00     0.045 A 
ENDROOT
TORSDOF 0
ENDMDL
