MODEL 1
REMARK minimizedAffinity 23.0249901
REMARK minimizedRMSD -1
REMARK  0 active torsions:
REMARK  status: ('A' for Active; 'I' for Inactive)
ROOT
ATOM      1  C   UNL d   1       1.543   2.164   0.791  0.00  0.00    -0.002 A 
ATOM      2  C1  UNL d   1       2.787   1.802   0.294  0.00  0.00     0.010 A 
ATOM      3  C2  UNL d   1       3.104   2.013  -1.049  0.00  0.00     0.041 A 
ATOM      4  C3  UNL d   1       2.140   2.601  -1.892  0.00  0.00    -0.075 A 
ATOM      5  S   UNL d   1       2.306   2.956  -3.571  0.00  0.00     0.015 SA
ATOM      6  C4  UNL d   1       0.730   3.597  -3.668  0.00  0.00     0.022 A 
ATOM      7  C5  UNL d   1       0.078   3.549  -2.458  0.00  0.00     0.026 A 
ATOM      8  C6  UNL d   1       0.881   2.975  -1.415  0.00  0.00    -0.082 A 
ATOM      9  C7  UNL d   1       0.590   2.747  -0.048  0.00  0.00     0.045 A 
ENDROOT
TORSDOF 0
ENDMDL
