MODEL 1
REMARK minimizedAffinity 8.77875137
REMARK minimizedRMSD -1
REMARK  0 active torsions:
REMARK  status: ('A' for Active; 'I' for Inactive)
ROOT
ATOM      1  C   UNL d   1       5.981   0.666  -4.065  0.00  0.00    -0.002 A 
ATOM      2  C1  UNL d   1       5.979   2.054  -4.060  0.00  0.00     0.010 A 
ATOM      3  C2  UNL d   1       4.831   2.761  -3.699  0.00  0.00     0.041 A 
ATOM      4  C3  UNL d   1       3.673   2.043  -3.340  0.00  0.00    -0.075 A 
ATOM      5  S   UNL d   1       2.151   2.697  -2.862  0.00  0.00     0.015 SA
ATOM      6  C4  UNL d   1       1.468   1.149  -2.653  0.00  0.00     0.022 A 
ATOM      7  C5  UNL d   1       2.365   0.147  -2.937  0.00  0.00     0.026 A 
ATOM      8  C6  UNL d   1       3.651   0.645  -3.337  0.00  0.00    -0.082 A 
ATOM      9  C7  UNL d   1       4.831  -0.043  -3.708  0.00  0.00     0.045 A 
ENDROOT
TORSDOF 0
ENDMDL
