MODEL 1
REMARK minimizedAffinity 16.4181709
REMARK minimizedRMSD -1
REMARK  0 active torsions:
REMARK  status: ('A' for Active; 'I' for Inactive)
ROOT
ATOM      1  C   UNL d   1      -0.772  -3.899  -4.189  0.00  0.00    -0.002 A 
ATOM      2  C1  UNL d   1      -0.665  -5.247  -4.501  0.00  0.00     0.010 A 
ATOM      3  C2  UNL d   1      -1.744  -5.934  -5.061  0.00  0.00     0.041 A 
ATOM      4  C3  UNL d   1      -2.943  -5.236  -5.306  0.00  0.00    -0.075 A 
ATOM      5  S   UNL d   1      -4.395  -5.871  -5.986  0.00  0.00     0.015 SA
ATOM      6  C4  UNL d   1      -5.191  -4.368  -5.878  0.00  0.00     0.022 A 
ATOM      7  C5  UNL d   1      -4.384  -3.394  -5.339  0.00  0.00     0.026 A 
ATOM      8  C6  UNL d   1      -3.075  -3.879  -5.001  0.00  0.00    -0.082 A 
ATOM      9  C7  UNL d   1      -1.963  -3.210  -4.433  0.00  0.00     0.045 A 
ENDROOT
TORSDOF 0
ENDMDL
