MODEL 1
REMARK minimizedAffinity 1.05341518
REMARK minimizedRMSD -1
REMARK  0 active torsions:
REMARK  status: ('A' for Active; 'I' for Inactive)
ROOT
ATOM      1  C   UNL d   1      -2.001  -1.681  -0.116  0.00  0.00    -0.002 A 
ATOM      2  C1  UNL d   1      -1.393  -2.338   0.944  0.00  0.00     0.010 A 
ATOM      3  C2  UNL d   1      -0.104  -1.989   1.352  0.00  0.00     0.041 A 
ATOM      4  C3  UNL d   1       0.570  -0.956   0.670  0.00  0.00    -0.075 A 
ATOM      5  S   UNL d   1       2.154  -0.357   0.995  0.00  0.00     0.015 SA
ATOM      6  C4  UNL d   1       2.061   0.786  -0.266  0.00  0.00     0.022 A 
ATOM      7  C5  UNL d   1       0.858   0.726  -0.929  0.00  0.00     0.026 A 
ATOM      8  C6  UNL d   1      -0.022  -0.279  -0.400  0.00  0.00    -0.082 A 
ATOM      9  C7  UNL d   1      -1.329  -0.657  -0.790  0.00  0.00     0.045 A 
ENDROOT
TORSDOF 0
ENDMDL
