MODEL 1
REMARK minimizedAffinity 2.20487905
REMARK minimizedRMSD -1
REMARK  1 active torsions:
REMARK  status: ('A' for Active; 'I' for Inactive)
REMARK    1  A    between atoms: C1_2  and  C2_3 
ROOT
ATOM      1  C2  UNL d   1       2.279  -0.537  -0.185  0.00  0.00    -0.077 A 
ATOM      2  C3  UNL d   1       2.806   0.719   0.145  0.00  0.00     0.002 A 
ATOM      3  C4  UNL d   1       2.662   1.797  -0.730  0.00  0.00     0.002 A 
ATOM      4  C5  UNL d   1       1.988   1.631  -1.939  0.00  0.00    -0.004 A 
ATOM      5  C6  UNL d   1       1.462   0.384  -2.277  0.00  0.00     0.002 A 
ATOM      6  C7  UNL d   1       1.606  -0.695  -1.403  0.00  0.00     0.002 A 
ENDROOT
BRANCH   1   7
ATOM      7  C1  UNL d   1       2.390  -1.689   0.780  0.00  0.00     0.055 C 
ATOM      8  C   UNL d   1       1.626  -1.409   2.066  0.00  0.00     0.019 C 
ENDBRANCH   1   7
TORSDOF 1
ENDMDL
