MODEL 1
REMARK minimizedAffinity -3.75788832
REMARK minimizedRMSD -1
REMARK  1 active torsions:
REMARK  status: ('A' for Active; 'I' for Inactive)
REMARK    1  A    between atoms: C1_2  and  C2_3 
ROOT
ATOM      1  C2  UNL d   1      -2.560   0.624  -4.283  0.00  0.00    -0.077 A 
ATOM      2  C3  UNL d   1      -1.834   0.810  -3.099  0.00  0.00     0.002 A 
ATOM      3  C4  UNL d   1      -1.652  -0.250  -2.208  0.00  0.00     0.002 A 
ATOM      4  C5  UNL d   1      -2.190  -1.503  -2.495  0.00  0.00    -0.004 A 
ATOM      5  C6  UNL d   1      -2.916  -1.697  -3.669  0.00  0.00     0.002 A 
ATOM      6  C7  UNL d   1      -3.099  -0.639  -4.560  0.00  0.00     0.002 A 
ENDROOT
BRANCH   1   7
ATOM      7  C1  UNL d   1      -2.716   1.753  -5.269  0.00  0.00     0.055 C 
ATOM      8  C   UNL d   1      -3.833   2.700  -4.855  0.00  0.00     0.019 C 
ENDBRANCH   1   7
TORSDOF 1
ENDMDL
