MODEL 1
REMARK minimizedAffinity 3.26644444
REMARK minimizedRMSD -1
REMARK  1 active torsions:
REMARK  status: ('A' for Active; 'I' for Inactive)
REMARK    1  A    between atoms: C1_2  and  C2_3 
ROOT
ATOM      1  C2  UNL d   1       1.118  -1.106  -0.620  0.00  0.00    -0.077 A 
ATOM      2  C3  UNL d   1       1.973  -0.910   0.474  0.00  0.00     0.002 A 
ATOM      3  C4  UNL d   1       1.492  -1.040   1.778  0.00  0.00     0.002 A 
ATOM      4  C5  UNL d   1       0.157  -1.371   2.001  0.00  0.00    -0.004 A 
ATOM      5  C6  UNL d   1      -0.701  -1.566   0.920  0.00  0.00     0.002 A 
ATOM      6  C7  UNL d   1      -0.223  -1.435  -0.384  0.00  0.00     0.002 A 
ENDROOT
BRANCH   1   7
ATOM      7  C1  UNL d   1       1.646  -1.015  -2.027  0.00  0.00     0.055 C 
ATOM      8  C   UNL d   1       2.877  -1.889  -2.215  0.00  0.00     0.019 C 
ENDBRANCH   1   7
TORSDOF 1
ENDMDL
