MODEL 1
REMARK minimizedAffinity -1.37812018
REMARK minimizedRMSD -1
REMARK  1 active torsions:
REMARK  status: ('A' for Active; 'I' for Inactive)
REMARK    1  A    between atoms: C1_2  and  C2_3 
ROOT
ATOM      1  C2  UNL d   1      -1.774   0.436   3.199  0.00  0.00    -0.077 A 
ATOM      2  C3  UNL d   1      -2.113  -0.309   2.061  0.00  0.00     0.002 A 
ATOM      3  C4  UNL d   1      -1.218  -1.241   1.535  0.00  0.00     0.002 A 
ATOM      4  C5  UNL d   1       0.020  -1.441   2.142  0.00  0.00    -0.004 A 
ATOM      5  C6  UNL d   1       0.368  -0.703   3.273  0.00  0.00     0.002 A 
ATOM      6  C7  UNL d   1      -0.525   0.230   3.800  0.00  0.00     0.002 A 
ENDROOT
BRANCH   1   7
ATOM      7  C1  UNL d   1      -2.758   1.408   3.797  0.00  0.00     0.055 C 
ATOM      8  C   UNL d   1      -4.192   0.997   3.497  0.00  0.00     0.019 C 
ENDBRANCH   1   7
TORSDOF 1
ENDMDL
