MODEL 1
REMARK minimizedAffinity 2.85934281
REMARK minimizedRMSD -1
REMARK  1 active torsions:
REMARK  status: ('A' for Active; 'I' for Inactive)
REMARK    1  A    between atoms: C1_2  and  C2_3 
ROOT
ATOM      1  C2  UNL d   1      -1.762   0.055   2.361  0.00  0.00    -0.077 A 
ATOM      2  C3  UNL d   1      -0.622   0.756   2.779  0.00  0.00     0.002 A 
ATOM      3  C4  UNL d   1       0.630   0.138   2.769  0.00  0.00     0.002 A 
ATOM      4  C5  UNL d   1       0.755  -1.181   2.339  0.00  0.00    -0.004 A 
ATOM      5  C6  UNL d   1      -0.373  -1.887   1.923  0.00  0.00     0.002 A 
ATOM      6  C7  UNL d   1      -1.626  -1.272   1.933  0.00  0.00     0.002 A 
ENDROOT
BRANCH   1   7
ATOM      7  C1  UNL d   1      -3.106   0.735   2.324  0.00  0.00     0.055 C 
ATOM      8  C   UNL d   1      -3.426   1.399   3.655  0.00  0.00     0.019 C 
ENDBRANCH   1   7
TORSDOF 1
ENDMDL
