MODEL 1
REMARK minimizedAffinity 2.923033
REMARK minimizedRMSD -1
REMARK  1 active torsions:
REMARK  status: ('A' for Active; 'I' for Inactive)
REMARK    1  A    between atoms: C1_2  and  C2_3 
ROOT
ATOM      1  C2  UNL d   1      -0.743  -1.295   1.386  0.00  0.00    -0.077 A 
ATOM      2  C3  UNL d   1       0.371  -0.668   1.961  0.00  0.00     0.002 A 
ATOM      3  C4  UNL d   1       1.023  -1.249   3.051  0.00  0.00     0.002 A 
ATOM      4  C5  UNL d   1       0.571  -2.460   3.571  0.00  0.00    -0.004 A 
ATOM      5  C6  UNL d   1      -0.538  -3.089   3.007  0.00  0.00     0.002 A 
ATOM      6  C7  UNL d   1      -1.191  -2.510   1.919  0.00  0.00     0.002 A 
ENDROOT
BRANCH   1   7
ATOM      7  C1  UNL d   1      -1.418  -0.695   0.180  0.00  0.00     0.055 C 
ATOM      8  C   UNL d   1      -1.971  -1.775  -0.739  0.00  0.00     0.019 C 
ENDBRANCH   1   7
TORSDOF 1
ENDMDL
