MODEL 1
REMARK minimizedAffinity 2.58902717
REMARK minimizedRMSD -1
REMARK  1 active torsions:
REMARK  status: ('A' for Active; 'I' for Inactive)
REMARK    1  A    between atoms: C1_2  and  C2_3 
ROOT
ATOM      1  C2  UNL d   1       0.495  -0.942   0.813  0.00  0.00    -0.077 A 
ATOM      2  C3  UNL d   1      -0.492  -0.021   1.190  0.00  0.00     0.002 A 
ATOM      3  C4  UNL d   1      -0.940   0.032   2.512  0.00  0.00     0.002 A 
ATOM      4  C5  UNL d   1      -0.403  -0.829   3.466  0.00  0.00    -0.004 A 
ATOM      5  C6  UNL d   1       0.578  -1.750   3.100  0.00  0.00     0.002 A 
ATOM      6  C7  UNL d   1       1.026  -1.806   1.779  0.00  0.00     0.002 A 
ENDROOT
BRANCH   1   7
ATOM      7  C1  UNL d   1       1.015  -0.968  -0.601  0.00  0.00     0.055 C 
ATOM      8  C   UNL d   1       2.518  -1.206  -0.635  0.00  0.00     0.019 C 
ENDBRANCH   1   7
TORSDOF 1
ENDMDL
