MODEL 1
REMARK minimizedAffinity 2.62422037
REMARK minimizedRMSD -1
REMARK  1 active torsions:
REMARK  status: ('A' for Active; 'I' for Inactive)
REMARK    1  A    between atoms: C1_2  and  C2_3 
ROOT
ATOM      1  C2  UNL d   1       1.907  -0.641  -0.227  0.00  0.00    -0.077 A 
ATOM      2  C3  UNL d   1       2.412   0.607   0.164  0.00  0.00     0.002 A 
ATOM      3  C4  UNL d   1       2.222   1.730  -0.644  0.00  0.00     0.002 A 
ATOM      4  C5  UNL d   1       1.523   1.618  -1.844  0.00  0.00    -0.004 A 
ATOM      5  C6  UNL d   1       1.018   0.381  -2.242  0.00  0.00     0.002 A 
ATOM      6  C7  UNL d   1       1.208  -0.743  -1.437  0.00  0.00     0.002 A 
ENDROOT
BRANCH   1   7
ATOM      7  C1  UNL d   1       2.068  -1.844   0.665  0.00  0.00     0.055 C 
ATOM      8  C   UNL d   1       1.138  -1.769   1.868  0.00  0.00     0.019 C 
ENDBRANCH   1   7
TORSDOF 1
ENDMDL
