MODEL 1
REMARK minimizedAffinity -1.42042339
REMARK minimizedRMSD -1
REMARK  3 active torsions:
REMARK  status: ('A' for Active; 'I' for Inactive)
REMARK    1  A    between atoms: C3'_2  and  C2'_3 
REMARK    2  A    between atoms: C2'_3  and  C1'_4 
REMARK    3  A    between atoms: C1'_4  and  C1_5 
ROOT
ATOM      1  C1  N4B d   1      -5.102   3.830   4.303  0.00  0.00    -0.075 A 
ATOM      2  C2  N4B d   1      -4.096   4.164   5.237  0.00  0.00     0.002 A 
ATOM      3  C3  N4B d   1      -3.514   3.182   6.000  0.00  0.00     0.002 A 
ATOM      4  C4  N4B d   1      -3.932   1.867   5.861  0.00  0.00    -0.004 A 
ATOM      5  C5  N4B d   1      -4.886   1.549   4.939  0.00  0.00     0.002 A 
ATOM      6  C6  N4B d   1      -5.477   2.525   4.163  0.00  0.00     0.002 A 
ENDROOT
BRANCH   1   7
ATOM      7  C1' N4B d   1      -5.828   4.880   3.508  0.00  0.00     0.057 C 
BRANCH   7   8
ATOM      8  C2' N4B d   1      -5.735   4.537   2.024  0.00  0.00     0.009 C 
BRANCH   8   9
ATOM      9  C3' N4B d   1      -4.973   5.594   1.244  0.00  0.00     0.004 C 
ATOM     10  C4' N4B d   1      -5.669   5.997  -0.022  0.00  0.00     0.003 C 
ENDBRANCH   8   9
ENDBRANCH   7   8
ENDBRANCH   1   7
TORSDOF 3
ENDMDL
