MODEL 1
REMARK minimizedAffinity -3.1003561
REMARK minimizedRMSD -1
REMARK  3 active torsions:
REMARK  status: ('A' for Active; 'I' for Inactive)
REMARK    1  A    between atoms: C3'_2  and  C2'_3 
REMARK    2  A    between atoms: C2'_3  and  C1'_4 
REMARK    3  A    between atoms: C1'_4  and  C1_5 
ROOT
ATOM      1  C1  N4B d   1      -5.569   4.712   3.916  0.00  0.00    -0.075 A 
ATOM      2  C2  N4B d   1      -5.994   3.595   3.163  0.00  0.00     0.002 A 
ATOM      3  C3  N4B d   1      -5.989   3.650   1.791  0.00  0.00     0.002 A 
ATOM      4  C4  N4B d   1      -5.582   4.811   1.152  0.00  0.00    -0.004 A 
ATOM      5  C5  N4B d   1      -5.148   5.877   1.886  0.00  0.00     0.002 A 
ATOM      6  C6  N4B d   1      -5.145   5.835   3.266  0.00  0.00     0.002 A 
ENDROOT
BRANCH   1   7
ATOM      7  C1' N4B d   1      -5.639   4.731   5.418  0.00  0.00     0.057 C 
BRANCH   7   8
ATOM      8  C2' N4B d   1      -5.674   3.296   5.936  0.00  0.00     0.009 C 
BRANCH   8   9
ATOM      9  C3' N4B d   1      -4.288   2.675   5.982  0.00  0.00     0.004 C 
ATOM     10  C4' N4B d   1      -4.324   1.175   5.999  0.00  0.00     0.003 C 
ENDBRANCH   8   9
ENDBRANCH   7   8
ENDBRANCH   1   7
TORSDOF 3
ENDMDL
