MODEL 1
REMARK minimizedAffinity -3.29713035
REMARK minimizedRMSD -1
REMARK  3 active torsions:
REMARK  status: ('A' for Active; 'I' for Inactive)
REMARK    1  A    between atoms: C3'_2  and  C2'_3 
REMARK    2  A    between atoms: C2'_3  and  C1'_4 
REMARK    3  A    between atoms: C1'_4  and  C1_5 
ROOT
ATOM      1  C1  N4B d   1      -4.338   3.379   3.643  0.00  0.00    -0.075 A 
ATOM      2  C2  N4B d   1      -5.255   2.777   4.532  0.00  0.00     0.002 A 
ATOM      3  C3  N4B d   1      -4.810   2.218   5.704  0.00  0.00     0.002 A 
ATOM      4  C4  N4B d   1      -3.455   2.233   6.000  0.00  0.00    -0.004 A 
ATOM      5  C5  N4B d   1      -2.578   2.839   5.148  0.00  0.00     0.002 A 
ATOM      6  C6  N4B d   1      -3.013   3.408   3.968  0.00  0.00     0.002 A 
ENDROOT
BRANCH   1   7
ATOM      7  C1' N4B d   1      -4.767   3.926   2.309  0.00  0.00     0.057 C 
BRANCH   7   8
ATOM      8  C2' N4B d   1      -5.959   4.857   2.510  0.00  0.00     0.009 C 
BRANCH   8   9
ATOM      9  C3' N4B d   1      -5.965   5.998   1.507  0.00  0.00     0.004 C 
ATOM     10  C4' N4B d   1      -4.799   5.949   0.565  0.00  0.00     0.003 C 
ENDBRANCH   8   9
ENDBRANCH   7   8
ENDBRANCH   1   7
TORSDOF 3
ENDMDL
