MODEL 1
REMARK minimizedAffinity -3.41649771
REMARK minimizedRMSD -1
REMARK  3 active torsions:
REMARK  status: ('A' for Active; 'I' for Inactive)
REMARK    1  A    between atoms: C3'_2  and  C2'_3 
REMARK    2  A    between atoms: C2'_3  and  C1'_4 
REMARK    3  A    between atoms: C1'_4  and  C1_5 
ROOT
ATOM      1  C1  N4B d   1      -5.672   4.157   4.544  0.00  0.00    -0.075 A 
ATOM      2  C2  N4B d   1      -5.107   5.442   4.390  0.00  0.00     0.002 A 
ATOM      3  C3  N4B d   1      -4.847   5.932   3.133  0.00  0.00     0.002 A 
ATOM      4  C4  N4B d   1      -5.124   5.150   2.022  0.00  0.00    -0.004 A 
ATOM      5  C5  N4B d   1      -5.693   3.920   2.178  0.00  0.00     0.002 A 
ATOM      6  C6  N4B d   1      -5.964   3.417   3.434  0.00  0.00     0.002 A 
ENDROOT
BRANCH   1   7
ATOM      7  C1' N4B d   1      -5.895   3.545   5.899  0.00  0.00     0.057 C 
BRANCH   7   8
ATOM      8  C2' N4B d   1      -5.611   2.048   5.826  0.00  0.00     0.009 C 
BRANCH   8   9
ATOM      9  C3' N4B d   1      -4.130   1.743   5.972  0.00  0.00     0.004 C 
ATOM     10  C4' N4B d   1      -3.282   2.980   6.000  0.00  0.00     0.003 C 
ENDBRANCH   8   9
ENDBRANCH   7   8
ENDBRANCH   1   7
TORSDOF 3
ENDMDL
