MODEL 1
REMARK minimizedAffinity -2.26161385
REMARK minimizedRMSD -1
REMARK  3 active torsions:
REMARK  status: ('A' for Active; 'I' for Inactive)
REMARK    1  A    between atoms: C3'_2  and  C2'_3 
REMARK    2  A    between atoms: C2'_3  and  C1'_4 
REMARK    3  A    between atoms: C1'_4  and  C1_5 
ROOT
ATOM      1  C1  N4B d   1      -5.275   4.935   4.495  0.00  0.00    -0.075 A 
ATOM      2  C2  N4B d   1      -5.822   3.638   4.609  0.00  0.00     0.002 A 
ATOM      3  C3  N4B d   1      -5.179   2.686   5.361  0.00  0.00     0.002 A 
ATOM      4  C4  N4B d   1      -3.983   3.001   5.990  0.00  0.00    -0.004 A 
ATOM      5  C5  N4B d   1      -3.475   4.263   5.895  0.00  0.00     0.002 A 
ATOM      6  C6  N4B d   1      -4.113   5.231   5.146  0.00  0.00     0.002 A 
ENDROOT
BRANCH   1   7
ATOM      7  C1' N4B d   1      -5.897   5.985   3.614  0.00  0.00     0.057 C 
BRANCH   7   8
ATOM      8  C2' N4B d   1      -5.211   5.965   2.251  0.00  0.00     0.009 C 
BRANCH   8   9
ATOM      9  C3' N4B d   1      -5.969   5.115   1.246  0.00  0.00     0.004 C 
ATOM     10  C4' N4B d   1      -5.562   3.672   1.282  0.00  0.00     0.003 C 
ENDBRANCH   8   9
ENDBRANCH   7   8
ENDBRANCH   1   7
TORSDOF 3
ENDMDL
