MODEL 1
REMARK minimizedAffinity -1.55999422
REMARK minimizedRMSD -1
REMARK  3 active torsions:
REMARK  status: ('A' for Active; 'I' for Inactive)
REMARK    1  A    between atoms: C3'_2  and  C2'_3 
REMARK    2  A    between atoms: C2'_3  and  C1'_4 
REMARK    3  A    between atoms: C1'_4  and  C1_5 
ROOT
ATOM      1  C1  N4B d   1      -5.485   4.980   3.734  0.00  0.00    -0.075 A 
ATOM      2  C2  N4B d   1      -4.805   5.891   2.896  0.00  0.00     0.002 A 
ATOM      3  C3  N4B d   1      -4.553   5.562   1.586  0.00  0.00     0.002 A 
ATOM      4  C4  N4B d   1      -4.954   4.326   1.100  0.00  0.00    -0.004 A 
ATOM      5  C5  N4B d   1      -5.633   3.463   1.909  0.00  0.00     0.002 A 
ATOM      6  C6  N4B d   1      -5.897   3.782   3.226  0.00  0.00     0.002 A 
ENDROOT
BRANCH   1   7
ATOM      7  C1' N4B d   1      -5.707   5.260   5.195  0.00  0.00     0.057 C 
BRANCH   7   8
ATOM      8  C2' N4B d   1      -5.931   3.941   5.929  0.00  0.00     0.009 C 
BRANCH   8   9
ATOM      9  C3' N4B d   1      -5.263   2.776   5.220  0.00  0.00     0.004 C 
ATOM     10  C4' N4B d   1      -3.971   2.369   5.863  0.00  0.00     0.003 C 
ENDBRANCH   8   9
ENDBRANCH   7   8
ENDBRANCH   1   7
TORSDOF 3
ENDMDL
