MODEL 1
REMARK minimizedAffinity -0.618002713
REMARK minimizedRMSD -1
REMARK  3 active torsions:
REMARK  status: ('A' for Active; 'I' for Inactive)
REMARK    1  A    between atoms: C3'_2  and  C2'_3 
REMARK    2  A    between atoms: C2'_3  and  C1'_4 
REMARK    3  A    between atoms: C1'_4  and  C1_5 
ROOT
ATOM      1  C1  N4B d   1      -4.960   4.773   4.238  0.00  0.00    -0.075 A 
ATOM      2  C2  N4B d   1      -3.905   3.835   4.229  0.00  0.00     0.002 A 
ATOM      3  C3  N4B d   1      -3.923   2.774   5.101  0.00  0.00     0.002 A 
ATOM      4  C4  N4B d   1      -4.971   2.642   5.999  0.00  0.00    -0.004 A 
ATOM      5  C5  N4B d   1      -5.999   3.539   5.984  0.00  0.00     0.002 A 
ATOM      6  C6  N4B d   1      -5.996   4.608   5.110  0.00  0.00     0.002 A 
ENDROOT
BRANCH   1   7
ATOM      7  C1' N4B d   1      -4.941   5.997   3.362  0.00  0.00     0.057 C 
BRANCH   7   8
ATOM      8  C2' N4B d   1      -5.998   5.848   2.271  0.00  0.00     0.009 C 
BRANCH   8   9
ATOM      9  C3' N4B d   1      -5.421   5.248   1.001  0.00  0.00     0.004 C 
ATOM     10  C4' N4B d   1      -4.104   5.854   0.617  0.00  0.00     0.003 C 
ENDBRANCH   8   9
ENDBRANCH   7   8
ENDBRANCH   1   7
TORSDOF 3
ENDMDL
