MODEL 1
REMARK minimizedAffinity -1.33152163
REMARK minimizedRMSD -1
REMARK  3 active torsions:
REMARK  status: ('A' for Active; 'I' for Inactive)
REMARK    1  A    between atoms: C3'_2  and  C2'_3 
REMARK    2  A    between atoms: C2'_3  and  C1'_4 
REMARK    3  A    between atoms: C1'_4  and  C1_5 
ROOT
ATOM      1  C1  N4B d   1      -5.171   4.749   4.608  0.00  0.00    -0.075 A 
ATOM      2  C2  N4B d   1      -5.631   3.437   4.858  0.00  0.00     0.002 A 
ATOM      3  C3  N4B d   1      -4.844   2.555   5.558  0.00  0.00     0.002 A 
ATOM      4  C4  N4B d   1      -3.592   2.954   5.999  0.00  0.00    -0.004 A 
ATOM      5  C5  N4B d   1      -3.165   4.231   5.776  0.00  0.00     0.002 A 
ATOM      6  C6  N4B d   1      -3.947   5.129   5.078  0.00  0.00     0.002 A 
ENDROOT
BRANCH   1   7
ATOM      7  C1' N4B d   1      -5.958   5.721   3.774  0.00  0.00     0.057 C 
BRANCH   7   8
ATOM      8  C2' N4B d   1      -5.200   6.000   2.480  0.00  0.00     0.009 C 
BRANCH   8   9
ATOM      9  C3' N4B d   1      -5.677   5.116   1.340  0.00  0.00     0.004 C 
ATOM     10  C4' N4B d   1      -5.400   3.662   1.578  0.00  0.00     0.003 C 
ENDBRANCH   8   9
ENDBRANCH   7   8
ENDBRANCH   1   7
TORSDOF 3
ENDMDL
