MODEL 1
REMARK minimizedAffinity 0.461128324
REMARK minimizedRMSD -1
REMARK  3 active torsions:
REMARK  status: ('A' for Active; 'I' for Inactive)
REMARK    1  A    between atoms: C3'_2  and  C2'_3 
REMARK    2  A    between atoms: C2'_3  and  C1'_4 
REMARK    3  A    between atoms: C1'_4  and  C1_5 
ROOT
ATOM      1  C1  N4B d   1      -5.239   3.547   3.510  0.00  0.00    -0.075 A 
ATOM      2  C2  N4B d   1      -4.977   2.817   4.690  0.00  0.00     0.002 A 
ATOM      3  C3  N4B d   1      -5.227   3.381   5.917  0.00  0.00     0.002 A 
ATOM      4  C4  N4B d   1      -5.720   4.675   5.989  0.00  0.00    -0.004 A 
ATOM      5  C5  N4B d   1      -5.994   5.365   4.844  0.00  0.00     0.002 A 
ATOM      6  C6  N4B d   1      -5.751   4.809   3.604  0.00  0.00     0.002 A 
ENDROOT
BRANCH   1   7
ATOM      7  C1' N4B d   1      -4.901   3.004   2.149  0.00  0.00     0.057 C 
BRANCH   7   8
ATOM      8  C2' N4B d   1      -5.634   3.820   1.088  0.00  0.00     0.009 C 
BRANCH   8   9
ATOM      9  C3' N4B d   1      -4.727   4.846   0.432  0.00  0.00     0.004 C 
ATOM     10  C4' N4B d   1      -4.403   5.998   1.337  0.00  0.00     0.003 C 
ENDBRANCH   8   9
ENDBRANCH   7   8
ENDBRANCH   1   7
TORSDOF 3
ENDMDL
