MODEL 1
REMARK minimizedAffinity 7.40737486
REMARK minimizedRMSD -1
REMARK  3 active torsions:
REMARK  status: ('A' for Active; 'I' for Inactive)
REMARK    1  A    between atoms: C3'_2  and  C2'_3 
REMARK    2  A    between atoms: C2'_3  and  C1'_4 
REMARK    3  A    between atoms: C1'_4  and  C1_5 
ROOT
ATOM      1  C1  N4B d   1      -0.425   0.636   0.159  0.00  0.00    -0.075 A 
ATOM      2  C2  N4B d   1      -1.011   0.497   1.437  0.00  0.00     0.002 A 
ATOM      3  C3  N4B d   1      -1.773  -0.608   1.726  0.00  0.00     0.002 A 
ATOM      4  C4  N4B d   1      -1.978  -1.574   0.753  0.00  0.00    -0.004 A 
ATOM      5  C5  N4B d   1      -1.388  -1.445  -0.470  0.00  0.00     0.002 A 
ATOM      6  C6  N4B d   1      -0.616  -0.342  -0.774  0.00  0.00     0.002 A 
ENDROOT
BRANCH   1   7
ATOM      7  C1' N4B d   1       0.345   1.867  -0.232  0.00  0.00     0.057 C 
BRANCH   7   8
ATOM      8  C2' N4B d   1       1.404   2.154   0.828  0.00  0.00     0.009 C 
BRANCH   8   9
ATOM      9  C3' N4B d   1       2.146   3.451   0.554  0.00  0.00     0.004 C 
ATOM     10  C4' N4B d   1       3.299   3.273  -0.387  0.00  0.00     0.003 C 
ENDBRANCH   8   9
ENDBRANCH   7   8
ENDBRANCH   1   7
TORSDOF 3
ENDMDL
