MODEL 1
REMARK minimizedAffinity 1.49012589
REMARK minimizedRMSD -1
REMARK  3 active torsions:
REMARK  status: ('A' for Active; 'I' for Inactive)
REMARK    1  A    between atoms: C3'_2  and  C2'_3 
REMARK    2  A    between atoms: C2'_3  and  C1'_4 
REMARK    3  A    between atoms: C1'_4  and  C1_5 
ROOT
ATOM      1  C1  N4B d   1      -0.496  -0.491  -0.072  0.00  0.00    -0.075 A 
ATOM      2  C2  N4B d   1      -0.611   0.049   1.228  0.00  0.00     0.002 A 
ATOM      3  C3  N4B d   1      -1.816   0.004   1.886  0.00  0.00     0.002 A 
ATOM      4  C4  N4B d   1      -2.919  -0.556   1.259  0.00  0.00    -0.004 A 
ATOM      5  C5  N4B d   1      -2.793  -1.098   0.013  0.00  0.00     0.002 A 
ATOM      6  C6  N4B d   1      -1.587  -1.064  -0.658  0.00  0.00     0.002 A 
ENDROOT
BRANCH   1   7
ATOM      7  C1' N4B d   1       0.779  -0.388  -0.864  0.00  0.00     0.057 C 
BRANCH   7   8
ATOM      8  C2' N4B d   1       0.646   0.740  -1.883  0.00  0.00     0.009 C 
BRANCH   8   9
ATOM      9  C3' N4B d   1      -0.106   0.297  -3.126  0.00  0.00     0.004 C 
ATOM     10  C4' N4B d   1      -0.115   1.341  -4.203  0.00  0.00     0.003 C 
ENDBRANCH   8   9
ENDBRANCH   7   8
ENDBRANCH   1   7
TORSDOF 3
ENDMDL
