MODEL 1
REMARK minimizedAffinity -0.436152518
REMARK minimizedRMSD -1
REMARK  3 active torsions:
REMARK  status: ('A' for Active; 'I' for Inactive)
REMARK    1  A    between atoms: C3'_2  and  C2'_3 
REMARK    2  A    between atoms: C2'_3  and  C1'_4 
REMARK    3  A    between atoms: C1'_4  and  C1_5 
ROOT
ATOM      1  C1  N4B d   1      -5.305   5.282   3.992  0.00  0.00    -0.075 A 
ATOM      2  C2  N4B d   1      -5.428   3.887   4.175  0.00  0.00     0.002 A 
ATOM      3  C3  N4B d   1      -4.715   3.260   5.167  0.00  0.00     0.002 A 
ATOM      4  C4  N4B d   1      -3.862   4.000   5.972  0.00  0.00    -0.004 A 
ATOM      5  C5  N4B d   1      -3.768   5.351   5.805  0.00  0.00     0.002 A 
ATOM      6  C6  N4B d   1      -4.482   5.995   4.814  0.00  0.00     0.002 A 
ENDROOT
BRANCH   1   7
ATOM      7  C1' N4B d   1      -5.999   5.999   2.866  0.00  0.00     0.057 C 
BRANCH   7   8
ATOM      8  C2' N4B d   1      -5.750   5.244   1.563  0.00  0.00     0.009 C 
BRANCH   8   9
ATOM      9  C3' N4B d   1      -4.360   4.634   1.516  0.00  0.00     0.004 C 
ATOM     10  C4' N4B d   1      -4.385   3.136   1.461  0.00  0.00     0.003 C 
ENDBRANCH   8   9
ENDBRANCH   7   8
ENDBRANCH   1   7
TORSDOF 3
ENDMDL
