MODEL 1
REMARK minimizedAffinity -2.56910491
REMARK minimizedRMSD -1
REMARK  3 active torsions:
REMARK  status: ('A' for Active; 'I' for Inactive)
REMARK    1  A    between atoms: C3'_2  and  C2'_3 
REMARK    2  A    between atoms: C2'_3  and  C1'_4 
REMARK    3  A    between atoms: C1'_4  and  C1_5 
ROOT
ATOM      1  C1  N4B d   1      -5.262   4.815   3.801  0.00  0.00    -0.075 A 
ATOM      2  C2  N4B d   1      -4.518   3.618   3.732  0.00  0.00     0.002 A 
ATOM      3  C3  N4B d   1      -4.526   2.742   4.789  0.00  0.00     0.002 A 
ATOM      4  C4  N4B d   1      -5.254   3.049   5.929  0.00  0.00    -0.004 A 
ATOM      5  C5  N4B d   1      -5.991   4.196   5.978  0.00  0.00     0.002 A 
ATOM      6  C6  N4B d   1      -5.995   5.084   4.921  0.00  0.00     0.002 A 
ENDROOT
BRANCH   1   7
ATOM      7  C1' N4B d   1      -5.216   5.844   2.705  0.00  0.00     0.057 C 
BRANCH   7   8
ATOM      8  C2' N4B d   1      -4.681   5.196   1.432  0.00  0.00     0.009 C 
BRANCH   8   9
ATOM      9  C3' N4B d   1      -5.698   4.260   0.801  0.00  0.00     0.004 C 
ATOM     10  C4' N4B d   1      -5.109   2.934   0.420  0.00  0.00     0.003 C 
ENDBRANCH   8   9
ENDBRANCH   7   8
ENDBRANCH   1   7
TORSDOF 3
ENDMDL
