MODEL 1
REMARK minimizedAffinity 1.66596818
REMARK minimizedRMSD -1
REMARK  3 active torsions:
REMARK  status: ('A' for Active; 'I' for Inactive)
REMARK    1  A    between atoms: C3'_2  and  C2'_3 
REMARK    2  A    between atoms: C2'_3  and  C1'_4 
REMARK    3  A    between atoms: C1'_4  and  C1_5 
ROOT
ATOM      1  C1  N4B d   1      -5.666   4.809   3.267  0.00  0.00    -0.075 A 
ATOM      2  C2  N4B d   1      -5.332   3.541   3.792  0.00  0.00     0.002 A 
ATOM      3  C3  N4B d   1      -5.335   3.339   5.150  0.00  0.00     0.002 A 
ATOM      4  C4  N4B d   1      -5.648   4.389   6.000  0.00  0.00    -0.004 A 
ATOM      5  C5  N4B d   1      -5.993   5.604   5.484  0.00  0.00     0.002 A 
ATOM      6  C6  N4B d   1      -5.999   5.821   4.121  0.00  0.00     0.002 A 
ENDROOT
BRANCH   1   7
ATOM      7  C1' N4B d   1      -5.593   5.103   1.793  0.00  0.00     0.057 C 
BRANCH   7   8
ATOM      8  C2' N4B d   1      -5.998   3.855   1.014  0.00  0.00     0.009 C 
BRANCH   8   9
ATOM      9  C3' N4B d   1      -4.794   3.129   0.438  0.00  0.00     0.004 C 
ATOM     10  C4' N4B d   1      -4.744   1.683   0.835  0.00  0.00     0.003 C 
ENDBRANCH   8   9
ENDBRANCH   7   8
ENDBRANCH   1   7
TORSDOF 3
ENDMDL
