MODEL 1
REMARK minimizedAffinity -0.855047345
REMARK minimizedRMSD -1
REMARK  1 active torsions:
REMARK  status: ('A' for Active; 'I' for Inactive)
REMARK    1  A    between atoms: C3_4  and  O_7 
ROOT
ATOM      1  C   UNL d   1      -1.030   1.102   2.110  0.00  0.00    -0.033 A 
ATOM      2  C1  UNL d   1      -0.802   1.819   0.933  0.00  0.00     0.039 A 
ATOM      3  C2  UNL d   1      -0.273   1.175  -0.187  0.00  0.00    -0.080 A 
ATOM      4  C3  UNL d   1       0.023  -0.184  -0.118  0.00  0.00     0.150 A 
ATOM      5  C4  UNL d   1      -0.204  -0.904   1.050  0.00  0.00    -0.007 A 
ATOM      6  C5  UNL d   1      -0.732  -0.260   2.168  0.00  0.00     0.039 A 
ENDROOT
BRANCH   4   7
ATOM      7  O   UNL d   1       0.546  -0.854  -1.184  0.00  0.00    -0.526 OA
ATOM      8  H5  UNL d   1       0.676  -0.222  -1.911  0.00  0.00     0.418 HD
ENDBRANCH   4   7
TORSDOF 1
ENDMDL
