MODEL 1
REMARK minimizedAffinity -4.52165699
REMARK minimizedRMSD -1
REMARK  1 active torsions:
REMARK  status: ('A' for Active; 'I' for Inactive)
REMARK    1  A    between atoms: C3_4  and  O_7 
ROOT
ATOM      1  C   UNL d   1       0.496  -0.167  -0.426  0.00  0.00    -0.033 A 
ATOM      2  C1  UNL d   1       0.213   1.106  -0.927  0.00  0.00     0.039 A 
ATOM      3  C2  UNL d   1      -0.872   1.828  -0.428  0.00  0.00    -0.080 A 
ATOM      4  C3  UNL d   1      -1.665   1.269   0.570  0.00  0.00     0.150 A 
ATOM      5  C4  UNL d   1      -1.387   0.003   1.076  0.00  0.00    -0.007 A 
ATOM      6  C5  UNL d   1      -0.303  -0.717   0.576  0.00  0.00     0.039 A 
ENDROOT
BRANCH   4   7
ATOM      7  O   UNL d   1      -2.738   1.934   1.085  0.00  0.00    -0.526 OA
ATOM      8  H5  UNL d   1      -2.826   2.783   0.620  0.00  0.00     0.418 HD
ENDBRANCH   4   7
TORSDOF 1
ENDMDL
