MODEL 1
REMARK minimizedAffinity -4.44366503
REMARK minimizedRMSD -1
REMARK  1 active torsions:
REMARK  status: ('A' for Active; 'I' for Inactive)
REMARK    1  A    between atoms: C3_4  and  O_7 
ROOT
ATOM      1  C   UNL d   1       0.221  -0.631   0.695  0.00  0.00    -0.033 A 
ATOM      2  C1  UNL d   1      -0.108   0.299  -0.292  0.00  0.00     0.039 A 
ATOM      3  C2  UNL d   1      -1.076   1.274  -0.039  0.00  0.00    -0.080 A 
ATOM      4  C3  UNL d   1      -1.704   1.307   1.202  0.00  0.00     0.150 A 
ATOM      5  C4  UNL d   1      -1.378   0.386   2.192  0.00  0.00    -0.007 A 
ATOM      6  C5  UNL d   1      -0.412  -0.587   1.938  0.00  0.00     0.039 A 
ENDROOT
BRANCH   4   7
ATOM      7  O   UNL d   1      -2.658   2.237   1.493  0.00  0.00    -0.526 OA
ATOM      8  H5  UNL d   1      -2.800   2.789   0.706  0.00  0.00     0.418 HD
ENDBRANCH   4   7
TORSDOF 1
ENDMDL
