MODEL 1
REMARK minimizedAffinity -4.34062767
REMARK minimizedRMSD -1
REMARK  1 active torsions:
REMARK  status: ('A' for Active; 'I' for Inactive)
REMARK    1  A    between atoms: C3_4  and  O_7 
ROOT
ATOM      1  C   UNL d   1      -0.586  -0.307  -0.010  0.00  0.00    -0.033 A 
ATOM      2  C1  UNL d   1      -1.492   0.401  -0.802  0.00  0.00     0.039 A 
ATOM      3  C2  UNL d   1      -2.177   1.496  -0.273  0.00  0.00    -0.080 A 
ATOM      4  C3  UNL d   1      -1.947   1.873   1.047  0.00  0.00     0.150 A 
ATOM      5  C4  UNL d   1      -1.043   1.175   1.841  0.00  0.00    -0.007 A 
ATOM      6  C5  UNL d   1      -0.360   0.081   1.311  0.00  0.00     0.039 A 
ENDROOT
BRANCH   4   7
ATOM      7  O   UNL d   1      -2.596   2.932   1.609  0.00  0.00    -0.526 OA
ATOM      8  H5  UNL d   1      -3.210   3.301   0.952  0.00  0.00     0.418 HD
ENDBRANCH   4   7
TORSDOF 1
ENDMDL
