MODEL 1
REMARK minimizedAffinity -5.20914888
REMARK minimizedRMSD -1
REMARK  1 active torsions:
REMARK  status: ('A' for Active; 'I' for Inactive)
REMARK    1  A    between atoms: C3_4  and  O_7 
ROOT
ATOM      1  C   UNL d   1       0.802   0.677  -0.087  0.00  0.00    -0.033 A 
ATOM      2  C1  UNL d   1       0.181  -0.258   0.743  0.00  0.00     0.039 A 
ATOM      3  C2  UNL d   1      -1.054   0.033   1.325  0.00  0.00    -0.080 A 
ATOM      4  C3  UNL d   1      -1.658   1.261   1.068  0.00  0.00     0.150 A 
ATOM      5  C4  UNL d   1      -1.047   2.196   0.238  0.00  0.00    -0.007 A 
ATOM      6  C5  UNL d   1       0.188   1.904  -0.341  0.00  0.00     0.039 A 
ENDROOT
BRANCH   4   7
ATOM      7  O   UNL d   1      -2.861   1.593   1.616  0.00  0.00    -0.526 OA
ATOM      8  H5  UNL d   1      -3.149   0.863   2.189  0.00  0.00     0.418 HD
ENDBRANCH   4   7
TORSDOF 1
ENDMDL
