MODEL 1
REMARK minimizedAffinity -3.95255542
REMARK minimizedRMSD -1
REMARK  1 active torsions:
REMARK  status: ('A' for Active; 'I' for Inactive)
REMARK    1  A    between atoms: C3_4  and  O_7 
ROOT
ATOM      1  C   UNL d   1      -1.104  -0.816   1.221  0.00  0.00    -0.033 A 
ATOM      2  C1  UNL d   1      -1.919  -0.082   2.084  0.00  0.00     0.039 A 
ATOM      3  C2  UNL d   1      -1.974   1.310   1.981  0.00  0.00    -0.080 A 
ATOM      4  C3  UNL d   1      -1.210   1.954   1.012  0.00  0.00     0.150 A 
ATOM      5  C4  UNL d   1      -0.398   1.229   0.146  0.00  0.00    -0.007 A 
ATOM      6  C5  UNL d   1      -0.344  -0.161   0.251  0.00  0.00     0.039 A 
ENDROOT
BRANCH   4   7
ATOM      7  O   UNL d   1      -1.227   3.310   0.877  0.00  0.00    -0.526 OA
ATOM      8  H5  UNL d   1      -1.809   3.681   1.561  0.00  0.00     0.418 HD
ENDBRANCH   4   7
TORSDOF 1
ENDMDL
