MODEL 1
REMARK minimizedAffinity -5.44263697
REMARK minimizedRMSD -1
REMARK  1 active torsions:
REMARK  status: ('A' for Active; 'I' for Inactive)
REMARK    1  A    between atoms: C3_4  and  O_7 
ROOT
ATOM      1  C   UNL d   1      -1.297   0.414   0.579  0.00  0.00    -0.033 A 
ATOM      2  C1  UNL d   1      -0.294   0.409  -0.393  0.00  0.00     0.039 A 
ATOM      3  C2  UNL d   1       0.251   1.613  -0.842  0.00  0.00    -0.080 A 
ATOM      4  C3  UNL d   1      -0.214   2.813  -0.313  0.00  0.00     0.150 A 
ATOM      5  C4  UNL d   1      -1.210   2.826   0.658  0.00  0.00    -0.007 A 
ATOM      6  C5  UNL d   1      -1.754   1.622   1.105  0.00  0.00     0.039 A 
ENDROOT
BRANCH   4   7
ATOM      7  O   UNL d   1       0.284   4.014  -0.724  0.00  0.00    -0.526 OA
ATOM      8  H5  UNL d   1       0.945   3.852  -1.418  0.00  0.00     0.418 HD
ENDBRANCH   4   7
TORSDOF 1
ENDMDL
