MODEL 1
REMARK minimizedAffinity -5.13111258
REMARK minimizedRMSD -1
REMARK  1 active torsions:
REMARK  status: ('A' for Active; 'I' for Inactive)
REMARK    1  A    between atoms: C3_4  and  O_7 
ROOT
ATOM      1  C   UNL d   1      -1.274   1.400   1.382  0.00  0.00    -0.033 A 
ATOM      2  C1  UNL d   1      -1.181   2.724   0.948  0.00  0.00     0.039 A 
ATOM      3  C2  UNL d   1      -0.297   3.064  -0.078  0.00  0.00    -0.080 A 
ATOM      4  C3  UNL d   1       0.486   2.072  -0.661  0.00  0.00     0.150 A 
ATOM      5  C4  UNL d   1       0.395   0.751  -0.237  0.00  0.00    -0.007 A 
ATOM      6  C5  UNL d   1      -0.487   0.413   0.788  0.00  0.00     0.039 A 
ENDROOT
BRANCH   4   7
ATOM      7  O   UNL d   1       1.366   2.357  -1.663  0.00  0.00    -0.526 OA
ATOM      8  H5  UNL d   1       1.342   3.313  -1.832  0.00  0.00     0.418 HD
ENDBRANCH   4   7
TORSDOF 1
ENDMDL
