MODEL 1
REMARK minimizedAffinity -5.69027996
REMARK minimizedRMSD -1
REMARK  1 active torsions:
REMARK  status: ('A' for Active; 'I' for Inactive)
REMARK    1  A    between atoms: C3_4  and  O_7 
ROOT
ATOM      1  C   UNL d   1       0.136  -0.593   0.786  0.00  0.00    -0.033 A 
ATOM      2  C1  UNL d   1      -0.724  -0.204  -0.243  0.00  0.00     0.039 A 
ATOM      3  C2  UNL d   1      -1.654   0.816  -0.030  0.00  0.00    -0.080 A 
ATOM      4  C3  UNL d   1      -1.712   1.439   1.214  0.00  0.00     0.150 A 
ATOM      5  C4  UNL d   1      -0.855   1.059   2.242  0.00  0.00    -0.007 A 
ATOM      6  C5  UNL d   1       0.071   0.039   2.028  0.00  0.00     0.039 A 
ENDROOT
BRANCH   4   7
ATOM      7  O   UNL d   1      -2.605   2.436   1.471  0.00  0.00    -0.526 OA
ATOM      8  H5  UNL d   1      -3.150   2.572   0.678  0.00  0.00     0.418 HD
ENDBRANCH   4   7
TORSDOF 1
ENDMDL
