MODEL 1
REMARK minimizedAffinity -4.94208765
REMARK minimizedRMSD -1
REMARK  1 active torsions:
REMARK  status: ('A' for Active; 'I' for Inactive)
REMARK    1  A    between atoms: C3_4  and  O_7 
ROOT
ATOM      1  C   UNL d   1       0.534   0.953  -0.166  0.00  0.00    -0.033 A 
ATOM      2  C1  UNL d   1       0.143   2.104  -0.853  0.00  0.00     0.039 A 
ATOM      3  C2  UNL d   1      -0.852   2.929  -0.327  0.00  0.00    -0.080 A 
ATOM      4  C3  UNL d   1      -1.448   2.594   0.885  0.00  0.00     0.150 A 
ATOM      5  C4  UNL d   1      -1.061   1.451   1.577  0.00  0.00    -0.007 A 
ATOM      6  C5  UNL d   1      -0.068   0.627   1.050  0.00  0.00     0.039 A 
ENDROOT
BRANCH   4   7
ATOM      7  O   UNL d   1      -2.427   3.366   1.436  0.00  0.00    -0.526 OA
ATOM      8  H5  UNL d   1      -2.611   4.106   0.833  0.00  0.00     0.418 HD
ENDBRANCH   4   7
TORSDOF 1
ENDMDL
