MODEL 1
REMARK minimizedAffinity -4.8843689
REMARK minimizedRMSD -1
REMARK  1 active torsions:
REMARK  status: ('A' for Active; 'I' for Inactive)
REMARK    1  A    between atoms: C3_4  and  O_7 
ROOT
ATOM      1  C   UNL d   1      -0.344  -0.676   0.320  0.00  0.00    -0.033 A 
ATOM      2  C1  UNL d   1      -0.009  -0.027   1.510  0.00  0.00     0.039 A 
ATOM      3  C2  UNL d   1      -0.651   1.160   1.865  0.00  0.00    -0.080 A 
ATOM      4  C3  UNL d   1      -1.626   1.688   1.022  0.00  0.00     0.150 A 
ATOM      5  C4  UNL d   1      -1.968   1.045  -0.163  0.00  0.00    -0.007 A 
ATOM      6  C5  UNL d   1      -1.325  -0.140  -0.516  0.00  0.00     0.039 A 
ENDROOT
BRANCH   4   7
ATOM      7  O   UNL d   1      -2.277   2.847   1.324  0.00  0.00    -0.526 OA
ATOM      8  H5  UNL d   1      -1.917   3.194   2.158  0.00  0.00     0.418 HD
ENDBRANCH   4   7
TORSDOF 1
ENDMDL
