MODEL 1
REMARK minimizedAffinity -4.69268322
REMARK minimizedRMSD -1
REMARK  1 active torsions:
REMARK  status: ('A' for Active; 'I' for Inactive)
REMARK    1  A    between atoms: C3_4  and  O_7 
ROOT
ATOM      1  C   UNL d   1      -0.999   2.717   1.502  0.00  0.00    -0.033 A 
ATOM      2  C1  UNL d   1      -0.360   3.014   0.296  0.00  0.00     0.039 A 
ATOM      3  C2  UNL d   1       0.285   2.005  -0.422  0.00  0.00    -0.080 A 
ATOM      4  C3  UNL d   1       0.283   0.705   0.075  0.00  0.00     0.150 A 
ATOM      5  C4  UNL d   1      -0.355   0.401   1.274  0.00  0.00    -0.007 A 
ATOM      6  C5  UNL d   1      -0.997   1.410   1.990  0.00  0.00     0.039 A 
ENDROOT
BRANCH   4   7
ATOM      7  O   UNL d   1       0.903  -0.312  -0.588  0.00  0.00    -0.526 OA
ATOM      8  H5  UNL d   1       1.325   0.051  -1.384  0.00  0.00     0.418 HD
ENDBRANCH   4   7
TORSDOF 1
ENDMDL
