MODEL 1
REMARK minimizedAffinity -3.86303401
REMARK minimizedRMSD -1
REMARK  1 active torsions:
REMARK  status: ('A' for Active; 'I' for Inactive)
REMARK    1  A    between atoms: C3_4  and  O_7 
ROOT
ATOM      1  C   UNL d   1       0.719   2.101  -0.899  0.00  0.00    -0.033 A 
ATOM      2  C1  UNL d   1       0.092   3.211  -0.328  0.00  0.00     0.039 A 
ATOM      3  C2  UNL d   1      -0.592   3.083   0.882  0.00  0.00    -0.080 A 
ATOM      4  C3  UNL d   1      -0.642   1.842   1.511  0.00  0.00     0.150 A 
ATOM      5  C4  UNL d   1      -0.017   0.733   0.950  0.00  0.00    -0.007 A 
ATOM      6  C5  UNL d   1       0.665   0.863  -0.259  0.00  0.00     0.039 A 
ENDROOT
BRANCH   4   7
ATOM      7  O   UNL d   1      -1.302   1.668   2.691  0.00  0.00    -0.526 OA
ATOM      8  H5  UNL d   1      -1.709   2.513   2.944  0.00  0.00     0.418 HD
ENDBRANCH   4   7
TORSDOF 1
ENDMDL
