MODEL 1
REMARK minimizedAffinity -5.64417791
REMARK minimizedRMSD -1
REMARK  1 active torsions:
REMARK  status: ('A' for Active; 'I' for Inactive)
REMARK    1  A    between atoms: C3_4  and  O_7 
ROOT
ATOM      1  C   UNL d   1       0.502   1.740  -1.137  0.00  0.00    -0.033 A 
ATOM      2  C1  UNL d   1      -0.049   0.638  -0.481  0.00  0.00     0.039 A 
ATOM      3  C2  UNL d   1      -1.025   0.824   0.500  0.00  0.00    -0.080 A 
ATOM      4  C3  UNL d   1      -1.440   2.114   0.816  0.00  0.00     0.150 A 
ATOM      5  C4  UNL d   1      -0.898   3.217   0.164  0.00  0.00    -0.007 A 
ATOM      6  C5  UNL d   1       0.077   3.030  -0.816  0.00  0.00     0.039 A 
ENDROOT
BRANCH   4   7
ATOM      7  O   UNL d   1      -2.386   2.346   1.770  0.00  0.00    -0.526 OA
ATOM      8  H5  UNL d   1      -2.649   1.493   2.155  0.00  0.00     0.418 HD
ENDBRANCH   4   7
TORSDOF 1
ENDMDL
