MODEL 1
REMARK minimizedAffinity 0.145811722
REMARK minimizedRMSD -1
REMARK  0 active torsions:
REMARK  status: ('A' for Active; 'I' for Inactive)
ROOT
ATOM      1  C   UNL d   1       0.764  -0.765   1.813  0.00  0.00     0.172 C 
ATOM      2  N   UNL d   1       1.877  -1.216   2.614  0.00  0.00    -0.070 N 
ATOM      3  C1  UNL d   1       1.835  -1.490   3.955  0.00  0.00    -0.004 A 
ATOM      4  C2  UNL d   1       3.095  -1.892   4.343  0.00  0.00    -0.047 A 
ATOM      5  C3  UNL d   1       3.923  -1.856   3.196  0.00  0.00    -0.047 A 
ATOM      6  C4  UNL d   1       3.143  -1.435   2.140  0.00  0.00    -0.004 A 
ENDROOT
TORSDOF 0
ENDMDL
