MODEL 1
REMARK minimizedAffinity -0.984857261
REMARK minimizedRMSD -1
REMARK  0 active torsions:
REMARK  status: ('A' for Active; 'I' for Inactive)
ROOT
ATOM      1  C   UNL d   1      -3.263   4.869  -6.000  0.00  0.00     0.172 C 
ATOM      2  N   UNL d   1      -4.154   4.509  -4.922  0.00  0.00    -0.070 N 
ATOM      3  C1  UNL d   1      -5.522   4.558  -4.967  0.00  0.00    -0.004 A 
ATOM      4  C2  UNL d   1      -6.000   4.137  -3.745  0.00  0.00    -0.047 A 
ATOM      5  C3  UNL d   1      -4.881   3.825  -2.937  0.00  0.00    -0.047 A 
ATOM      6  C4  UNL d   1      -3.751   4.065  -3.690  0.00  0.00    -0.004 A 
ENDROOT
TORSDOF 0
ENDMDL
