MODEL 1
REMARK minimizedAffinity 3.26841569
REMARK minimizedRMSD -1
REMARK  0 active torsions:
REMARK  status: ('A' for Active; 'I' for Inactive)
ROOT
ATOM      1  C   UNL d   1       5.469  -5.742  -0.346  0.00  0.00     0.172 C 
ATOM      2  N   UNL d   1       4.581  -5.686  -1.483  0.00  0.00    -0.070 N 
ATOM      3  C1  UNL d   1       3.235  -5.933  -1.457  0.00  0.00    -0.004 A 
ATOM      4  C2  UNL d   1       2.752  -5.777  -2.739  0.00  0.00    -0.047 A 
ATOM      5  C3  UNL d   1       3.847  -5.426  -3.563  0.00  0.00    -0.047 A 
ATOM      6  C4  UNL d   1       4.967  -5.377  -2.760  0.00  0.00    -0.004 A 
ENDROOT
TORSDOF 0
ENDMDL
