MODEL 1
REMARK minimizedAffinity 0.844554722
REMARK minimizedRMSD -1
REMARK  0 active torsions:
REMARK  status: ('A' for Active; 'I' for Inactive)
ROOT
ATOM      1  C   UNL d   1      -4.023   3.567  -3.096  0.00  0.00     0.172 C 
ATOM      2  N   UNL d   1      -3.435   2.383  -2.515  0.00  0.00    -0.070 N 
ATOM      3  C1  UNL d   1      -4.112   1.246  -2.161  0.00  0.00    -0.004 A 
ATOM      4  C2  UNL d   1      -3.197   0.354  -1.645  0.00  0.00    -0.047 A 
ATOM      5  C3  UNL d   1      -1.927   0.976  -1.690  0.00  0.00    -0.047 A 
ATOM      6  C4  UNL d   1      -2.103   2.231  -2.232  0.00  0.00    -0.004 A 
ENDROOT
TORSDOF 0
ENDMDL
