MODEL 1
REMARK minimizedAffinity 6.61387205
REMARK minimizedRMSD -1
REMARK  0 active torsions:
REMARK  status: ('A' for Active; 'I' for Inactive)
ROOT
ATOM      1  C   UNL d   1      -0.847   2.555  -1.430  0.00  0.00     0.172 C 
ATOM      2  N   UNL d   1      -1.435   1.327  -1.911  0.00  0.00    -0.070 N 
ATOM      3  C1  UNL d   1      -0.764   0.314  -2.544  0.00  0.00    -0.004 A 
ATOM      4  C2  UNL d   1      -1.676  -0.675  -2.841  0.00  0.00    -0.047 A 
ATOM      5  C3  UNL d   1      -2.939  -0.242  -2.372  0.00  0.00    -0.047 A 
ATOM      6  C4  UNL d   1      -2.761   1.000  -1.801  0.00  0.00    -0.004 A 
ENDROOT
TORSDOF 0
ENDMDL
