MODEL 1
REMARK minimizedAffinity 0.257437468
REMARK minimizedRMSD -1
REMARK  0 active torsions:
REMARK  status: ('A' for Active; 'I' for Inactive)
ROOT
ATOM      1  C   UNL d   1      -6.000  -1.851   2.116  0.00  0.00     0.172 C 
ATOM      2  N   UNL d   1      -5.997  -1.843   3.560  0.00  0.00    -0.070 N 
ATOM      3  C1  UNL d   1      -5.991  -0.726   4.353  0.00  0.00    -0.004 A 
ATOM      4  C2  UNL d   1      -5.991  -1.142   5.667  0.00  0.00    -0.047 A 
ATOM      5  C3  UNL d   1      -5.996  -2.557   5.664  0.00  0.00    -0.047 A 
ATOM      6  C4  UNL d   1      -6.000  -2.965   4.347  0.00  0.00    -0.004 A 
ENDROOT
TORSDOF 0
ENDMDL
