MODEL 1
REMARK minimizedAffinity 0.589066029
REMARK minimizedRMSD -1
REMARK  0 active torsions:
REMARK  status: ('A' for Active; 'I' for Inactive)
ROOT
ATOM      1  C   UNL d   1       0.320   1.208   2.169  0.00  0.00     0.172 C 
ATOM      2  N   UNL d   1       0.596   0.633   0.873  0.00  0.00    -0.070 N 
ATOM      3  C1  UNL d   1       0.073   1.061  -0.318  0.00  0.00    -0.004 A 
ATOM      4  C2  UNL d   1       0.581   0.256  -1.315  0.00  0.00    -0.047 A 
ATOM      5  C3  UNL d   1       1.438  -0.689  -0.702  0.00  0.00    -0.047 A 
ATOM      6  C4  UNL d   1       1.429  -0.432   0.653  0.00  0.00    -0.004 A 
ENDROOT
TORSDOF 0
ENDMDL
