MODEL 1
REMARK minimizedAffinity -2.2316587
REMARK minimizedRMSD -1
REMARK  0 active torsions:
REMARK  status: ('A' for Active; 'I' for Inactive)
ROOT
ATOM      1  C   UNL d   1      -0.001   4.339  -0.733  0.00  0.00     0.172 C 
ATOM      2  N   UNL d   1      -0.158   2.964  -0.320  0.00  0.00    -0.070 N 
ATOM      3  C1  UNL d   1      -0.378   1.900  -1.154  0.00  0.00    -0.004 A 
ATOM      4  C2  UNL d   1      -0.470   0.766  -0.376  0.00  0.00    -0.047 A 
ATOM      5  C3  UNL d   1      -0.300   1.163   0.972  0.00  0.00    -0.047 A 
ATOM      6  C4  UNL d   1      -0.109   2.528   0.978  0.00  0.00    -0.004 A 
ENDROOT
TORSDOF 0
ENDMDL
