MODEL 1
REMARK minimizedAffinity 23.440094
REMARK minimizedRMSD -1
REMARK  0 active torsions:
REMARK  status: ('A' for Active; 'I' for Inactive)
ROOT
ATOM      1  C   UNL d   1      -0.368  -2.545  -0.426  0.00  0.00     0.124 A 
ATOM      2  C1  UNL d   1      -0.625  -3.131   0.806  0.00  0.00     0.062 A 
ATOM      3  C2  UNL d   1       0.426  -3.579   1.601  0.00  0.00     0.162 A 
ATOM      4  C3  UNL d   1       1.744  -3.443   1.167  0.00  0.00    -0.034 A 
ATOM      5  C4  UNL d   1       1.995  -2.854  -0.073  0.00  0.00     0.162 A 
ATOM      6  C5  UNL d   1       0.942  -2.407  -0.864  0.00  0.00     0.062 A 
ATOM      7  F   UNL d   1       1.192  -1.841  -2.054  0.00  0.00    -0.097 F 
ATOM      8  F1  UNL d   1       3.251  -2.707  -0.521  0.00  0.00    -0.096 F 
ATOM      9  I   UNL d   1       3.318  -4.113   2.352  0.00  0.00    -0.060 I 
ATOM     10  F2  UNL d   1       0.148  -4.142   2.787  0.00  0.00    -0.096 F 
ATOM     11  F3  UNL d   1      -1.889  -3.266   1.232  0.00  0.00    -0.097 F 
ATOM     12  F4  UNL d   1      -1.381  -2.115  -1.189  0.00  0.00    -0.092 F 
ENDROOT
TORSDOF 0
ENDMDL
