MODEL 1
REMARK minimizedAffinity 21.2945995
REMARK minimizedRMSD -1
REMARK  0 active torsions:
REMARK  status: ('A' for Active; 'I' for Inactive)
ROOT
ATOM      1  C   UNL d   1      -0.160   3.148  -5.181  0.00  0.00     0.124 A 
ATOM      2  C1  UNL d   1      -1.111   4.148  -5.027  0.00  0.00     0.062 A 
ATOM      3  C2  UNL d   1      -2.197   3.956  -4.178  0.00  0.00     0.162 A 
ATOM      4  C3  UNL d   1      -2.339   2.759  -3.476  0.00  0.00    -0.034 A 
ATOM      5  C4  UNL d   1      -1.379   1.758  -3.636  0.00  0.00     0.162 A 
ATOM      6  C5  UNL d   1      -0.295   1.955  -4.486  0.00  0.00     0.062 A 
ATOM      7  F   UNL d   1       0.623   0.988  -4.633  0.00  0.00    -0.097 F 
ATOM      8  F1  UNL d   1      -1.484   0.595  -2.976  0.00  0.00    -0.096 F 
ATOM      9  I   UNL d   1      -3.962   2.468  -2.206  0.00  0.00    -0.060 I 
ATOM     10  F2  UNL d   1      -3.101   4.939  -4.049  0.00  0.00    -0.096 F 
ATOM     11  F3  UNL d   1      -0.984   5.302  -5.698  0.00  0.00    -0.097 F 
ATOM     12  F4  UNL d   1       0.883   3.336  -5.999  0.00  0.00    -0.092 F 
ENDROOT
TORSDOF 0
ENDMDL
