MODEL 1
REMARK minimizedAffinity 8.20676613
REMARK minimizedRMSD -1
REMARK  0 active torsions:
REMARK  status: ('A' for Active; 'I' for Inactive)
ROOT
ATOM      1  C   UNL d   1       0.190   2.979  -4.927  0.00  0.00     0.124 A 
ATOM      2  C1  UNL d   1      -0.678   4.050  -5.084  0.00  0.00     0.062 A 
ATOM      3  C2  UNL d   1      -1.897   4.068  -4.412  0.00  0.00     0.162 A 
ATOM      4  C3  UNL d   1      -2.254   3.010  -3.575  0.00  0.00    -0.034 A 
ATOM      5  C4  UNL d   1      -1.376   1.936  -3.424  0.00  0.00     0.162 A 
ATOM      6  C5  UNL d   1      -0.159   1.923  -4.098  0.00  0.00     0.062 A 
ATOM      7  F   UNL d   1       0.679   0.887  -3.945  0.00  0.00    -0.097 F 
ATOM      8  F1  UNL d   1      -1.688   0.903  -2.627  0.00  0.00    -0.096 F 
ATOM      9  I   UNL d   1      -4.075   3.032  -2.568  0.00  0.00    -0.060 I 
ATOM     10  F2  UNL d   1      -2.716   5.116  -4.582  0.00  0.00    -0.096 F 
ATOM     11  F3  UNL d   1      -0.343   5.072  -5.886  0.00  0.00    -0.097 F 
ATOM     12  F4  UNL d   1       1.362   2.965  -5.576  0.00  0.00    -0.092 F 
ENDROOT
TORSDOF 0
ENDMDL
