MODEL 1
REMARK minimizedAffinity 16.2484474
REMARK minimizedRMSD -1
REMARK  0 active torsions:
REMARK  status: ('A' for Active; 'I' for Inactive)
ROOT
ATOM      1  C   UNL d   1       0.894   3.211  -5.315  0.00  0.00     0.124 A 
ATOM      2  C1  UNL d   1      -0.115   4.164  -5.290  0.00  0.00     0.062 A 
ATOM      3  C2  UNL d   1      -1.288   3.923  -4.581  0.00  0.00     0.162 A 
ATOM      4  C3  UNL d   1      -1.459   2.723  -3.890  0.00  0.00    -0.034 A 
ATOM      5  C4  UNL d   1      -0.440   1.769  -3.921  0.00  0.00     0.162 A 
ATOM      6  C5  UNL d   1       0.731   2.015  -4.631  0.00  0.00     0.062 A 
ATOM      7  F   UNL d   1       1.704   1.093  -4.654  0.00  0.00    -0.097 F 
ATOM      8  F1  UNL d   1      -0.571   0.605  -3.268  0.00  0.00    -0.096 F 
ATOM      9  I   UNL d   1      -3.211   2.359  -2.829  0.00  0.00    -0.060 I 
ATOM     10  F2  UNL d   1      -2.246   4.862  -4.575  0.00  0.00    -0.096 F 
ATOM     11  F3  UNL d   1       0.040   5.320  -5.952  0.00  0.00    -0.097 F 
ATOM     12  F4  UNL d   1       2.022   3.445  -5.999  0.00  0.00    -0.092 F 
ENDROOT
TORSDOF 0
ENDMDL
