MODEL 1
REMARK minimizedAffinity 11.5071554
REMARK minimizedRMSD -1
REMARK  0 active torsions:
REMARK  status: ('A' for Active; 'I' for Inactive)
ROOT
ATOM      1  C   UNL d   1      -0.624  -1.558   1.965  0.00  0.00     0.124 A 
ATOM      2  C1  UNL d   1       0.530  -0.833   1.704  0.00  0.00     0.062 A 
ATOM      3  C2  UNL d   1       1.594  -1.429   1.032  0.00  0.00     0.162 A 
ATOM      4  C3  UNL d   1       1.507  -2.758   0.616  0.00  0.00    -0.034 A 
ATOM      5  C4  UNL d   1       0.343  -3.481   0.883  0.00  0.00     0.162 A 
ATOM      6  C5  UNL d   1      -0.717  -2.880   1.555  0.00  0.00     0.062 A 
ATOM      7  F   UNL d   1      -1.832  -3.582   1.806  0.00  0.00    -0.097 F 
ATOM      8  F1  UNL d   1       0.227  -4.760   0.497  0.00  0.00    -0.096 F 
ATOM      9  I   UNL d   1       3.095  -3.652  -0.389  0.00  0.00    -0.060 I 
ATOM     10  F2  UNL d   1       2.697  -0.705   0.793  0.00  0.00    -0.096 F 
ATOM     11  F3  UNL d   1       0.622   0.444   2.100  0.00  0.00    -0.097 F 
ATOM     12  F4  UNL d   1      -1.646  -0.983   2.613  0.00  0.00    -0.092 F 
ENDROOT
TORSDOF 0
ENDMDL
