MODEL 1
REMARK minimizedAffinity 17.9867344
REMARK minimizedRMSD -1
REMARK  0 active torsions:
REMARK  status: ('A' for Active; 'I' for Inactive)
ROOT
ATOM      1  C   UNL d   1       3.476  -4.638   0.717  0.00  0.00     0.124 A 
ATOM      2  C1  UNL d   1       2.316  -3.927   0.442  0.00  0.00     0.062 A 
ATOM      3  C2  UNL d   1       2.390  -2.599   0.034  0.00  0.00     0.162 A 
ATOM      4  C3  UNL d   1       3.629  -1.972  -0.104  0.00  0.00    -0.034 A 
ATOM      5  C4  UNL d   1       4.791  -2.693   0.175  0.00  0.00     0.162 A 
ATOM      6  C5  UNL d   1       4.712  -4.021   0.583  0.00  0.00     0.062 A 
ATOM      7  F   UNL d   1       5.834  -4.706   0.848  0.00  0.00    -0.097 F 
ATOM      8  F1  UNL d   1       5.998  -2.122   0.053  0.00  0.00    -0.096 F 
ATOM      9  I   UNL d   1       3.743   0.014  -0.715  0.00  0.00    -0.060 I 
ATOM     10  F2  UNL d   1       1.253  -1.936  -0.225  0.00  0.00    -0.096 F 
ATOM     11  F3  UNL d   1       1.121  -4.521   0.572  0.00  0.00    -0.097 F 
ATOM     12  F4  UNL d   1       3.403  -5.916   1.111  0.00  0.00    -0.092 F 
ENDROOT
TORSDOF 0
ENDMDL
