MODEL 1
REMARK minimizedAffinity 8.78918171
REMARK minimizedRMSD -1
REMARK  1 active torsions:
REMARK  status: ('A' for Active; 'I' for Inactive)
REMARK    1  A    between atoms: C1_2  and  C2_3 
ROOT
ATOM      1  C2  UNL d   1       0.335  -0.713   3.591  0.00  0.00    -0.077 A 
ATOM      2  C3  UNL d   1       0.959  -0.287   4.773  0.00  0.00     0.002 A 
ATOM      3  C4  UNL d   1       0.242  -0.234   5.970  0.00  0.00     0.002 A 
ATOM      4  C5  UNL d   1      -1.099  -0.610   5.998  0.00  0.00    -0.004 A 
ATOM      5  C6  UNL d   1      -1.728  -1.033   4.829  0.00  0.00     0.002 A 
ATOM      6  C7  UNL d   1      -1.014  -1.085   3.631  0.00  0.00     0.002 A 
ENDROOT
BRANCH   1   7
ATOM      7  C1  UNL d   1       1.119  -0.817   2.309  0.00  0.00     0.055 C 
ATOM      8  C   UNL d   1       1.262  -2.265   1.864  0.00  0.00     0.019 C 
ENDBRANCH   1   7
TORSDOF 1
ENDMDL
