MODEL 1
REMARK minimizedAffinity 4.09387589
REMARK minimizedRMSD -1
REMARK  1 active torsions:
REMARK  status: ('A' for Active; 'I' for Inactive)
REMARK    1  A    between atoms: C1_2  and  C2_3 
ROOT
ATOM      1  C2  UNL d   1      -2.620   3.209  -2.031  0.00  0.00    -0.077 A 
ATOM      2  C3  UNL d   1      -2.195   4.347  -2.731  0.00  0.00     0.002 A 
ATOM      3  C4  UNL d   1      -2.908   5.543  -2.635  0.00  0.00     0.002 A 
ATOM      4  C5  UNL d   1      -4.047   5.615  -1.836  0.00  0.00    -0.004 A 
ATOM      5  C6  UNL d   1      -4.480   4.488  -1.138  0.00  0.00     0.002 A 
ATOM      6  C7  UNL d   1      -3.769   3.291  -1.234  0.00  0.00     0.002 A 
ENDROOT
BRANCH   1   7
ATOM      7  C1  UNL d   1      -1.825   1.932  -2.095  0.00  0.00     0.055 C 
ATOM      8  C   UNL d   1      -0.670   1.949  -1.105  0.00  0.00     0.019 C 
ENDBRANCH   1   7
TORSDOF 1
ENDMDL
