MODEL 1
REMARK minimizedAffinity 8.11488152
REMARK minimizedRMSD -1
REMARK  1 active torsions:
REMARK  status: ('A' for Active; 'I' for Inactive)
REMARK    1  A    between atoms: C1_2  and  C2_3 
ROOT
ATOM      1  C2  UNL d   1       1.582  -0.021   3.171  0.00  0.00    -0.077 A 
ATOM      2  C3  UNL d   1       1.866   0.120   4.537  0.00  0.00     0.002 A 
ATOM      3  C4  UNL d   1       0.832   0.145   5.474  0.00  0.00     0.002 A 
ATOM      4  C5  UNL d   1      -0.492   0.025   5.057  0.00  0.00    -0.004 A 
ATOM      5  C6  UNL d   1      -0.785  -0.114   3.701  0.00  0.00     0.002 A 
ATOM      6  C7  UNL d   1       0.248  -0.138   2.762  0.00  0.00     0.002 A 
ENDROOT
BRANCH   1   7
ATOM      7  C1  UNL d   1       2.699  -0.098   2.163  0.00  0.00     0.055 C 
ATOM      8  C   UNL d   1       3.910   0.704   2.616  0.00  0.00     0.019 C 
ENDBRANCH   1   7
TORSDOF 1
ENDMDL
