MODEL 1
REMARK minimizedAffinity 13.4420547
REMARK minimizedRMSD -1
REMARK  1 active torsions:
REMARK  status: ('A' for Active; 'I' for Inactive)
REMARK    1  A    between atoms: C1_2  and  C2_3 
ROOT
ATOM      1  C2  UNL d   1       2.612   0.131   2.643  0.00  0.00    -0.077 A 
ATOM      2  C3  UNL d   1       1.699  -0.566   1.839  0.00  0.00     0.002 A 
ATOM      3  C4  UNL d   1       0.479  -0.995   2.364  0.00  0.00     0.002 A 
ATOM      4  C5  UNL d   1       0.158  -0.728   3.693  0.00  0.00    -0.004 A 
ATOM      5  C6  UNL d   1       1.060  -0.038   4.502  0.00  0.00     0.002 A 
ATOM      6  C7  UNL d   1       2.281   0.391   3.979  0.00  0.00     0.002 A 
ENDROOT
BRANCH   1   7
ATOM      7  C1  UNL d   1       3.907   0.638   2.065  0.00  0.00     0.055 C 
ATOM      8  C   UNL d   1       5.075  -0.257   2.455  0.00  0.00     0.019 C 
ENDBRANCH   1   7
TORSDOF 1
ENDMDL
