MODEL 1
REMARK minimizedAffinity 2.29109621
REMARK minimizedRMSD -1
REMARK  1 active torsions:
REMARK  status: ('A' for Active; 'I' for Inactive)
REMARK    1  A    between atoms: C1_2  and  C2_3 
ROOT
ATOM      1  C2  UNL d   1      -1.246  -2.998   4.604  0.00  0.00    -0.077 A 
ATOM      2  C3  UNL d   1      -0.312  -3.061   3.560  0.00  0.00     0.002 A 
ATOM      3  C4  UNL d   1       0.648  -2.059   3.410  0.00  0.00     0.002 A 
ATOM      4  C5  UNL d   1       0.686  -0.989   4.302  0.00  0.00    -0.004 A 
ATOM      5  C6  UNL d   1      -0.239  -0.917   5.343  0.00  0.00     0.002 A 
ATOM      6  C7  UNL d   1      -1.200  -1.917   5.494  0.00  0.00     0.002 A 
ENDROOT
BRANCH   1   7
ATOM      7  C1  UNL d   1      -2.250  -4.104   4.798  0.00  0.00     0.055 C 
ATOM      8  C   UNL d   1      -3.157  -3.826   5.988  0.00  0.00     0.019 C 
ENDBRANCH   1   7
TORSDOF 1
ENDMDL
