MODEL 1
REMARK minimizedAffinity 4.97319508
REMARK minimizedRMSD -1
REMARK  1 active torsions:
REMARK  status: ('A' for Active; 'I' for Inactive)
REMARK    1  A    between atoms: C1_2  and  C2_3 
ROOT
ATOM      1  C2  UNL d   1      -2.035   3.633  -3.697  0.00  0.00    -0.077 A 
ATOM      2  C3  UNL d   1      -2.035   3.642  -5.099  0.00  0.00     0.002 A 
ATOM      3  C4  UNL d   1      -2.312   4.819  -5.797  0.00  0.00     0.002 A 
ATOM      4  C5  UNL d   1      -2.587   5.996  -5.103  0.00  0.00    -0.004 A 
ATOM      5  C6  UNL d   1      -2.591   5.996  -3.709  0.00  0.00     0.002 A 
ATOM      6  C7  UNL d   1      -2.315   4.821  -3.009  0.00  0.00     0.002 A 
ENDROOT
BRANCH   1   7
ATOM      7  C1  UNL d   1      -1.688   2.377  -2.941  0.00  0.00     0.055 C 
ATOM      8  C   UNL d   1      -0.293   2.460  -2.340  0.00  0.00     0.019 C 
ENDBRANCH   1   7
TORSDOF 1
ENDMDL
