MODEL 1
REMARK minimizedAffinity 11.6646519
REMARK minimizedRMSD -1
REMARK  1 active torsions:
REMARK  status: ('A' for Active; 'I' for Inactive)
REMARK    1  A    between atoms: C1_2  and  C2_3 
ROOT
ATOM      1  C2  UNL d   1      -1.378  -2.381   2.669  0.00  0.00    -0.077 A 
ATOM      2  C3  UNL d   1      -0.450  -2.398   1.618  0.00  0.00     0.002 A 
ATOM      3  C4  UNL d   1       0.636  -1.520   1.620  0.00  0.00     0.002 A 
ATOM      4  C5  UNL d   1       0.807  -0.623   2.672  0.00  0.00    -0.004 A 
ATOM      5  C6  UNL d   1      -0.112  -0.597   3.721  0.00  0.00     0.002 A 
ATOM      6  C7  UNL d   1      -1.198  -1.472   3.720  0.00  0.00     0.002 A 
ENDROOT
BRANCH   1   7
ATOM      7  C1  UNL d   1      -2.522  -3.360   2.693  0.00  0.00     0.055 C 
ATOM      8  C   UNL d   1      -3.676  -2.884   1.823  0.00  0.00     0.019 C 
ENDBRANCH   1   7
TORSDOF 1
ENDMDL
