MODEL 1
REMARK minimizedAffinity 8.27280712
REMARK minimizedRMSD -1
REMARK  1 active torsions:
REMARK  status: ('A' for Active; 'I' for Inactive)
REMARK    1  A    between atoms: C1_2  and  C2_3 
ROOT
ATOM      1  C2  UNL d   1      -0.629  -1.231   3.919  0.00  0.00    -0.077 A 
ATOM      2  C3  UNL d   1      -1.594  -2.237   3.768  0.00  0.00     0.002 A 
ATOM      3  C4  UNL d   1      -1.581  -3.066   2.645  0.00  0.00     0.002 A 
ATOM      4  C5  UNL d   1      -0.603  -2.900   1.666  0.00  0.00    -0.004 A 
ATOM      5  C6  UNL d   1       0.360  -1.901   1.806  0.00  0.00     0.002 A 
ATOM      6  C7  UNL d   1       0.348  -1.071   2.927  0.00  0.00     0.002 A 
ENDROOT
BRANCH   1   7
ATOM      7  C1  UNL d   1      -0.611  -0.368   5.153  0.00  0.00     0.055 C 
ATOM      8  C   UNL d   1      -1.858  -0.586   5.999  0.00  0.00     0.019 C 
ENDBRANCH   1   7
TORSDOF 1
ENDMDL
