MODEL 1
REMARK minimizedAffinity 10.7795324
REMARK minimizedRMSD -1
REMARK  1 active torsions:
REMARK  status: ('A' for Active; 'I' for Inactive)
REMARK    1  A    between atoms: C1_2  and  C2_3 
ROOT
ATOM      1  C2  UNL d   1       1.359  -0.292   3.667  0.00  0.00    -0.077 A 
ATOM      2  C3  UNL d   1       2.543   0.459   3.648  0.00  0.00     0.002 A 
ATOM      3  C4  UNL d   1       3.417   0.373   2.563  0.00  0.00     0.002 A 
ATOM      4  C5  UNL d   1       3.116  -0.460   1.488  0.00  0.00    -0.004 A 
ATOM      5  C6  UNL d   1       1.942  -1.213   1.498  0.00  0.00     0.002 A 
ATOM      6  C7  UNL d   1       1.068  -1.129   2.582  0.00  0.00     0.002 A 
ENDROOT
BRANCH   1   7
ATOM      7  C1  UNL d   1       0.391  -0.163   4.813  0.00  0.00     0.055 C 
ATOM      8  C   UNL d   1      -1.050  -0.148   4.322  0.00  0.00     0.019 C 
ENDBRANCH   1   7
TORSDOF 1
ENDMDL
