MODEL 1
REMARK minimizedAffinity 3.22047806
REMARK minimizedRMSD -1
REMARK  1 active torsions:
REMARK  status: ('A' for Active; 'I' for Inactive)
REMARK    1  A    between atoms: C1_2  and  C2_3 
ROOT
ATOM      1  C2  UNL d   1       0.281   3.460  -0.144  0.00  0.00    -0.077 A 
ATOM      2  C3  UNL d   1      -0.054   4.536   0.689  0.00  0.00     0.002 A 
ATOM      3  C4  UNL d   1       0.506   5.797   0.475  0.00  0.00     0.002 A 
ATOM      4  C5  UNL d   1       1.400   5.994  -0.575  0.00  0.00    -0.004 A 
ATOM      5  C6  UNL d   1       1.742   4.929  -1.408  0.00  0.00     0.002 A 
ATOM      6  C7  UNL d   1       1.184   3.668  -1.194  0.00  0.00     0.002 A 
ENDROOT
BRANCH   1   7
ATOM      7  C1  UNL d   1      -0.360   2.111   0.056  0.00  0.00     0.055 C 
ATOM      8  C   UNL d   1      -1.105   1.662  -1.193  0.00  0.00     0.019 C 
ENDBRANCH   1   7
TORSDOF 1
ENDMDL
