MODEL 1
REMARK minimizedAffinity 10.0241756
REMARK minimizedRMSD -1
REMARK  1 active torsions:
REMARK  status: ('A' for Active; 'I' for Inactive)
REMARK    1  A    between atoms: C1_2  and  C2_3 
ROOT
ATOM      1  C2  UNL d   1       0.623   3.557  -0.498  0.00  0.00    -0.077 A 
ATOM      2  C3  UNL d   1       0.092   3.651  -1.792  0.00  0.00     0.002 A 
ATOM      3  C4  UNL d   1      -0.769   2.663  -2.276  0.00  0.00     0.002 A 
ATOM      4  C5  UNL d   1      -1.108   1.578  -1.471  0.00  0.00    -0.004 A 
ATOM      5  C6  UNL d   1      -0.583   1.474  -0.184  0.00  0.00     0.002 A 
ATOM      6  C7  UNL d   1       0.278   2.459   0.301  0.00  0.00     0.002 A 
ENDROOT
BRANCH   1   7
ATOM      7  C1  UNL d   1       1.512   4.646   0.043  0.00  0.00     0.055 C 
ATOM      8  C   UNL d   1       0.813   5.997   0.014  0.00  0.00     0.019 C 
ENDBRANCH   1   7
TORSDOF 1
ENDMDL
