MODEL 1
REMARK minimizedAffinity 4.03550577
REMARK minimizedRMSD -1
REMARK  1 active torsions:
REMARK  status: ('A' for Active; 'I' for Inactive)
REMARK    1  A    between atoms: C1_2  and  C2_3 
ROOT
ATOM      1  C2  UNL d   1       0.355   3.560  -1.123  0.00  0.00    -0.077 A 
ATOM      2  C3  UNL d   1       0.098   3.717   0.246  0.00  0.00     0.002 A 
ATOM      3  C4  UNL d   1       0.366   4.932   0.879  0.00  0.00     0.002 A 
ATOM      4  C5  UNL d   1       0.887   6.000   0.151  0.00  0.00    -0.004 A 
ATOM      5  C6  UNL d   1       1.148   5.852  -1.211  0.00  0.00     0.002 A 
ATOM      6  C7  UNL d   1       0.882   4.638  -1.845  0.00  0.00     0.002 A 
ENDROOT
BRANCH   1   7
ATOM      7  C1  UNL d   1       0.022   2.266  -1.819  0.00  0.00     0.055 C 
ATOM      8  C   UNL d   1      -1.426   2.246  -2.287  0.00  0.00     0.019 C 
ENDBRANCH   1   7
TORSDOF 1
ENDMDL
