MODEL 1
REMARK minimizedAffinity 2.97628188
REMARK minimizedRMSD -1
REMARK  1 active torsions:
REMARK  status: ('A' for Active; 'I' for Inactive)
REMARK    1  A    between atoms: C1_2  and  C2_3 
ROOT
ATOM      1  C2  UNL d   1      -0.793  -1.304   3.752  0.00  0.00    -0.077 A 
ATOM      2  C3  UNL d   1      -1.780  -2.252   3.448  0.00  0.00     0.002 A 
ATOM      3  C4  UNL d   1      -1.697  -3.007   2.276  0.00  0.00     0.002 A 
ATOM      4  C5  UNL d   1      -0.627  -2.825   1.403  0.00  0.00    -0.004 A 
ATOM      5  C6  UNL d   1       0.359  -1.884   1.696  0.00  0.00     0.002 A 
ATOM      6  C7  UNL d   1       0.277  -1.127   2.865  0.00  0.00     0.002 A 
ENDROOT
BRANCH   1   7
ATOM      7  C1  UNL d   1      -0.855  -0.523   5.039  0.00  0.00     0.055 C 
ATOM      8  C   UNL d   1      -1.874  -1.119   5.999  0.00  0.00     0.019 C 
ENDBRANCH   1   7
TORSDOF 1
ENDMDL
