MODEL 1
REMARK minimizedAffinity 6.42762375
REMARK minimizedRMSD -1
REMARK  0 active torsions:
REMARK  status: ('A' for Active; 'I' for Inactive)
ROOT
ATOM      1  C   UNL d   1      -0.846   5.088  -2.132  0.00  0.00     0.023 A 
ATOM      2  C1  UNL d   1      -1.651   5.252  -1.005  0.00  0.00     0.003 A 
ATOM      3  C2  UNL d   1      -1.447   4.454   0.123  0.00  0.00     0.048 A 
ATOM      4  C3  UNL d   1      -0.435   3.494   0.117  0.00  0.00     0.023 A 
ATOM      5  C4  UNL d   1       0.374   3.327  -1.009  0.00  0.00     0.048 A 
ATOM      6  C5  UNL d   1       0.165   4.127  -2.134  0.00  0.00     0.003 A 
ATOM      7  I   UNL d   1      -0.130   2.305   1.794  0.00  0.00    -0.146 I 
ENDROOT
TORSDOF 0
ENDMDL
