MODEL 1
REMARK minimizedAffinity 5.85468054
REMARK minimizedRMSD -1
REMARK  0 active torsions:
REMARK  status: ('A' for Active; 'I' for Inactive)
ROOT
ATOM      1  C   UNL d   1      -1.327   4.143  -0.297  0.00  0.00     0.023 A 
ATOM      2  C1  UNL d   1       0.000   3.933  -0.672  0.00  0.00     0.003 A 
ATOM      3  C2  UNL d   1       0.481   4.465  -1.871  0.00  0.00     0.048 A 
ATOM      4  C3  UNL d   1      -0.370   5.207  -2.689  0.00  0.00     0.023 A 
ATOM      5  C4  UNL d   1      -1.699   5.421  -2.317  0.00  0.00     0.048 A 
ATOM      6  C5  UNL d   1      -2.175   4.886  -1.118  0.00  0.00     0.003 A 
ATOM      7  I   UNL d   1       0.343   6.000  -4.473  0.00  0.00    -0.146 I 
ENDROOT
TORSDOF 0
ENDMDL
