MODEL 1
REMARK minimizedAffinity 0.0129935527
REMARK minimizedRMSD -1
REMARK  0 active torsions:
REMARK  status: ('A' for Active; 'I' for Inactive)
ROOT
ATOM      1  C   UNL d   1      -6.000   2.086  -2.633  0.00  0.00     0.023 A 
ATOM      2  C1  UNL d   1      -5.999   2.162  -4.026  0.00  0.00     0.003 A 
ATOM      3  C2  UNL d   1      -5.468   3.285  -4.664  0.00  0.00     0.048 A 
ATOM      4  C3  UNL d   1      -4.940   4.328  -3.904  0.00  0.00     0.023 A 
ATOM      5  C4  UNL d   1      -4.938   4.255  -2.510  0.00  0.00     0.048 A 
ATOM      6  C5  UNL d   1      -5.471   3.131  -1.876  0.00  0.00     0.003 A 
ATOM      7  I   UNL d   1      -4.150   6.000  -4.852  0.00  0.00    -0.146 I 
ENDROOT
TORSDOF 0
ENDMDL
