MODEL 1
REMARK minimizedAffinity 7.65348721
REMARK minimizedRMSD -1
REMARK  0 active torsions:
REMARK  status: ('A' for Active; 'I' for Inactive)
ROOT
ATOM      1  C   UNL d   1      -0.652   3.954  -0.752  0.00  0.00     0.023 A 
ATOM      2  C1  UNL d   1       0.737   4.070  -0.811  0.00  0.00     0.003 A 
ATOM      3  C2  UNL d   1       1.522   3.631   0.257  0.00  0.00     0.048 A 
ATOM      4  C3  UNL d   1       0.912   3.075   1.381  0.00  0.00     0.023 A 
ATOM      5  C4  UNL d   1      -0.477   2.956   1.445  0.00  0.00     0.048 A 
ATOM      6  C5  UNL d   1      -1.258   3.398   0.375  0.00  0.00     0.003 A 
ATOM      7  I   UNL d   1       2.078   2.421   2.972  0.00  0.00    -0.146 I 
ENDROOT
TORSDOF 0
ENDMDL
