MODEL 1
REMARK minimizedAffinity 5.16924477
REMARK minimizedRMSD -1
REMARK  0 active torsions:
REMARK  status: ('A' for Active; 'I' for Inactive)
ROOT
ATOM      1  C   UNL d   1      -4.887  -3.323   5.996  0.00  0.00     0.023 A 
ATOM      2  C1  UNL d   1      -5.989  -2.468   6.000  0.00  0.00     0.003 A 
ATOM      3  C2  UNL d   1      -5.972  -1.300   5.235  0.00  0.00     0.048 A 
ATOM      4  C3  UNL d   1      -4.849  -0.994   4.467  0.00  0.00     0.023 A 
ATOM      5  C4  UNL d   1      -3.744  -1.846   4.459  0.00  0.00     0.048 A 
ATOM      6  C5  UNL d   1      -3.766  -3.013   5.226  0.00  0.00     0.003 A 
ATOM      7  I   UNL d   1      -4.820   0.744   3.327  0.00  0.00    -0.146 I 
ENDROOT
TORSDOF 0
ENDMDL
