MODEL 1
REMARK minimizedAffinity 0.636408925
REMARK minimizedRMSD -1
REMARK  0 active torsions:
REMARK  status: ('A' for Active; 'I' for Inactive)
ROOT
ATOM      1  C   UNL d   1      -5.235   4.561  -2.248  0.00  0.00     0.023 A 
ATOM      2  C1  UNL d   1      -5.780   3.372  -1.766  0.00  0.00     0.003 A 
ATOM      3  C2  UNL d   1      -6.000   2.300  -2.633  0.00  0.00     0.048 A 
ATOM      4  C3  UNL d   1      -5.671   2.424  -3.983  0.00  0.00     0.023 A 
ATOM      5  C4  UNL d   1      -5.124   3.612  -4.470  0.00  0.00     0.048 A 
ATOM      6  C5  UNL d   1      -4.907   4.682  -3.599  0.00  0.00     0.003 A 
ATOM      7  I   UNL d   1      -5.997   0.830  -5.276  0.00  0.00    -0.146 I 
ENDROOT
TORSDOF 0
ENDMDL
