MODEL 1
REMARK minimizedAffinity 4.82527447
REMARK minimizedRMSD -1
REMARK  0 active torsions:
REMARK  status: ('A' for Active; 'I' for Inactive)
ROOT
ATOM      1  C   UNL d   1      -5.971   1.252  -5.605  0.00  0.00     0.023 A 
ATOM      2  C1  UNL d   1      -5.964   2.644  -5.523  0.00  0.00     0.003 A 
ATOM      3  C2  UNL d   1      -5.966   3.272  -4.276  0.00  0.00     0.048 A 
ATOM      4  C3  UNL d   1      -5.974   2.502  -3.114  0.00  0.00     0.023 A 
ATOM      5  C4  UNL d   1      -5.979   1.108  -3.190  0.00  0.00     0.048 A 
ATOM      6  C5  UNL d   1      -5.978   0.485  -4.440  0.00  0.00     0.003 A 
ATOM      7  I   UNL d   1      -5.976   3.434  -1.256  0.00  0.00    -0.146 I 
ENDROOT
TORSDOF 0
ENDMDL
