MODEL 1
REMARK minimizedAffinity 12.9753246
REMARK minimizedRMSD -1
REMARK  0 active torsions:
REMARK  status: ('A' for Active; 'I' for Inactive)
ROOT
ATOM      1  C   UNL d   1      -0.084  -2.982  -0.777  0.00  0.00     0.023 A 
ATOM      2  C1  UNL d   1       0.149  -4.309  -1.135  0.00  0.00     0.003 A 
ATOM      3  C2  UNL d   1       1.440  -4.838  -1.058  0.00  0.00     0.048 A 
ATOM      4  C3  UNL d   1       2.491  -4.034  -0.620  0.00  0.00     0.023 A 
ATOM      5  C4  UNL d   1       2.262  -2.705  -0.260  0.00  0.00     0.048 A 
ATOM      6  C5  UNL d   1       0.970  -2.180  -0.340  0.00  0.00     0.003 A 
ATOM      7  I   UNL d   1       4.412  -4.818  -0.504  0.00  0.00    -0.146 I 
ENDROOT
TORSDOF 0
ENDMDL
