MODEL 1
REMARK minimizedAffinity 0.510089636
REMARK minimizedRMSD -1
REMARK  0 active torsions:
REMARK  status: ('A' for Active; 'I' for Inactive)
ROOT
ATOM      1  C1  BNZ d   1       3.743  -5.969  -1.319  0.00  0.00     0.000 A 
ATOM      2  C2  BNZ d   1       2.739  -5.963  -2.249  0.00  0.00     0.000 A 
ATOM      3  C3  BNZ d   1       3.023  -5.999  -3.586  0.00  0.00     0.000 A 
ATOM      4  C4  BNZ d   1       4.309  -6.000  -3.991  0.00  0.00     0.000 A 
ATOM      5  C5  BNZ d   1       5.333  -5.996  -3.065  0.00  0.00     0.000 A 
ATOM      6  C6  BNZ d   1       5.044  -5.999  -1.720  0.00  0.00     0.000 A 
ENDROOT
TORSDOF 0
ENDMDL
