MODEL 1
REMARK minimizedAffinity 0.984628141
REMARK minimizedRMSD -1
REMARK  0 active torsions:
REMARK  status: ('A' for Active; 'I' for Inactive)
ROOT
ATOM      1  C1  BNZ d   1       3.876  -2.805   4.567  0.00  0.00     0.000 A 
ATOM      2  C2  BNZ d   1       3.067  -1.933   3.889  0.00  0.00     0.000 A 
ATOM      3  C3  BNZ d   1       1.901  -2.360   3.316  0.00  0.00     0.000 A 
ATOM      4  C4  BNZ d   1       1.567  -3.665   3.387  0.00  0.00     0.000 A 
ATOM      5  C5  BNZ d   1       2.378  -4.558   4.059  0.00  0.00     0.000 A 
ATOM      6  C6  BNZ d   1       3.530  -4.117   4.668  0.00  0.00     0.000 A 
ENDROOT
TORSDOF 0
ENDMDL
