MODEL 1
REMARK minimizedAffinity -1.41432631
REMARK minimizedRMSD -1
REMARK  0 active torsions:
REMARK  status: ('A' for Active; 'I' for Inactive)
ROOT
ATOM      1  C1  BNZ d   1       3.321  -5.996  -4.076  0.00  0.00     0.000 A 
ATOM      2  C2  BNZ d   1       3.777  -5.948  -2.786  0.00  0.00     0.000 A 
ATOM      3  C3  BNZ d   1       5.117  -5.893  -2.519  0.00  0.00     0.000 A 
ATOM      4  C4  BNZ d   1       5.998  -5.926  -3.539  0.00  0.00     0.000 A 
ATOM      5  C5  BNZ d   1       5.554  -5.984  -4.845  0.00  0.00     0.000 A 
ATOM      6  C6  BNZ d   1       4.204  -6.000  -5.112  0.00  0.00     0.000 A 
ENDROOT
TORSDOF 0
ENDMDL
