MODEL 1
REMARK minimizedAffinity -2.59852839
REMARK minimizedRMSD -1
REMARK  0 active torsions:
REMARK  status: ('A' for Active; 'I' for Inactive)
ROOT
ATOM      1  C1  BNZ d   1       2.805  -5.964  -2.965  0.00  0.00     0.000 A 
ATOM      2  C2  BNZ d   1       2.202  -5.963  -4.194  0.00  0.00     0.000 A 
ATOM      3  C3  BNZ d   1       2.947  -6.000  -5.340  0.00  0.00     0.000 A 
ATOM      4  C4  BNZ d   1       4.293  -5.998  -5.256  0.00  0.00     0.000 A 
ATOM      5  C5  BNZ d   1       4.916  -5.990  -4.024  0.00  0.00     0.000 A 
ATOM      6  C6  BNZ d   1       4.162  -5.992  -2.872  0.00  0.00     0.000 A 
ENDROOT
TORSDOF 0
ENDMDL
