MODEL 1
REMARK minimizedAffinity 1.2027787
REMARK minimizedRMSD -1
REMARK  0 active torsions:
REMARK  status: ('A' for Active; 'I' for Inactive)
ROOT
ATOM      1  C1  BNZ d   1       3.379  -5.011  -0.364  0.00  0.00     0.000 A 
ATOM      2  C2  BNZ d   1       4.223  -5.957   0.153  0.00  0.00     0.000 A 
ATOM      3  C3  BNZ d   1       5.539  -5.998  -0.214  0.00  0.00     0.000 A 
ATOM      4  C4  BNZ d   1       5.999  -5.119  -1.127  0.00  0.00     0.000 A 
ATOM      5  C5  BNZ d   1       5.159  -4.164  -1.665  0.00  0.00     0.000 A 
ATOM      6  C6  BNZ d   1       3.844  -4.102  -1.264  0.00  0.00     0.000 A 
ENDROOT
TORSDOF 0
ENDMDL
