MODEL 1
REMARK minimizedAffinity 3.50454831
REMARK minimizedRMSD -1
REMARK  0 active torsions:
REMARK  status: ('A' for Active; 'I' for Inactive)
ROOT
ATOM      1  C1  BNZ d   1      -6.000   3.649  -0.545  0.00  0.00     0.000 A 
ATOM      2  C2  BNZ d   1      -6.000   2.301  -0.301  0.00  0.00     0.000 A 
ATOM      3  C3  BNZ d   1      -5.642   1.811   0.924  0.00  0.00     0.000 A 
ATOM      4  C4  BNZ d   1      -5.246   2.666   1.889  0.00  0.00     0.000 A 
ATOM      5  C5  BNZ d   1      -5.232   4.026   1.656  0.00  0.00     0.000 A 
ATOM      6  C6  BNZ d   1      -5.631   4.518   0.435  0.00  0.00     0.000 A 
ENDROOT
TORSDOF 0
ENDMDL
