MODEL 1
REMARK minimizedAffinity -2.59211087
REMARK minimizedRMSD -1
REMARK  0 active torsions:
REMARK  status: ('A' for Active; 'I' for Inactive)
ROOT
ATOM      1  C1  BNZ d   1      -0.424   2.466  -3.622  0.00  0.00     0.000 A 
ATOM      2  C2  BNZ d   1       0.273   1.292  -3.522  0.00  0.00     0.000 A 
ATOM      3  C3  BNZ d   1       0.004   0.402  -2.519  0.00  0.00     0.000 A 
ATOM      4  C4  BNZ d   1      -0.932   0.705  -1.597  0.00  0.00     0.000 A 
ATOM      5  C5  BNZ d   1      -1.636   1.889  -1.678  0.00  0.00     0.000 A 
ATOM      6  C6  BNZ d   1      -1.391   2.765  -2.711  0.00  0.00     0.000 A 
ENDROOT
TORSDOF 0
ENDMDL
