MODEL 1
REMARK minimizedAffinity -4.55243492
REMARK minimizedRMSD -1
REMARK  0 active torsions:
REMARK  status: ('A' for Active; 'I' for Inactive)
ROOT
ATOM      1  C1  BNZ d   1      -2.874   1.963  -2.427  0.00  0.00     0.000 A 
ATOM      2  C2  BNZ d   1      -1.869   1.226  -1.860  0.00  0.00     0.000 A 
ATOM      3  C3  BNZ d   1      -0.567   1.418  -2.228  0.00  0.00     0.000 A 
ATOM      4  C4  BNZ d   1      -0.275   2.317  -3.189  0.00  0.00     0.000 A 
ATOM      5  C5  BNZ d   1      -1.278   3.062  -3.778  0.00  0.00     0.000 A 
ATOM      6  C6  BNZ d   1      -2.583   2.893  -3.377  0.00  0.00     0.000 A 
ENDROOT
TORSDOF 0
ENDMDL
