MODEL 1
REMARK minimizedAffinity -4.01311111
REMARK minimizedRMSD -1
REMARK  0 active torsions:
REMARK  status: ('A' for Active; 'I' for Inactive)
ROOT
ATOM      1  C1  BNZ d   1      -1.648   0.614  -0.996  0.00  0.00     0.000 A 
ATOM      2  C2  BNZ d   1      -2.410   0.663   0.141  0.00  0.00     0.000 A 
ATOM      3  C3  BNZ d   1      -1.877   0.332   1.355  0.00  0.00     0.000 A 
ATOM      4  C4  BNZ d   1      -0.597  -0.086   1.426  0.00  0.00     0.000 A 
ATOM      5  C5  BNZ d   1       0.182  -0.149   0.287  0.00  0.00     0.000 A 
ATOM      6  C6  BNZ d   1      -0.347   0.222  -0.928  0.00  0.00     0.000 A 
ENDROOT
TORSDOF 0
ENDMDL
