MODEL 1
REMARK minimizedAffinity -2.93776369
REMARK minimizedRMSD -1
REMARK  0 active torsions:
REMARK  status: ('A' for Active; 'I' for Inactive)
ROOT
ATOM      1  C1  BNZ d   1       1.106  -2.060   2.229  0.00  0.00     0.000 A 
ATOM      2  C2  BNZ d   1       0.056  -1.181   2.198  0.00  0.00     0.000 A 
ATOM      3  C3  BNZ d   1      -0.232  -0.475   1.064  0.00  0.00     0.000 A 
ATOM      4  C4  BNZ d   1       0.552  -0.618  -0.024  0.00  0.00     0.000 A 
ATOM      5  C5  BNZ d   1       1.620  -1.494  -0.005  0.00  0.00     0.000 A 
ATOM      6  C6  BNZ d   1       1.884  -2.232   1.126  0.00  0.00     0.000 A 
ENDROOT
TORSDOF 0
ENDMDL
