MODEL 1
REMARK minimizedAffinity -2.51279044
REMARK minimizedRMSD -1
REMARK  0 active torsions:
REMARK  status: ('A' for Active; 'I' for Inactive)
ROOT
ATOM      1  C1  BNZ d   1       0.734  -1.805   1.454  0.00  0.00     0.000 A 
ATOM      2  C2  BNZ d   1       0.101  -1.378   2.591  0.00  0.00     0.000 A 
ATOM      3  C3  BNZ d   1      -0.722  -0.287   2.567  0.00  0.00     0.000 A 
ATOM      4  C4  BNZ d   1      -0.880   0.399   1.416  0.00  0.00     0.000 A 
ATOM      5  C5  BNZ d   1      -0.241  -0.014   0.263  0.00  0.00     0.000 A 
ATOM      6  C6  BNZ d   1       0.556  -1.135   0.283  0.00  0.00     0.000 A 
ENDROOT
TORSDOF 0
ENDMDL
