MODEL 1
REMARK minimizedAffinity -2.66937208
REMARK minimizedRMSD -1
REMARK  0 active torsions:
REMARK  status: ('A' for Active; 'I' for Inactive)
ROOT
ATOM      1  C   UNL d   1       0.759  -1.112   2.396  0.00  0.00     0.023 A 
ATOM      2  C1  UNL d   1       1.512  -1.503   1.289  0.00  0.00     0.003 A 
ATOM      3  C2  UNL d   1       1.182  -1.030   0.017  0.00  0.00     0.048 A 
ATOM      4  C3  UNL d   1       0.099  -0.167  -0.141  0.00  0.00     0.023 A 
ATOM      5  C4  UNL d   1      -0.657   0.228   0.964  0.00  0.00     0.048 A 
ATOM      6  C5  UNL d   1      -0.324  -0.248   2.234  0.00  0.00     0.003 A 
ATOM      7  I   UNL d   1      -0.394   0.537  -2.033  0.00  0.00    -0.146 I 
ENDROOT
TORSDOF 0
ENDMDL
