MODEL 1
REMARK minimizedAffinity -1.08791173
REMARK minimizedRMSD -1
REMARK  0 active torsions:
REMARK  status: ('A' for Active; 'I' for Inactive)
ROOT
ATOM      1  C   UNL d   1      -0.869   1.680  -3.384  0.00  0.00     0.023 A 
ATOM      2  C1  UNL d   1      -1.821   2.020  -2.423  0.00  0.00     0.003 A 
ATOM      3  C2  UNL d   1      -1.839   1.360  -1.192  0.00  0.00     0.048 A 
ATOM      4  C3  UNL d   1      -0.901   0.362  -0.929  0.00  0.00     0.023 A 
ATOM      5  C4  UNL d   1       0.054   0.019  -1.888  0.00  0.00     0.048 A 
ATOM      6  C5  UNL d   1       0.067   0.681  -3.117  0.00  0.00     0.003 A 
ATOM      7  I   UNL d   1      -0.925  -0.621   0.902  0.00  0.00    -0.146 I 
ENDROOT
TORSDOF 0
ENDMDL
