MODEL 1
REMARK minimizedAffinity -4.14288664
REMARK minimizedRMSD -1
REMARK  0 active torsions:
REMARK  status: ('A' for Active; 'I' for Inactive)
ROOT
ATOM      1  C   UNL d   1       0.892  -0.975   2.190  0.00  0.00     0.023 A 
ATOM      2  C1  UNL d   1       1.455  -1.308   0.958  0.00  0.00     0.003 A 
ATOM      3  C2  UNL d   1       1.038  -0.651  -0.202  0.00  0.00     0.048 A 
ATOM      4  C3  UNL d   1       0.059   0.338  -0.123  0.00  0.00     0.023 A 
ATOM      5  C4  UNL d   1      -0.507   0.675   1.108  0.00  0.00     0.048 A 
ATOM      6  C5  UNL d   1      -0.088   0.015   2.265  0.00  0.00     0.003 A 
ATOM      7  I   UNL d   1      -0.563   1.317  -1.847  0.00  0.00    -0.146 I 
ENDROOT
TORSDOF 0
ENDMDL
