MODEL 1
REMARK minimizedAffinity -4.10526705
REMARK minimizedRMSD -1
REMARK  0 active torsions:
REMARK  status: ('A' for Active; 'I' for Inactive)
ROOT
ATOM      1  C   UNL d   1      -0.573  -0.478   0.786  0.00  0.00     0.023 A 
ATOM      2  C1  UNL d   1      -1.103   0.768   1.122  0.00  0.00     0.003 A 
ATOM      3  C2  UNL d   1      -1.243   1.755   0.144  0.00  0.00     0.048 A 
ATOM      4  C3  UNL d   1      -0.852   1.489  -1.168  0.00  0.00     0.023 A 
ATOM      5  C4  UNL d   1      -0.322   0.244  -1.509  0.00  0.00     0.048 A 
ATOM      6  C5  UNL d   1      -0.183  -0.740  -0.528  0.00  0.00     0.003 A 
ATOM      7  I   UNL d   1      -1.059   2.957  -2.624  0.00  0.00    -0.146 I 
ENDROOT
TORSDOF 0
ENDMDL
