MODEL 1
REMARK minimizedAffinity -3.11166406
REMARK minimizedRMSD -1
REMARK  0 active torsions:
REMARK  status: ('A' for Active; 'I' for Inactive)
ROOT
ATOM      1  C   UNL d   1      -0.632   2.079  -2.297  0.00  0.00     0.023 A 
ATOM      2  C1  UNL d   1      -1.057   0.751  -2.243  0.00  0.00     0.003 A 
ATOM      3  C2  UNL d   1      -0.742  -0.040  -1.136  0.00  0.00     0.048 A 
ATOM      4  C3  UNL d   1      -0.004   0.504  -0.086  0.00  0.00     0.023 A 
ATOM      5  C4  UNL d   1       0.422   1.832  -0.135  0.00  0.00     0.048 A 
ATOM      6  C5  UNL d   1       0.106   2.619  -1.244  0.00  0.00     0.003 A 
ATOM      7  I   UNL d   1       0.465  -0.671   1.563  0.00  0.00    -0.146 I 
ENDROOT
TORSDOF 0
ENDMDL
