MODEL 1
REMARK minimizedAffinity -3.86680865
REMARK minimizedRMSD -1
REMARK  0 active torsions:
REMARK  status: ('A' for Active; 'I' for Inactive)
ROOT
ATOM      1  C   UNL d   1      -0.397   4.013  -2.387  0.00  0.00     0.023 A 
ATOM      2  C1  UNL d   1       0.764   3.807  -1.642  0.00  0.00     0.003 A 
ATOM      3  C2  UNL d   1       1.082   2.527  -1.182  0.00  0.00     0.048 A 
ATOM      4  C3  UNL d   1       0.235   1.458  -1.471  0.00  0.00     0.023 A 
ATOM      5  C4  UNL d   1      -0.927   1.659  -2.217  0.00  0.00     0.048 A 
ATOM      6  C5  UNL d   1      -1.242   2.940  -2.674  0.00  0.00     0.003 A 
ATOM      7  I   UNL d   1       0.707  -0.447  -0.787  0.00  0.00    -0.146 I 
ENDROOT
TORSDOF 0
ENDMDL
