MODEL 1
REMARK minimizedAffinity -0.790762901
REMARK minimizedRMSD -1
REMARK  0 active torsions:
REMARK  status: ('A' for Active; 'I' for Inactive)
ROOT
ATOM      1  C   UNL d   1       0.699  -1.186   1.174  0.00  0.00     0.023 A 
ATOM      2  C1  UNL d   1       1.394  -1.216  -0.035  0.00  0.00     0.003 A 
ATOM      3  C2  UNL d   1       0.970  -0.427  -1.106  0.00  0.00     0.048 A 
ATOM      4  C3  UNL d   1      -0.149   0.392  -0.960  0.00  0.00     0.023 A 
ATOM      5  C4  UNL d   1      -0.848   0.426   0.248  0.00  0.00     0.048 A 
ATOM      6  C5  UNL d   1      -0.421  -0.366   1.315  0.00  0.00     0.003 A 
ATOM      7  I   UNL d   1      -0.782   1.569  -2.552  0.00  0.00    -0.146 I 
ENDROOT
TORSDOF 0
ENDMDL
