MODEL 1
REMARK minimizedAffinity -2.22348261
REMARK minimizedRMSD -1
REMARK  0 active torsions:
REMARK  status: ('A' for Active; 'I' for Inactive)
ROOT
ATOM      1  C   UNL d   1      -0.008  -0.982   1.938  0.00  0.00     0.023 A 
ATOM      2  C1  UNL d   1      -0.815   0.150   2.052  0.00  0.00     0.003 A 
ATOM      3  C2  UNL d   1      -1.072   0.941   0.930  0.00  0.00     0.048 A 
ATOM      4  C3  UNL d   1      -0.520   0.594  -0.302  0.00  0.00     0.023 A 
ATOM      5  C4  UNL d   1       0.288  -0.539  -0.421  0.00  0.00     0.048 A 
ATOM      6  C5  UNL d   1       0.543  -1.326   0.704  0.00  0.00     0.003 A 
ATOM      7  I   UNL d   1      -0.901   1.769  -1.973  0.00  0.00    -0.146 I 
ENDROOT
TORSDOF 0
ENDMDL
