MODEL 1
REMARK minimizedAffinity 0.689456105
REMARK minimizedRMSD -1
REMARK  0 active torsions:
REMARK  status: ('A' for Active; 'I' for Inactive)
ROOT
ATOM      1  C   UNL d   1      -0.206  -1.194   2.318  0.00  0.00     0.023 A 
ATOM      2  C1  UNL d   1      -0.991  -0.041   2.307  0.00  0.00     0.003 A 
ATOM      3  C2  UNL d   1      -1.089   0.728   1.146  0.00  0.00     0.048 A 
ATOM      4  C3  UNL d   1      -0.399   0.339  -0.001  0.00  0.00     0.023 A 
ATOM      5  C4  UNL d   1       0.387  -0.814   0.004  0.00  0.00     0.048 A 
ATOM      6  C5  UNL d   1       0.483  -1.580   1.168  0.00  0.00     0.003 A 
ATOM      7  I   UNL d   1      -0.544   1.482  -1.731  0.00  0.00    -0.146 I 
ENDROOT
TORSDOF 0
ENDMDL
