MODEL 1
REMARK minimizedAffinity -1.49304748
REMARK minimizedRMSD -1
REMARK  0 active torsions:
REMARK  status: ('A' for Active; 'I' for Inactive)
ROOT
ATOM      1  C   UNL d   1       0.736  -1.262   0.970  0.00  0.00     0.023 A 
ATOM      2  C1  UNL d   1      -0.247  -0.427   1.502  0.00  0.00     0.003 A 
ATOM      3  C2  UNL d   1      -0.778   0.608   0.731  0.00  0.00     0.048 A 
ATOM      4  C3  UNL d   1      -0.323   0.803  -0.573  0.00  0.00     0.023 A 
ATOM      5  C4  UNL d   1       0.660  -0.030  -1.110  0.00  0.00     0.048 A 
ATOM      6  C5  UNL d   1       1.189  -1.063  -0.334  0.00  0.00     0.003 A 
ATOM      7  I   UNL d   1      -1.113   2.343  -1.723  0.00  0.00    -0.146 I 
ENDROOT
TORSDOF 0
ENDMDL
