MODEL 1
REMARK minimizedAffinity 4.04335928
REMARK minimizedRMSD -1
REMARK  0 active torsions:
REMARK  status: ('A' for Active; 'I' for Inactive)
ROOT
ATOM      1  O1  BZF d   1       0.733  -0.404   2.733  0.00  0.00    -0.204 OA
ATOM      2  C2  BZF d   1       1.096  -0.836   1.472  0.00  0.00     0.174 A 
ATOM      3  C3  BZF d   1       1.746  -2.015   1.538  0.00  0.00    -0.012 A 
ATOM      4  C3A BZF d   1       1.711  -2.387   2.920  0.00  0.00    -0.107 A 
ATOM      5  C4  BZF d   1       2.178  -3.467   3.613  0.00  0.00     0.055 A 
ATOM      6  C5  BZF d   1       2.045  -3.490   4.966  0.00  0.00    -0.016 A 
ATOM      7  C6  BZF d   1       1.457  -2.451   5.656  0.00  0.00     0.022 A 
ATOM      8  C7  BZF d   1       0.974  -1.361   5.011  0.00  0.00     0.029 A 
ATOM      9  C7A BZF d   1       1.077  -1.349   3.641  0.00  0.00     0.058 A 
ENDROOT
TORSDOF 0
ENDMDL
