MODEL 1
REMARK minimizedAffinity 8.22437763
REMARK minimizedRMSD -1
REMARK  0 active torsions:
REMARK  status: ('A' for Active; 'I' for Inactive)
ROOT
ATOM      1  O1  BZF d   1       2.405  -3.689   4.882  0.00  0.00    -0.204 OA
ATOM      2  C2  BZF d   1       1.840  -3.107   6.000  0.00  0.00     0.174 A 
ATOM      3  C3  BZF d   1       1.256  -1.933   5.684  0.00  0.00    -0.012 A 
ATOM      4  C3A BZF d   1       1.390  -1.815   4.265  0.00  0.00    -0.107 A 
ATOM      5  C4  BZF d   1       0.995  -0.873   3.359  0.00  0.00     0.055 A 
ATOM      6  C5  BZF d   1       1.346  -1.022   2.055  0.00  0.00    -0.016 A 
ATOM      7  C6  BZF d   1       2.094  -2.097   1.623  0.00  0.00     0.022 A 
ATOM      8  C7  BZF d   1       2.505  -3.060   2.483  0.00  0.00     0.029 A 
ATOM      9  C7A BZF d   1       2.124  -2.929   3.796  0.00  0.00     0.058 A 
ENDROOT
TORSDOF 0
ENDMDL
