MODEL 1
REMARK minimizedAffinity 13.0456829
REMARK minimizedRMSD -1
REMARK  0 active torsions:
REMARK  status: ('A' for Active; 'I' for Inactive)
ROOT
ATOM      1  O1  BZF d   1      -0.887  -0.966   1.365  0.00  0.00    -0.204 OA
ATOM      2  C2  BZF d   1       0.424  -0.779   1.758  0.00  0.00     0.174 A 
ATOM      3  C3  BZF d   1       0.868   0.436   1.378  0.00  0.00    -0.012 A 
ATOM      4  C3A BZF d   1      -0.263   1.083   0.787  0.00  0.00    -0.107 A 
ATOM      5  C4  BZF d   1      -0.456   2.316   0.234  0.00  0.00     0.055 A 
ATOM      6  C5  BZF d   1      -1.661   2.610  -0.320  0.00  0.00    -0.016 A 
ATOM      7  C6  BZF d   1      -2.692   1.694  -0.345  0.00  0.00     0.022 A 
ATOM      8  C7  BZF d   1      -2.549   0.459   0.196  0.00  0.00     0.029 A 
ATOM      9  C7A BZF d   1      -1.343   0.171   0.786  0.00  0.00     0.058 A 
ENDROOT
TORSDOF 0
ENDMDL
