MODEL 1
REMARK minimizedAffinity 12.4170179
REMARK minimizedRMSD -1
REMARK  0 active torsions:
REMARK  status: ('A' for Active; 'I' for Inactive)
ROOT
ATOM      1  O1  BZF d   1      -2.336  -0.936   0.725  0.00  0.00    -0.204 OA
ATOM      2  C2  BZF d   1      -2.765  -2.110   0.137  0.00  0.00     0.174 A 
ATOM      3  C3  BZF d   1      -1.777  -3.028   0.124  0.00  0.00    -0.012 A 
ATOM      4  C3A BZF d   1      -0.689  -2.420   0.826  0.00  0.00    -0.107 A 
ATOM      5  C4  BZF d   1       0.567  -2.840   1.157  0.00  0.00     0.055 A 
ATOM      6  C5  BZF d   1       1.410  -1.976   1.782  0.00  0.00    -0.016 A 
ATOM      7  C6  BZF d   1       1.032  -0.685   2.085  0.00  0.00     0.022 A 
ATOM      8  C7  BZF d   1      -0.206  -0.224   1.782  0.00  0.00     0.029 A 
ATOM      9  C7A BZF d   1      -1.071  -1.105   1.180  0.00  0.00     0.058 A 
ENDROOT
TORSDOF 0
ENDMDL
