MODEL 1
REMARK minimizedAffinity 8.06701279
REMARK minimizedRMSD -1
REMARK  0 active torsions:
REMARK  status: ('A' for Active; 'I' for Inactive)
ROOT
ATOM      1  O1  BZF d   1      -3.411  -1.779   0.202  0.00  0.00    -0.204 OA
ATOM      2  C2  BZF d   1      -2.888  -0.667  -0.428  0.00  0.00     0.174 A 
ATOM      3  C3  BZF d   1      -1.829  -1.004  -1.193  0.00  0.00    -0.012 A 
ATOM      4  C3A BZF d   1      -1.739  -2.429  -1.104  0.00  0.00    -0.107 A 
ATOM      5  C4  BZF d   1      -0.899  -3.353  -1.658  0.00  0.00     0.055 A 
ATOM      6  C5  BZF d   1      -1.035  -4.660  -1.310  0.00  0.00    -0.016 A 
ATOM      7  C6  BZF d   1      -1.994  -5.076  -0.411  0.00  0.00     0.022 A 
ATOM      8  C7  BZF d   1      -2.853  -4.198   0.161  0.00  0.00     0.029 A 
ATOM      9  C7A BZF d   1      -2.740  -2.881  -0.213  0.00  0.00     0.058 A 
ENDROOT
TORSDOF 0
ENDMDL
