MODEL 1
REMARK minimizedAffinity 1.10618961
REMARK minimizedRMSD -1
REMARK  0 active torsions:
REMARK  status: ('A' for Active; 'I' for Inactive)
ROOT
ATOM      1  O1  BZF d   1      -3.391  -2.439  -0.036  0.00  0.00    -0.204 OA
ATOM      2  C2  BZF d   1      -3.080  -3.777  -0.185  0.00  0.00     0.174 A 
ATOM      3  C3  BZF d   1      -1.765  -3.989   0.031  0.00  0.00    -0.012 A 
ATOM      4  C3A BZF d   1      -1.238  -2.719   0.424  0.00  0.00    -0.107 A 
ATOM      5  C4  BZF d   1       0.007  -2.290   0.786  0.00  0.00     0.055 A 
ATOM      6  C5  BZF d   1       0.202  -0.970   1.041  0.00  0.00    -0.016 A 
ATOM      7  C6  BZF d   1      -0.821  -0.051   0.938  0.00  0.00     0.022 A 
ATOM      8  C7  BZF d   1      -2.075  -0.429   0.587  0.00  0.00     0.029 A 
ATOM      9  C7A BZF d   1      -2.283  -1.768   0.361  0.00  0.00     0.058 A 
ENDROOT
TORSDOF 0
ENDMDL
