MODEL 1
REMARK minimizedAffinity 6.04906559
REMARK minimizedRMSD -1
REMARK  0 active torsions:
REMARK  status: ('A' for Active; 'I' for Inactive)
ROOT
ATOM      1  O1  BZF d   1       4.517  -1.030   1.059  0.00  0.00    -0.204 OA
ATOM      2  C2  BZF d   1       5.603  -1.533   1.749  0.00  0.00     0.174 A 
ATOM      3  C3  BZF d   1       5.272  -1.813   3.026  0.00  0.00    -0.012 A 
ATOM      4  C3A BZF d   1       3.868  -1.550   3.116  0.00  0.00    -0.107 A 
ATOM      5  C4  BZF d   1       2.957  -1.655   4.128  0.00  0.00     0.055 A 
ATOM      6  C5  BZF d   1       1.678  -1.250   3.909  0.00  0.00    -0.016 A 
ATOM      7  C6  BZF d   1       1.278  -0.731   2.695  0.00  0.00     0.022 A 
ATOM      8  C7  BZF d   1       2.145  -0.613   1.660  0.00  0.00     0.029 A 
ATOM      9  C7A BZF d   1       3.430  -1.052   1.868  0.00  0.00     0.058 A 
ENDROOT
TORSDOF 0
ENDMDL
