MODEL 1
REMARK minimizedAffinity 9.02995014
REMARK minimizedRMSD -1
REMARK  0 active torsions:
REMARK  status: ('A' for Active; 'I' for Inactive)
ROOT
ATOM      1  O1  BZF d   1       0.355   2.605   1.869  0.00  0.00    -0.204 OA
ATOM      2  C2  BZF d   1       1.098   1.612   2.477  0.00  0.00     0.174 A 
ATOM      3  C3  BZF d   1       2.406   1.740   2.175  0.00  0.00    -0.012 A 
ATOM      4  C3A BZF d   1       2.497   2.939   1.400  0.00  0.00    -0.107 A 
ATOM      5  C4  BZF d   1       3.539   3.605   0.820  0.00  0.00     0.055 A 
ATOM      6  C5  BZF d   1       3.282   4.708   0.069  0.00  0.00    -0.016 A 
ATOM      7  C6  BZF d   1       1.996   5.170  -0.127  0.00  0.00     0.022 A 
ATOM      8  C7  BZF d   1       0.931   4.545   0.433  0.00  0.00     0.029 A 
ATOM      9  C7A BZF d   1       1.191   3.449   1.219  0.00  0.00     0.058 A 
ENDROOT
TORSDOF 0
ENDMDL
