MODEL 1
REMARK minimizedAffinity 8.10941982
REMARK minimizedRMSD -1
REMARK  0 active torsions:
REMARK  status: ('A' for Active; 'I' for Inactive)
ROOT
ATOM      1  O1  BZF d   1       4.997  -5.966  -1.715  0.00  0.00    -0.204 OA
ATOM      2  C2  BZF d   1       3.887  -5.997  -0.894  0.00  0.00     0.174 A 
ATOM      3  C3  BZF d   1       2.752  -5.956  -1.622  0.00  0.00    -0.012 A 
ATOM      4  C3A BZF d   1       3.179  -5.989  -2.987  0.00  0.00    -0.107 A 
ATOM      5  C4  BZF d   1       2.513  -5.988  -4.179  0.00  0.00     0.055 A 
ATOM      6  C5  BZF d   1       3.228  -5.951  -5.335  0.00  0.00    -0.016 A 
ATOM      7  C6  BZF d   1       4.607  -5.909  -5.335  0.00  0.00     0.022 A 
ATOM      8  C7  BZF d   1       5.311  -5.914  -4.177  0.00  0.00     0.029 A 
ATOM      9  C7A BZF d   1       4.593  -5.984  -3.008  0.00  0.00     0.058 A 
ENDROOT
TORSDOF 0
ENDMDL
