MODEL 1
REMARK minimizedAffinity 3.64279413
REMARK minimizedRMSD -1
REMARK  0 active torsions:
REMARK  status: ('A' for Active; 'I' for Inactive)
ROOT
ATOM      1  O1  BZF d   1       2.063   0.665   2.675  0.00  0.00    -0.204 OA
ATOM      2  C2  BZF d   1       2.762   0.779   1.489  0.00  0.00     0.174 A 
ATOM      3  C3  BZF d   1       3.353  -0.390   1.168  0.00  0.00    -0.012 A 
ATOM      4  C3A BZF d   1       2.925  -1.316   2.172  0.00  0.00    -0.107 A 
ATOM      5  C4  BZF d   1       3.164  -2.643   2.388  0.00  0.00     0.055 A 
ATOM      6  C5  BZF d   1       2.655  -3.233   3.501  0.00  0.00    -0.016 A 
ATOM      7  C6  BZF d   1       1.908  -2.526   4.421  0.00  0.00     0.022 A 
ATOM      8  C7  BZF d   1       1.640  -1.208   4.246  0.00  0.00     0.029 A 
ATOM      9  C7A BZF d   1       2.126  -0.617   3.106  0.00  0.00     0.058 A 
ENDROOT
TORSDOF 0
ENDMDL
