MODEL 1
REMARK minimizedAffinity 11.0720387
REMARK minimizedRMSD -1
REMARK  0 active torsions:
REMARK  status: ('A' for Active; 'I' for Inactive)
ROOT
ATOM      1  O1  BZF d   1       1.983  -0.163   4.814  0.00  0.00    -0.204 OA
ATOM      2  C2  BZF d   1       1.980  -1.355   4.114  0.00  0.00     0.174 A 
ATOM      3  C3  BZF d   1       2.294  -1.150   2.819  0.00  0.00    -0.012 A 
ATOM      4  C3A BZF d   1       2.596   0.245   2.721  0.00  0.00    -0.107 A 
ATOM      5  C4  BZF d   1       2.991   1.050   1.691  0.00  0.00     0.055 A 
ATOM      6  C5  BZF d   1       3.131   2.384   1.911  0.00  0.00    -0.016 A 
ATOM      7  C6  BZF d   1       2.880   2.946   3.146  0.00  0.00     0.022 A 
ATOM      8  C7  BZF d   1       2.492   2.187   4.199  0.00  0.00     0.029 A 
ATOM      9  C7A BZF d   1       2.381   0.834   3.988  0.00  0.00     0.058 A 
ENDROOT
TORSDOF 0
ENDMDL
