MODEL 1
REMARK minimizedAffinity 4.49907732
REMARK minimizedRMSD -1
REMARK  0 active torsions:
REMARK  status: ('A' for Active; 'I' for Inactive)
ROOT
ATOM      1  O1  BZF d   1       2.349   0.284   3.238  0.00  0.00    -0.204 OA
ATOM      2  C2  BZF d   1       2.641   0.488   1.903  0.00  0.00     0.174 A 
ATOM      3  C3  BZF d   1       2.835  -0.687   1.271  0.00  0.00    -0.012 A 
ATOM      4  C3A BZF d   1       2.563  -1.692   2.252  0.00  0.00    -0.107 A 
ATOM      5  C4  BZF d   1       2.569  -3.057   2.224  0.00  0.00     0.055 A 
ATOM      6  C5  BZF d   1       2.328  -3.742   3.372  0.00  0.00    -0.016 A 
ATOM      7  C6  BZF d   1       2.082  -3.095   4.566  0.00  0.00     0.022 A 
ATOM      8  C7  BZF d   1       2.060  -1.742   4.642  0.00  0.00     0.029 A 
ATOM      9  C7A BZF d   1       2.271  -1.047   3.476  0.00  0.00     0.058 A 
ENDROOT
TORSDOF 0
ENDMDL
