MODEL 1
REMARK minimizedAffinity 4.9901123
REMARK minimizedRMSD -1
REMARK  0 active torsions:
REMARK  status: ('A' for Active; 'I' for Inactive)
ROOT
ATOM      1  O1  BZF d   1       1.113  -2.878   3.650  0.00  0.00    -0.204 OA
ATOM      2  C2  BZF d   1       1.849  -3.837   4.318  0.00  0.00     0.174 A 
ATOM      3  C3  BZF d   1       3.171  -3.620   4.163  0.00  0.00    -0.012 A 
ATOM      4  C3A BZF d   1       3.268  -2.399   3.424  0.00  0.00    -0.107 A 
ATOM      5  C4  BZF d   1       4.321  -1.655   2.974  0.00  0.00     0.055 A 
ATOM      6  C5  BZF d   1       4.075  -0.552   2.220  0.00  0.00    -0.016 A 
ATOM      7  C6  BZF d   1       2.792  -0.167   1.893  0.00  0.00     0.022 A 
ATOM      8  C7  BZF d   1       1.715  -0.870   2.321  0.00  0.00     0.029 A 
ATOM      9  C7A BZF d   1       1.959  -1.967   3.111  0.00  0.00     0.058 A 
ENDROOT
TORSDOF 0
ENDMDL
