MODEL 1
REMARK minimizedAffinity 13.2599325
REMARK minimizedRMSD -1
REMARK  0 active torsions:
REMARK  status: ('A' for Active; 'I' for Inactive)
ROOT
ATOM      1  O1  BZF d   1       1.895  -0.653   3.839  0.00  0.00    -0.204 OA
ATOM      2  C2  BZF d   1       2.446  -0.247   2.639  0.00  0.00     0.174 A 
ATOM      3  C3  BZF d   1       2.939  -1.301   1.957  0.00  0.00    -0.012 A 
ATOM      4  C3A BZF d   1       2.598  -2.449   2.741  0.00  0.00    -0.107 A 
ATOM      5  C4  BZF d   1       2.802  -3.789   2.581  0.00  0.00     0.055 A 
ATOM      6  C5  BZF d   1       2.410  -4.640   3.565  0.00  0.00    -0.016 A 
ATOM      7  C6  BZF d   1       1.816  -4.184   4.724  0.00  0.00     0.022 A 
ATOM      8  C7  BZF d   1       1.588  -2.863   4.926  0.00  0.00     0.029 A 
ATOM      9  C7A BZF d   1       1.954  -2.005   3.919  0.00  0.00     0.058 A 
ENDROOT
TORSDOF 0
ENDMDL
