MODEL 1
REMARK minimizedAffinity 7.92417145
REMARK minimizedRMSD -1
REMARK  0 active torsions:
REMARK  status: ('A' for Active; 'I' for Inactive)
ROOT
ATOM      1  O1  BZF d   1       1.758  -0.356   3.730  0.00  0.00    -0.204 OA
ATOM      2  C2  BZF d   1       1.831  -0.353   2.351  0.00  0.00     0.174 A 
ATOM      3  C3  BZF d   1       2.528  -1.420   1.907  0.00  0.00    -0.012 A 
ATOM      4  C3A BZF d   1       2.834  -2.183   3.077  0.00  0.00    -0.107 A 
ATOM      5  C4  BZF d   1       3.495  -3.360   3.284  0.00  0.00     0.055 A 
ATOM      6  C5  BZF d   1       3.685  -3.796   4.557  0.00  0.00    -0.016 A 
ATOM      7  C6  BZF d   1       3.233  -3.079   5.645  0.00  0.00     0.022 A 
ATOM      8  C7  BZF d   1       2.567  -1.908   5.490  0.00  0.00     0.029 A 
ATOM      9  C7A BZF d   1       2.345  -1.482   4.203  0.00  0.00     0.058 A 
ENDROOT
TORSDOF 0
ENDMDL
