MODEL 1
REMARK minimizedAffinity 6.697577
REMARK minimizedRMSD -1
REMARK  0 active torsions:
REMARK  status: ('A' for Active; 'I' for Inactive)
ROOT
ATOM      1  O1  BZF d   1       1.612  -0.332   2.552  0.00  0.00    -0.204 OA
ATOM      2  C2  BZF d   1       2.200  -0.354   1.302  0.00  0.00     0.174 A 
ATOM      3  C3  BZF d   1       2.841  -1.522   1.096  0.00  0.00    -0.012 A 
ATOM      4  C3A BZF d   1       2.564  -2.314   2.256  0.00  0.00    -0.107 A 
ATOM      5  C4  BZF d   1       2.912  -3.579   2.634  0.00  0.00     0.055 A 
ATOM      6  C5  BZF d   1       2.540  -4.027   3.861  0.00  0.00    -0.016 A 
ATOM      7  C6  BZF d   1       1.825  -3.236   4.737  0.00  0.00     0.022 A 
ATOM      8  C7  BZF d   1       1.453  -1.976   4.405  0.00  0.00     0.029 A 
ATOM      9  C7A BZF d   1       1.799  -1.532   3.152  0.00  0.00     0.058 A 
ENDROOT
TORSDOF 0
ENDMDL
