MODEL 1
REMARK minimizedAffinity 14.9666233
REMARK minimizedRMSD -1
REMARK  0 active torsions:
REMARK  status: ('A' for Active; 'I' for Inactive)
ROOT
ATOM      1  O1  BZF d   1      -2.202   2.625   2.216  0.00  0.00    -0.204 OA
ATOM      2  C2  BZF d   1      -1.536   3.213   1.158  0.00  0.00     0.174 A 
ATOM      3  C3  BZF d   1      -2.406   3.813   0.320  0.00  0.00    -0.012 A 
ATOM      4  C3A BZF d   1      -3.688   3.665   0.939  0.00  0.00    -0.107 A 
ATOM      5  C4  BZF d   1      -4.948   4.066   0.597  0.00  0.00     0.055 A 
ATOM      6  C5  BZF d   1      -5.994   3.697   1.381  0.00  0.00    -0.016 A 
ATOM      7  C6  BZF d   1      -5.818   2.925   2.511  0.00  0.00     0.022 A 
ATOM      8  C7  BZF d   1      -4.586   2.508   2.894  0.00  0.00     0.029 A 
ATOM      9  C7A BZF d   1      -3.523   2.906   2.121  0.00  0.00     0.058 A 
ENDROOT
TORSDOF 0
ENDMDL
