MODEL 1
REMARK minimizedAffinity -3.85027766
REMARK minimizedRMSD -1
REMARK  1 active torsions:
REMARK  status: ('A' for Active; 'I' for Inactive)
REMARK    1  A    between atoms: C3_4  and  O_7 
ROOT
ATOM      1  C   UNL d   1      -0.628   0.021   1.324  0.00  0.00    -0.033 A 
ATOM      2  C1  UNL d   1      -1.116  -1.101   0.653  0.00  0.00     0.039 A 
ATOM      3  C2  UNL d   1      -0.841  -1.279  -0.704  0.00  0.00    -0.080 A 
ATOM      4  C3  UNL d   1      -0.077  -0.330  -1.377  0.00  0.00     0.150 A 
ATOM      5  C4  UNL d   1       0.416   0.789  -0.713  0.00  0.00    -0.007 A 
ATOM      6  C5  UNL d   1       0.139   0.966   0.642  0.00  0.00     0.039 A 
ENDROOT
BRANCH   4   7
ATOM      7  O   UNL d   1       0.213  -0.458  -2.703  0.00  0.00    -0.526 OA
ATOM      8  H5  UNL d   1      -0.217  -1.263  -3.036  0.00  0.00     0.418 HD
ENDBRANCH   4   7
TORSDOF 1
ENDMDL
