MODEL 1
REMARK minimizedAffinity -2.0551126
REMARK minimizedRMSD -1
REMARK  1 active torsions:
REMARK  status: ('A' for Active; 'I' for Inactive)
REMARK    1  A    between atoms: C3_4  and  O_7 
ROOT
ATOM      1  C   UNL d   1       1.093  -1.785  -0.411  0.00  0.00    -0.033 A 
ATOM      2  C1  UNL d   1       0.305  -0.884   0.307  0.00  0.00     0.039 A 
ATOM      3  C2  UNL d   1      -0.880  -1.313   0.907  0.00  0.00    -0.080 A 
ATOM      4  C3  UNL d   1      -1.265  -2.646   0.783  0.00  0.00     0.150 A 
ATOM      5  C4  UNL d   1      -0.482  -3.550   0.072  0.00  0.00    -0.007 A 
ATOM      6  C5  UNL d   1       0.700  -3.119  -0.527  0.00  0.00     0.039 A 
ENDROOT
BRANCH   4   7
ATOM      7  O   UNL d   1      -2.415  -3.111   1.347  0.00  0.00    -0.526 OA
ATOM      8  H5  UNL d   1      -2.867  -2.368   1.782  0.00  0.00     0.418 HD
ENDBRANCH   4   7
TORSDOF 1
ENDMDL
