MODEL 1
REMARK minimizedAffinity -4.58783293
REMARK minimizedRMSD -1
REMARK  1 active torsions:
REMARK  status: ('A' for Active; 'I' for Inactive)
REMARK    1  A    between atoms: C3_4  and  O_7 
ROOT
ATOM      1  C   UNL d   1       0.276   0.691  -0.860  0.00  0.00    -0.033 A 
ATOM      2  C1  UNL d   1       0.767  -0.288  -1.726  0.00  0.00     0.039 A 
ATOM      3  C2  UNL d   1       0.783  -1.627  -1.331  0.00  0.00    -0.080 A 
ATOM      4  C3  UNL d   1       0.305  -1.973  -0.070  0.00  0.00     0.150 A 
ATOM      5  C4  UNL d   1      -0.189  -1.003   0.796  0.00  0.00    -0.007 A 
ATOM      6  C5  UNL d   1      -0.203   0.334   0.400  0.00  0.00     0.039 A 
ENDROOT
BRANCH   4   7
ATOM      7  O   UNL d   1       0.305  -3.266   0.362  0.00  0.00    -0.526 OA
ATOM      8  H5  UNL d   1       0.701  -3.822  -0.330  0.00  0.00     0.418 HD
ENDBRANCH   4   7
TORSDOF 1
ENDMDL
