MODEL 1
REMARK minimizedAffinity -3.19273734
REMARK minimizedRMSD -1
REMARK  1 active torsions:
REMARK  status: ('A' for Active; 'I' for Inactive)
REMARK    1  A    between atoms: C3_4  and  O_7 
ROOT
ATOM      1  C   UNL d   1      -0.425  -2.251  -0.072  0.00  0.00    -0.033 A 
ATOM      2  C1  UNL d   1      -0.906  -1.523   1.017  0.00  0.00     0.039 A 
ATOM      3  C2  UNL d   1      -0.707  -0.143   1.080  0.00  0.00    -0.080 A 
ATOM      4  C3  UNL d   1      -0.027   0.497   0.047  0.00  0.00     0.150 A 
ATOM      5  C4  UNL d   1       0.452  -0.222  -1.043  0.00  0.00    -0.007 A 
ATOM      6  C5  UNL d   1       0.254  -1.601  -1.103  0.00  0.00     0.039 A 
ENDROOT
BRANCH   4   7
ATOM      7  O   UNL d   1       0.196   1.842   0.066  0.00  0.00    -0.526 OA
ATOM      8  H5  UNL d   1      -0.166   2.202   0.893  0.00  0.00     0.418 HD
ENDBRANCH   4   7
TORSDOF 1
ENDMDL
