MODEL 1
REMARK minimizedAffinity -0.722941935
REMARK minimizedRMSD -1
REMARK  1 active torsions:
REMARK  status: ('A' for Active; 'I' for Inactive)
REMARK    1  A    between atoms: C3_4  and  O_7 
ROOT
ATOM      1  C   UNL d   1       5.735  -2.936   6.000  0.00  0.00    -0.033 A 
ATOM      2  C1  UNL d   1       5.571  -4.249   5.553  0.00  0.00     0.039 A 
ATOM      3  C2  UNL d   1       5.618  -4.535   4.188  0.00  0.00    -0.080 A 
ATOM      4  C3  UNL d   1       5.831  -3.501   3.280  0.00  0.00     0.150 A 
ATOM      5  C4  UNL d   1       6.000  -2.191   3.718  0.00  0.00    -0.007 A 
ATOM      6  C5  UNL d   1       5.951  -1.908   5.082  0.00  0.00     0.039 A 
ENDROOT
BRANCH   4   7
ATOM      7  O   UNL d   1       5.881  -3.730   1.937  0.00  0.00    -0.526 OA
ATOM      8  H5  UNL d   1       5.720  -4.676   1.780  0.00  0.00     0.418 HD
ENDBRANCH   4   7
TORSDOF 1
ENDMDL
