MODEL 1
REMARK minimizedAffinity -4.13413715
REMARK minimizedRMSD -1
REMARK  1 active torsions:
REMARK  status: ('A' for Active; 'I' for Inactive)
REMARK    1  A    between atoms: C3_4  and  O_7 
ROOT
ATOM      1  C   UNL d   1      -0.739   1.058  -0.390  0.00  0.00    -0.033 A 
ATOM      2  C1  UNL d   1       0.026   0.252  -1.235  0.00  0.00     0.039 A 
ATOM      3  C2  UNL d   1       0.146  -1.115  -0.978  0.00  0.00    -0.080 A 
ATOM      4  C3  UNL d   1      -0.503  -1.663   0.125  0.00  0.00     0.150 A 
ATOM      5  C4  UNL d   1      -1.271  -0.866   0.969  0.00  0.00    -0.007 A 
ATOM      6  C5  UNL d   1      -1.389   0.499   0.711  0.00  0.00     0.039 A 
ENDROOT
BRANCH   4   7
ATOM      7  O   UNL d   1      -0.412  -2.991   0.419  0.00  0.00    -0.526 OA
ATOM      8  H5  UNL d   1       0.174  -3.411  -0.233  0.00  0.00     0.418 HD
ENDBRANCH   4   7
TORSDOF 1
ENDMDL
