MODEL 1
REMARK minimizedAffinity -3.01768875
REMARK minimizedRMSD -1
REMARK  1 active torsions:
REMARK  status: ('A' for Active; 'I' for Inactive)
REMARK    1  A    between atoms: C3_4  and  O_7 
ROOT
ATOM      1  C   UNL d   1      -0.835  -2.975  -0.342  0.00  0.00    -0.033 A 
ATOM      2  C1  UNL d   1      -0.312  -2.503  -1.547  0.00  0.00     0.039 A 
ATOM      3  C2  UNL d   1       0.106  -1.175  -1.656  0.00  0.00    -0.080 A 
ATOM      4  C3  UNL d   1      -0.003  -0.332  -0.554  0.00  0.00     0.150 A 
ATOM      5  C4  UNL d   1      -0.519  -0.797   0.651  0.00  0.00    -0.007 A 
ATOM      6  C5  UNL d   1      -0.937  -2.123   0.758  0.00  0.00     0.039 A 
ENDROOT
BRANCH   4   7
ATOM      7  O   UNL d   1       0.388   0.973  -0.614  0.00  0.00    -0.526 OA
ATOM      8  H5  UNL d   1       0.696   1.161  -1.516  0.00  0.00     0.418 HD
ENDBRANCH   4   7
TORSDOF 1
ENDMDL
