MODEL 1
REMARK minimizedAffinity -1.56079292
REMARK minimizedRMSD -1
REMARK  1 active torsions:
REMARK  status: ('A' for Active; 'I' for Inactive)
REMARK    1  A    between atoms: C3_4  and  O_7 
ROOT
ATOM      1  C   UNL d   1       0.092   0.900  -1.208  0.00  0.00    -0.033 A 
ATOM      2  C1  UNL d   1      -0.351   1.007   0.111  0.00  0.00     0.039 A 
ATOM      3  C2  UNL d   1      -0.779  -0.129   0.801  0.00  0.00    -0.080 A 
ATOM      4  C3  UNL d   1      -0.757  -1.365   0.161  0.00  0.00     0.150 A 
ATOM      5  C4  UNL d   1      -0.313  -1.480  -1.152  0.00  0.00    -0.007 A 
ATOM      6  C5  UNL d   1       0.113  -0.345  -1.840  0.00  0.00     0.039 A 
ENDROOT
BRANCH   4   7
ATOM      7  O   UNL d   1      -1.170  -2.501   0.791  0.00  0.00    -0.526 OA
ATOM      8  H5  UNL d   1      -1.476  -2.264   1.683  0.00  0.00     0.418 HD
ENDBRANCH   4   7
TORSDOF 1
ENDMDL
