MODEL 1
REMARK minimizedAffinity -2.87586045
REMARK minimizedRMSD -1
REMARK  1 active torsions:
REMARK  status: ('A' for Active; 'I' for Inactive)
REMARK    1  A    between atoms: C3_4  and  O_7 
ROOT
ATOM      1  C   UNL d   1       2.320   3.859   0.919  0.00  0.00    -0.033 A 
ATOM      2  C1  UNL d   1       1.034   3.820   0.376  0.00  0.00     0.039 A 
ATOM      3  C2  UNL d   1       0.410   2.593   0.143  0.00  0.00    -0.080 A 
ATOM      4  C3  UNL d   1       1.080   1.414   0.458  0.00  0.00     0.150 A 
ATOM      5  C4  UNL d   1       2.360   1.446   1.003  0.00  0.00    -0.007 A 
ATOM      6  C5  UNL d   1       2.982   2.672   1.234  0.00  0.00     0.039 A 
ENDROOT
BRANCH   4   7
ATOM      7  O   UNL d   1       0.513   0.193   0.244  0.00  0.00    -0.526 OA
ATOM      8  H5  UNL d   1      -0.359   0.326  -0.163  0.00  0.00     0.418 HD
ENDBRANCH   4   7
TORSDOF 1
ENDMDL
