MODEL 1
REMARK minimizedAffinity -3.93874478
REMARK minimizedRMSD -1
REMARK  1 active torsions:
REMARK  status: ('A' for Active; 'I' for Inactive)
REMARK    1  A    between atoms: C3_4  and  O_7 
ROOT
ATOM      1  C   UNL d   1      -0.783  -0.990   1.208  0.00  0.00    -0.033 A 
ATOM      2  C1  UNL d   1      -0.221  -0.137   0.257  0.00  0.00     0.039 A 
ATOM      3  C2  UNL d   1       0.089  -0.617  -1.017  0.00  0.00    -0.080 A 
ATOM      4  C3  UNL d   1      -0.169  -1.949  -1.327  0.00  0.00     0.150 A 
ATOM      5  C4  UNL d   1      -0.733  -2.804  -0.385  0.00  0.00    -0.007 A 
ATOM      6  C5  UNL d   1      -1.041  -2.323   0.887  0.00  0.00     0.039 A 
ENDROOT
BRANCH   4   7
ATOM      7  O   UNL d   1       0.120  -2.464  -2.556  0.00  0.00    -0.526 OA
ATOM      8  H5  UNL d   1       0.532  -1.767  -3.093  0.00  0.00     0.418 HD
ENDBRANCH   4   7
TORSDOF 1
ENDMDL
