MODEL 1
REMARK minimizedAffinity -3.19323516
REMARK minimizedRMSD -1
REMARK  1 active torsions:
REMARK  status: ('A' for Active; 'I' for Inactive)
REMARK    1  A    between atoms: C3_4  and  O_7 
ROOT
ATOM      1  C   UNL d   1      -0.547   1.122   0.001  0.00  0.00    -0.033 A 
ATOM      2  C1  UNL d   1      -1.115   0.541   1.136  0.00  0.00     0.039 A 
ATOM      3  C2  UNL d   1      -1.037  -0.840   1.329  0.00  0.00    -0.080 A 
ATOM      4  C3  UNL d   1      -0.389  -1.626   0.380  0.00  0.00     0.150 A 
ATOM      5  C4  UNL d   1       0.181  -1.053  -0.752  0.00  0.00    -0.007 A 
ATOM      6  C5  UNL d   1       0.102   0.325  -0.943  0.00  0.00     0.039 A 
ENDROOT
BRANCH   4   7
ATOM      7  O   UNL d   1      -0.292  -2.979   0.522  0.00  0.00    -0.526 OA
ATOM      8  H5  UNL d   1      -0.757  -3.237   1.336  0.00  0.00     0.418 HD
ENDBRANCH   4   7
TORSDOF 1
ENDMDL
