MODEL 1
REMARK minimizedAffinity -2.42346907
REMARK minimizedRMSD -1
REMARK  1 active torsions:
REMARK  status: ('A' for Active; 'I' for Inactive)
REMARK    1  A    between atoms: C3_4  and  O_7 
ROOT
ATOM      1  C   UNL d   1      -0.690  -2.119   0.420  0.00  0.00    -0.033 A 
ATOM      2  C1  UNL d   1      -0.923  -1.419   1.605  0.00  0.00     0.039 A 
ATOM      3  C2  UNL d   1      -0.548  -0.078   1.711  0.00  0.00    -0.080 A 
ATOM      4  C3  UNL d   1       0.057   0.550   0.626  0.00  0.00     0.150 A 
ATOM      5  C4  UNL d   1       0.289  -0.141  -0.559  0.00  0.00    -0.007 A 
ATOM      6  C5  UNL d   1      -0.085  -1.480  -0.663  0.00  0.00     0.039 A 
ENDROOT
BRANCH   4   7
ATOM      7  O   UNL d   1       0.445   1.856   0.683  0.00  0.00    -0.526 OA
ATOM      8  H5  UNL d   1       0.248   2.196   1.572  0.00  0.00     0.418 HD
ENDBRANCH   4   7
TORSDOF 1
ENDMDL
