MODEL 1
REMARK minimizedAffinity -0.626074076
REMARK minimizedRMSD -1
REMARK  1 active torsions:
REMARK  status: ('A' for Active; 'I' for Inactive)
REMARK    1  A    between atoms: C3_4  and  O_7 
ROOT
ATOM      1  C   UNL d   1       0.003   1.150  -0.089  0.00  0.00    -0.033 A 
ATOM      2  C1  UNL d   1      -0.694   0.868   1.087  0.00  0.00     0.039 A 
ATOM      3  C2  UNL d   1      -1.009  -0.452   1.415  0.00  0.00    -0.080 A 
ATOM      4  C3  UNL d   1      -0.622  -1.479   0.559  0.00  0.00     0.150 A 
ATOM      5  C4  UNL d   1       0.076  -1.206  -0.613  0.00  0.00    -0.007 A 
ATOM      6  C5  UNL d   1       0.389   0.113  -0.939  0.00  0.00     0.039 A 
ENDROOT
BRANCH   4   7
ATOM      7  O   UNL d   1      -0.911  -2.783   0.833  0.00  0.00    -0.526 OA
ATOM      8  H5  UNL d   1      -1.421  -2.817   1.660  0.00  0.00     0.418 HD
ENDBRANCH   4   7
TORSDOF 1
ENDMDL
