MODEL 1
REMARK minimizedAffinity -4.35931063
REMARK minimizedRMSD -1
REMARK  1 active torsions:
REMARK  status: ('A' for Active; 'I' for Inactive)
REMARK    1  A    between atoms: C3_4  and  O_7 
ROOT
ATOM      1  C   UNL d   1       0.064   0.609  -1.725  0.00  0.00    -0.033 A 
ATOM      2  C1  UNL d   1      -0.468   0.944  -0.478  0.00  0.00     0.039 A 
ATOM      3  C2  UNL d   1      -0.744  -0.055   0.457  0.00  0.00    -0.080 A 
ATOM      4  C3  UNL d   1      -0.482  -1.384   0.134  0.00  0.00     0.150 A 
ATOM      5  C4  UNL d   1       0.051  -1.725  -1.105  0.00  0.00    -0.007 A 
ATOM      6  C5  UNL d   1       0.325  -0.726  -2.038  0.00  0.00     0.039 A 
ENDROOT
BRANCH   4   7
ATOM      7  O   UNL d   1      -0.739  -2.395   1.012  0.00  0.00    -0.526 OA
ATOM      8  H5  UNL d   1      -1.132  -2.013   1.815  0.00  0.00     0.418 HD
ENDBRANCH   4   7
TORSDOF 1
ENDMDL
