MODEL 1
REMARK minimizedAffinity 1.35607934
REMARK minimizedRMSD -1
REMARK  0 active torsions:
REMARK  status: ('A' for Active; 'I' for Inactive)
ROOT
ATOM      1  C1  BNZ d   1      -2.886   1.897  -0.119  0.00  0.00     0.000 A 
ATOM      2  C2  BNZ d   1      -1.933   2.609  -0.797  0.00  0.00     0.000 A 
ATOM      3  C3  BNZ d   1      -0.632   2.615  -0.375  0.00  0.00     0.000 A 
ATOM      4  C4  BNZ d   1      -0.295   1.944   0.745  0.00  0.00     0.000 A 
ATOM      5  C5  BNZ d   1      -1.247   1.229   1.444  0.00  0.00     0.000 A 
ATOM      6  C6  BNZ d   1      -2.547   1.193   0.995  0.00  0.00     0.000 A 
ENDROOT
TORSDOF 0
ENDMDL
