MODEL 1
REMARK minimizedAffinity -1.0673331
REMARK minimizedRMSD -1
REMARK  0 active torsions:
REMARK  status: ('A' for Active; 'I' for Inactive)
ROOT
ATOM      1  C1  BNZ d   1      -1.788   2.355  -0.344  0.00  0.00     0.000 A 
ATOM      2  C2  BNZ d   1      -0.539   2.057   0.132  0.00  0.00     0.000 A 
ATOM      3  C3  BNZ d   1      -0.294   0.867   0.758  0.00  0.00     0.000 A 
ATOM      4  C4  BNZ d   1      -1.305  -0.005   0.944  0.00  0.00     0.000 A 
ATOM      5  C5  BNZ d   1      -2.573   0.285   0.479  0.00  0.00     0.000 A 
ATOM      6  C6  BNZ d   1      -2.807   1.467  -0.186  0.00  0.00     0.000 A 
ENDROOT
TORSDOF 0
ENDMDL
