MODEL 1
REMARK minimizedAffinity -5.30924511
REMARK minimizedRMSD -1
REMARK  0 active torsions:
REMARK  status: ('A' for Active; 'I' for Inactive)
ROOT
ATOM      1  C1  BNZ d   1      -2.420   1.255   0.343  0.00  0.00     0.000 A 
ATOM      2  C2  BNZ d   1      -1.470   2.113  -0.142  0.00  0.00     0.000 A 
ATOM      3  C3  BNZ d   1      -0.146   1.922   0.140  0.00  0.00     0.000 A 
ATOM      4  C4  BNZ d   1       0.222   0.899   0.938  0.00  0.00     0.000 A 
ATOM      5  C5  BNZ d   1      -0.726   0.031   1.443  0.00  0.00     0.000 A 
ATOM      6  C6  BNZ d   1      -2.054   0.203   1.125  0.00  0.00     0.000 A 
ENDROOT
TORSDOF 0
ENDMDL
