MODEL 1
REMARK minimizedAffinity -1.62919164
REMARK minimizedRMSD -1
REMARK  0 active torsions:
REMARK  status: ('A' for Active; 'I' for Inactive)
ROOT
ATOM      1  C1  BNZ d   1      -1.477   0.164   0.836  0.00  0.00     0.000 A 
ATOM      2  C2  BNZ d   1      -2.676   0.331   0.198  0.00  0.00     0.000 A 
ATOM      3  C3  BNZ d   1      -2.984   1.513  -0.417  0.00  0.00     0.000 A 
ATOM      4  C4  BNZ d   1      -2.110   2.538  -0.357  0.00  0.00     0.000 A 
ATOM      5  C5  BNZ d   1      -0.900   2.388   0.291  0.00  0.00     0.000 A 
ATOM      6  C6  BNZ d   1      -0.577   1.185   0.875  0.00  0.00     0.000 A 
ENDROOT
TORSDOF 0
ENDMDL
