MODEL 1
REMARK minimizedAffinity -2.88828325
REMARK minimizedRMSD -1
REMARK  0 active torsions:
REMARK  status: ('A' for Active; 'I' for Inactive)
ROOT
ATOM      1  C1  BNZ d   1      -0.055   0.100   1.348  0.00  0.00     0.000 A 
ATOM      2  C2  BNZ d   1       0.376   1.206   0.666  0.00  0.00     0.000 A 
ATOM      3  C3  BNZ d   1      -0.506   1.990  -0.025  0.00  0.00     0.000 A 
ATOM      4  C4  BNZ d   1      -1.809   1.645  -0.065  0.00  0.00     0.000 A 
ATOM      5  C5  BNZ d   1      -2.258   0.527   0.610  0.00  0.00     0.000 A 
ATOM      6  C6  BNZ d   1      -1.374  -0.237   1.336  0.00  0.00     0.000 A 
ENDROOT
TORSDOF 0
ENDMDL
