MODEL 1
REMARK minimizedAffinity -2.26568055
REMARK minimizedRMSD -1
REMARK  0 active torsions:
REMARK  status: ('A' for Active; 'I' for Inactive)
ROOT
ATOM      1  C1  BNZ d   1      -3.128   1.722   0.472  0.00  0.00     0.000 A 
ATOM      2  C2  BNZ d   1      -1.892   2.168   0.087  0.00  0.00     0.000 A 
ATOM      3  C3  BNZ d   1      -0.781   1.392   0.266  0.00  0.00     0.000 A 
ATOM      4  C4  BNZ d   1      -0.901   0.190   0.864  0.00  0.00     0.000 A 
ATOM      5  C5  BNZ d   1      -2.139  -0.270   1.266  0.00  0.00     0.000 A 
ATOM      6  C6  BNZ d   1      -3.261   0.497   1.050  0.00  0.00     0.000 A 
ENDROOT
TORSDOF 0
ENDMDL
