MODEL 1
REMARK minimizedAffinity -1.83635592
REMARK minimizedRMSD -1
REMARK  0 active torsions:
REMARK  status: ('A' for Active; 'I' for Inactive)
ROOT
ATOM      1  C1  BNZ d   1      -0.327   1.512   0.395  0.00  0.00     0.000 A 
ATOM      2  C2  BNZ d   1      -0.602   0.381   1.117  0.00  0.00     0.000 A 
ATOM      3  C3  BNZ d   1      -1.887  -0.065   1.256  0.00  0.00     0.000 A 
ATOM      4  C4  BNZ d   1      -2.897   0.640   0.708  0.00  0.00     0.000 A 
ATOM      5  C5  BNZ d   1      -2.637   1.787  -0.016  0.00  0.00     0.000 A 
ATOM      6  C6  BNZ d   1      -1.339   2.212  -0.186  0.00  0.00     0.000 A 
ENDROOT
TORSDOF 0
ENDMDL
