MODEL 1
REMARK minimizedAffinity -1.05720592
REMARK minimizedRMSD -1
REMARK  0 active torsions:
REMARK  status: ('A' for Active; 'I' for Inactive)
ROOT
ATOM      1  C1  BNZ d   1      -2.736   1.899  -0.134  0.00  0.00     0.000 A 
ATOM      2  C2  BNZ d   1      -1.666   2.724  -0.356  0.00  0.00     0.000 A 
ATOM      3  C3  BNZ d   1      -0.500   2.558   0.336  0.00  0.00     0.000 A 
ATOM      4  C4  BNZ d   1      -0.417   1.595   1.276  0.00  0.00     0.000 A 
ATOM      5  C5  BNZ d   1      -1.491   0.761   1.518  0.00  0.00     0.000 A 
ATOM      6  C6  BNZ d   1      -2.650   0.905   0.792  0.00  0.00     0.000 A 
ENDROOT
TORSDOF 0
ENDMDL
