MODEL 1
REMARK minimizedAffinity -3.97337532
REMARK minimizedRMSD -1
REMARK  0 active torsions:
REMARK  status: ('A' for Active; 'I' for Inactive)
ROOT
ATOM      1  C1  BNZ d   1      -3.174   1.532   0.132  0.00  0.00     0.000 A 
ATOM      2  C2  BNZ d   1      -2.161   2.404  -0.168  0.00  0.00     0.000 A 
ATOM      3  C3  BNZ d   1      -0.875   2.140   0.213  0.00  0.00     0.000 A 
ATOM      4  C4  BNZ d   1      -0.610   1.027   0.927  0.00  0.00     0.000 A 
ATOM      5  C5  BNZ d   1      -1.621   0.142   1.244  0.00  0.00     0.000 A 
ATOM      6  C6  BNZ d   1      -2.908   0.391   0.826  0.00  0.00     0.000 A 
ENDROOT
TORSDOF 0
ENDMDL
