MODEL 1
REMARK minimizedAffinity -1.53000772
REMARK minimizedRMSD -1
REMARK  0 active torsions:
REMARK  status: ('A' for Active; 'I' for Inactive)
ROOT
ATOM      1  C1  BNZ d   1       2.986   1.828   1.434  0.00  0.00     0.000 A 
ATOM      2  C2  BNZ d   1       2.392   0.984   0.534  0.00  0.00     0.000 A 
ATOM      3  C3  BNZ d   1       1.030   0.924   0.425  0.00  0.00     0.000 A 
ATOM      4  C4  BNZ d   1       0.266   1.675   1.243  0.00  0.00     0.000 A 
ATOM      5  C5  BNZ d   1       0.850   2.524   2.163  0.00  0.00     0.000 A 
ATOM      6  C6  BNZ d   1       2.221   2.611   2.243  0.00  0.00     0.000 A 
ENDROOT
TORSDOF 0
ENDMDL
