MODEL 1
REMARK minimizedAffinity 1.37917328
REMARK minimizedRMSD -1
REMARK  0 active torsions:
REMARK  status: ('A' for Active; 'I' for Inactive)
ROOT
ATOM      1  C1  BNZ d   1      -2.438   1.973   0.261  0.00  0.00     0.000 A 
ATOM      2  C2  BNZ d   1      -2.042   0.937   1.064  0.00  0.00     0.000 A 
ATOM      3  C3  BNZ d   1      -2.953   0.045   1.557  0.00  0.00     0.000 A 
ATOM      4  C4  BNZ d   1      -4.262   0.213   1.279  0.00  0.00     0.000 A 
ATOM      5  C5  BNZ d   1      -4.678   1.258   0.478  0.00  0.00     0.000 A 
ATOM      6  C6  BNZ d   1      -3.754   2.131  -0.048  0.00  0.00     0.000 A 
ENDROOT
TORSDOF 0
ENDMDL
