MODEL 1
REMARK minimizedAffinity -1.70309675
REMARK minimizedRMSD -1
REMARK  0 active torsions:
REMARK  status: ('A' for Active; 'I' for Inactive)
ROOT
ATOM      1  C1  BNZ d   1      -0.560   1.534   0.521  0.00  0.00     0.000 A 
ATOM      2  C2  BNZ d   1      -0.440   2.204   1.709  0.00  0.00     0.000 A 
ATOM      3  C3  BNZ d   1       0.769   2.304   2.338  0.00  0.00     0.000 A 
ATOM      4  C4  BNZ d   1       1.848   1.699   1.799  0.00  0.00     0.000 A 
ATOM      5  C5  BNZ d   1       1.742   1.012   0.607  0.00  0.00     0.000 A 
ATOM      6  C6  BNZ d   1       0.530   0.947  -0.043  0.00  0.00     0.000 A 
ENDROOT
TORSDOF 0
ENDMDL
