MODEL 1
REMARK minimizedAffinity -3.82105064
REMARK minimizedRMSD -1
REMARK  0 active torsions:
REMARK  status: ('A' for Active; 'I' for Inactive)
ROOT
ATOM      1  C1  BNZ d   1      -0.084   2.787   1.738  0.00  0.00     0.000 A 
ATOM      2  C2  BNZ d   1      -0.815   1.932   0.958  0.00  0.00     0.000 A 
ATOM      3  C3  BNZ d   1      -0.218   0.875   0.328  0.00  0.00     0.000 A 
ATOM      4  C4  BNZ d   1       1.114   0.699   0.448  0.00  0.00     0.000 A 
ATOM      5  C5  BNZ d   1       1.866   1.558   1.224  0.00  0.00     0.000 A 
ATOM      6  C6  BNZ d   1       1.256   2.597   1.887  0.00  0.00     0.000 A 
ENDROOT
TORSDOF 0
ENDMDL
