MODEL 1
REMARK minimizedAffinity 5.56482315
REMARK minimizedRMSD -1
REMARK  0 active torsions:
REMARK  status: ('A' for Active; 'I' for Inactive)
ROOT
ATOM      1  C1  BNZ d   1      -0.614  -2.389   1.218  0.00  0.00     0.000 A 
ATOM      2  C2  BNZ d   1       0.655  -1.881   1.138  0.00  0.00     0.000 A 
ATOM      3  C3  BNZ d   1       0.875  -0.617   0.665  0.00  0.00     0.000 A 
ATOM      4  C4  BNZ d   1      -0.169   0.121   0.236  0.00  0.00     0.000 A 
ATOM      5  C5  BNZ d   1      -1.454  -0.381   0.302  0.00  0.00     0.000 A 
ATOM      6  C6  BNZ d   1      -1.675  -1.638   0.815  0.00  0.00     0.000 A 
ENDROOT
TORSDOF 0
ENDMDL
