MODEL 1
REMARK minimizedAffinity -2.80886841
REMARK minimizedRMSD -1
REMARK  0 active torsions:
REMARK  status: ('A' for Active; 'I' for Inactive)
ROOT
ATOM      1  C1  BNZ d   1      -0.178  -0.603   1.088  0.00  0.00     0.000 A 
ATOM      2  C2  BNZ d   1      -1.170   0.221   0.627  0.00  0.00     0.000 A 
ATOM      3  C3  BNZ d   1      -0.884   1.252  -0.223  0.00  0.00     0.000 A 
ATOM      4  C4  BNZ d   1       0.396   1.484  -0.579  0.00  0.00     0.000 A 
ATOM      5  C5  BNZ d   1       1.408   0.668  -0.115  0.00  0.00     0.000 A 
ATOM      6  C6  BNZ d   1       1.112  -0.394   0.709  0.00  0.00     0.000 A 
ENDROOT
TORSDOF 0
ENDMDL
