MODEL 1
REMARK minimizedAffinity 9.6262598
REMARK minimizedRMSD -1
REMARK  1 active torsions:
REMARK  status: ('A' for Active; 'I' for Inactive)
REMARK    1  A    between atoms: C1_2  and  C2_3 
ROOT
ATOM      1  C2  UNL d   1       2.076  -1.001  -2.132  0.00  0.00    -0.076 A 
ATOM      2  C3  UNL d   1       1.969  -2.387  -2.341  0.00  0.00     0.004 A 
ATOM      3  C4  UNL d   1       2.539  -3.294  -1.449  0.00  0.00    -0.003 A 
ATOM      4  C5  UNL d   1       3.226  -2.829  -0.332  0.00  0.00     0.000 A 
ATOM      5  C6  UNL d   1       3.327  -1.457  -0.100  0.00  0.00     0.000 A 
ATOM      6  C7  UNL d   1       2.744  -0.531  -0.981  0.00  0.00    -0.073 A 
ATOM      7  C8  UNL d   1       2.889   0.937  -0.685  0.00  0.00     0.078 C 
ENDROOT
BRANCH   1   8
ATOM      8  C1  UNL d   1       1.461  -0.066  -3.148  0.00  0.00     0.053 C 
ATOM      9  C   UNL d   1       1.987  -0.306  -4.554  0.00  0.00     0.018 C 
ENDBRANCH   1   8
TORSDOF 1
ENDMDL
