MODEL 1
REMARK minimizedAffinity 2.43302155
REMARK minimizedRMSD -1
REMARK  1 active torsions:
REMARK  status: ('A' for Active; 'I' for Inactive)
REMARK    1  A    between atoms: C1_2  and  C2_3 
ROOT
ATOM      1  C2  UNL d   1       2.061  -3.103  -1.453  0.00  0.00    -0.076 A 
ATOM      2  C3  UNL d   1       1.320  -2.304  -2.341  0.00  0.00     0.004 A 
ATOM      3  C4  UNL d   1       1.440  -2.464  -3.721  0.00  0.00    -0.003 A 
ATOM      4  C5  UNL d   1       2.302  -3.427  -4.234  0.00  0.00     0.000 A 
ATOM      5  C6  UNL d   1       3.031  -4.240  -3.367  0.00  0.00     0.000 A 
ATOM      6  C7  UNL d   1       2.910  -4.102  -1.974  0.00  0.00    -0.073 A 
ATOM      7  C8  UNL d   1       3.724  -5.002  -1.086  0.00  0.00     0.078 C 
ENDROOT
BRANCH   1   8
ATOM      8  C1  UNL d   1       1.910  -2.864   0.033  0.00  0.00     0.053 C 
ATOM      9  C   UNL d   1       1.453  -1.450   0.353  0.00  0.00     0.018 C 
ENDBRANCH   1   8
TORSDOF 1
ENDMDL
