MODEL 1
REMARK minimizedAffinity 5.69142056
REMARK minimizedRMSD -1
REMARK  1 active torsions:
REMARK  status: ('A' for Active; 'I' for Inactive)
REMARK    1  A    between atoms: C1_2  and  C2_3 
ROOT
ATOM      1  C2  UNL d   1      -5.446  -4.304   2.786  0.00  0.00    -0.076 A 
ATOM      2  C3  UNL d   1      -6.000  -3.028   2.581  0.00  0.00     0.004 A 
ATOM      3  C4  UNL d   1      -5.544  -1.924   3.298  0.00  0.00    -0.003 A 
ATOM      4  C5  UNL d   1      -4.525  -2.077   4.232  0.00  0.00     0.000 A 
ATOM      5  C6  UNL d   1      -3.952  -3.331   4.436  0.00  0.00     0.000 A 
ATOM      6  C7  UNL d   1      -4.389  -4.452   3.709  0.00  0.00    -0.073 A 
ATOM      7  C8  UNL d   1      -3.739  -5.783   3.974  0.00  0.00     0.078 C 
ENDROOT
BRANCH   1   8
ATOM      8  C1  UNL d   1      -5.999  -5.469   1.998  0.00  0.00     0.053 C 
ATOM      9  C   UNL d   1      -5.999  -5.212   0.499  0.00  0.00     0.018 C 
ENDBRANCH   1   8
TORSDOF 1
ENDMDL
