MODEL 1
REMARK minimizedAffinity 2.10025978
REMARK minimizedRMSD -1
REMARK  1 active torsions:
REMARK  status: ('A' for Active; 'I' for Inactive)
REMARK    1  A    between atoms: C1_2  and  C2_3 
ROOT
ATOM      1  C2  UNL d   1      -3.216   1.958   4.457  0.00  0.00    -0.076 A 
ATOM      2  C3  UNL d   1      -4.250   1.102   4.039  0.00  0.00     0.004 A 
ATOM      3  C4  UNL d   1      -4.099   0.289   2.917  0.00  0.00    -0.003 A 
ATOM      4  C5  UNL d   1      -2.911   0.318   2.195  0.00  0.00     0.000 A 
ATOM      5  C6  UNL d   1      -1.868   1.148   2.606  0.00  0.00     0.000 A 
ATOM      6  C7  UNL d   1      -1.998   1.961   3.744  0.00  0.00    -0.073 A 
ATOM      7  C8  UNL d   1      -0.843   2.841   4.139  0.00  0.00     0.078 C 
ENDROOT
BRANCH   1   8
ATOM      8  C1  UNL d   1      -3.447   2.836   5.666  0.00  0.00     0.053 C 
ATOM      9  C   UNL d   1      -4.760   3.600   5.588  0.00  0.00     0.018 C 
ENDBRANCH   1   8
TORSDOF 1
ENDMDL
