MODEL 1
REMARK minimizedAffinity 2.75187564
REMARK minimizedRMSD -1
REMARK  1 active torsions:
REMARK  status: ('A' for Active; 'I' for Inactive)
REMARK    1  A    between atoms: C1_2  and  C2_3 
ROOT
ATOM      1  C2  UNL d   1       2.946  -4.021  -1.693  0.00  0.00    -0.076 A 
ATOM      2  C3  UNL d   1       3.352  -5.206  -2.329  0.00  0.00     0.004 A 
ATOM      3  C4  UNL d   1       3.238  -5.354  -3.710  0.00  0.00    -0.003 A 
ATOM      4  C5  UNL d   1       2.717  -4.318  -4.478  0.00  0.00     0.000 A 
ATOM      5  C6  UNL d   1       2.325  -3.129  -3.865  0.00  0.00     0.000 A 
ATOM      6  C7  UNL d   1       2.448  -2.957  -2.476  0.00  0.00    -0.073 A 
ATOM      7  C8  UNL d   1       2.005  -1.655  -1.867  0.00  0.00     0.078 C 
ENDROOT
BRANCH   1   8
ATOM      8  C1  UNL d   1       3.067  -3.928  -0.188  0.00  0.00     0.053 C 
ATOM      9  C   UNL d   1       4.502  -4.087   0.291  0.00  0.00     0.018 C 
ENDBRANCH   1   8
TORSDOF 1
ENDMDL
