MODEL 1
REMARK minimizedAffinity 11.0155754
REMARK minimizedRMSD -1
REMARK  1 active torsions:
REMARK  status: ('A' for Active; 'I' for Inactive)
REMARK    1  A    between atoms: C1_2  and  C2_3 
ROOT
ATOM      1  C2  UNL d   1       3.862  -4.754  -2.175  0.00  0.00    -0.076 A 
ATOM      2  C3  UNL d   1       2.599  -4.352  -1.708  0.00  0.00     0.004 A 
ATOM      3  C4  UNL d   1       1.660  -3.789  -2.571  0.00  0.00    -0.003 A 
ATOM      4  C5  UNL d   1       1.971  -3.618  -3.916  0.00  0.00     0.000 A 
ATOM      5  C6  UNL d   1       3.213  -4.027  -4.400  0.00  0.00     0.000 A 
ATOM      6  C7  UNL d   1       4.164  -4.612  -3.546  0.00  0.00    -0.073 A 
ATOM      7  C8  UNL d   1       5.490  -5.029  -4.120  0.00  0.00     0.078 C 
ENDROOT
BRANCH   1   8
ATOM      8  C1  UNL d   1       4.849  -5.334  -1.186  0.00  0.00     0.053 C 
ATOM      9  C   UNL d   1       5.104  -4.408  -0.007  0.00  0.00     0.018 C 
ENDBRANCH   1   8
TORSDOF 1
ENDMDL
