MODEL 1
REMARK minimizedAffinity 15.0526476
REMARK minimizedRMSD -1
REMARK  1 active torsions:
REMARK  status: ('A' for Active; 'I' for Inactive)
REMARK    1  A    between atoms: C1_2  and  C2_3 
ROOT
ATOM      1  C2  UNL d   1      -3.535  -0.273   3.830  0.00  0.00    -0.076 A 
ATOM      2  C3  UNL d   1      -3.835  -1.507   3.227  0.00  0.00     0.004 A 
ATOM      3  C4  UNL d   1      -4.027  -2.653   3.996  0.00  0.00    -0.003 A 
ATOM      4  C5  UNL d   1      -3.924  -2.584   5.381  0.00  0.00     0.000 A 
ATOM      5  C6  UNL d   1      -3.645  -1.365   5.997  0.00  0.00     0.000 A 
ATOM      6  C7  UNL d   1      -3.464  -0.197   5.237  0.00  0.00    -0.073 A 
ATOM      7  C8  UNL d   1      -3.159   1.090   5.954  0.00  0.00     0.078 C 
ENDROOT
BRANCH   1   8
ATOM      8  C1  UNL d   1      -3.310   0.931   2.943  0.00  0.00     0.053 C 
ATOM      9  C   UNL d   1      -2.008   0.843   2.161  0.00  0.00     0.018 C 
ENDBRANCH   1   8
TORSDOF 1
ENDMDL
