MODEL 1
REMARK minimizedAffinity 18.1608791
REMARK minimizedRMSD -1
REMARK  1 active torsions:
REMARK  status: ('A' for Active; 'I' for Inactive)
REMARK    1  A    between atoms: C1_2  and  C2_3 
ROOT
ATOM      1  C2  UNL d   1      -3.518   4.113  -5.522  0.00  0.00    -0.076 A 
ATOM      2  C3  UNL d   1      -3.758   2.804  -5.973  0.00  0.00     0.004 A 
ATOM      3  C4  UNL d   1      -2.918   1.753  -5.607  0.00  0.00    -0.003 A 
ATOM      4  C5  UNL d   1      -1.825   1.995  -4.782  0.00  0.00     0.000 A 
ATOM      5  C6  UNL d   1      -1.583   3.284  -4.310  0.00  0.00     0.000 A 
ATOM      6  C7  UNL d   1      -2.429   4.352  -4.657  0.00  0.00    -0.073 A 
ATOM      7  C8  UNL d   1      -2.116   5.723  -4.124  0.00  0.00     0.078 C 
ENDROOT
BRANCH   1   8
ATOM      8  C1  UNL d   1      -4.447   5.217  -5.974  0.00  0.00     0.053 C 
ATOM      9  C   UNL d   1      -5.904   4.781  -5.994  0.00  0.00     0.018 C 
ENDBRANCH   1   8
TORSDOF 1
ENDMDL
