MODEL 1
REMARK minimizedAffinity 16.8129959
REMARK minimizedRMSD -1
REMARK  1 active torsions:
REMARK  status: ('A' for Active; 'I' for Inactive)
REMARK    1  A    between atoms: C1_2  and  C2_3 
ROOT
ATOM      1  C2  UNL d   1      -0.432   2.066   3.721  0.00  0.00    -0.076 A 
ATOM      2  C3  UNL d   1      -0.569   2.488   5.055  0.00  0.00     0.004 A 
ATOM      3  C4  UNL d   1       0.461   2.301   5.976  0.00  0.00    -0.003 A 
ATOM      4  C5  UNL d   1       1.645   1.690   5.578  0.00  0.00     0.000 A 
ATOM      5  C6  UNL d   1       1.805   1.281   4.255  0.00  0.00     0.000 A 
ATOM      6  C7  UNL d   1       0.783   1.476   3.310  0.00  0.00    -0.073 A 
ATOM      7  C8  UNL d   1       1.007   1.010   1.897  0.00  0.00     0.078 C 
ENDROOT
BRANCH   1   8
ATOM      8  C1  UNL d   1      -1.592   2.270   2.774  0.00  0.00     0.053 C 
ATOM      9  C   UNL d   1      -2.848   1.541   3.226  0.00  0.00     0.018 C 
ENDBRANCH   1   8
TORSDOF 1
ENDMDL
