MODEL 1
REMARK minimizedAffinity 17.6959724
REMARK minimizedRMSD -1
REMARK  1 active torsions:
REMARK  status: ('A' for Active; 'I' for Inactive)
REMARK    1  A    between atoms: C1_2  and  C2_3 
ROOT
ATOM      1  C2  UNL d   1      -4.674   0.555   3.795  0.00  0.00    -0.076 A 
ATOM      2  C3  UNL d   1      -5.891   1.105   4.235  0.00  0.00     0.004 A 
ATOM      3  C4  UNL d   1      -6.000   2.463   4.529  0.00  0.00    -0.003 A 
ATOM      4  C5  UNL d   1      -4.894   3.294   4.387  0.00  0.00     0.000 A 
ATOM      5  C6  UNL d   1      -3.684   2.769   3.935  0.00  0.00     0.000 A 
ATOM      6  C7  UNL d   1      -3.561   1.405   3.618  0.00  0.00    -0.073 A 
ATOM      7  C8  UNL d   1      -2.231   0.891   3.141  0.00  0.00     0.078 C 
ENDROOT
BRANCH   1   8
ATOM      8  C1  UNL d   1      -4.609  -0.930   3.517  0.00  0.00     0.053 C 
ATOM      9  C   UNL d   1      -4.489  -1.755   4.789  0.00  0.00     0.018 C 
ENDBRANCH   1   8
TORSDOF 1
ENDMDL
