MODEL 1
REMARK minimizedAffinity 21.3005676
REMARK minimizedRMSD -1
REMARK  1 active torsions:
REMARK  status: ('A' for Active; 'I' for Inactive)
REMARK    1  A    between atoms: C1_2  and  C2_3 
ROOT
ATOM      1  C2  UNL d   1      -4.621   0.422   4.090  0.00  0.00    -0.076 A 
ATOM      2  C3  UNL d   1      -5.854   0.961   4.496  0.00  0.00     0.004 A 
ATOM      3  C4  UNL d   1      -5.996   2.326   4.736  0.00  0.00    -0.003 A 
ATOM      4  C5  UNL d   1      -4.907   3.175   4.573  0.00  0.00     0.000 A 
ATOM      5  C6  UNL d   1      -3.681   2.660   4.154  0.00  0.00     0.000 A 
ATOM      6  C7  UNL d   1      -3.525   1.288   3.892  0.00  0.00    -0.073 A 
ATOM      7  C8  UNL d   1      -2.179   0.786   3.448  0.00  0.00     0.078 C 
ENDROOT
BRANCH   1   8
ATOM      8  C1  UNL d   1      -4.520  -1.071   3.871  0.00  0.00     0.053 C 
ATOM      9  C   UNL d   1      -4.575  -1.856   5.173  0.00  0.00     0.018 C 
ENDBRANCH   1   8
TORSDOF 1
ENDMDL
