MODEL 1
REMARK minimizedAffinity 12.6886883
REMARK minimizedRMSD -1
REMARK  1 active torsions:
REMARK  status: ('A' for Active; 'I' for Inactive)
REMARK    1  A    between atoms: C1_2  and  C2_3 
ROOT
ATOM      1  C2  UNL d   1      -1.186  -3.864  -3.594  0.00  0.00    -0.076 A 
ATOM      2  C3  UNL d   1      -2.185  -3.008  -3.099  0.00  0.00     0.004 A 
ATOM      3  C4  UNL d   1      -3.245  -2.599  -3.907  0.00  0.00    -0.003 A 
ATOM      4  C5  UNL d   1      -3.323  -3.041  -5.223  0.00  0.00     0.000 A 
ATOM      5  C6  UNL d   1      -2.350  -3.904  -5.726  0.00  0.00     0.000 A 
ATOM      6  C7  UNL d   1      -1.284  -4.339  -4.919  0.00  0.00    -0.073 A 
ATOM      7  C8  UNL d   1      -0.260  -5.266  -5.515  0.00  0.00     0.078 C 
ENDROOT
BRANCH   1   8
ATOM      8  C1  UNL d   1      -0.046  -4.252  -2.679  0.00  0.00     0.053 C 
ATOM      9  C   UNL d   1       0.756  -3.050  -2.206  0.00  0.00     0.018 C 
ENDBRANCH   1   8
TORSDOF 1
ENDMDL
