MODEL 1
REMARK minimizedAffinity 22.4164867
REMARK minimizedRMSD -1
REMARK  1 active torsions:
REMARK  status: ('A' for Active; 'I' for Inactive)
REMARK    1  A    between atoms: C1_2  and  C2_3 
ROOT
ATOM      1  C2  UNL d   1      -0.395   1.834   3.713  0.00  0.00    -0.076 A 
ATOM      2  C3  UNL d   1      -0.507   2.256   5.050  0.00  0.00     0.004 A 
ATOM      3  C4  UNL d   1       0.446   1.893   5.999  0.00  0.00    -0.003 A 
ATOM      4  C5  UNL d   1       1.527   1.101   5.629  0.00  0.00     0.000 A 
ATOM      5  C6  UNL d   1       1.664   0.688   4.304  0.00  0.00     0.000 A 
ATOM      6  C7  UNL d   1       0.721   1.059   3.330  0.00  0.00    -0.073 A 
ATOM      7  C8  UNL d   1       0.915   0.580   1.918  0.00  0.00     0.078 C 
ENDROOT
BRANCH   1   8
ATOM      8  C1  UNL d   1      -1.474   2.236   2.733  0.00  0.00     0.053 C 
ATOM      9  C   UNL d   1      -2.834   1.662   3.096  0.00  0.00     0.018 C 
ENDBRANCH   1   8
TORSDOF 1
ENDMDL
