MODEL 1
REMARK minimizedAffinity 12.1030407
REMARK minimizedRMSD -1
REMARK  0 active torsions:
REMARK  status: ('A' for Active; 'I' for Inactive)
ROOT
ATOM      1  C   UNL d   1      -1.794   4.278   0.120  0.00  0.00     0.124 A 
ATOM      2  C1  UNL d   1      -0.503   3.978   0.535  0.00  0.00     0.062 A 
ATOM      3  C2  UNL d   1       0.191   2.921  -0.046  0.00  0.00     0.162 A 
ATOM      4  C3  UNL d   1      -0.403   2.156  -1.049  0.00  0.00    -0.034 A 
ATOM      5  C4  UNL d   1      -1.701   2.462  -1.461  0.00  0.00     0.162 A 
ATOM      6  C5  UNL d   1      -2.391   3.520  -0.877  0.00  0.00     0.062 A 
ATOM      7  F   UNL d   1      -3.638   3.808  -1.280  0.00  0.00    -0.097 F 
ATOM      8  F1  UNL d   1      -2.302   1.747  -2.423  0.00  0.00    -0.096 F 
ATOM      9  I   UNL d   1       0.632   0.574  -1.920  0.00  0.00    -0.060 I 
ATOM     10  F2  UNL d   1       1.436   2.654   0.375  0.00  0.00    -0.096 F 
ATOM     11  F3  UNL d   1       0.076   4.709   1.499  0.00  0.00    -0.097 F 
ATOM     12  F4  UNL d   1      -2.460   5.295   0.681  0.00  0.00    -0.092 F 
ENDROOT
TORSDOF 0
ENDMDL
