MODEL 1
REMARK minimizedAffinity 7.48412514
REMARK minimizedRMSD -1
REMARK  0 active torsions:
REMARK  status: ('A' for Active; 'I' for Inactive)
ROOT
ATOM      1  C   UNL d   1       0.426  -3.774  -1.314  0.00  0.00     0.124 A 
ATOM      2  C1  UNL d   1      -0.159  -2.516  -1.252  0.00  0.00     0.062 A 
ATOM      3  C2  UNL d   1      -0.549  -1.986  -0.025  0.00  0.00     0.162 A 
ATOM      4  C3  UNL d   1      -0.355  -2.713   1.150  0.00  0.00    -0.034 A 
ATOM      5  C4  UNL d   1       0.234  -3.977   1.079  0.00  0.00     0.162 A 
ATOM      6  C5  UNL d   1       0.622  -4.502  -0.150  0.00  0.00     0.062 A 
ATOM      7  F   UNL d   1       1.187  -5.717  -0.208  0.00  0.00    -0.097 F 
ATOM      8  F1  UNL d   1       0.435  -4.702   2.189  0.00  0.00    -0.096 F 
ATOM      9  I   UNL d   1      -0.937  -1.924   2.985  0.00  0.00    -0.060 I 
ATOM     10  F2  UNL d   1      -1.112  -0.769   0.006  0.00  0.00    -0.096 F 
ATOM     11  F3  UNL d   1      -0.350  -1.811  -2.375  0.00  0.00    -0.097 F 
ATOM     12  F4  UNL d   1       0.800  -4.282  -2.496  0.00  0.00    -0.092 F 
ENDROOT
TORSDOF 0
ENDMDL
