MODEL 1
REMARK minimizedAffinity 2.3646493
REMARK minimizedRMSD -1
REMARK  0 active torsions:
REMARK  status: ('A' for Active; 'I' for Inactive)
ROOT
ATOM      1  C   UNL d   1       0.492  -3.450  -2.007  0.00  0.00     0.124 A 
ATOM      2  C1  UNL d   1       0.704  -2.546  -3.039  0.00  0.00     0.062 A 
ATOM      3  C2  UNL d   1       0.404  -1.199  -2.863  0.00  0.00     0.162 A 
ATOM      4  C3  UNL d   1      -0.110  -0.746  -1.648  0.00  0.00    -0.034 A 
ATOM      5  C4  UNL d   1      -0.322  -1.661  -0.615  0.00  0.00     0.162 A 
ATOM      6  C5  UNL d   1      -0.021  -3.006  -0.797  0.00  0.00     0.062 A 
ATOM      7  F   UNL d   1      -0.227  -3.878   0.202  0.00  0.00    -0.097 F 
ATOM      8  F1  UNL d   1      -0.816  -1.259   0.566  0.00  0.00    -0.096 F 
ATOM      9  I   UNL d   1      -0.560   1.269  -1.379  0.00  0.00    -0.060 I 
ATOM     10  F2  UNL d   1       0.620  -0.348  -3.877  0.00  0.00    -0.096 F 
ATOM     11  F3  UNL d   1       1.198  -2.973  -4.211  0.00  0.00    -0.097 F 
ATOM     12  F4  UNL d   1       0.780  -4.746  -2.181  0.00  0.00    -0.092 F 
ENDROOT
TORSDOF 0
ENDMDL
