MODEL 1
REMARK minimizedAffinity -0.671944082
REMARK minimizedRMSD -1
REMARK  0 active torsions:
REMARK  status: ('A' for Active; 'I' for Inactive)
ROOT
ATOM      1  C   UNL d   1       0.422  -2.643  -2.031  0.00  0.00     0.124 A 
ATOM      2  C1  UNL d   1       0.455  -3.706  -1.139  0.00  0.00     0.062 A 
ATOM      3  C2  UNL d   1       0.083  -3.517   0.189  0.00  0.00     0.162 A 
ATOM      4  C3  UNL d   1      -0.326  -2.260   0.634  0.00  0.00    -0.034 A 
ATOM      5  C4  UNL d   1      -0.355  -1.196  -0.269  0.00  0.00     0.162 A 
ATOM      6  C5  UNL d   1       0.017  -1.390  -1.595  0.00  0.00     0.062 A 
ATOM      7  F   UNL d   1      -0.015  -0.361  -2.456  0.00  0.00    -0.097 F 
ATOM      8  F1  UNL d   1      -0.744   0.027   0.124  0.00  0.00    -0.096 F 
ATOM      9  I   UNL d   1      -0.882  -1.973   2.618  0.00  0.00    -0.060 I 
ATOM     10  F2  UNL d   1       0.125  -4.562   1.029  0.00  0.00    -0.096 F 
ATOM     11  F3  UNL d   1       0.847  -4.919  -1.556  0.00  0.00    -0.097 F 
ATOM     12  F4  UNL d   1       0.781  -2.828  -3.308  0.00  0.00    -0.092 F 
ENDROOT
TORSDOF 0
ENDMDL
