MODEL 1
REMARK minimizedAffinity 7.28846169
REMARK minimizedRMSD -1
REMARK  0 active torsions:
REMARK  status: ('A' for Active; 'I' for Inactive)
ROOT
ATOM      1  C   UNL d   1      -0.329  -2.655   0.721  0.00  0.00     0.124 A 
ATOM      2  C1  UNL d   1      -0.470  -1.456   0.035  0.00  0.00     0.062 A 
ATOM      3  C2  UNL d   1      -0.101  -1.369  -1.305  0.00  0.00     0.162 A 
ATOM      4  C3  UNL d   1       0.411  -2.484  -1.968  0.00  0.00    -0.034 A 
ATOM      5  C4  UNL d   1       0.550  -3.686  -1.271  0.00  0.00     0.162 A 
ATOM      6  C5  UNL d   1       0.180  -3.768   0.068  0.00  0.00     0.062 A 
ATOM      7  F   UNL d   1       0.317  -4.926   0.729  0.00  0.00    -0.097 F 
ATOM      8  F1  UNL d   1       1.039  -4.777  -1.878  0.00  0.00    -0.096 F 
ATOM      9  I   UNL d   1       0.963  -2.358  -3.970  0.00  0.00    -0.060 I 
ATOM     10  F2  UNL d   1      -0.248  -0.198  -1.943  0.00  0.00    -0.096 F 
ATOM     11  F3  UNL d   1      -0.961  -0.379   0.664  0.00  0.00    -0.097 F 
ATOM     12  F4  UNL d   1      -0.684  -2.735   2.010  0.00  0.00    -0.092 F 
ENDROOT
TORSDOF 0
ENDMDL
