MODEL 1
REMARK minimizedAffinity 16.2055779
REMARK minimizedRMSD -1
REMARK  0 active torsions:
REMARK  status: ('A' for Active; 'I' for Inactive)
ROOT
ATOM      1  C   UNL d   1      -0.549  -2.700  -3.090  0.00  0.00     0.124 A 
ATOM      2  C1  UNL d   1      -1.786  -2.966  -2.520  0.00  0.00     0.062 A 
ATOM      3  C2  UNL d   1      -1.919  -3.035  -1.136  0.00  0.00     0.162 A 
ATOM      4  C3  UNL d   1      -0.812  -2.837  -0.312  0.00  0.00    -0.034 A 
ATOM      5  C4  UNL d   1       0.430  -2.571  -0.893  0.00  0.00     0.162 A 
ATOM      6  C5  UNL d   1       0.557  -2.502  -2.276  0.00  0.00     0.062 A 
ATOM      7  F   UNL d   1       1.754  -2.245  -2.825  0.00  0.00    -0.097 F 
ATOM      8  F1  UNL d   1       1.515  -2.375  -0.129  0.00  0.00    -0.096 F 
ATOM      9  I   UNL d   1      -1.007  -2.940   1.757  0.00  0.00    -0.060 I 
ATOM     10  F2  UNL d   1      -3.127  -3.294  -0.613  0.00  0.00    -0.096 F 
ATOM     11  F3  UNL d   1      -2.857  -3.158  -3.305  0.00  0.00    -0.097 F 
ATOM     12  F4  UNL d   1      -0.424  -2.634  -4.422  0.00  0.00    -0.092 F 
ENDROOT
TORSDOF 0
ENDMDL
