MODEL 1
REMARK minimizedAffinity 10.4626951
REMARK minimizedRMSD -1
REMARK  0 active torsions:
REMARK  status: ('A' for Active; 'I' for Inactive)
ROOT
ATOM      1  C   UNL d   1       2.249   1.068  -1.932  0.00  0.00     0.124 A 
ATOM      2  C1  UNL d   1       1.272   0.619  -2.811  0.00  0.00     0.062 A 
ATOM      3  C2  UNL d   1       0.601  -0.574  -2.560  0.00  0.00     0.162 A 
ATOM      4  C3  UNL d   1       0.904  -1.327  -1.426  0.00  0.00    -0.034 A 
ATOM      5  C4  UNL d   1       1.888  -0.870  -0.548  0.00  0.00     0.162 A 
ATOM      6  C5  UNL d   1       2.555   0.324  -0.802  0.00  0.00     0.062 A 
ATOM      7  F   UNL d   1       3.498   0.756   0.048  0.00  0.00    -0.097 F 
ATOM      8  F1  UNL d   1       2.204  -1.569   0.553  0.00  0.00    -0.096 F 
ATOM      9  I   UNL d   1      -0.097  -3.113  -1.048  0.00  0.00    -0.060 I 
ATOM     10  F2  UNL d   1      -0.338  -0.984  -3.426  0.00  0.00    -0.096 F 
ATOM     11  F3  UNL d   1       0.974   1.336  -3.904  0.00  0.00    -0.097 F 
ATOM     12  F4  UNL d   1       2.893   2.217  -2.176  0.00  0.00    -0.092 F 
ENDROOT
TORSDOF 0
ENDMDL
