MODEL 1
REMARK minimizedAffinity 18.7239857
REMARK minimizedRMSD -1
REMARK  0 active torsions:
REMARK  status: ('A' for Active; 'I' for Inactive)
ROOT
ATOM      1  C   UNL d   1       3.048   0.817  -0.257  0.00  0.00     0.124 A 
ATOM      2  C1  UNL d   1       2.865  -0.397   0.391  0.00  0.00     0.062 A 
ATOM      3  C2  UNL d   1       1.975  -1.337  -0.121  0.00  0.00     0.162 A 
ATOM      4  C3  UNL d   1       1.261  -1.067  -1.289  0.00  0.00    -0.034 A 
ATOM      5  C4  UNL d   1       1.450   0.156  -1.935  0.00  0.00     0.162 A 
ATOM      6  C5  UNL d   1       2.340   1.092  -1.419  0.00  0.00     0.062 A 
ATOM      7  F   UNL d   1       2.516   2.264  -2.047  0.00  0.00    -0.097 F 
ATOM      8  F1  UNL d   1       0.780   0.448  -3.060  0.00  0.00    -0.096 F 
ATOM      9  I   UNL d   1      -0.071  -2.469  -2.058  0.00  0.00    -0.060 I 
ATOM     10  F2  UNL d   1       1.818  -2.501   0.526  0.00  0.00    -0.096 F 
ATOM     11  F3  UNL d   1       3.546  -0.665   1.514  0.00  0.00    -0.097 F 
ATOM     12  F4  UNL d   1       3.904   1.720   0.238  0.00  0.00    -0.092 F 
ENDROOT
TORSDOF 0
ENDMDL
