MODEL 1
REMARK minimizedAffinity 11.3364201
REMARK minimizedRMSD -1
REMARK  0 active torsions:
REMARK  status: ('A' for Active; 'I' for Inactive)
ROOT
ATOM      1  C   UNL d   1       1.204  -0.848  -3.019  0.00  0.00     0.124 A 
ATOM      2  C1  UNL d   1       0.832  -2.184  -2.960  0.00  0.00     0.062 A 
ATOM      3  C2  UNL d   1       0.163  -2.676  -1.842  0.00  0.00     0.162 A 
ATOM      4  C3  UNL d   1      -0.137  -1.831  -0.774  0.00  0.00    -0.034 A 
ATOM      5  C4  UNL d   1       0.242  -0.489  -0.840  0.00  0.00     0.162 A 
ATOM      6  C5  UNL d   1       0.909  -0.002  -1.959  0.00  0.00     0.062 A 
ATOM      7  F   UNL d   1       1.268   1.289  -2.014  0.00  0.00    -0.097 F 
ATOM      8  F1  UNL d   1      -0.032   0.351   0.170  0.00  0.00    -0.096 F 
ATOM      9  I   UNL d   1      -1.136  -2.562   0.899  0.00  0.00    -0.060 I 
ATOM     10  F2  UNL d   1      -0.185  -3.971  -1.813  0.00  0.00    -0.096 F 
ATOM     11  F3  UNL d   1       1.116  -3.003  -3.982  0.00  0.00    -0.097 F 
ATOM     12  F4  UNL d   1       1.848  -0.378  -4.095  0.00  0.00    -0.092 F 
ENDROOT
TORSDOF 0
ENDMDL
