MODEL 1
REMARK minimizedAffinity 15.2900333
REMARK minimizedRMSD -1
REMARK  0 active torsions:
REMARK  status: ('A' for Active; 'I' for Inactive)
ROOT
ATOM      1  C   UNL d   1      -0.558  -2.586  -0.457  0.00  0.00     0.124 A 
ATOM      2  C1  UNL d   1      -1.597  -2.273   0.408  0.00  0.00     0.062 A 
ATOM      3  C2  UNL d   1      -2.045  -0.959   0.519  0.00  0.00     0.162 A 
ATOM      4  C3  UNL d   1      -1.454   0.052  -0.239  0.00  0.00    -0.034 A 
ATOM      5  C4  UNL d   1      -0.408  -0.271  -1.107  0.00  0.00     0.162 A 
ATOM      6  C5  UNL d   1       0.036  -1.585  -1.213  0.00  0.00     0.062 A 
ATOM      7  F   UNL d   1       1.040  -1.885  -2.050  0.00  0.00    -0.097 F 
ATOM      8  F1  UNL d   1       0.182   0.677  -1.850  0.00  0.00    -0.096 F 
ATOM      9  I   UNL d   1      -2.120   2.016  -0.078  0.00  0.00    -0.060 I 
ATOM     10  F2  UNL d   1      -3.051  -0.686   1.362  0.00  0.00    -0.096 F 
ATOM     11  F3  UNL d   1      -2.171  -3.238   1.141  0.00  0.00    -0.097 F 
ATOM     12  F4  UNL d   1      -0.128  -3.850  -0.560  0.00  0.00    -0.092 F 
ENDROOT
TORSDOF 0
ENDMDL
