MODEL 1
REMARK minimizedAffinity 16.0622082
REMARK minimizedRMSD -1
REMARK  0 active torsions:
REMARK  status: ('A' for Active; 'I' for Inactive)
ROOT
ATOM      1  C   UNL d   1       2.851   0.845  -0.158  0.00  0.00     0.124 A 
ATOM      2  C1  UNL d   1       3.604  -0.211  -0.650  0.00  0.00     0.062 A 
ATOM      3  C2  UNL d   1       3.087  -1.036  -1.645  0.00  0.00     0.162 A 
ATOM      4  C3  UNL d   1       1.810  -0.807  -2.155  0.00  0.00    -0.034 A 
ATOM      5  C4  UNL d   1       1.057   0.257  -1.655  0.00  0.00     0.162 A 
ATOM      6  C5  UNL d   1       1.578   1.078  -0.660  0.00  0.00     0.062 A 
ATOM      7  F   UNL d   1       0.849   2.099  -0.186  0.00  0.00    -0.097 F 
ATOM      8  F1  UNL d   1      -0.175   0.505  -2.123  0.00  0.00    -0.096 F 
ATOM      9  I   UNL d   1       1.033  -2.038  -3.643  0.00  0.00    -0.060 I 
ATOM     10  F2  UNL d   1       3.838  -2.050  -2.102  0.00  0.00    -0.096 F 
ATOM     11  F3  UNL d   1       4.833  -0.439  -0.165  0.00  0.00    -0.097 F 
ATOM     12  F4  UNL d   1       3.350   1.637   0.800  0.00  0.00    -0.092 F 
ENDROOT
TORSDOF 0
ENDMDL
