MODEL 1
REMARK minimizedAffinity 7.06704855
REMARK minimizedRMSD -1
REMARK  0 active torsions:
REMARK  status: ('A' for Active; 'I' for Inactive)
ROOT
ATOM      1  C   UNL d   1      -0.912  -1.778   1.991  0.00  0.00     0.124 A 
ATOM      2  C1  UNL d   1      -0.564  -3.086   1.680  0.00  0.00     0.062 A 
ATOM      3  C2  UNL d   1      -0.949  -3.642   0.464  0.00  0.00     0.162 A 
ATOM      4  C3  UNL d   1      -1.685  -2.891  -0.452  0.00  0.00    -0.034 A 
ATOM      5  C4  UNL d   1      -2.032  -1.577  -0.133  0.00  0.00     0.162 A 
ATOM      6  C5  UNL d   1      -1.645  -1.025   1.084  0.00  0.00     0.062 A 
ATOM      7  F   UNL d   1      -1.982   0.238   1.383  0.00  0.00    -0.097 F 
ATOM      8  F1  UNL d   1      -2.739  -0.827  -0.990  0.00  0.00    -0.096 F 
ATOM      9  I   UNL d   1      -2.262  -3.720  -2.272  0.00  0.00    -0.060 I 
ATOM     10  F2  UNL d   1      -0.599  -4.908   0.191  0.00  0.00    -0.096 F 
ATOM     11  F3  UNL d   1       0.143  -3.815   2.555  0.00  0.00    -0.097 F 
ATOM     12  F4  UNL d   1      -0.541  -1.245   3.162  0.00  0.00    -0.092 F 
ENDROOT
TORSDOF 0
ENDMDL
