MODEL 1
REMARK minimizedAffinity 17.1096115
REMARK minimizedRMSD -1
REMARK  0 active torsions:
REMARK  status: ('A' for Active; 'I' for Inactive)
ROOT
ATOM      1  C   UNL d   1      -0.576  -2.825  -3.006  0.00  0.00     0.124 A 
ATOM      2  C1  UNL d   1      -0.355  -2.677  -1.644  0.00  0.00     0.062 A 
ATOM      3  C2  UNL d   1       0.511  -1.691  -1.178  0.00  0.00     0.162 A 
ATOM      4  C3  UNL d   1       1.161  -0.844  -2.075  0.00  0.00    -0.034 A 
ATOM      5  C4  UNL d   1       0.934  -1.000  -3.444  0.00  0.00     0.162 A 
ATOM      6  C5  UNL d   1       0.069  -1.986  -3.905  0.00  0.00     0.062 A 
ATOM      7  F   UNL d   1      -0.144  -2.128  -5.221  0.00  0.00    -0.097 F 
ATOM      8  F1  UNL d   1       1.543  -0.203  -4.335  0.00  0.00    -0.096 F 
ATOM      9  I   UNL d   1       2.456   0.631  -1.383  0.00  0.00    -0.060 I 
ATOM     10  F2  UNL d   1       0.705  -1.571   0.144  0.00  0.00    -0.096 F 
ATOM     11  F3  UNL d   1      -0.975  -3.486  -0.774  0.00  0.00    -0.097 F 
ATOM     12  F4  UNL d   1      -1.408  -3.775  -3.451  0.00  0.00    -0.092 F 
ENDROOT
TORSDOF 0
ENDMDL
