MODEL 1
REMARK minimizedAffinity 9.49960136
REMARK minimizedRMSD -1
REMARK  0 active torsions:
REMARK  status: ('A' for Active; 'I' for Inactive)
ROOT
ATOM      1  C   UNL d   1      -0.210  -0.346  -1.021  0.00  0.00     0.124 A 
ATOM      2  C1  UNL d   1      -1.164   0.068  -0.102  0.00  0.00     0.062 A 
ATOM      3  C2  UNL d   1      -2.069  -0.847   0.428  0.00  0.00     0.162 A 
ATOM      4  C3  UNL d   1      -2.024  -2.186   0.041  0.00  0.00    -0.034 A 
ATOM      5  C4  UNL d   1      -1.062  -2.595  -0.885  0.00  0.00     0.162 A 
ATOM      6  C5  UNL d   1      -0.160  -1.677  -1.412  0.00  0.00     0.062 A 
ATOM      7  F   UNL d   1       0.760  -2.079  -2.300  0.00  0.00    -0.097 F 
ATOM      8  F1  UNL d   1      -0.991  -3.875  -1.279  0.00  0.00    -0.096 F 
ATOM      9  I   UNL d   1      -3.375  -3.558   0.832  0.00  0.00    -0.060 I 
ATOM     10  F2  UNL d   1      -2.980  -0.419   1.315  0.00  0.00    -0.096 F 
ATOM     11  F3  UNL d   1      -1.215   1.353   0.276  0.00  0.00    -0.097 F 
ATOM     12  F4  UNL d   1       0.658   0.537  -1.531  0.00  0.00    -0.092 F 
ENDROOT
TORSDOF 0
ENDMDL
