MODEL 1
REMARK minimizedAffinity 29.5461674
REMARK minimizedRMSD -1
REMARK  0 active torsions:
REMARK  status: ('A' for Active; 'I' for Inactive)
ROOT
ATOM      1  C   UNL d   1       3.464   0.329  -0.319  0.00  0.00     0.124 A 
ATOM      2  C1  UNL d   1       2.370   0.737  -1.069  0.00  0.00     0.062 A 
ATOM      3  C2  UNL d   1       1.205  -0.024  -1.078  0.00  0.00     0.162 A 
ATOM      4  C3  UNL d   1       1.127  -1.201  -0.333  0.00  0.00    -0.034 A 
ATOM      5  C4  UNL d   1       2.232  -1.605   0.418  0.00  0.00     0.162 A 
ATOM      6  C5  UNL d   1       3.395  -0.841   0.424  0.00  0.00     0.062 A 
ATOM      7  F   UNL d   1       4.451  -1.237   1.149  0.00  0.00    -0.097 F 
ATOM      8  F1  UNL d   1       2.192  -2.732   1.145  0.00  0.00    -0.096 F 
ATOM      9  I   UNL d   1      -0.613  -2.342  -0.345  0.00  0.00    -0.060 I 
ATOM     10  F2  UNL d   1       0.163   0.394  -1.812  0.00  0.00    -0.096 F 
ATOM     11  F3  UNL d   1       2.436   1.867  -1.788  0.00  0.00    -0.097 F 
ATOM     12  F4  UNL d   1       4.585   1.063  -0.312  0.00  0.00    -0.092 F 
ENDROOT
TORSDOF 0
ENDMDL
