MODEL 1
REMARK minimizedAffinity 9.89990711
REMARK minimizedRMSD -1
REMARK  0 active torsions:
REMARK  status: ('A' for Active; 'I' for Inactive)
ROOT
ATOM      1  C   UNL d   1      -4.418   5.742  -1.333  0.00  0.00     0.124 A 
ATOM      2  C1  UNL d   1      -3.279   5.611  -2.115  0.00  0.00     0.062 A 
ATOM      3  C2  UNL d   1      -2.019   5.611  -1.522  0.00  0.00     0.162 A 
ATOM      4  C3  UNL d   1      -1.893   5.741  -0.139  0.00  0.00    -0.034 A 
ATOM      5  C4  UNL d   1      -3.043   5.873   0.640  0.00  0.00     0.162 A 
ATOM      6  C5  UNL d   1      -4.299   5.873   0.043  0.00  0.00     0.062 A 
ATOM      7  F   UNL d   1      -5.399   6.000   0.800  0.00  0.00    -0.097 F 
ATOM      8  F1  UNL d   1      -2.958   6.000   1.973  0.00  0.00    -0.096 F 
ATOM      9  I   UNL d   1      -0.011   5.740   0.751  0.00  0.00    -0.060 I 
ATOM     10  F2  UNL d   1      -0.935   5.483  -2.302  0.00  0.00    -0.096 F 
ATOM     11  F3  UNL d   1      -3.390   5.486  -3.445  0.00  0.00    -0.097 F 
ATOM     12  F4  UNL d   1      -5.628   5.744  -1.907  0.00  0.00    -0.092 F 
ENDROOT
TORSDOF 0
ENDMDL
