MODEL 1
REMARK minimizedAffinity 12.5285254
REMARK minimizedRMSD -1
REMARK  0 active torsions:
REMARK  status: ('A' for Active; 'I' for Inactive)
ROOT
ATOM      1  C   UNL d   1       2.864  -0.266  -0.419  0.00  0.00     0.124 A 
ATOM      2  C1  UNL d   1       2.571  -1.478   0.191  0.00  0.00     0.062 A 
ATOM      3  C2  UNL d   1       1.567  -2.294  -0.320  0.00  0.00     0.162 A 
ATOM      4  C3  UNL d   1       0.848  -1.903  -1.450  0.00  0.00    -0.034 A 
ATOM      5  C4  UNL d   1       1.148  -0.682  -2.058  0.00  0.00     0.162 A 
ATOM      6  C5  UNL d   1       2.153   0.130  -1.543  0.00  0.00     0.062 A 
ATOM      7  F   UNL d   1       2.435   1.300  -2.134  0.00  0.00    -0.097 F 
ATOM      8  F1  UNL d   1       0.477  -0.275  -3.145  0.00  0.00    -0.096 F 
ATOM      9  I   UNL d   1      -0.654  -3.121  -2.218  0.00  0.00    -0.060 I 
ATOM     10  F2  UNL d   1       1.305  -3.460   0.290  0.00  0.00    -0.096 F 
ATOM     11  F3  UNL d   1       3.257  -1.863   1.278  0.00  0.00    -0.097 F 
ATOM     12  F4  UNL d   1       3.831   0.518   0.076  0.00  0.00    -0.092 F 
ENDROOT
TORSDOF 0
ENDMDL
