MODEL 1
REMARK minimizedAffinity -2.33665752
REMARK minimizedRMSD -1
REMARK  0 active torsions:
REMARK  status: ('A' for Active; 'I' for Inactive)
ROOT
ATOM      1  C   UNL d   1       1.230   5.695   4.839  0.00  0.00     0.172 C 
ATOM      2  N   UNL d   1       2.626   5.401   5.060  0.00  0.00    -0.070 N 
ATOM      3  C1  UNL d   1       3.428   5.993   5.999  0.00  0.00    -0.004 A 
ATOM      4  C2  UNL d   1       4.685   5.440   5.891  0.00  0.00    -0.047 A 
ATOM      5  C3  UNL d   1       4.638   4.484   4.849  0.00  0.00    -0.047 A 
ATOM      6  C4  UNL d   1       3.352   4.480   4.352  0.00  0.00    -0.004 A 
ENDROOT
TORSDOF 0
ENDMDL
