MODEL 1
REMARK minimizedAffinity -2.92830753
REMARK minimizedRMSD -1
REMARK  0 active torsions:
REMARK  status: ('A' for Active; 'I' for Inactive)
ROOT
ATOM      1  C   UNL d   1       2.981   4.108   3.995  0.00  0.00     0.172 C 
ATOM      2  N   UNL d   1       1.818   4.770   4.538  0.00  0.00    -0.070 N 
ATOM      3  C1  UNL d   1       1.455   4.790   5.858  0.00  0.00    -0.004 A 
ATOM      4  C2  UNL d   1       0.292   5.523   5.964  0.00  0.00    -0.047 A 
ATOM      5  C3  UNL d   1      -0.055   5.958   4.663  0.00  0.00    -0.047 A 
ATOM      6  C4  UNL d   1       0.907   5.478   3.799  0.00  0.00    -0.004 A 
ENDROOT
TORSDOF 0
ENDMDL
