MODEL 1
REMARK minimizedAffinity -0.343741268
REMARK minimizedRMSD -1
REMARK  0 active torsions:
REMARK  status: ('A' for Active; 'I' for Inactive)
ROOT
ATOM      1  C   UNL d   1       4.519   2.686   1.649  0.00  0.00     0.172 C 
ATOM      2  N   UNL d   1       4.055   1.803   0.604  0.00  0.00    -0.070 N 
ATOM      3  C1  UNL d   1       3.229   0.724   0.779  0.00  0.00    -0.004 A 
ATOM      4  C2  UNL d   1       3.023   0.147  -0.456  0.00  0.00    -0.047 A 
ATOM      5  C3  UNL d   1       3.751   0.904  -1.404  0.00  0.00    -0.047 A 
ATOM      6  C4  UNL d   1       4.381   1.923  -0.721  0.00  0.00    -0.004 A 
ENDROOT
TORSDOF 0
ENDMDL
