MODEL 1
REMARK minimizedAffinity 3.57674408
REMARK minimizedRMSD -1
REMARK  0 active torsions:
REMARK  status: ('A' for Active; 'I' for Inactive)
ROOT
ATOM      1  C   UNL d   1      -4.330   1.073   0.661  0.00  0.00     0.172 C 
ATOM      2  N   UNL d   1      -4.086   2.280   1.415  0.00  0.00    -0.070 N 
ATOM      3  C1  UNL d   1      -3.549   3.437   0.917  0.00  0.00    -0.004 A 
ATOM      4  C2  UNL d   1      -3.480   4.349   1.949  0.00  0.00    -0.047 A 
ATOM      5  C3  UNL d   1      -3.993   3.717   3.107  0.00  0.00    -0.047 A 
ATOM      6  C4  UNL d   1      -4.360   2.437   2.748  0.00  0.00    -0.004 A 
ENDROOT
TORSDOF 0
ENDMDL
