MODEL 1
REMARK minimizedAffinity -2.29496789
REMARK minimizedRMSD -1
REMARK  0 active torsions:
REMARK  status: ('A' for Active; 'I' for Inactive)
ROOT
ATOM      1  C   UNL d   1      -0.182   5.940   5.913  0.00  0.00     0.172 C 
ATOM      2  N   UNL d   1       0.473   5.964   4.626  0.00  0.00    -0.070 N 
ATOM      3  C1  UNL d   1       1.827   5.977   4.420  0.00  0.00    -0.004 A 
ATOM      4  C2  UNL d   1       2.046   5.999   3.060  0.00  0.00    -0.047 A 
ATOM      5  C3  UNL d   1       0.781   5.999   2.426  0.00  0.00    -0.047 A 
ATOM      6  C4  UNL d   1      -0.175   5.977   3.419  0.00  0.00    -0.004 A 
ENDROOT
TORSDOF 0
ENDMDL
