MODEL 1
REMARK minimizedAffinity 1.33018553
REMARK minimizedRMSD -1
REMARK  0 active torsions:
REMARK  status: ('A' for Active; 'I' for Inactive)
ROOT
ATOM      1  C   UNL d   1      -5.364   0.304  -0.229  0.00  0.00     0.172 C 
ATOM      2  N   UNL d   1      -4.366   1.080   0.467  0.00  0.00    -0.070 N 
ATOM      3  C1  UNL d   1      -4.607   2.197   1.223  0.00  0.00    -0.004 A 
ATOM      4  C2  UNL d   1      -3.399   2.642   1.716  0.00  0.00    -0.047 A 
ATOM      5  C3  UNL d   1      -2.398   1.763   1.240  0.00  0.00    -0.047 A 
ATOM      6  C4  UNL d   1      -3.023   0.806   0.469  0.00  0.00    -0.004 A 
ENDROOT
TORSDOF 0
ENDMDL
