MODEL 1
REMARK minimizedAffinity -3.33847237
REMARK minimizedRMSD -1
REMARK  0 active torsions:
REMARK  status: ('A' for Active; 'I' for Inactive)
ROOT
ATOM      1  C   UNL d   1       2.891   5.890   5.998  0.00  0.00     0.172 C 
ATOM      2  N   UNL d   1       1.723   5.784   5.156  0.00  0.00    -0.070 N 
ATOM      3  C1  UNL d   1       1.729   5.693   3.790  0.00  0.00    -0.004 A 
ATOM      4  C2  UNL d   1       0.420   5.608   3.367  0.00  0.00    -0.047 A 
ATOM      5  C3  UNL d   1      -0.401   5.651   4.518  0.00  0.00    -0.047 A 
ATOM      6  C4  UNL d   1       0.431   5.760   5.612  0.00  0.00    -0.004 A 
ENDROOT
TORSDOF 0
ENDMDL
