MODEL 1
REMARK minimizedAffinity -2.85676265
REMARK minimizedRMSD -1
REMARK  0 active torsions:
REMARK  status: ('A' for Active; 'I' for Inactive)
ROOT
ATOM      1  C   UNL d   1       3.089   3.156   6.000  0.00  0.00     0.172 C 
ATOM      2  N   UNL d   1       2.193   4.071   5.332  0.00  0.00    -0.070 N 
ATOM      3  C1  UNL d   1       2.067   4.218   3.976  0.00  0.00    -0.004 A 
ATOM      4  C2  UNL d   1       1.113   5.184   3.743  0.00  0.00    -0.047 A 
ATOM      5  C3  UNL d   1       0.651   5.635   5.003  0.00  0.00    -0.047 A 
ATOM      6  C4  UNL d   1       1.336   4.929   5.968  0.00  0.00    -0.004 A 
ENDROOT
TORSDOF 0
ENDMDL
