MODEL 1
REMARK minimizedAffinity -1.89574611
REMARK minimizedRMSD -1
REMARK  0 active torsions:
REMARK  status: ('A' for Active; 'I' for Inactive)
ROOT
ATOM      1  C   UNL d   1       2.987   2.569   5.626  0.00  0.00     0.172 C 
ATOM      2  N   UNL d   1       3.310   3.863   5.071  0.00  0.00    -0.070 N 
ATOM      3  C1  UNL d   1       3.663   4.974   5.790  0.00  0.00    -0.004 A 
ATOM      4  C2  UNL d   1       3.891   5.999   4.897  0.00  0.00    -0.047 A 
ATOM      5  C3  UNL d   1       3.665   5.487   3.598  0.00  0.00    -0.047 A 
ATOM      6  C4  UNL d   1       3.307   4.162   3.735  0.00  0.00    -0.004 A 
ENDROOT
TORSDOF 0
ENDMDL
