MODEL 1
REMARK minimizedAffinity 3.43004179
REMARK minimizedRMSD -1
REMARK  0 active torsions:
REMARK  status: ('A' for Active; 'I' for Inactive)
ROOT
ATOM      1  C   UNL d   1      -2.034  -1.435   1.403  0.00  0.00     0.172 C 
ATOM      2  N   UNL d   1      -0.681  -1.067   1.058  0.00  0.00    -0.070 N 
ATOM      3  C1  UNL d   1       0.169  -0.329   1.837  0.00  0.00    -0.004 A 
ATOM      4  C2  UNL d   1       1.359  -0.197   1.156  0.00  0.00    -0.047 A 
ATOM      5  C3  UNL d   1       1.220  -0.879  -0.076  0.00  0.00    -0.047 A 
ATOM      6  C4  UNL d   1      -0.053  -1.408  -0.111  0.00  0.00    -0.004 A 
ENDROOT
TORSDOF 0
ENDMDL
