MODEL 1
REMARK minimizedAffinity 1.75715613
REMARK minimizedRMSD -1
REMARK  1 active torsions:
REMARK  status: ('A' for Active; 'I' for Inactive)
REMARK    1  A    between atoms: C3_4  and  O_7 
ROOT
ATOM      1  C   UNL d   1      -3.004   5.682   4.652  0.00  0.00    -0.033 A 
ATOM      2  C1  UNL d   1      -4.210   5.119   5.076  0.00  0.00     0.039 A 
ATOM      3  C2  UNL d   1      -5.230   4.875   4.155  0.00  0.00    -0.080 A 
ATOM      4  C3  UNL d   1      -5.032   5.196   2.815  0.00  0.00     0.150 A 
ATOM      5  C4  UNL d   1      -3.832   5.754   2.385  0.00  0.00    -0.007 A 
ATOM      6  C5  UNL d   1      -2.815   5.998   3.307  0.00  0.00     0.039 A 
ENDROOT
BRANCH   4   7
ATOM      7  O   UNL d   1      -6.000   4.980   1.879  0.00  0.00    -0.526 OA
ATOM      8  H5  UNL d   1      -6.783   4.618   2.326  0.00  0.00     0.418 HD
ENDBRANCH   4   7
TORSDOF 1
ENDMDL
