MODEL 1
REMARK minimizedAffinity 0.94642663
REMARK minimizedRMSD -1
REMARK  1 active torsions:
REMARK  status: ('A' for Active; 'I' for Inactive)
REMARK    1  A    between atoms: C3_4  and  O_7 
ROOT
ATOM      1  C   UNL d   1      -2.323   5.990   4.252  0.00  0.00    -0.033 A 
ATOM      2  C1  UNL d   1      -2.333   5.994   2.856  0.00  0.00     0.039 A 
ATOM      3  C2  UNL d   1      -3.547   5.998   2.165  0.00  0.00    -0.080 A 
ATOM      4  C3  UNL d   1      -4.741   5.999   2.882  0.00  0.00     0.150 A 
ATOM      5  C4  UNL d   1      -4.737   5.999   4.273  0.00  0.00    -0.007 A 
ATOM      6  C5  UNL d   1      -3.525   5.993   4.961  0.00  0.00     0.039 A 
ENDROOT
BRANCH   4   7
ATOM      7  O   UNL d   1      -5.950   5.999   2.252  0.00  0.00    -0.526 OA
ATOM      8  H5  UNL d   1      -5.797   5.970   1.293  0.00  0.00     0.418 HD
ENDBRANCH   4   7
TORSDOF 1
ENDMDL
