MODEL 1
REMARK minimizedAffinity -3.09713864
REMARK minimizedRMSD -1
REMARK  1 active torsions:
REMARK  status: ('A' for Active; 'I' for Inactive)
REMARK    1  A    between atoms: C3_4  and  O_7 
ROOT
ATOM      1  C   UNL d   1      -4.359   5.979   1.817  0.00  0.00    -0.033 A 
ATOM      2  C1  UNL d   1      -5.299   5.979   2.850  0.00  0.00     0.039 A 
ATOM      3  C2  UNL d   1      -4.877   5.987   4.180  0.00  0.00    -0.080 A 
ATOM      4  C3  UNL d   1      -3.514   5.995   4.465  0.00  0.00     0.150 A 
ATOM      5  C4  UNL d   1      -2.572   5.999   3.442  0.00  0.00    -0.007 A 
ATOM      6  C5  UNL d   1      -2.995   5.990   2.113  0.00  0.00     0.039 A 
ENDROOT
BRANCH   4   7
ATOM      7  O   UNL d   1      -3.054   5.998   5.749  0.00  0.00    -0.526 OA
ATOM      8  H5  UNL d   1      -3.818   5.966   6.349  0.00  0.00     0.418 HD
ENDBRANCH   4   7
TORSDOF 1
ENDMDL
