MODEL 1
REMARK minimizedAffinity -2.10873413
REMARK minimizedRMSD -1
REMARK  1 active torsions:
REMARK  status: ('A' for Active; 'I' for Inactive)
REMARK    1  A    between atoms: C3_4  and  O_7 
ROOT
ATOM      1  C   UNL d   1      -4.503   5.998   4.630  0.00  0.00    -0.033 A 
ATOM      2  C1  UNL d   1      -5.377   5.994   3.541  0.00  0.00     0.039 A 
ATOM      3  C2  UNL d   1      -4.871   5.992   2.239  0.00  0.00    -0.080 A 
ATOM      4  C3  UNL d   1      -3.493   5.993   2.041  0.00  0.00     0.150 A 
ATOM      5  C4  UNL d   1      -2.618   5.993   3.122  0.00  0.00    -0.007 A 
ATOM      6  C5  UNL d   1      -3.124   5.996   4.421  0.00  0.00     0.039 A 
ENDROOT
BRANCH   4   7
ATOM      7  O   UNL d   1      -2.954   5.996   0.789  0.00  0.00    -0.526 OA
ATOM      8  H5  UNL d   1      -3.678   6.025   0.142  0.00  0.00     0.418 HD
ENDBRANCH   4   7
TORSDOF 1
ENDMDL
