MODEL 1
REMARK minimizedAffinity 2.6427362
REMARK minimizedRMSD -1
REMARK  1 active torsions:
REMARK  status: ('A' for Active; 'I' for Inactive)
REMARK    1  A    between atoms: C3_4  and  O_7 
ROOT
ATOM      1  C   UNL d   1      -2.863  -1.826   0.586  0.00  0.00    -0.033 A 
ATOM      2  C1  UNL d   1      -3.448  -1.838   1.854  0.00  0.00     0.039 A 
ATOM      3  C2  UNL d   1      -3.276  -0.752   2.714  0.00  0.00    -0.080 A 
ATOM      4  C3  UNL d   1      -2.519   0.339   2.295  0.00  0.00     0.150 A 
ATOM      5  C4  UNL d   1      -1.937   0.359   1.032  0.00  0.00    -0.007 A 
ATOM      6  C5  UNL d   1      -2.109  -0.727   0.175  0.00  0.00     0.039 A 
ENDROOT
BRANCH   4   7
ATOM      7  O   UNL d   1      -2.319   1.420   3.101  0.00  0.00    -0.526 OA
ATOM      8  H5  UNL d   1      -2.756   1.253   3.953  0.00  0.00     0.418 HD
ENDBRANCH   4   7
TORSDOF 1
ENDMDL
