MODEL 1
REMARK minimizedAffinity 1.28763688
REMARK minimizedRMSD -1
REMARK  1 active torsions:
REMARK  status: ('A' for Active; 'I' for Inactive)
REMARK    1  A    between atoms: C3_4  and  O_7 
ROOT
ATOM      1  C   UNL d   1      -5.179   5.998   2.631  0.00  0.00    -0.033 A 
ATOM      2  C1  UNL d   1      -3.794   5.991   2.450  0.00  0.00     0.039 A 
ATOM      3  C2  UNL d   1      -2.943   5.990   3.557  0.00  0.00    -0.080 A 
ATOM      4  C3  UNL d   1      -3.489   5.995   4.838  0.00  0.00     0.150 A 
ATOM      5  C4  UNL d   1      -4.867   5.998   5.026  0.00  0.00    -0.007 A 
ATOM      6  C5  UNL d   1      -5.715   6.000   3.919  0.00  0.00     0.039 A 
ENDROOT
BRANCH   4   7
ATOM      7  O   UNL d   1      -2.698   6.000   5.949  0.00  0.00    -0.526 OA
ATOM      8  H5  UNL d   1      -1.769   6.026   5.665  0.00  0.00     0.418 HD
ENDBRANCH   4   7
TORSDOF 1
ENDMDL
