MODEL 1
REMARK minimizedAffinity -3.38216281
REMARK minimizedRMSD -1
REMARK  1 active torsions:
REMARK  status: ('A' for Active; 'I' for Inactive)
REMARK    1  A    between atoms: C3_4  and  O_7 
ROOT
ATOM      1  C   UNL d   1      -4.481   5.443   2.185  0.00  0.00    -0.033 A 
ATOM      2  C1  UNL d   1      -3.216   4.890   2.394  0.00  0.00     0.039 A 
ATOM      3  C2  UNL d   1      -2.654   4.893   3.672  0.00  0.00    -0.080 A 
ATOM      4  C3  UNL d   1      -3.367   5.448   4.731  0.00  0.00     0.150 A 
ATOM      5  C4  UNL d   1      -4.630   5.997   4.530  0.00  0.00    -0.007 A 
ATOM      6  C5  UNL d   1      -5.189   5.995   3.253  0.00  0.00     0.039 A 
ENDROOT
BRANCH   4   7
ATOM      7  O   UNL d   1      -2.858   5.478   5.995  0.00  0.00    -0.526 OA
ATOM      8  H5  UNL d   1      -1.967   5.090   5.977  0.00  0.00     0.418 HD
ENDBRANCH   4   7
TORSDOF 1
ENDMDL
