MODEL 1
REMARK minimizedAffinity -2.51780653
REMARK minimizedRMSD -1
REMARK  1 active torsions:
REMARK  status: ('A' for Active; 'I' for Inactive)
REMARK    1  A    between atoms: C3_4  and  O_7 
ROOT
ATOM      1  C   UNL d   1      -4.401   5.983   2.202  0.00  0.00    -0.033 A 
ATOM      2  C1  UNL d   1      -3.005   5.991   2.238  0.00  0.00     0.039 A 
ATOM      3  C2  UNL d   1      -2.337   5.979   3.464  0.00  0.00    -0.080 A 
ATOM      4  C3  UNL d   1      -3.075   5.959   4.644  0.00  0.00     0.150 A 
ATOM      5  C4  UNL d   1      -4.465   5.947   4.616  0.00  0.00    -0.007 A 
ATOM      6  C5  UNL d   1      -5.131   5.959   3.391  0.00  0.00     0.039 A 
ENDROOT
BRANCH   4   7
ATOM      7  O   UNL d   1      -2.467   5.952   5.865  0.00  0.00    -0.526 OA
ATOM      8  H5  UNL d   1      -1.505   5.991   5.730  0.00  0.00     0.418 HD
ENDBRANCH   4   7
TORSDOF 1
ENDMDL
