MODEL 1
REMARK minimizedAffinity -0.870886683
REMARK minimizedRMSD -1
REMARK  1 active torsions:
REMARK  status: ('A' for Active; 'I' for Inactive)
REMARK    1  A    between atoms: C3_4  and  O_7 
ROOT
ATOM      1  C   UNL d   1      -4.397   5.971   2.278  0.00  0.00    -0.033 A 
ATOM      2  C1  UNL d   1      -5.190   5.991   3.427  0.00  0.00     0.039 A 
ATOM      3  C2  UNL d   1      -4.594   6.000   4.689  0.00  0.00    -0.080 A 
ATOM      4  C3  UNL d   1      -3.205   5.989   4.789  0.00  0.00     0.150 A 
ATOM      5  C4  UNL d   1      -2.409   5.972   3.649  0.00  0.00    -0.007 A 
ATOM      6  C5  UNL d   1      -3.006   5.963   2.389  0.00  0.00     0.039 A 
ENDROOT
BRANCH   4   7
ATOM      7  O   UNL d   1      -2.578   5.992   6.000  0.00  0.00    -0.526 OA
ATOM      8  H5  UNL d   1      -3.255   5.974   6.697  0.00  0.00     0.418 HD
ENDBRANCH   4   7
TORSDOF 1
ENDMDL
