MODEL 1
REMARK minimizedAffinity -3.34468484
REMARK minimizedRMSD -1
REMARK  1 active torsions:
REMARK  status: ('A' for Active; 'I' for Inactive)
REMARK    1  A    between atoms: C3_4  and  O_7 
ROOT
ATOM      1  C   UNL d   1      -4.003   5.992   1.995  0.00  0.00    -0.033 A 
ATOM      2  C1  UNL d   1      -2.636   5.979   2.277  0.00  0.00     0.039 A 
ATOM      3  C2  UNL d   1      -2.194   5.978   3.602  0.00  0.00    -0.080 A 
ATOM      4  C3  UNL d   1      -3.129   5.988   4.633  0.00  0.00     0.150 A 
ATOM      5  C4  UNL d   1      -4.493   5.997   4.359  0.00  0.00    -0.007 A 
ATOM      6  C5  UNL d   1      -4.932   6.000   3.036  0.00  0.00     0.039 A 
ENDROOT
BRANCH   4   7
ATOM      7  O   UNL d   1      -2.746   5.993   5.942  0.00  0.00    -0.526 OA
ATOM      8  H5  UNL d   1      -1.776   6.015   5.978  0.00  0.00     0.418 HD
ENDBRANCH   4   7
TORSDOF 1
ENDMDL
