MODEL 1
REMARK minimizedAffinity -2.06402135
REMARK minimizedRMSD -1
REMARK  1 active torsions:
REMARK  status: ('A' for Active; 'I' for Inactive)
REMARK    1  A    between atoms: C3_4  and  O_7 
ROOT
ATOM      1  C   UNL d   1      -3.477   6.000   5.904  0.00  0.00    -0.033 A 
ATOM      2  C1  UNL d   1      -2.852   6.000   4.655  0.00  0.00     0.039 A 
ATOM      3  C2  UNL d   1      -3.620   5.995   3.489  0.00  0.00    -0.080 A 
ATOM      4  C3  UNL d   1      -5.009   5.992   3.586  0.00  0.00     0.150 A 
ATOM      5  C4  UNL d   1      -5.638   5.997   4.826  0.00  0.00    -0.007 A 
ATOM      6  C5  UNL d   1      -4.869   6.000   5.990  0.00  0.00     0.039 A 
ENDROOT
BRANCH   4   7
ATOM      7  O   UNL d   1      -5.800   5.983   2.475  0.00  0.00    -0.526 OA
ATOM      8  H5  UNL d   1      -5.229   5.952   1.690  0.00  0.00     0.418 HD
ENDBRANCH   4   7
TORSDOF 1
ENDMDL
