MODEL 1
REMARK minimizedAffinity -3.62139535
REMARK minimizedRMSD -1
REMARK  1 active torsions:
REMARK  status: ('A' for Active; 'I' for Inactive)
REMARK    1  A    between atoms: C3_4  and  O_7 
ROOT
ATOM      1  C   UNL d   1      -3.710   5.985   1.870  0.00  0.00    -0.033 A 
ATOM      2  C1  UNL d   1      -4.616   6.000   2.932  0.00  0.00     0.039 A 
ATOM      3  C2  UNL d   1      -4.151   5.998   4.249  0.00  0.00    -0.080 A 
ATOM      4  C3  UNL d   1      -2.780   5.983   4.489  0.00  0.00     0.150 A 
ATOM      5  C4  UNL d   1      -1.872   5.971   3.436  0.00  0.00    -0.007 A 
ATOM      6  C5  UNL d   1      -2.337   5.972   2.122  0.00  0.00     0.039 A 
ENDROOT
BRANCH   4   7
ATOM      7  O   UNL d   1      -2.279   5.976   5.757  0.00  0.00    -0.526 OA
ATOM      8  H5  UNL d   1      -3.024   5.956   6.382  0.00  0.00     0.418 HD
ENDBRANCH   4   7
TORSDOF 1
ENDMDL
