MODEL 1
REMARK minimizedAffinity 2.48105097
REMARK minimizedRMSD -1
REMARK  1 active torsions:
REMARK  status: ('A' for Active; 'I' for Inactive)
REMARK    1  A    between atoms: C3_4  and  O_7 
ROOT
ATOM      1  C   UNL d   1      -4.273   5.999   1.900  0.00  0.00    -0.033 A 
ATOM      2  C1  UNL d   1      -2.887   5.993   2.068  0.00  0.00     0.039 A 
ATOM      3  C2  UNL d   1      -2.337   5.992   3.351  0.00  0.00    -0.080 A 
ATOM      4  C3  UNL d   1      -3.183   5.995   4.457  0.00  0.00     0.150 A 
ATOM      5  C4  UNL d   1      -4.565   5.997   4.297  0.00  0.00    -0.007 A 
ATOM      6  C5  UNL d   1      -5.112   6.000   3.015  0.00  0.00     0.039 A 
ENDROOT
BRANCH   4   7
ATOM      7  O   UNL d   1      -2.693   5.999   5.729  0.00  0.00    -0.526 OA
ATOM      8  H5  UNL d   1      -1.722   6.027   5.685  0.00  0.00     0.418 HD
ENDBRANCH   4   7
TORSDOF 1
ENDMDL
