MODEL 1
REMARK minimizedAffinity -2.8099072
REMARK minimizedRMSD -1
REMARK  1 active torsions:
REMARK  status: ('A' for Active; 'I' for Inactive)
REMARK    1  A    between atoms: C3_4  and  O_7 
ROOT
ATOM      1  C   UNL d   1      -2.446   5.984   5.286  0.00  0.00    -0.033 A 
ATOM      2  C1  UNL d   1      -2.152   5.991   3.922  0.00  0.00     0.039 A 
ATOM      3  C2  UNL d   1      -3.185   5.998   2.983  0.00  0.00    -0.080 A 
ATOM      4  C3  UNL d   1      -4.506   5.998   3.421  0.00  0.00     0.150 A 
ATOM      5  C4  UNL d   1      -4.807   5.995   4.779  0.00  0.00    -0.007 A 
ATOM      6  C5  UNL d   1      -3.773   5.988   5.715  0.00  0.00     0.039 A 
ENDROOT
BRANCH   4   7
ATOM      7  O   UNL d   1      -5.549   6.000   2.543  0.00  0.00    -0.526 OA
ATOM      8  H5  UNL d   1      -5.190   5.973   1.640  0.00  0.00     0.418 HD
ENDBRANCH   4   7
TORSDOF 1
ENDMDL
