MODEL 1
REMARK minimizedAffinity -2.64359784
REMARK minimizedRMSD -1
REMARK  1 active torsions:
REMARK  status: ('A' for Active; 'I' for Inactive)
REMARK    1  A    between atoms: C3_4  and  O_7 
ROOT
ATOM      1  C   UNL d   1      -4.750   5.676   2.548  0.00  0.00    -0.033 A 
ATOM      2  C1  UNL d   1      -5.348   6.000   3.768  0.00  0.00     0.039 A 
ATOM      3  C2  UNL d   1      -4.590   6.000   4.940  0.00  0.00    -0.080 A 
ATOM      4  C3  UNL d   1      -3.237   5.677   4.880  0.00  0.00     0.150 A 
ATOM      5  C4  UNL d   1      -2.635   5.357   3.667  0.00  0.00    -0.007 A 
ATOM      6  C5  UNL d   1      -3.393   5.356   2.498  0.00  0.00     0.039 A 
ENDROOT
BRANCH   4   7
ATOM      7  O   UNL d   1      -2.458   5.659   5.998  0.00  0.00    -0.526 OA
ATOM      8  H5  UNL d   1      -3.016   5.872   6.765  0.00  0.00     0.418 HD
ENDBRANCH   4   7
TORSDOF 1
ENDMDL
