MODEL 1
REMARK minimizedAffinity -2.01440287
REMARK minimizedRMSD -1
REMARK  1 active torsions:
REMARK  status: ('A' for Active; 'I' for Inactive)
REMARK    1  A    between atoms: C3_4  and  O_7 
ROOT
ATOM      1  C   UNL d   1      -4.400   5.249   2.253  0.00  0.00    -0.033 A 
ATOM      2  C1  UNL d   1      -3.239   4.504   2.472  0.00  0.00     0.039 A 
ATOM      3  C2  UNL d   1      -2.631   4.507   3.729  0.00  0.00    -0.080 A 
ATOM      4  C3  UNL d   1      -3.194   5.258   4.757  0.00  0.00     0.150 A 
ATOM      5  C4  UNL d   1      -4.352   6.000   4.548  0.00  0.00    -0.007 A 
ATOM      6  C5  UNL d   1      -4.957   5.996   3.292  0.00  0.00     0.039 A 
ENDROOT
BRANCH   4   7
ATOM      7  O   UNL d   1      -2.633   5.297   6.000  0.00  0.00    -0.526 OA
ATOM      8  H5  UNL d   1      -1.823   4.761   5.989  0.00  0.00     0.418 HD
ENDBRANCH   4   7
TORSDOF 1
ENDMDL
