MODEL 1
REMARK minimizedAffinity -1.59109521
REMARK minimizedRMSD -1
REMARK  1 active torsions:
REMARK  status: ('A' for Active; 'I' for Inactive)
REMARK    1  A    between atoms: C3_4  and  O_7 
ROOT
ATOM      1  C   UNL d   1      -4.578   6.000   2.259  0.00  0.00    -0.033 A 
ATOM      2  C1  UNL d   1      -5.384   5.995   3.399  0.00  0.00     0.039 A 
ATOM      3  C2  UNL d   1      -4.802   5.982   4.668  0.00  0.00    -0.080 A 
ATOM      4  C3  UNL d   1      -3.414   5.975   4.783  0.00  0.00     0.150 A 
ATOM      5  C4  UNL d   1      -2.605   5.983   3.651  0.00  0.00    -0.007 A 
ATOM      6  C5  UNL d   1      -3.189   5.995   2.385  0.00  0.00     0.039 A 
ENDROOT
BRANCH   4   7
ATOM      7  O   UNL d   1      -2.800   5.958   6.000  0.00  0.00    -0.526 OA
ATOM      8  H5  UNL d   1      -3.484   5.924   6.689  0.00  0.00     0.418 HD
ENDBRANCH   4   7
TORSDOF 1
ENDMDL
