MODEL 1
REMARK minimizedAffinity 4.90667105
REMARK minimizedRMSD -1
REMARK  0 active torsions:
REMARK  status: ('A' for Active; 'I' for Inactive)
ROOT
ATOM      1  C2' OXE d   1       2.454  -2.044  -1.924  0.00  0.00     0.078 C 
ATOM      2  C1' OXE d   1       2.896   0.726  -1.803  0.00  0.00     0.078 C 
ATOM      3  C1  OXE d   1       2.052   0.100  -0.721  0.00  0.00    -0.078 A 
ATOM      4  C2  OXE d   1       1.802  -1.248  -0.814  0.00  0.00    -0.078 A 
ATOM      5  C3  OXE d   1       1.075  -1.885   0.188  0.00  0.00     0.003 A 
ATOM      6  C4  OXE d   1       0.468  -1.140   1.206  0.00  0.00    -0.002 A 
ATOM      7  C5  OXE d   1       0.677   0.240   1.297  0.00  0.00    -0.002 A 
ATOM      8  C6  OXE d   1       1.499   0.868   0.368  0.00  0.00     0.003 A 
ENDROOT
TORSDOF 0
ENDMDL
