MODEL 1
REMARK minimizedAffinity -0.362524807
REMARK minimizedRMSD -1
REMARK  0 active torsions:
REMARK  status: ('A' for Active; 'I' for Inactive)
ROOT
ATOM      1  C2' OXE d   1       2.061   1.918  -1.150  0.00  0.00     0.078 C 
ATOM      2  C1' OXE d   1       3.336  -0.445  -1.972  0.00  0.00     0.078 C 
ATOM      3  C1  OXE d   1       2.370  -0.531  -0.816  0.00  0.00    -0.078 A 
ATOM      4  C2  OXE d   1       1.787   0.638  -0.391  0.00  0.00    -0.078 A 
ATOM      5  C3  OXE d   1       0.847   0.606   0.636  0.00  0.00     0.003 A 
ATOM      6  C4  OXE d   1       0.606  -0.581   1.339  0.00  0.00    -0.002 A 
ATOM      7  C5  OXE d   1       1.220  -1.775   0.948  0.00  0.00    -0.002 A 
ATOM      8  C6  OXE d   1       2.070  -1.776  -0.152  0.00  0.00     0.003 A 
ENDROOT
TORSDOF 0
ENDMDL
