MODEL 1
REMARK minimizedAffinity 0.821583688
REMARK minimizedRMSD -1
REMARK  0 active torsions:
REMARK  status: ('A' for Active; 'I' for Inactive)
ROOT
ATOM      1  C2' OXE d   1      -1.876   3.822  -3.098  0.00  0.00     0.078 C 
ATOM      2  C1' OXE d   1      -3.341   3.874  -5.492  0.00  0.00     0.078 C 
ATOM      3  C1  OXE d   1      -4.044   3.392  -4.248  0.00  0.00    -0.078 A 
ATOM      4  C2  OXE d   1      -3.306   3.326  -3.091  0.00  0.00    -0.078 A 
ATOM      5  C3  OXE d   1      -3.920   2.940  -1.902  0.00  0.00     0.003 A 
ATOM      6  C4  OXE d   1      -5.240   2.473  -1.906  0.00  0.00    -0.002 A 
ATOM      7  C5  OXE d   1      -5.998   2.495  -3.082  0.00  0.00    -0.002 A 
ATOM      8  C6  OXE d   1      -5.429   2.990  -4.250  0.00  0.00     0.003 A 
ENDROOT
TORSDOF 0
ENDMDL
