MODEL 1
REMARK minimizedAffinity -0.577783346
REMARK minimizedRMSD -1
REMARK  0 active torsions:
REMARK  status: ('A' for Active; 'I' for Inactive)
ROOT
ATOM      1  C2' OXE d   1       3.362   0.633  -2.345  0.00  0.00     0.078 C 
ATOM      2  C1' OXE d   1       2.379  -1.997  -2.360  0.00  0.00     0.078 C 
ATOM      3  C1  OXE d   1       2.006  -1.113  -1.196  0.00  0.00    -0.078 A 
ATOM      4  C2  OXE d   1       2.530   0.157  -1.173  0.00  0.00    -0.078 A 
ATOM      5  C3  OXE d   1       2.174   1.031  -0.151  0.00  0.00     0.003 A 
ATOM      6  C4  OXE d   1       1.412   0.581   0.934  0.00  0.00    -0.002 A 
ATOM      7  C5  OXE d   1       0.901  -0.722   0.951  0.00  0.00    -0.002 A 
ATOM      8  C6  OXE d   1       1.153  -1.566  -0.125  0.00  0.00     0.003 A 
ENDROOT
TORSDOF 0
ENDMDL
