MODEL 1
REMARK minimizedAffinity 6.73792267
REMARK minimizedRMSD -1
REMARK  0 active torsions:
REMARK  status: ('A' for Active; 'I' for Inactive)
ROOT
ATOM      1  C2' OXE d   1       0.354  -2.735   1.461  0.00  0.00     0.078 C 
ATOM      2  C1' OXE d   1       1.602  -0.316   2.146  0.00  0.00     0.078 C 
ATOM      3  C1  OXE d   1       2.040  -0.998   0.874  0.00  0.00    -0.078 A 
ATOM      4  C2  OXE d   1       1.457  -2.205   0.571  0.00  0.00    -0.078 A 
ATOM      5  C3  OXE d   1       1.785  -2.850  -0.618  0.00  0.00     0.003 A 
ATOM      6  C4  OXE d   1       2.814  -2.358  -1.431  0.00  0.00    -0.002 A 
ATOM      7  C5  OXE d   1       3.449  -1.150  -1.120  0.00  0.00    -0.002 A 
ATOM      8  C6  OXE d   1       3.045  -0.438   0.004  0.00  0.00     0.003 A 
ENDROOT
TORSDOF 0
ENDMDL
