MODEL 1
REMARK minimizedAffinity -3.34975052
REMARK minimizedRMSD -1
REMARK  0 active torsions:
REMARK  status: ('A' for Active; 'I' for Inactive)
ROOT
ATOM      1  C2' OXE d   1      -0.226   3.350  -3.825  0.00  0.00     0.078 C 
ATOM      2  C1' OXE d   1      -1.087   5.451  -2.175  0.00  0.00     0.078 C 
ATOM      3  C1  OXE d   1      -2.071   4.350  -2.483  0.00  0.00    -0.078 A 
ATOM      4  C2  OXE d   1      -1.656   3.350  -3.329  0.00  0.00    -0.078 A 
ATOM      5  C3  OXE d   1      -2.505   2.281  -3.602  0.00  0.00     0.003 A 
ATOM      6  C4  OXE d   1      -3.829   2.294  -3.147  0.00  0.00    -0.002 A 
ATOM      7  C5  OXE d   1      -4.284   3.323  -2.317  0.00  0.00    -0.002 A 
ATOM      8  C6  OXE d   1      -3.407   4.334  -1.941  0.00  0.00     0.003 A 
ENDROOT
TORSDOF 0
ENDMDL
