MODEL 1
REMARK minimizedAffinity 6.50069714
REMARK minimizedRMSD -1
REMARK  0 active torsions:
REMARK  status: ('A' for Active; 'I' for Inactive)
ROOT
ATOM      1  C2' OXE d   1      -2.961  -3.659   1.175  0.00  0.00     0.078 C 
ATOM      2  C1' OXE d   1      -0.266  -3.051   1.672  0.00  0.00     0.078 C 
ATOM      3  C1  OXE d   1      -1.276  -1.942   1.822  0.00  0.00    -0.078 A 
ATOM      4  C2  OXE d   1      -2.586  -2.236   1.531  0.00  0.00    -0.078 A 
ATOM      5  C3  OXE d   1      -3.567  -1.264   1.705  0.00  0.00     0.003 A 
ATOM      6  C4  OXE d   1      -3.211   0.052   2.025  0.00  0.00    -0.002 A 
ATOM      7  C5  OXE d   1      -1.877   0.383   2.287  0.00  0.00    -0.002 A 
ATOM      8  C6  OXE d   1      -0.905  -0.610   2.231  0.00  0.00     0.003 A 
ENDROOT
TORSDOF 0
ENDMDL
