MODEL 1
REMARK minimizedAffinity -1.20333791
REMARK minimizedRMSD -1
REMARK  0 active torsions:
REMARK  status: ('A' for Active; 'I' for Inactive)
ROOT
ATOM      1  C2' OXE d   1       3.494  -1.197  -1.629  0.00  0.00     0.078 C 
ATOM      2  C1' OXE d   1       2.853   1.527  -1.407  0.00  0.00     0.078 C 
ATOM      3  C1  OXE d   1       2.167   0.565  -0.471  0.00  0.00    -0.078 A 
ATOM      4  C2  OXE d   1       2.451  -0.772  -0.617  0.00  0.00    -0.078 A 
ATOM      5  C3  OXE d   1       1.887  -1.697   0.256  0.00  0.00     0.003 A 
ATOM      6  C4  OXE d   1       0.916  -1.296   1.182  0.00  0.00    -0.002 A 
ATOM      7  C5  OXE d   1       0.582   0.055   1.321  0.00  0.00    -0.002 A 
ATOM      8  C6  OXE d   1       1.228   1.001   0.533  0.00  0.00     0.003 A 
ENDROOT
TORSDOF 0
ENDMDL
