MODEL 1
REMARK minimizedAffinity 5.64821053
REMARK minimizedRMSD -1
REMARK  0 active torsions:
REMARK  status: ('A' for Active; 'I' for Inactive)
ROOT
ATOM      1  C2' OXE d   1       0.662   0.343   1.949  0.00  0.00     0.078 C 
ATOM      2  C1' OXE d   1       1.906   1.777  -0.119  0.00  0.00     0.078 C 
ATOM      3  C1  OXE d   1       1.981   0.271  -0.162  0.00  0.00    -0.078 A 
ATOM      4  C2  OXE d   1       1.410  -0.421   0.878  0.00  0.00    -0.078 A 
ATOM      5  C3  OXE d   1       1.403  -1.813   0.859  0.00  0.00     0.003 A 
ATOM      6  C4  OXE d   1       2.106  -2.512  -0.130  0.00  0.00    -0.002 A 
ATOM      7  C5  OXE d   1       2.729  -1.825  -1.178  0.00  0.00    -0.002 A 
ATOM      8  C6  OXE d   1       2.639  -0.438  -1.232  0.00  0.00     0.003 A 
ENDROOT
TORSDOF 0
ENDMDL
