MODEL 1
REMARK minimizedAffinity -1.2323736
REMARK minimizedRMSD -1
REMARK  0 active torsions:
REMARK  status: ('A' for Active; 'I' for Inactive)
ROOT
ATOM      1  C2' OXE d   1       0.509  -1.337   1.600  0.00  0.00     0.078 C 
ATOM      2  C1' OXE d   1       0.751   1.367   0.887  0.00  0.00     0.078 C 
ATOM      3  C1  OXE d   1       1.468   0.348   0.037  0.00  0.00    -0.078 A 
ATOM      4  C2  OXE d   1       1.381  -0.969   0.420  0.00  0.00    -0.078 A 
ATOM      5  C3  OXE d   1       1.978  -1.955  -0.361  0.00  0.00     0.003 A 
ATOM      6  C4  OXE d   1       2.792  -1.604  -1.445  0.00  0.00    -0.002 A 
ATOM      7  C5  OXE d   1       2.925  -0.266  -1.829  0.00  0.00    -0.002 A 
ATOM      8  C6  OXE d   1       2.237   0.717  -1.126  0.00  0.00     0.003 A 
ENDROOT
TORSDOF 0
ENDMDL
