MODEL 1
REMARK minimizedAffinity -3.46176982
REMARK minimizedRMSD -1
REMARK  0 active torsions:
REMARK  status: ('A' for Active; 'I' for Inactive)
ROOT
ATOM      1  C2' OXE d   1       0.372  -1.077   1.037  0.00  0.00     0.078 C 
ATOM      2  C1' OXE d   1       0.632   1.595   0.219  0.00  0.00     0.078 C 
ATOM      3  C1  OXE d   1       1.538   0.572  -0.420  0.00  0.00    -0.078 A 
ATOM      4  C2  OXE d   1       1.436  -0.725   0.020  0.00  0.00    -0.078 A 
ATOM      5  C3  OXE d   1       2.210  -1.718  -0.575  0.00  0.00     0.003 A 
ATOM      6  C4  OXE d   1       3.198  -1.382  -1.508  0.00  0.00    -0.002 A 
ATOM      7  C5  OXE d   1       3.346  -0.060  -1.941  0.00  0.00    -0.002 A 
ATOM      8  C6  OXE d   1       2.497   0.920  -1.440  0.00  0.00     0.003 A 
ENDROOT
TORSDOF 0
ENDMDL
