MODEL 1
REMARK minimizedAffinity -1.44945836
REMARK minimizedRMSD -1
REMARK  0 active torsions:
REMARK  status: ('A' for Active; 'I' for Inactive)
ROOT
ATOM      1  C2' OXE d   1       4.095  -1.347  -2.099  0.00  0.00     0.078 C 
ATOM      2  C1' OXE d   1       3.392   1.365  -1.934  0.00  0.00     0.078 C 
ATOM      3  C1  OXE d   1       2.619   0.386  -1.087  0.00  0.00    -0.078 A 
ATOM      4  C2  OXE d   1       2.939  -0.945  -1.209  0.00  0.00    -0.078 A 
ATOM      5  C3  OXE d   1       2.294  -1.885  -0.410  0.00  0.00     0.003 A 
ATOM      6  C4  OXE d   1       1.219  -1.506   0.403  0.00  0.00    -0.002 A 
ATOM      7  C5  OXE d   1       0.850  -0.161   0.512  0.00  0.00    -0.002 A 
ATOM      8  C6  OXE d   1       1.567   0.801  -0.192  0.00  0.00     0.003 A 
ENDROOT
TORSDOF 0
ENDMDL
