MODEL 1
REMARK minimizedAffinity -1.08354807
REMARK minimizedRMSD -1
REMARK  0 active torsions:
REMARK  status: ('A' for Active; 'I' for Inactive)
ROOT
ATOM      1  C2' OXE d   1       2.426  -0.874  -1.087  0.00  0.00     0.078 C 
ATOM      2  C1' OXE d   1       2.494   1.463   0.468  0.00  0.00     0.078 C 
ATOM      3  C1  OXE d   1       1.403   0.460   0.751  0.00  0.00    -0.078 A 
ATOM      4  C2  OXE d   1       1.350  -0.658  -0.045  0.00  0.00    -0.078 A 
ATOM      5  C3  OXE d   1       0.397  -1.641   0.209  0.00  0.00     0.003 A 
ATOM      6  C4  OXE d   1      -0.601  -1.429   1.168  0.00  0.00    -0.002 A 
ATOM      7  C5  OXE d   1      -0.589  -0.278   1.964  0.00  0.00    -0.002 A 
ATOM      8  C6  OXE d   1       0.429   0.654   1.797  0.00  0.00     0.003 A 
ENDROOT
TORSDOF 0
ENDMDL
