MODEL 1
REMARK minimizedAffinity -3.13428926
REMARK minimizedRMSD -1
REMARK  0 active torsions:
REMARK  status: ('A' for Active; 'I' for Inactive)
ROOT
ATOM      1  C2' OXE d   1       2.507  -1.520  -0.852  0.00  0.00     0.078 C 
ATOM      2  C1' OXE d   1       1.752   1.132  -0.322  0.00  0.00     0.078 C 
ATOM      3  C1  OXE d   1       1.128   0.042   0.514  0.00  0.00    -0.078 A 
ATOM      4  C2  OXE d   1       1.468  -1.256   0.216  0.00  0.00    -0.078 A 
ATOM      5  C3  OXE d   1       0.963  -2.296   0.992  0.00  0.00     0.003 A 
ATOM      6  C4  OXE d   1      -0.005  -2.044   1.972  0.00  0.00    -0.002 A 
ATOM      7  C5  OXE d   1      -0.394  -0.732   2.264  0.00  0.00    -0.002 A 
ATOM      8  C6  OXE d   1       0.193   0.323   1.575  0.00  0.00     0.003 A 
ENDROOT
TORSDOF 0
ENDMDL
