MODEL 1
REMARK minimizedAffinity -2.47088432
REMARK minimizedRMSD -1
REMARK  0 active torsions:
REMARK  status: ('A' for Active; 'I' for Inactive)
ROOT
ATOM      1  C2' OXE d   1       3.305  -1.275  -1.295  0.00  0.00     0.078 C 
ATOM      2  C1' OXE d   1       2.295   1.064  -0.117  0.00  0.00     0.078 C 
ATOM      3  C1  OXE d   1       1.611  -0.239   0.210  0.00  0.00    -0.078 A 
ATOM      4  C2  OXE d   1       2.083  -1.373  -0.407  0.00  0.00    -0.078 A 
ATOM      5  C3  OXE d   1       1.523  -2.609  -0.098  0.00  0.00     0.003 A 
ATOM      6  C4  OXE d   1       0.387  -2.690   0.716  0.00  0.00    -0.002 A 
ATOM      7  C5  OXE d   1      -0.134  -1.542   1.323  0.00  0.00    -0.002 A 
ATOM      8  C6  OXE d   1       0.491  -0.318   1.115  0.00  0.00     0.003 A 
ENDROOT
TORSDOF 0
ENDMDL
