MODEL 1
REMARK minimizedAffinity 4.49552631
REMARK minimizedRMSD -1
REMARK  0 active torsions:
REMARK  status: ('A' for Active; 'I' for Inactive)
ROOT
ATOM      1  C2' OXE d   1      -0.065   2.050  -4.112  0.00  0.00     0.078 C 
ATOM      2  C1' OXE d   1      -2.818   2.523  -3.841  0.00  0.00     0.078 C 
ATOM      3  C1  OXE d   1      -1.869   3.548  -3.273  0.00  0.00    -0.078 A 
ATOM      4  C2  OXE d   1      -0.524   3.285  -3.369  0.00  0.00    -0.078 A 
ATOM      5  C3  OXE d   1       0.397   4.223  -2.909  0.00  0.00     0.003 A 
ATOM      6  C4  OXE d   1      -0.036   5.359  -2.214  0.00  0.00    -0.002 A 
ATOM      7  C5  OXE d   1      -1.402   5.626  -2.070  0.00  0.00    -0.002 A 
ATOM      8  C6  OXE d   1      -2.329   4.754  -2.630  0.00  0.00     0.003 A 
ENDROOT
TORSDOF 0
ENDMDL
