MODEL 1
REMARK minimizedAffinity -1.91778278
REMARK minimizedRMSD -1
REMARK  0 active torsions:
REMARK  status: ('A' for Active; 'I' for Inactive)
ROOT
ATOM      1  C2' OXE d   1       2.630  -1.154  -1.100  0.00  0.00     0.078 C 
ATOM      2  C1' OXE d   1       1.621   1.310  -0.211  0.00  0.00     0.078 C 
ATOM      3  C1  OXE d   1       1.180   0.065   0.517  0.00  0.00    -0.078 A 
ATOM      4  C2  OXE d   1       1.642  -1.140   0.045  0.00  0.00    -0.078 A 
ATOM      5  C3  OXE d   1       1.309  -2.315   0.714  0.00  0.00     0.003 A 
ATOM      6  C4  OXE d   1       0.386  -2.295   1.766  0.00  0.00    -0.002 A 
ATOM      7  C5  OXE d   1      -0.127  -1.081   2.237  0.00  0.00    -0.002 A 
ATOM      8  C6  OXE d   1       0.291   0.108   1.652  0.00  0.00     0.003 A 
ENDROOT
TORSDOF 0
ENDMDL
