MODEL 1
REMARK minimizedAffinity 0.847524345
REMARK minimizedRMSD -1
REMARK  0 active torsions:
REMARK  status: ('A' for Active; 'I' for Inactive)
ROOT
ATOM      1  C2' OXE d   1       0.767  -1.410   0.866  0.00  0.00     0.078 C 
ATOM      2  C1' OXE d   1       1.974   1.116   0.663  0.00  0.00     0.078 C 
ATOM      3  C1  OXE d   1       2.391   0.055  -0.326  0.00  0.00    -0.078 A 
ATOM      4  C2  OXE d   1       1.829  -1.191  -0.189  0.00  0.00    -0.078 A 
ATOM      5  C3  OXE d   1       2.137  -2.191  -1.108  0.00  0.00     0.003 A 
ATOM      6  C4  OXE d   1       3.128  -1.983  -2.075  0.00  0.00    -0.002 A 
ATOM      7  C5  OXE d   1       3.742  -0.733  -2.206  0.00  0.00    -0.002 A 
ATOM      8  C6  OXE d   1       3.355   0.307  -1.368  0.00  0.00     0.003 A 
ENDROOT
TORSDOF 0
ENDMDL
