MODEL 1
REMARK minimizedAffinity -2.78615355
REMARK minimizedRMSD -1
REMARK  0 active torsions:
REMARK  status: ('A' for Active; 'I' for Inactive)
ROOT
ATOM      1  C2' OXE d   1       2.859  -1.162  -1.915  0.00  0.00     0.078 C 
ATOM      2  C1' OXE d   1       2.874   1.552  -1.200  0.00  0.00     0.078 C 
ATOM      3  C1  OXE d   1       2.040   0.610  -0.368  0.00  0.00    -0.078 A 
ATOM      4  C2  OXE d   1       2.002  -0.708  -0.753  0.00  0.00    -0.078 A 
ATOM      5  C3  OXE d   1       1.292  -1.629   0.011  0.00  0.00     0.003 A 
ATOM      6  C4  OXE d   1       0.494  -1.200   1.079  0.00  0.00    -0.002 A 
ATOM      7  C5  OXE d   1       0.488   0.145   1.464  0.00  0.00    -0.002 A 
ATOM      8  C6  OXE d   1       1.287   1.054   0.779  0.00  0.00     0.003 A 
ENDROOT
TORSDOF 0
ENDMDL
