MODEL 1
REMARK minimizedAffinity 5.43934059
REMARK minimizedRMSD -1
REMARK  1 active torsions:
REMARK  status: ('A' for Active; 'I' for Inactive)
REMARK    1  A    between atoms: C3_4  and  O_7 
ROOT
ATOM      1  C   UNL d   1      -0.185   1.216   2.321  0.00  0.00    -0.033 A 
ATOM      2  C1  UNL d   1       0.273   1.430   3.623  0.00  0.00     0.039 A 
ATOM      3  C2  UNL d   1       0.937   0.410   4.308  0.00  0.00    -0.080 A 
ATOM      4  C3  UNL d   1       1.136  -0.816   3.680  0.00  0.00     0.150 A 
ATOM      5  C4  UNL d   1       0.686  -1.035   2.383  0.00  0.00    -0.007 A 
ATOM      6  C5  UNL d   1       0.023  -0.016   1.701  0.00  0.00     0.039 A 
ENDROOT
BRANCH   4   7
ATOM      7  O   UNL d   1       1.775  -1.843   4.310  0.00  0.00    -0.526 OA
ATOM      8  H5  UNL d   1       2.004  -1.557   5.210  0.00  0.00     0.418 HD
ENDBRANCH   4   7
TORSDOF 1
ENDMDL
