MODEL 1
REMARK minimizedAffinity 12.9557972
REMARK minimizedRMSD -1
REMARK  1 active torsions:
REMARK  status: ('A' for Active; 'I' for Inactive)
REMARK    1  A    between atoms: C3_4  and  O_7 
ROOT
ATOM      1  C   UNL d   1      -0.308   0.686   1.874  0.00  0.00    -0.033 A 
ATOM      2  C1  UNL d   1      -0.766  -0.608   1.619  0.00  0.00     0.039 A 
ATOM      3  C2  UNL d   1      -0.261  -1.686   2.350  0.00  0.00    -0.080 A 
ATOM      4  C3  UNL d   1       0.698  -1.456   3.332  0.00  0.00     0.150 A 
ATOM      5  C4  UNL d   1       1.156  -0.169   3.594  0.00  0.00    -0.007 A 
ATOM      6  C5  UNL d   1       0.652   0.906   2.863  0.00  0.00     0.039 A 
ENDROOT
BRANCH   4   7
ATOM      7  O   UNL d   1       1.224  -2.477   4.067  0.00  0.00    -0.526 OA
ATOM      8  H5  UNL d   1       0.835  -3.312   3.757  0.00  0.00     0.418 HD
ENDBRANCH   4   7
TORSDOF 1
ENDMDL
