MODEL 1
REMARK minimizedAffinity 6.35942221
REMARK minimizedRMSD -1
REMARK  1 active torsions:
REMARK  status: ('A' for Active; 'I' for Inactive)
REMARK    1  A    between atoms: C3_4  and  O_7 
ROOT
ATOM      1  C   UNL d   1       0.915  -2.170  -5.999  0.00  0.00    -0.033 A 
ATOM      2  C1  UNL d   1       2.149  -2.824  -5.999  0.00  0.00     0.039 A 
ATOM      3  C2  UNL d   1       3.333  -2.084  -5.998  0.00  0.00    -0.080 A 
ATOM      4  C3  UNL d   1       3.270  -0.693  -5.996  0.00  0.00     0.150 A 
ATOM      5  C4  UNL d   1       2.044  -0.035  -5.993  0.00  0.00    -0.007 A 
ATOM      6  C5  UNL d   1       0.863  -0.776  -5.995  0.00  0.00     0.039 A 
ENDROOT
BRANCH   4   7
ATOM      7  O   UNL d   1       4.398   0.072  -6.000  0.00  0.00    -0.526 OA
ATOM      8  H5  UNL d   1       5.170  -0.518  -6.031  0.00  0.00     0.418 HD
ENDBRANCH   4   7
TORSDOF 1
ENDMDL
