MODEL 1
REMARK minimizedAffinity 4.96015501
REMARK minimizedRMSD -1
REMARK  1 active torsions:
REMARK  status: ('A' for Active; 'I' for Inactive)
REMARK    1  A    between atoms: C3_4  and  O_7 
ROOT
ATOM      1  C   UNL d   1      -1.347  -1.887  -4.485  0.00  0.00    -0.033 A 
ATOM      2  C1  UNL d   1      -0.748  -2.077  -5.731  0.00  0.00     0.039 A 
ATOM      3  C2  UNL d   1       0.501  -1.513  -6.000  0.00  0.00    -0.080 A 
ATOM      4  C3  UNL d   1       1.139  -0.764  -5.014  0.00  0.00     0.150 A 
ATOM      5  C4  UNL d   1       0.549  -0.575  -3.769  0.00  0.00    -0.007 A 
ATOM      6  C5  UNL d   1      -0.698  -1.138  -3.503  0.00  0.00     0.039 A 
ENDROOT
BRANCH   4   7
ATOM      7  O   UNL d   1       2.357  -0.191  -5.231  0.00  0.00    -0.526 OA
ATOM      8  H5  UNL d   1       2.628  -0.382  -6.145  0.00  0.00     0.418 HD
ENDBRANCH   4   7
TORSDOF 1
ENDMDL
