MODEL 1
REMARK minimizedAffinity 10.762536
REMARK minimizedRMSD -1
REMARK  1 active torsions:
REMARK  status: ('A' for Active; 'I' for Inactive)
REMARK    1  A    between atoms: C3_4  and  O_7 
ROOT
ATOM      1  C   UNL d   1      -0.750  -1.368  -4.887  0.00  0.00    -0.033 A 
ATOM      2  C1  UNL d   1      -0.334  -0.627  -3.779  0.00  0.00     0.039 A 
ATOM      3  C2  UNL d   1       0.921  -0.014  -3.779  0.00  0.00    -0.080 A 
ATOM      4  C3  UNL d   1       1.748  -0.149  -4.891  0.00  0.00     0.150 A 
ATOM      5  C4  UNL d   1       1.337  -0.882  -5.999  0.00  0.00    -0.007 A 
ATOM      6  C5  UNL d   1       0.085  -1.494  -5.998  0.00  0.00     0.039 A 
ENDROOT
BRANCH   4   7
ATOM      7  O   UNL d   1       2.983   0.427  -4.935  0.00  0.00    -0.526 OA
ATOM      8  H5  UNL d   1       3.142   0.877  -4.088  0.00  0.00     0.418 HD
ENDBRANCH   4   7
TORSDOF 1
ENDMDL
