MODEL 1
REMARK minimizedAffinity 6.69374752
REMARK minimizedRMSD -1
REMARK  1 active torsions:
REMARK  status: ('A' for Active; 'I' for Inactive)
REMARK    1  A    between atoms: C3_4  and  O_7 
ROOT
ATOM      1  C   UNL d   1       6.000   4.874   3.999  0.00  0.00    -0.033 A 
ATOM      2  C1  UNL d   1       5.469   5.688   2.997  0.00  0.00     0.039 A 
ATOM      3  C2  UNL d   1       4.496   5.187   2.130  0.00  0.00    -0.080 A 
ATOM      4  C3  UNL d   1       4.063   3.871   2.276  0.00  0.00     0.150 A 
ATOM      5  C4  UNL d   1       4.585   3.056   3.274  0.00  0.00    -0.007 A 
ATOM      6  C5  UNL d   1       5.557   3.558   4.139  0.00  0.00     0.039 A 
ENDROOT
BRANCH   4   7
ATOM      7  O   UNL d   1       3.120   3.336   1.450  0.00  0.00    -0.526 OA
ATOM      8  H5  UNL d   1       2.871   4.006   0.791  0.00  0.00     0.418 HD
ENDBRANCH   4   7
TORSDOF 1
ENDMDL
