MODEL 1
REMARK minimizedAffinity 2.96570873
REMARK minimizedRMSD -1
REMARK  1 active torsions:
REMARK  status: ('A' for Active; 'I' for Inactive)
REMARK    1  A    between atoms: C3_4  and  O_7 
ROOT
ATOM      1  C   UNL d   1       1.395  -0.411   3.420  0.00  0.00    -0.033 A 
ATOM      2  C1  UNL d   1       0.728  -1.573   3.811  0.00  0.00     0.039 A 
ATOM      3  C2  UNL d   1      -0.633  -1.725   3.540  0.00  0.00    -0.080 A 
ATOM      4  C3  UNL d   1      -1.315  -0.708   2.876  0.00  0.00     0.150 A 
ATOM      5  C4  UNL d   1      -0.656   0.451   2.480  0.00  0.00    -0.007 A 
ATOM      6  C5  UNL d   1       0.703   0.601   2.753  0.00  0.00     0.039 A 
ENDROOT
BRANCH   4   7
ATOM      7  O   UNL d   1      -2.644  -0.809   2.594  0.00  0.00    -0.526 OA
ATOM      8  H5  UNL d   1      -2.973  -1.650   2.952  0.00  0.00     0.418 HD
ENDBRANCH   4   7
TORSDOF 1
ENDMDL
