MODEL 1
REMARK minimizedAffinity 4.45629406
REMARK minimizedRMSD -1
REMARK  1 active torsions:
REMARK  status: ('A' for Active; 'I' for Inactive)
REMARK    1  A    between atoms: C3_4  and  O_7 
ROOT
ATOM      1  C   UNL d   1       0.893  -2.776  -6.000  0.00  0.00    -0.033 A 
ATOM      2  C1  UNL d   1       2.271  -2.994  -5.940  0.00  0.00     0.039 A 
ATOM      3  C2  UNL d   1       3.138  -1.931  -5.679  0.00  0.00    -0.080 A 
ATOM      4  C3  UNL d   1       2.615  -0.657  -5.477  0.00  0.00     0.150 A 
ATOM      5  C4  UNL d   1       1.243  -0.433  -5.531  0.00  0.00    -0.007 A 
ATOM      6  C5  UNL d   1       0.379  -1.495  -5.794  0.00  0.00     0.039 A 
ENDROOT
BRANCH   4   7
ATOM      7  O   UNL d   1       3.421   0.412  -5.224  0.00  0.00    -0.526 OA
ATOM      8  H5  UNL d   1       4.345   0.113  -5.245  0.00  0.00     0.418 HD
ENDBRANCH   4   7
TORSDOF 1
ENDMDL
