MODEL 1
REMARK minimizedAffinity 10.9152088
REMARK minimizedRMSD -1
REMARK  1 active torsions:
REMARK  status: ('A' for Active; 'I' for Inactive)
REMARK    1  A    between atoms: C3_4  and  O_7 
ROOT
ATOM      1  C   UNL d   1      -0.446  -0.748  -4.057  0.00  0.00    -0.033 A 
ATOM      2  C1  UNL d   1      -1.127  -1.766  -3.386  0.00  0.00     0.039 A 
ATOM      3  C2  UNL d   1      -1.365  -2.986  -4.022  0.00  0.00    -0.080 A 
ATOM      4  C3  UNL d   1      -0.917  -3.176  -5.326  0.00  0.00     0.150 A 
ATOM      5  C4  UNL d   1      -0.235  -2.168  -5.999  0.00  0.00    -0.007 A 
ATOM      6  C5  UNL d   1       0.001  -0.950  -5.363  0.00  0.00     0.039 A 
ENDROOT
BRANCH   4   7
ATOM      7  O   UNL d   1      -1.130  -4.348  -5.989  0.00  0.00    -0.526 OA
ATOM      8  H5  UNL d   1      -1.638  -4.941  -5.411  0.00  0.00     0.418 HD
ENDBRANCH   4   7
TORSDOF 1
ENDMDL
