MODEL 1
REMARK minimizedAffinity 9.7189579
REMARK minimizedRMSD -1
REMARK  1 active torsions:
REMARK  status: ('A' for Active; 'I' for Inactive)
REMARK    1  A    between atoms: C3_4  and  O_7 
ROOT
ATOM      1  C   UNL d   1       2.116  -0.676   3.474  0.00  0.00    -0.033 A 
ATOM      2  C1  UNL d   1       1.747   0.317   2.565  0.00  0.00     0.039 A 
ATOM      3  C2  UNL d   1       0.405   0.482   2.215  0.00  0.00    -0.080 A 
ATOM      4  C3  UNL d   1      -0.556  -0.351   2.781  0.00  0.00     0.150 A 
ATOM      5  C4  UNL d   1      -0.196  -1.340   3.690  0.00  0.00    -0.007 A 
ATOM      6  C5  UNL d   1       1.145  -1.504   4.038  0.00  0.00     0.039 A 
ENDROOT
BRANCH   4   7
ATOM      7  O   UNL d   1      -1.877  -0.231   2.467  0.00  0.00    -0.526 OA
ATOM      8  H5  UNL d   1      -1.974   0.474   1.806  0.00  0.00     0.418 HD
ENDBRANCH   4   7
TORSDOF 1
ENDMDL
