MODEL 1
REMARK minimizedAffinity -3.50431538
REMARK minimizedRMSD -1
REMARK  0 active torsions:
REMARK  status: ('A' for Active; 'I' for Inactive)
ROOT
ATOM      1  C2' OXE d   1       1.890   0.351   0.980  0.00  0.00     0.078 C 
ATOM      2  C1' OXE d   1      -0.627  -0.889   1.063  0.00  0.00     0.078 C 
ATOM      3  C1  OXE d   1       0.536  -1.693   0.539  0.00  0.00    -0.078 A 
ATOM      4  C2  OXE d   1       1.755  -1.063   0.458  0.00  0.00    -0.078 A 
ATOM      5  C3  OXE d   1       2.872  -1.776   0.034  0.00  0.00     0.003 A 
ATOM      6  C4  OXE d   1       2.737  -3.081  -0.456  0.00  0.00    -0.002 A 
ATOM      7  C5  OXE d   1       1.497  -3.728  -0.420  0.00  0.00    -0.002 A 
ATOM      8  C6  OXE d   1       0.398  -3.064   0.113  0.00  0.00     0.003 A 
ENDROOT
TORSDOF 0
ENDMDL
