MODEL 1
REMARK minimizedAffinity -1.33295059
REMARK minimizedRMSD -1
REMARK  0 active torsions:
REMARK  status: ('A' for Active; 'I' for Inactive)
ROOT
ATOM      1  C2' OXE d   1       4.351  -1.292   0.054  0.00  0.00     0.078 C 
ATOM      2  C1' OXE d   1       3.655  -3.992  -0.268  0.00  0.00     0.078 C 
ATOM      3  C1  OXE d   1       2.552  -3.015   0.055  0.00  0.00    -0.078 A 
ATOM      4  C2  OXE d   1       2.909  -1.704   0.257  0.00  0.00    -0.078 A 
ATOM      5  C3  OXE d   1       1.924  -0.752   0.503  0.00  0.00     0.003 A 
ATOM      6  C4  OXE d   1       0.593  -1.142   0.699  0.00  0.00    -0.002 A 
ATOM      7  C5  OXE d   1       0.215  -2.479   0.537  0.00  0.00    -0.002 A 
ATOM      8  C6  OXE d   1       1.173  -3.419   0.174  0.00  0.00     0.003 A 
ENDROOT
TORSDOF 0
ENDMDL
