MODEL 1
REMARK minimizedAffinity -0.0354307555
REMARK minimizedRMSD -1
REMARK  0 active torsions:
REMARK  status: ('A' for Active; 'I' for Inactive)
ROOT
ATOM      1  C2' OXE d   1      -1.363  -2.065   0.063  0.00  0.00     0.078 C 
ATOM      2  C1' OXE d   1       0.497  -1.112   1.937  0.00  0.00     0.078 C 
ATOM      3  C1  OXE d   1       0.978  -2.111   0.914  0.00  0.00    -0.078 A 
ATOM      4  C2  OXE d   1       0.050  -2.607   0.030  0.00  0.00    -0.078 A 
ATOM      5  C3  OXE d   1       0.451  -3.489  -0.968  0.00  0.00     0.003 A 
ATOM      6  C4  OXE d   1       1.757  -3.994  -0.985  0.00  0.00    -0.002 A 
ATOM      7  C5  OXE d   1       2.709  -3.532  -0.069  0.00  0.00    -0.002 A 
ATOM      8  C6  OXE d   1       2.347  -2.561   0.858  0.00  0.00     0.003 A 
ENDROOT
TORSDOF 0
ENDMDL
