MODEL 1
REMARK minimizedAffinity -4.06218386
REMARK minimizedRMSD -1
REMARK  0 active torsions:
REMARK  status: ('A' for Active; 'I' for Inactive)
ROOT
ATOM      1  C2' OXE d   1       3.024  -2.777  -0.101  0.00  0.00     0.078 C 
ATOM      2  C1' OXE d   1       2.743  -0.008   0.266  0.00  0.00     0.078 C 
ATOM      3  C1  OXE d   1       1.523  -0.871   0.466  0.00  0.00    -0.078 A 
ATOM      4  C2  OXE d   1       1.658  -2.220   0.238  0.00  0.00    -0.078 A 
ATOM      5  C3  OXE d   1       0.577  -3.068   0.461  0.00  0.00     0.003 A 
ATOM      6  C4  OXE d   1      -0.685  -2.544   0.766  0.00  0.00    -0.002 A 
ATOM      7  C5  OXE d   1      -0.853  -1.169   0.963  0.00  0.00    -0.002 A 
ATOM      8  C6  OXE d   1       0.247  -0.325   0.858  0.00  0.00     0.003 A 
ENDROOT
TORSDOF 0
ENDMDL
