MODEL 1
REMARK minimizedAffinity -3.29408765
REMARK minimizedRMSD -1
REMARK  0 active torsions:
REMARK  status: ('A' for Active; 'I' for Inactive)
ROOT
ATOM      1  C2' OXE d   1       2.003   0.580   0.642  0.00  0.00     0.078 C 
ATOM      2  C1' OXE d   1      -0.410  -0.728   1.230  0.00  0.00     0.078 C 
ATOM      3  C1  OXE d   1       0.716  -1.553   0.661  0.00  0.00    -0.078 A 
ATOM      4  C2  OXE d   1       1.878  -0.896   0.332  0.00  0.00    -0.078 A 
ATOM      5  C3  OXE d   1       2.967  -1.619  -0.145  0.00  0.00     0.003 A 
ATOM      6  C4  OXE d   1       2.839  -2.983  -0.439  0.00  0.00    -0.002 A 
ATOM      7  C5  OXE d   1       1.652  -3.663  -0.149  0.00  0.00    -0.002 A 
ATOM      8  C6  OXE d   1       0.597  -2.973   0.440  0.00  0.00     0.003 A 
ENDROOT
TORSDOF 0
ENDMDL
