MODEL 1
REMARK minimizedAffinity -1.97390282
REMARK minimizedRMSD -1
REMARK  0 active torsions:
REMARK  status: ('A' for Active; 'I' for Inactive)
ROOT
ATOM      1  C2' OXE d   1      -0.696  -1.516   0.740  0.00  0.00     0.078 C 
ATOM      2  C1' OXE d   1       1.659  -0.140   1.406  0.00  0.00     0.078 C 
ATOM      3  C1  OXE d   1       1.795  -1.480   0.726  0.00  0.00    -0.078 A 
ATOM      4  C2  OXE d   1       0.639  -2.167   0.446  0.00  0.00    -0.078 A 
ATOM      5  C3  OXE d   1       0.705  -3.382  -0.230  0.00  0.00     0.003 A 
ATOM      6  C4  OXE d   1       1.943  -3.982  -0.489  0.00  0.00    -0.002 A 
ATOM      7  C5  OXE d   1       3.134  -3.317  -0.176  0.00  0.00    -0.002 A 
ATOM      8  C6  OXE d   1       3.077  -2.049   0.392  0.00  0.00     0.003 A 
ENDROOT
TORSDOF 0
ENDMDL
