MODEL 1
REMARK minimizedAffinity -4.8992238
REMARK minimizedRMSD -1
REMARK  0 active torsions:
REMARK  status: ('A' for Active; 'I' for Inactive)
ROOT
ATOM      1  C2' OXE d   1      -0.002   0.071   0.782  0.00  0.00     0.078 C 
ATOM      2  C1' OXE d   1      -1.470  -2.282   1.215  0.00  0.00     0.078 C 
ATOM      3  C1  OXE d   1      -0.050  -2.418   0.725  0.00  0.00    -0.078 A 
ATOM      4  C2  OXE d   1       0.645  -1.261   0.471  0.00  0.00    -0.078 A 
ATOM      5  C3  OXE d   1       1.976  -1.330   0.069  0.00  0.00     0.003 A 
ATOM      6  C4  OXE d   1       2.564  -2.566  -0.226  0.00  0.00    -0.002 A 
ATOM      7  C5  OXE d   1       1.860  -3.756  -0.012  0.00  0.00    -0.002 A 
ATOM      8  C6  OXE d   1       0.570  -3.701   0.502  0.00  0.00     0.003 A 
ENDROOT
TORSDOF 0
ENDMDL
