MODEL 1
REMARK minimizedAffinity 5.17227459
REMARK minimizedRMSD -1
REMARK  0 active torsions:
REMARK  status: ('A' for Active; 'I' for Inactive)
ROOT
ATOM      1  C2' OXE d   1      -1.372  -1.726   1.395  0.00  0.00     0.078 C 
ATOM      2  C1' OXE d   1       0.211  -2.276  -0.856  0.00  0.00     0.078 C 
ATOM      3  C1  OXE d   1       0.861  -1.564   0.303  0.00  0.00    -0.078 A 
ATOM      4  C2  OXE d   1       0.067  -1.257   1.382  0.00  0.00    -0.078 A 
ATOM      5  C3  OXE d   1       0.629  -0.650   2.501  0.00  0.00     0.003 A 
ATOM      6  C4  OXE d   1       1.959  -0.211   2.477  0.00  0.00    -0.002 A 
ATOM      7  C5  OXE d   1       2.774  -0.478   1.372  0.00  0.00    -0.002 A 
ATOM      8  C6  OXE d   1       2.254  -1.190   0.297  0.00  0.00     0.003 A 
ENDROOT
TORSDOF 0
ENDMDL
