MODEL 1
REMARK minimizedAffinity 4.41969442
REMARK minimizedRMSD -1
REMARK  0 active torsions:
REMARK  status: ('A' for Active; 'I' for Inactive)
ROOT
ATOM      1  C2' OXE d   1       3.391  -1.475   0.049  0.00  0.00     0.078 C 
ATOM      2  C1' OXE d   1       2.383  -0.299   2.390  0.00  0.00     0.078 C 
ATOM      3  C1  OXE d   1       1.455  -1.177   1.588  0.00  0.00    -0.078 A 
ATOM      4  C2  OXE d   1       1.943  -1.711   0.419  0.00  0.00    -0.078 A 
ATOM      5  C3  OXE d   1       1.146  -2.573  -0.330  0.00  0.00     0.003 A 
ATOM      6  C4  OXE d   1      -0.195  -2.778   0.015  0.00  0.00    -0.002 A 
ATOM      7  C5  OXE d   1      -0.723  -2.211   1.180  0.00  0.00    -0.002 A 
ATOM      8  C6  OXE d   1       0.099  -1.445   1.998  0.00  0.00     0.003 A 
ENDROOT
TORSDOF 0
ENDMDL
