MODEL 1
REMARK minimizedAffinity 0.67264396
REMARK minimizedRMSD -1
REMARK  0 active torsions:
REMARK  status: ('A' for Active; 'I' for Inactive)
ROOT
ATOM      1  C2' OXE d   1       1.045  -3.221  -1.430  0.00  0.00     0.078 C 
ATOM      2  C1' OXE d   1       3.058  -1.580  -0.364  0.00  0.00     0.078 C 
ATOM      3  C1  OXE d   1       1.659  -1.419   0.176  0.00  0.00    -0.078 A 
ATOM      4  C2  OXE d   1       0.672  -2.193  -0.384  0.00  0.00    -0.078 A 
ATOM      5  C3  OXE d   1      -0.626  -2.123   0.115  0.00  0.00     0.003 A 
ATOM      6  C4  OXE d   1      -0.965  -1.163   1.076  0.00  0.00    -0.002 A 
ATOM      7  C5  OXE d   1       0.018  -0.337   1.632  0.00  0.00    -0.002 A 
ATOM      8  C6  OXE d   1       1.340  -0.481   1.224  0.00  0.00     0.003 A 
ENDROOT
TORSDOF 0
ENDMDL
