MODEL 1
REMARK minimizedAffinity 3.3349061
REMARK minimizedRMSD -1
REMARK  0 active torsions:
REMARK  status: ('A' for Active; 'I' for Inactive)
ROOT
ATOM      1  C2' OXE d   1       1.017  -3.395   0.121  0.00  0.00     0.078 C 
ATOM      2  C1' OXE d   1       2.865  -1.295   0.356  0.00  0.00     0.078 C 
ATOM      3  C1  OXE d   1       3.406  -2.690   0.164  0.00  0.00    -0.078 A 
ATOM      4  C2  OXE d   1       2.496  -3.717   0.097  0.00  0.00    -0.078 A 
ATOM      5  C3  OXE d   1       2.939  -5.017  -0.135  0.00  0.00     0.003 A 
ATOM      6  C4  OXE d   1       4.308  -5.307  -0.146  0.00  0.00    -0.002 A 
ATOM      7  C5  OXE d   1       5.253  -4.281  -0.039  0.00  0.00    -0.002 A 
ATOM      8  C6  OXE d   1       4.819  -2.965   0.073  0.00  0.00     0.003 A 
ENDROOT
TORSDOF 0
ENDMDL
