MODEL 1
REMARK minimizedAffinity -0.137364075
REMARK minimizedRMSD -1
REMARK  0 active torsions:
REMARK  status: ('A' for Active; 'I' for Inactive)
ROOT
ATOM      1  C2' OXE d   1       2.598  -3.552  -0.189  0.00  0.00     0.078 C 
ATOM      2  C1' OXE d   1       3.076  -0.796   0.040  0.00  0.00     0.078 C 
ATOM      3  C1  OXE d   1       1.676  -1.291   0.301  0.00  0.00    -0.078 A 
ATOM      4  C2  OXE d   1       1.440  -2.635   0.141  0.00  0.00    -0.078 A 
ATOM      5  C3  OXE d   1       0.179  -3.153   0.423  0.00  0.00     0.003 A 
ATOM      6  C4  OXE d   1      -0.888  -2.296   0.718  0.00  0.00    -0.002 A 
ATOM      7  C5  OXE d   1      -0.679  -0.919   0.847  0.00  0.00    -0.002 A 
ATOM      8  C6  OXE d   1       0.603  -0.407   0.684  0.00  0.00     0.003 A 
ENDROOT
TORSDOF 0
ENDMDL
