MODEL 1
REMARK minimizedAffinity 13.3118982
REMARK minimizedRMSD -1
REMARK  0 active torsions:
REMARK  status: ('A' for Active; 'I' for Inactive)
ROOT
ATOM      1  C2' OXE d   1       1.996   1.109  -3.390  0.00  0.00     0.078 C 
ATOM      2  C1' OXE d   1       4.170   0.653  -5.105  0.00  0.00     0.078 C 
ATOM      3  C1  OXE d   1       4.322   0.260  -3.657  0.00  0.00    -0.078 A 
ATOM      4  C2  OXE d   1       3.270   0.529  -2.815  0.00  0.00    -0.078 A 
ATOM      5  C3  OXE d   1       3.337   0.137  -1.481  0.00  0.00     0.003 A 
ATOM      6  C4  OXE d   1       4.523  -0.389  -0.956  0.00  0.00    -0.002 A 
ATOM      7  C5  OXE d   1       5.620  -0.635  -1.787  0.00  0.00    -0.002 A 
ATOM      8  C6  OXE d   1       5.522  -0.356  -3.146  0.00  0.00     0.003 A 
ENDROOT
TORSDOF 0
ENDMDL
