MODEL 1
REMARK minimizedAffinity -0.64801383
REMARK minimizedRMSD -1
REMARK  0 active torsions:
REMARK  status: ('A' for Active; 'I' for Inactive)
ROOT
ATOM      1  C2' OXE d   1       2.012  -3.428   0.120  0.00  0.00     0.078 C 
ATOM      2  C1' OXE d   1       2.683  -0.749   0.619  0.00  0.00     0.078 C 
ATOM      3  C1  OXE d   1       1.259  -1.175   0.869  0.00  0.00    -0.078 A 
ATOM      4  C2  OXE d   1       0.928  -2.477   0.578  0.00  0.00    -0.078 A 
ATOM      5  C3  OXE d   1      -0.359  -2.937   0.842  0.00  0.00     0.003 A 
ATOM      6  C4  OXE d   1      -1.358  -2.048   1.256  0.00  0.00    -0.002 A 
ATOM      7  C5  OXE d   1      -1.052  -0.709   1.521  0.00  0.00    -0.002 A 
ATOM      8  C6  OXE d   1       0.258  -0.267   1.373  0.00  0.00     0.003 A 
ENDROOT
TORSDOF 0
ENDMDL
