MODEL 1
REMARK minimizedAffinity -3.2981813
REMARK minimizedRMSD -1
REMARK  0 active torsions:
REMARK  status: ('A' for Active; 'I' for Inactive)
ROOT
ATOM      1  C2' OXE d   1       3.688  -4.557  -0.012  0.00  0.00     0.078 C 
ATOM      2  C1' OXE d   1       4.450  -1.860   0.159  0.00  0.00     0.078 C 
ATOM      3  C1  OXE d   1       2.976  -2.177   0.182  0.00  0.00    -0.078 A 
ATOM      4  C2  OXE d   1       2.610  -3.496   0.050  0.00  0.00    -0.078 A 
ATOM      5  C3  OXE d   1       1.265  -3.848   0.120  0.00  0.00     0.003 A 
ATOM      6  C4  OXE d   1       0.275  -2.860   0.168  0.00  0.00    -0.002 A 
ATOM      7  C5  OXE d   1       0.624  -1.509   0.262  0.00  0.00    -0.002 A 
ATOM      8  C6  OXE d   1       1.968  -1.154   0.313  0.00  0.00     0.003 A 
ENDROOT
TORSDOF 0
ENDMDL
