MODEL 1
REMARK minimizedAffinity 4.06553078
REMARK minimizedRMSD -1
REMARK  0 active torsions:
REMARK  status: ('A' for Active; 'I' for Inactive)
ROOT
ATOM      1  C2' OXE d   1       4.330  -4.556   0.093  0.00  0.00     0.078 C 
ATOM      2  C1' OXE d   1       4.065  -1.806   0.591  0.00  0.00     0.078 C 
ATOM      3  C1  OXE d   1       2.805  -2.610   0.393  0.00  0.00    -0.078 A 
ATOM      4  C2  OXE d   1       2.945  -3.946   0.104  0.00  0.00    -0.078 A 
ATOM      5  C3  OXE d   1       1.814  -4.744  -0.034  0.00  0.00     0.003 A 
ATOM      6  C4  OXE d   1       0.537  -4.170  -0.032  0.00  0.00    -0.002 A 
ATOM      7  C5  OXE d   1       0.372  -2.804   0.221  0.00  0.00    -0.002 A 
ATOM      8  C6  OXE d   1       1.491  -2.020   0.478  0.00  0.00     0.003 A 
ENDROOT
TORSDOF 0
ENDMDL
