MODEL 1
REMARK minimizedAffinity 1.02676225
REMARK minimizedRMSD -1
REMARK  0 active torsions:
REMARK  status: ('A' for Active; 'I' for Inactive)
ROOT
ATOM      1  C2' OXE d   1       4.142  -4.408  -0.141  0.00  0.00     0.078 C 
ATOM      2  C1' OXE d   1       4.274  -1.754   0.763  0.00  0.00     0.078 C 
ATOM      3  C1  OXE d   1       2.915  -2.403   0.683  0.00  0.00    -0.078 A 
ATOM      4  C2  OXE d   1       2.855  -3.687   0.196  0.00  0.00    -0.078 A 
ATOM      5  C3  OXE d   1       1.633  -4.352   0.153  0.00  0.00     0.003 A 
ATOM      6  C4  OXE d   1       0.446  -3.674   0.457  0.00  0.00    -0.002 A 
ATOM      7  C5  OXE d   1       0.481  -2.353   0.918  0.00  0.00    -0.002 A 
ATOM      8  C6  OXE d   1       1.708  -1.719   1.077  0.00  0.00     0.003 A 
ENDROOT
TORSDOF 0
ENDMDL
