MODEL 1
REMARK minimizedAffinity -2.18182492
REMARK minimizedRMSD -1
REMARK  1 active torsions:
REMARK  status: ('A' for Active; 'I' for Inactive)
REMARK    1  A    between atoms: C3_4  and  O_7 
ROOT
ATOM      1  C   UNL d   1       5.900  -6.000   3.919  0.00  0.00    -0.033 A 
ATOM      2  C1  UNL d   1       5.941  -4.812   3.187  0.00  0.00     0.039 A 
ATOM      3  C2  UNL d   1       5.977  -3.583   3.848  0.00  0.00    -0.080 A 
ATOM      4  C3  UNL d   1       5.971  -3.555   5.240  0.00  0.00     0.150 A 
ATOM      5  C4  UNL d   1       5.934  -4.735   5.976  0.00  0.00    -0.007 A 
ATOM      6  C5  UNL d   1       5.898  -5.961   5.314  0.00  0.00     0.039 A 
ENDROOT
BRANCH   4   7
ATOM      7  O   UNL d   1       6.000  -2.379   5.930  0.00  0.00    -0.526 OA
ATOM      8  H5  UNL d   1       5.995  -1.648   5.290  0.00  0.00     0.418 HD
ENDBRANCH   4   7
TORSDOF 1
ENDMDL
