MODEL 1
REMARK minimizedAffinity 2.0808239
REMARK minimizedRMSD -1
REMARK  1 active torsions:
REMARK  status: ('A' for Active; 'I' for Inactive)
REMARK    1  A    between atoms: C3_4  and  O_7 
ROOT
ATOM      1  C   UNL d   1       2.037  -6.000   2.855  0.00  0.00    -0.033 A 
ATOM      2  C1  UNL d   1       2.698  -5.267   1.868  0.00  0.00     0.039 A 
ATOM      3  C2  UNL d   1       1.970  -4.478   0.976  0.00  0.00    -0.080 A 
ATOM      4  C3  UNL d   1       0.582  -4.431   1.081  0.00  0.00     0.150 A 
ATOM      5  C4  UNL d   1      -0.083  -5.156   2.065  0.00  0.00    -0.007 A 
ATOM      6  C5  UNL d   1       0.646  -5.943   2.954  0.00  0.00     0.039 A 
ENDROOT
BRANCH   4   7
ATOM      7  O   UNL d   1      -0.172  -3.679   0.230  0.00  0.00    -0.526 OA
ATOM      8  H5  UNL d   1       0.420  -3.256  -0.414  0.00  0.00     0.418 HD
ENDBRANCH   4   7
TORSDOF 1
ENDMDL
