MODEL 1
REMARK minimizedAffinity 1.05986166
REMARK minimizedRMSD -1
REMARK  1 active torsions:
REMARK  status: ('A' for Active; 'I' for Inactive)
REMARK    1  A    between atoms: C3_4  and  O_7 
ROOT
ATOM      1  C   UNL d   1       1.172  -5.189   1.871  0.00  0.00    -0.033 A 
ATOM      2  C1  UNL d   1       2.331  -4.878   1.157  0.00  0.00     0.039 A 
ATOM      3  C2  UNL d   1       3.586  -5.126   1.718  0.00  0.00    -0.080 A 
ATOM      4  C3  UNL d   1       3.668  -5.684   2.990  0.00  0.00     0.150 A 
ATOM      5  C4  UNL d   1       2.517  -6.000   3.706  0.00  0.00    -0.007 A 
ATOM      6  C5  UNL d   1       1.265  -5.751   3.145  0.00  0.00     0.039 A 
ENDROOT
BRANCH   4   7
ATOM      7  O   UNL d   1       4.870  -5.939   3.580  0.00  0.00    -0.526 OA
ATOM      8  H5  UNL d   1       5.576  -5.644   2.981  0.00  0.00     0.418 HD
ENDBRANCH   4   7
TORSDOF 1
ENDMDL
