MODEL 1
REMARK minimizedAffinity -1.08802211
REMARK minimizedRMSD -1
REMARK  1 active torsions:
REMARK  status: ('A' for Active; 'I' for Inactive)
REMARK    1  A    between atoms: C3_4  and  O_7 
ROOT
ATOM      1  C   UNL d   1       0.793  -4.902   2.147  0.00  0.00    -0.033 A 
ATOM      2  C1  UNL d   1       1.639  -4.509   1.108  0.00  0.00     0.039 A 
ATOM      3  C2  UNL d   1       2.990  -4.859   1.134  0.00  0.00    -0.080 A 
ATOM      4  C3  UNL d   1       3.483  -5.602   2.203  0.00  0.00     0.150 A 
ATOM      5  C4  UNL d   1       2.646  -6.000   3.240  0.00  0.00    -0.007 A 
ATOM      6  C5  UNL d   1       1.297  -5.649   3.213  0.00  0.00     0.039 A 
ENDROOT
BRANCH   4   7
ATOM      7  O   UNL d   1       4.795  -5.963   2.275  0.00  0.00    -0.526 OA
ATOM      8  H5  UNL d   1       5.259  -5.594   1.505  0.00  0.00     0.418 HD
ENDBRANCH   4   7
TORSDOF 1
ENDMDL
