MODEL 1
REMARK minimizedAffinity -2.91483641
REMARK minimizedRMSD -1
REMARK  1 active torsions:
REMARK  status: ('A' for Active; 'I' for Inactive)
REMARK    1  A    between atoms: C3_4  and  O_7 
ROOT
ATOM      1  C   UNL d   1       5.975  -4.560   3.844  0.00  0.00    -0.033 A 
ATOM      2  C1  UNL d   1       5.102  -5.638   3.996  0.00  0.00     0.039 A 
ATOM      3  C2  UNL d   1       4.247  -6.000   2.953  0.00  0.00    -0.080 A 
ATOM      4  C3  UNL d   1       4.277  -5.277   1.764  0.00  0.00     0.150 A 
ATOM      5  C4  UNL d   1       5.147  -4.203   1.604  0.00  0.00    -0.007 A 
ATOM      6  C5  UNL d   1       5.999  -3.843   2.647  0.00  0.00     0.039 A 
ENDROOT
BRANCH   4   7
ATOM      7  O   UNL d   1       3.458  -5.589   0.719  0.00  0.00    -0.526 OA
ATOM      8  H5  UNL d   1       2.892  -6.333   0.984  0.00  0.00     0.418 HD
ENDBRANCH   4   7
TORSDOF 1
ENDMDL
