MODEL 1
REMARK minimizedAffinity 6.03744411
REMARK minimizedRMSD -1
REMARK  1 active torsions:
REMARK  status: ('A' for Active; 'I' for Inactive)
REMARK    1  A    between atoms: C3_4  and  O_7 
ROOT
ATOM      1  C   UNL d   1       5.937  -4.958   5.995  0.00  0.00    -0.033 A 
ATOM      2  C1  UNL d   1       5.955  -5.865   4.934  0.00  0.00     0.039 A 
ATOM      3  C2  UNL d   1       5.975  -5.402   3.617  0.00  0.00    -0.080 A 
ATOM      4  C3  UNL d   1       5.978  -4.031   3.375  0.00  0.00     0.150 A 
ATOM      5  C4  UNL d   1       5.964  -3.121   4.428  0.00  0.00    -0.007 A 
ATOM      6  C5  UNL d   1       5.943  -3.586   5.742  0.00  0.00     0.039 A 
ENDROOT
BRANCH   4   7
ATOM      7  O   UNL d   1       5.993  -3.530   2.107  0.00  0.00    -0.526 OA
ATOM      8  H5  UNL d   1       5.972  -4.275   1.483  0.00  0.00     0.418 HD
ENDBRANCH   4   7
TORSDOF 1
ENDMDL
