MODEL 1
REMARK minimizedAffinity -0.885454416
REMARK minimizedRMSD -1
REMARK  1 active torsions:
REMARK  status: ('A' for Active; 'I' for Inactive)
REMARK    1  A    between atoms: C3_4  and  O_7 
ROOT
ATOM      1  C   UNL d   1      -2.239   1.860   1.337  0.00  0.00    -0.033 A 
ATOM      2  C1  UNL d   1      -0.878   1.559   1.406  0.00  0.00     0.039 A 
ATOM      3  C2  UNL d   1      -0.008   2.405   2.097  0.00  0.00    -0.080 A 
ATOM      4  C3  UNL d   1      -0.512   3.546   2.715  0.00  0.00     0.150 A 
ATOM      5  C4  UNL d   1      -1.868   3.850   2.654  0.00  0.00    -0.007 A 
ATOM      6  C5  UNL d   1      -2.735   3.005   1.963  0.00  0.00     0.039 A 
ENDROOT
BRANCH   4   7
ATOM      7  O   UNL d   1       0.299   4.404   3.397  0.00  0.00    -0.526 OA
ATOM      8  H5  UNL d   1       1.213   4.082   3.330  0.00  0.00     0.418 HD
ENDBRANCH   4   7
TORSDOF 1
ENDMDL
