MODEL 1
REMARK minimizedAffinity -0.381342739
REMARK minimizedRMSD -1
REMARK  1 active torsions:
REMARK  status: ('A' for Active; 'I' for Inactive)
REMARK    1  A    between atoms: C3_4  and  O_7 
ROOT
ATOM      1  C   UNL d   1      -5.661   5.628   4.628  0.00  0.00    -0.033 A 
ATOM      2  C1  UNL d   1      -6.000   4.976   3.441  0.00  0.00     0.039 A 
ATOM      3  C2  UNL d   1      -4.998   4.477   2.606  0.00  0.00    -0.080 A 
ATOM      4  C3  UNL d   1      -3.663   4.635   2.970  0.00  0.00     0.150 A 
ATOM      5  C4  UNL d   1      -3.319   5.281   4.154  0.00  0.00    -0.007 A 
ATOM      6  C5  UNL d   1      -4.321   5.779   4.985  0.00  0.00     0.039 A 
ENDROOT
BRANCH   4   7
ATOM      7  O   UNL d   1      -2.650   4.169   2.186  0.00  0.00    -0.526 OA
ATOM      8  H5  UNL d   1      -3.037   3.772   1.388  0.00  0.00     0.418 HD
ENDBRANCH   4   7
TORSDOF 1
ENDMDL
