MODEL 1
REMARK minimizedAffinity -1.06011045
REMARK minimizedRMSD -1
REMARK  1 active torsions:
REMARK  status: ('A' for Active; 'I' for Inactive)
REMARK    1  A    between atoms: C3_4  and  O_7 
ROOT
ATOM      1  C   UNL d   1      -5.909  -4.049   0.874  0.00  0.00    -0.033 A 
ATOM      2  C1  UNL d   1      -4.662  -3.448   0.690  0.00  0.00     0.039 A 
ATOM      3  C2  UNL d   1      -3.503  -4.092   1.129  0.00  0.00    -0.080 A 
ATOM      4  C3  UNL d   1      -3.605  -5.335   1.748  0.00  0.00     0.150 A 
ATOM      5  C4  UNL d   1      -4.844  -5.941   1.931  0.00  0.00    -0.007 A 
ATOM      6  C5  UNL d   1      -6.000  -5.296   1.493  0.00  0.00     0.039 A 
ENDROOT
BRANCH   4   7
ATOM      7  O   UNL d   1      -2.503  -6.000   2.198  0.00  0.00    -0.526 OA
ATOM      8  H5  UNL d   1      -1.721  -5.448   2.029  0.00  0.00     0.418 HD
ENDBRANCH   4   7
TORSDOF 1
ENDMDL
