MODEL 1
REMARK minimizedAffinity 6.59074688
REMARK minimizedRMSD -1
REMARK  1 active torsions:
REMARK  status: ('A' for Active; 'I' for Inactive)
REMARK    1  A    between atoms: C3_4  and  O_7 
ROOT
ATOM      1  C   UNL d   1      -2.438   0.975   1.232  0.00  0.00    -0.033 A 
ATOM      2  C1  UNL d   1      -1.122   0.778   0.811  0.00  0.00     0.039 A 
ATOM      3  C2  UNL d   1      -0.076   1.453   1.443  0.00  0.00    -0.080 A 
ATOM      4  C3  UNL d   1      -0.360   2.320   2.494  0.00  0.00     0.150 A 
ATOM      5  C4  UNL d   1      -1.668   2.519   2.922  0.00  0.00    -0.007 A 
ATOM      6  C5  UNL d   1      -2.711   1.844   2.288  0.00  0.00     0.039 A 
ENDROOT
BRANCH   4   7
ATOM      7  O   UNL d   1       0.627   3.005   3.139  0.00  0.00    -0.526 OA
ATOM      8  H5  UNL d   1       1.476   2.791   2.718  0.00  0.00     0.418 HD
ENDBRANCH   4   7
TORSDOF 1
ENDMDL
