MODEL 1
REMARK minimizedAffinity 2.16247463
REMARK minimizedRMSD -1
REMARK  1 active torsions:
REMARK  status: ('A' for Active; 'I' for Inactive)
REMARK    1  A    between atoms: C3_4  and  O_7 
ROOT
ATOM      1  C   UNL d   1      -2.444   0.807   0.793  0.00  0.00    -0.033 A 
ATOM      2  C1  UNL d   1      -1.068   0.735   0.573  0.00  0.00     0.039 A 
ATOM      3  C2  UNL d   1      -0.183   1.347   1.464  0.00  0.00    -0.080 A 
ATOM      4  C3  UNL d   1      -0.688   2.024   2.570  0.00  0.00     0.150 A 
ATOM      5  C4  UNL d   1      -2.058   2.096   2.798  0.00  0.00    -0.007 A 
ATOM      6  C5  UNL d   1      -2.940   1.486   1.907  0.00  0.00     0.039 A 
ENDROOT
BRANCH   4   7
ATOM      7  O   UNL d   1       0.136   2.640   3.465  0.00  0.00    -0.526 OA
ATOM      8  H5  UNL d   1       1.053   2.532   3.164  0.00  0.00     0.418 HD
ENDBRANCH   4   7
TORSDOF 1
ENDMDL
