MODEL 1
REMARK minimizedAffinity 1.13020682
REMARK minimizedRMSD -1
REMARK  1 active torsions:
REMARK  status: ('A' for Active; 'I' for Inactive)
REMARK    1  A    between atoms: C3_4  and  O_7 
ROOT
ATOM      1  C   UNL d   1       0.863  -0.065   2.084  0.00  0.00    -0.033 A 
ATOM      2  C1  UNL d   1       0.709   1.098   1.327  0.00  0.00     0.039 A 
ATOM      3  C2  UNL d   1      -0.533   1.414   0.774  0.00  0.00    -0.080 A 
ATOM      4  C3  UNL d   1      -1.613   0.561   0.987  0.00  0.00     0.150 A 
ATOM      5  C4  UNL d   1      -1.468  -0.597   1.744  0.00  0.00    -0.007 A 
ATOM      6  C5  UNL d   1      -0.226  -0.912   2.294  0.00  0.00     0.039 A 
ENDROOT
BRANCH   4   7
ATOM      7  O   UNL d   1      -2.843   0.825   0.464  0.00  0.00    -0.526 OA
ATOM      8  H5  UNL d   1      -2.787   1.643  -0.059  0.00  0.00     0.418 HD
ENDBRANCH   4   7
TORSDOF 1
ENDMDL
