MODEL 1
REMARK minimizedAffinity 1.71270442
REMARK minimizedRMSD -1
REMARK  1 active torsions:
REMARK  status: ('A' for Active; 'I' for Inactive)
REMARK    1  A    between atoms: C3_4  and  O_7 
ROOT
ATOM      1  C   UNL d   1      -5.991  -0.341   5.834  0.00  0.00    -0.033 A 
ATOM      2  C1  UNL d   1      -5.979  -0.938   4.572  0.00  0.00     0.039 A 
ATOM      3  C2  UNL d   1      -5.980  -0.145   3.423  0.00  0.00    -0.080 A 
ATOM      4  C3  UNL d   1      -5.991   1.242   3.549  0.00  0.00     0.150 A 
ATOM      5  C4  UNL d   1      -5.998   1.843   4.803  0.00  0.00    -0.007 A 
ATOM      6  C5  UNL d   1      -5.998   1.049   5.950  0.00  0.00     0.039 A 
ENDROOT
BRANCH   4   7
ATOM      7  O   UNL d   1      -5.997   2.057   2.456  0.00  0.00    -0.526 OA
ATOM      8  H5  UNL d   1      -6.020   1.502   1.659  0.00  0.00     0.418 HD
ENDBRANCH   4   7
TORSDOF 1
ENDMDL
