MODEL 1
REMARK minimizedAffinity 2.84302258
REMARK minimizedRMSD -1
REMARK  1 active torsions:
REMARK  status: ('A' for Active; 'I' for Inactive)
REMARK    1  A    between atoms: C3_4  and  O_7 
ROOT
ATOM      1  C   UNL d   1      -2.641  -3.867   0.394  0.00  0.00    -0.033 A 
ATOM      2  C1  UNL d   1      -2.695  -5.261   0.438  0.00  0.00     0.039 A 
ATOM      3  C2  UNL d   1      -1.577  -5.992   0.845  0.00  0.00    -0.080 A 
ATOM      4  C3  UNL d   1      -0.414  -5.318   1.206  0.00  0.00     0.150 A 
ATOM      5  C4  UNL d   1      -0.355  -3.928   1.169  0.00  0.00    -0.007 A 
ATOM      6  C5  UNL d   1      -1.472  -3.200   0.761  0.00  0.00     0.039 A 
ENDROOT
BRANCH   4   7
ATOM      7  O   UNL d   1       0.704  -5.988   1.606  0.00  0.00    -0.526 OA
ATOM      8  H5  UNL d   1       0.525  -6.942   1.555  0.00  0.00     0.418 HD
ENDBRANCH   4   7
TORSDOF 1
ENDMDL
