MODEL 1
REMARK minimizedAffinity 5.02775145
REMARK minimizedRMSD -1
REMARK  1 active torsions:
REMARK  status: ('A' for Active; 'I' for Inactive)
REMARK    1  A    between atoms: C3_4  and  O_7 
ROOT
ATOM      1  C   UNL d   1       5.525   5.211  -0.692  0.00  0.00    -0.033 A 
ATOM      2  C1  UNL d   1       5.996   3.920  -0.940  0.00  0.00     0.039 A 
ATOM      3  C2  UNL d   1       5.253   2.813  -0.527  0.00  0.00    -0.080 A 
ATOM      4  C3  UNL d   1       4.042   3.009   0.131  0.00  0.00     0.150 A 
ATOM      5  C4  UNL d   1       3.564   4.292   0.378  0.00  0.00    -0.007 A 
ATOM      6  C5  UNL d   1       4.308   5.397  -0.035  0.00  0.00     0.039 A 
ENDROOT
BRANCH   4   7
ATOM      7  O   UNL d   1       3.284   1.959   0.557  0.00  0.00    -0.526 OA
ATOM      8  H5  UNL d   1       3.752   1.135   0.343  0.00  0.00     0.418 HD
ENDBRANCH   4   7
TORSDOF 1
ENDMDL
