MODEL 1
REMARK minimizedAffinity 4.66755581
REMARK minimizedRMSD -1
REMARK  1 active torsions:
REMARK  status: ('A' for Active; 'I' for Inactive)
REMARK    1  A    between atoms: C3_4  and  O_7 
ROOT
ATOM      1  C   UNL d   1       4.317  -0.384  -4.137  0.00  0.00    -0.033 A 
ATOM      2  C1  UNL d   1       3.378  -0.910  -3.248  0.00  0.00     0.039 A 
ATOM      3  C2  UNL d   1       2.235  -1.549  -3.733  0.00  0.00    -0.080 A 
ATOM      4  C3  UNL d   1       2.044  -1.655  -5.108  0.00  0.00     0.150 A 
ATOM      5  C4  UNL d   1       2.977  -1.137  -6.000  0.00  0.00    -0.007 A 
ATOM      6  C5  UNL d   1       4.117  -0.499  -5.513  0.00  0.00     0.039 A 
ENDROOT
BRANCH   4   7
ATOM      7  O   UNL d   1       0.942  -2.265  -5.629  0.00  0.00    -0.526 OA
ATOM      8  H5  UNL d   1       0.371  -2.549  -4.895  0.00  0.00     0.418 HD
ENDBRANCH   4   7
TORSDOF 1
ENDMDL
