MODEL 1
REMARK minimizedAffinity 10.78687
REMARK minimizedRMSD -1
REMARK  2 active torsions:
REMARK  status: ('A' for Active; 'I' for Inactive)
REMARK    1  A    between atoms: C1_2  and  C2_3 
REMARK    2  A    between atoms: C2_3  and  C3_4 
ROOT
ATOM      1  C3  UNL d   1       3.688  -1.917   3.403  0.00  0.00    -0.075 A 
ATOM      2  C4  UNL d   1       2.493  -1.828   4.132  0.00  0.00     0.002 A 
ATOM      3  C5  UNL d   1       1.497  -0.927   3.753  0.00  0.00     0.002 A 
ATOM      4  C6  UNL d   1       1.687  -0.098   2.650  0.00  0.00    -0.004 A 
ATOM      5  C7  UNL d   1       2.877  -0.165   1.929  0.00  0.00     0.002 A 
ATOM      6  C8  UNL d   1       3.873  -1.069   2.303  0.00  0.00     0.002 A 
ENDROOT
BRANCH   1   7
ATOM      7  C2  UNL d   1       4.757  -2.911   3.790  0.00  0.00     0.056 C 
BRANCH   7   8
ATOM      8  C1  UNL d   1       5.998  -2.276   4.425  0.00  0.00     0.007 C 
ATOM      9  C   UNL d   1       5.999  -2.349   5.946  0.00  0.00     0.009 C 
ENDBRANCH   7   8
ENDBRANCH   1   7
TORSDOF 2
ENDMDL
