MODEL 1
REMARK minimizedAffinity 4.89599466
REMARK minimizedRMSD -1
REMARK  2 active torsions:
REMARK  status: ('A' for Active; 'I' for Inactive)
REMARK    1  A    between atoms: C1_2  and  C2_3 
REMARK    2  A    between atoms: C2_3  and  C3_4 
ROOT
ATOM      1  C3  UNL d   1       2.881  -1.764   3.635  0.00  0.00    -0.075 A 
ATOM      2  C4  UNL d   1       2.174  -1.951   4.831  0.00  0.00     0.002 A 
ATOM      3  C5  UNL d   1       2.843  -2.322   5.998  0.00  0.00     0.002 A 
ATOM      4  C6  UNL d   1       4.222  -2.521   5.982  0.00  0.00    -0.004 A 
ATOM      5  C7  UNL d   1       4.932  -2.354   4.795  0.00  0.00     0.002 A 
ATOM      6  C8  UNL d   1       4.266  -1.978   3.627  0.00  0.00     0.002 A 
ENDROOT
BRANCH   1   7
ATOM      7  C2  UNL d   1       2.168  -1.333   2.375  0.00  0.00     0.056 C 
BRANCH   7   8
ATOM      8  C1  UNL d   1       2.626   0.025   1.833  0.00  0.00     0.007 C 
ATOM      9  C   UNL d   1       2.266   1.189   2.747  0.00  0.00     0.009 C 
ENDBRANCH   7   8
ENDBRANCH   1   7
TORSDOF 2
ENDMDL
