MODEL 1
REMARK minimizedAffinity 2.56408429
REMARK minimizedRMSD -1
REMARK  2 active torsions:
REMARK  status: ('A' for Active; 'I' for Inactive)
REMARK    1  A    between atoms: C1_2  and  C2_3 
REMARK    2  A    between atoms: C2_3  and  C3_4 
ROOT
ATOM      1  C3  UNL d   1       3.369  -2.179   4.233  0.00  0.00    -0.075 A 
ATOM      2  C4  UNL d   1       3.694  -2.252   5.595  0.00  0.00     0.002 A 
ATOM      3  C5  UNL d   1       5.002  -2.524   5.998  0.00  0.00     0.002 A 
ATOM      4  C6  UNL d   1       5.997  -2.736   5.046  0.00  0.00    -0.004 A 
ATOM      5  C7  UNL d   1       5.682  -2.682   3.690  0.00  0.00     0.002 A 
ATOM      6  C8  UNL d   1       4.375  -2.406   3.285  0.00  0.00     0.002 A 
ENDROOT
BRANCH   1   7
ATOM      7  C2  UNL d   1       1.962  -1.857   3.791  0.00  0.00     0.056 C 
BRANCH   7   8
ATOM      8  C1  UNL d   1       1.887  -0.907   2.591  0.00  0.00     0.007 C 
ATOM      9  C   UNL d   1       2.162   0.546   2.957  0.00  0.00     0.009 C 
ENDBRANCH   7   8
ENDBRANCH   1   7
TORSDOF 2
ENDMDL
