MODEL 1
REMARK minimizedAffinity 13.6435785
REMARK minimizedRMSD -1
REMARK  2 active torsions:
REMARK  status: ('A' for Active; 'I' for Inactive)
REMARK    1  A    between atoms: C1_2  and  C2_3 
REMARK    2  A    between atoms: C2_3  and  C3_4 
ROOT
ATOM      1  C3  UNL d   1       1.063  -3.330   4.720  0.00  0.00    -0.075 A 
ATOM      2  C4  UNL d   1       0.154  -3.646   5.739  0.00  0.00     0.002 A 
ATOM      3  C5  UNL d   1      -0.185  -4.974   6.000  0.00  0.00     0.002 A 
ATOM      4  C6  UNL d   1       0.372  -6.000   5.240  0.00  0.00    -0.004 A 
ATOM      5  C7  UNL d   1       1.264  -5.696   4.214  0.00  0.00     0.002 A 
ATOM      6  C8  UNL d   1       1.608  -4.369   3.954  0.00  0.00     0.002 A 
ENDROOT
BRANCH   1   7
ATOM      7  C2  UNL d   1       1.456  -1.896   4.452  0.00  0.00     0.056 C 
BRANCH   7   8
ATOM      8  C1  UNL d   1       1.968  -1.645   3.030  0.00  0.00     0.007 C 
ATOM      9  C   UNL d   1       1.499  -0.318   2.449  0.00  0.00     0.009 C 
ENDBRANCH   7   8
ENDBRANCH   1   7
TORSDOF 2
ENDMDL
