MODEL 1
REMARK minimizedAffinity 3.34292555
REMARK minimizedRMSD -1
REMARK  2 active torsions:
REMARK  status: ('A' for Active; 'I' for Inactive)
REMARK    1  A    between atoms: C1_2  and  C2_3 
REMARK    2  A    between atoms: C2_3  and  C3_4 
ROOT
ATOM      1  C3  UNL d   1       2.330  -1.592   3.723  0.00  0.00    -0.075 A 
ATOM      2  C4  UNL d   1       1.770  -2.026   4.933  0.00  0.00     0.002 A 
ATOM      3  C5  UNL d   1       2.589  -2.402   5.998  0.00  0.00     0.002 A 
ATOM      4  C6  UNL d   1       3.975  -2.361   5.864  0.00  0.00    -0.004 A 
ATOM      5  C7  UNL d   1       4.542  -1.947   4.661  0.00  0.00     0.002 A 
ATOM      6  C8  UNL d   1       3.726  -1.566   3.595  0.00  0.00     0.002 A 
ENDROOT
BRANCH   1   7
ATOM      7  C2  UNL d   1       1.450  -1.155   2.577  0.00  0.00     0.056 C 
BRANCH   7   8
ATOM      8  C1  UNL d   1       2.093  -0.110   1.660  0.00  0.00     0.007 C 
ATOM      9  C   UNL d   1       2.116   1.287   2.265  0.00  0.00     0.009 C 
ENDBRANCH   7   8
ENDBRANCH   1   7
TORSDOF 2
ENDMDL
