MODEL 1
REMARK minimizedAffinity 9.0438509
REMARK minimizedRMSD -1
REMARK  2 active torsions:
REMARK  status: ('A' for Active; 'I' for Inactive)
REMARK    1  A    between atoms: C1_2  and  C2_3 
REMARK    2  A    between atoms: C2_3  and  C3_4 
ROOT
ATOM      1  C3  UNL d   1       3.492  -5.946  -2.240  0.00  0.00    -0.075 A 
ATOM      2  C4  UNL d   1       2.251  -5.942  -2.894  0.00  0.00     0.002 A 
ATOM      3  C5  UNL d   1       2.184  -5.974  -4.287  0.00  0.00     0.002 A 
ATOM      4  C6  UNL d   1       3.354  -6.000  -5.043  0.00  0.00    -0.004 A 
ATOM      5  C7  UNL d   1       4.592  -5.987  -4.405  0.00  0.00     0.002 A 
ATOM      6  C8  UNL d   1       4.662  -5.960  -3.011  0.00  0.00     0.002 A 
ENDROOT
BRANCH   1   7
ATOM      7  C2  UNL d   1       3.572  -5.941  -0.732  0.00  0.00     0.056 C 
BRANCH   7   8
ATOM      8  C1  UNL d   1       2.213  -5.812  -0.037  0.00  0.00     0.007 C 
ATOM      9  C   UNL d   1       2.305  -5.188   1.350  0.00  0.00     0.009 C 
ENDBRANCH   7   8
ENDBRANCH   1   7
TORSDOF 2
ENDMDL
