MODEL 1
REMARK minimizedAffinity 0.0510942638
REMARK minimizedRMSD -1
REMARK  0 active torsions:
REMARK  status: ('A' for Active; 'I' for Inactive)
ROOT
ATOM      1  C   UNL d   1      -0.063   1.582  -1.239  0.00  0.00     0.124 A 
ATOM      2  C1  UNL d   1      -0.322   1.366   0.107  0.00  0.00     0.062 A 
ATOM      3  C2  UNL d   1      -0.242   0.081   0.637  0.00  0.00     0.162 A 
ATOM      4  C3  UNL d   1       0.100  -0.997  -0.179  0.00  0.00    -0.034 A 
ATOM      5  C4  UNL d   1       0.359  -0.771  -1.532  0.00  0.00     0.162 A 
ATOM      6  C5  UNL d   1       0.277   0.514  -2.057  0.00  0.00     0.062 A 
ATOM      7  F   UNL d   1       0.528   0.721  -3.358  0.00  0.00    -0.097 F 
ATOM      8  F1  UNL d   1       0.690  -1.786  -2.344  0.00  0.00    -0.096 F 
ATOM      9  I   UNL d   1       0.220  -2.919   0.611  0.00  0.00    -0.060 I 
ATOM     10  F2  UNL d   1      -0.498  -0.098   1.942  0.00  0.00    -0.096 F 
ATOM     11  F3  UNL d   1      -0.652   2.396   0.899  0.00  0.00    -0.097 F 
ATOM     12  F4  UNL d   1      -0.141   2.819  -1.747  0.00  0.00    -0.092 F 
ENDROOT
TORSDOF 0
ENDMDL
