MODEL 1
REMARK minimizedAffinity -1.82534802
REMARK minimizedRMSD -1
REMARK  0 active torsions:
REMARK  status: ('A' for Active; 'I' for Inactive)
ROOT
ATOM      1  C   UNL d   1      -0.034  -2.292   0.150  0.00  0.00     0.124 A 
ATOM      2  C1  UNL d   1      -0.704  -1.737   1.231  0.00  0.00     0.062 A 
ATOM      3  C2  UNL d   1      -0.702  -0.359   1.424  0.00  0.00     0.162 A 
ATOM      4  C3  UNL d   1      -0.027   0.475   0.533  0.00  0.00    -0.034 A 
ATOM      5  C4  UNL d   1       0.646  -0.090  -0.552  0.00  0.00     0.162 A 
ATOM      6  C5  UNL d   1       0.640  -1.468  -0.740  0.00  0.00     0.062 A 
ATOM      7  F   UNL d   1       1.289  -2.002  -1.785  0.00  0.00    -0.097 F 
ATOM      8  F1  UNL d   1       1.304   0.683  -1.428  0.00  0.00    -0.096 F 
ATOM      9  I   UNL d   1      -0.022   2.537   0.818  0.00  0.00    -0.060 I 
ATOM     10  F2  UNL d   1      -1.358   0.150   2.478  0.00  0.00    -0.096 F 
ATOM     11  F3  UNL d   1      -1.356  -2.531   2.094  0.00  0.00    -0.097 F 
ATOM     12  F4  UNL d   1      -0.037  -3.619  -0.032  0.00  0.00    -0.092 F 
ENDROOT
TORSDOF 0
ENDMDL
