MODEL 1
REMARK minimizedAffinity 0.351255506
REMARK minimizedRMSD -1
REMARK  0 active torsions:
REMARK  status: ('A' for Active; 'I' for Inactive)
ROOT
ATOM      1  C   UNL d   1       0.444  -2.076  -0.494  0.00  0.00     0.124 A 
ATOM      2  C1  UNL d   1       0.532  -1.093  -1.470  0.00  0.00     0.062 A 
ATOM      3  C2  UNL d   1       0.435   0.250  -1.120  0.00  0.00     0.162 A 
ATOM      4  C3  UNL d   1       0.252   0.620   0.212  0.00  0.00    -0.034 A 
ATOM      5  C4  UNL d   1       0.164  -0.374   1.188  0.00  0.00     0.162 A 
ATOM      6  C5  UNL d   1       0.260  -1.716   0.834  0.00  0.00     0.062 A 
ATOM      7  F   UNL d   1       0.176  -2.664   1.778  0.00  0.00    -0.097 F 
ATOM      8  F1  UNL d   1      -0.013  -0.054   2.479  0.00  0.00    -0.096 F 
ATOM      9  I   UNL d   1       0.107   2.628   0.738  0.00  0.00    -0.060 I 
ATOM     10  F2  UNL d   1       0.523   1.179  -2.084  0.00  0.00    -0.096 F 
ATOM     11  F3  UNL d   1       0.708  -1.439  -2.753  0.00  0.00    -0.097 F 
ATOM     12  F4  UNL d   1       0.536  -3.369  -0.833  0.00  0.00    -0.092 F 
ENDROOT
TORSDOF 0
ENDMDL
