MODEL 1
REMARK minimizedAffinity 1.45370424
REMARK minimizedRMSD -1
REMARK  0 active torsions:
REMARK  status: ('A' for Active; 'I' for Inactive)
ROOT
ATOM      1  C   UNL d   1      -1.470  -1.623   1.832  0.00  0.00     0.124 A 
ATOM      2  C1  UNL d   1      -0.619  -2.508   1.185  0.00  0.00     0.062 A 
ATOM      3  C2  UNL d   1      -0.095  -2.188  -0.064  0.00  0.00     0.162 A 
ATOM      4  C3  UNL d   1      -0.420  -0.976  -0.674  0.00  0.00    -0.034 A 
ATOM      5  C4  UNL d   1      -1.277  -0.092  -0.018  0.00  0.00     0.162 A 
ATOM      6  C5  UNL d   1      -1.798  -0.416   1.231  0.00  0.00     0.062 A 
ATOM      7  F   UNL d   1      -2.621   0.440   1.855  0.00  0.00    -0.097 F 
ATOM      8  F1  UNL d   1      -1.610   1.082  -0.576  0.00  0.00    -0.096 F 
ATOM      9  I   UNL d   1       0.362  -0.494  -2.542  0.00  0.00    -0.060 I 
ATOM     10  F2  UNL d   1       0.725  -3.062  -0.667  0.00  0.00    -0.096 F 
ATOM     11  F3  UNL d   1      -0.301  -3.675   1.763  0.00  0.00    -0.097 F 
ATOM     12  F4  UNL d   1      -1.973  -1.934   3.034  0.00  0.00    -0.092 F 
ENDROOT
TORSDOF 0
ENDMDL
