MODEL 1
REMARK minimizedAffinity 1.96674192
REMARK minimizedRMSD -1
REMARK  0 active torsions:
REMARK  status: ('A' for Active; 'I' for Inactive)
ROOT
ATOM      1  C   UNL d   1       0.027  -1.991  -0.238  0.00  0.00     0.124 A 
ATOM      2  C1  UNL d   1       0.008  -1.577   1.087  0.00  0.00     0.062 A 
ATOM      3  C2  UNL d   1       0.123  -0.225   1.399  0.00  0.00     0.162 A 
ATOM      4  C3  UNL d   1       0.257   0.722   0.384  0.00  0.00    -0.034 A 
ATOM      5  C4  UNL d   1       0.276   0.298  -0.945  0.00  0.00     0.162 A 
ATOM      6  C5  UNL d   1       0.161  -1.054  -1.252  0.00  0.00     0.062 A 
ATOM      7  F   UNL d   1       0.180  -1.452  -2.533  0.00  0.00    -0.097 F 
ATOM      8  F1  UNL d   1       0.404   1.183  -1.945  0.00  0.00    -0.096 F 
ATOM      9  I   UNL d   1       0.429   2.744   0.847  0.00  0.00    -0.060 I 
ATOM     10  F2  UNL d   1       0.101   0.147   2.688  0.00  0.00    -0.096 F 
ATOM     11  F3  UNL d   1      -0.121  -2.481   2.069  0.00  0.00    -0.097 F 
ATOM     12  F4  UNL d   1      -0.083  -3.292  -0.536  0.00  0.00    -0.092 F 
ENDROOT
TORSDOF 0
ENDMDL
