MODEL 1
REMARK minimizedAffinity -3.70076299
REMARK minimizedRMSD -1
REMARK  0 active torsions:
REMARK  status: ('A' for Active; 'I' for Inactive)
ROOT
ATOM      1  C   UNL d   1      -0.445  -2.912  -0.989  0.00  0.00     0.124 A 
ATOM      2  C1  UNL d   1      -0.623  -2.408   0.292  0.00  0.00     0.062 A 
ATOM      3  C2  UNL d   1      -0.441  -1.051   0.541  0.00  0.00     0.162 A 
ATOM      4  C3  UNL d   1      -0.080  -0.187  -0.493  0.00  0.00    -0.034 A 
ATOM      5  C4  UNL d   1       0.099  -0.703  -1.778  0.00  0.00     0.162 A 
ATOM      6  C5  UNL d   1      -0.084  -2.060  -2.022  0.00  0.00     0.062 A 
ATOM      7  F   UNL d   1       0.088  -2.546  -3.260  0.00  0.00    -0.097 F 
ATOM      8  F1  UNL d   1       0.446   0.099  -2.796  0.00  0.00    -0.096 F 
ATOM      9  I   UNL d   1       0.194   1.843  -0.125  0.00  0.00    -0.060 I 
ATOM     10  F2  UNL d   1      -0.620  -0.590   1.788  0.00  0.00    -0.096 F 
ATOM     11  F3  UNL d   1      -0.971  -3.230   1.293  0.00  0.00    -0.097 F 
ATOM     12  F4  UNL d   1      -0.620  -4.219  -1.225  0.00  0.00    -0.092 F 
ENDROOT
TORSDOF 0
ENDMDL
