MODEL 1
REMARK minimizedAffinity -2.1697104
REMARK minimizedRMSD -1
REMARK  0 active torsions:
REMARK  status: ('A' for Active; 'I' for Inactive)
ROOT
ATOM      1  C   UNL d   1      -0.772  -2.187  -0.732  0.00  0.00     0.124 A 
ATOM      2  C1  UNL d   1      -1.039  -1.795   0.572  0.00  0.00     0.062 A 
ATOM      3  C2  UNL d   1      -0.779  -0.489   0.977  0.00  0.00     0.162 A 
ATOM      4  C3  UNL d   1      -0.249   0.435   0.077  0.00  0.00    -0.034 A 
ATOM      5  C4  UNL d   1       0.018   0.033  -1.233  0.00  0.00     0.162 A 
ATOM      6  C5  UNL d   1      -0.243  -1.274  -1.633  0.00  0.00     0.062 A 
ATOM      7  F   UNL d   1       0.016  -1.651  -2.894  0.00  0.00    -0.097 F 
ATOM      8  F1  UNL d   1       0.528   0.896  -2.125  0.00  0.00    -0.096 F 
ATOM      9  I   UNL d   1       0.142   2.389   0.679  0.00  0.00    -0.060 I 
ATOM     10  F2  UNL d   1      -1.047  -0.137   2.244  0.00  0.00    -0.096 F 
ATOM     11  F3  UNL d   1      -1.549  -2.676   1.445  0.00  0.00    -0.097 F 
ATOM     12  F4  UNL d   1      -1.022  -3.445  -1.119  0.00  0.00    -0.092 F 
ENDROOT
TORSDOF 0
ENDMDL
