MODEL 1
REMARK minimizedAffinity -3.6806829
REMARK minimizedRMSD -1
REMARK  0 active torsions:
REMARK  status: ('A' for Active; 'I' for Inactive)
ROOT
ATOM      1  C   UNL d   1      -0.288  -0.711   1.110  0.00  0.00     0.124 A 
ATOM      2  C1  UNL d   1      -0.105  -2.062   0.848  0.00  0.00     0.062 A 
ATOM      3  C2  UNL d   1       0.153  -2.494  -0.449  0.00  0.00     0.162 A 
ATOM      4  C3  UNL d   1       0.232  -1.575  -1.495  0.00  0.00    -0.034 A 
ATOM      5  C4  UNL d   1       0.046  -0.218  -1.224  0.00  0.00     0.162 A 
ATOM      6  C5  UNL d   1      -0.213   0.209   0.074  0.00  0.00     0.062 A 
ATOM      7  F   UNL d   1      -0.389   1.515   0.326  0.00  0.00    -0.097 F 
ATOM      8  F1  UNL d   1       0.114   0.693  -2.206  0.00  0.00    -0.096 F 
ATOM      9  I   UNL d   1       0.618  -2.217  -3.436  0.00  0.00    -0.060 I 
ATOM     10  F2  UNL d   1       0.326  -3.805  -0.673  0.00  0.00    -0.096 F 
ATOM     11  F3  UNL d   1      -0.179  -2.953   1.847  0.00  0.00    -0.097 F 
ATOM     12  F4  UNL d   1      -0.538  -0.297   2.359  0.00  0.00    -0.092 F 
ENDROOT
TORSDOF 0
ENDMDL
