MODEL 1
REMARK minimizedAffinity -4.54259825
REMARK minimizedRMSD -1
REMARK  0 active torsions:
REMARK  status: ('A' for Active; 'I' for Inactive)
ROOT
ATOM      1  C   UNL d   1      -0.795  -0.707   1.432  0.00  0.00     0.124 A 
ATOM      2  C1  UNL d   1      -0.777  -2.054   1.095  0.00  0.00     0.062 A 
ATOM      3  C2  UNL d   1      -0.442  -2.448  -0.197  0.00  0.00     0.162 A 
ATOM      4  C3  UNL d   1      -0.122  -1.493  -1.163  0.00  0.00    -0.034 A 
ATOM      5  C4  UNL d   1      -0.144  -0.141  -0.817  0.00  0.00     0.162 A 
ATOM      6  C5  UNL d   1      -0.479   0.247   0.475  0.00  0.00     0.062 A 
ATOM      7  F   UNL d   1      -0.497   1.549   0.799  0.00  0.00    -0.097 F 
ATOM      8  F1  UNL d   1       0.158   0.803  -1.721  0.00  0.00    -0.096 F 
ATOM      9  I   UNL d   1       0.380  -2.078  -3.097  0.00  0.00    -0.060 I 
ATOM     10  F2  UNL d   1      -0.431  -3.756  -0.494  0.00  0.00    -0.096 F 
ATOM     11  F3  UNL d   1      -1.083  -2.978   2.017  0.00  0.00    -0.097 F 
ATOM     12  F4  UNL d   1      -1.119  -0.331   2.675  0.00  0.00    -0.092 F 
ENDROOT
TORSDOF 0
ENDMDL
