MODEL 1
REMARK minimizedAffinity -1.12029338
REMARK minimizedRMSD -1
REMARK  0 active torsions:
REMARK  status: ('A' for Active; 'I' for Inactive)
ROOT
ATOM      1  C   UNL d   1      -0.773  -1.652  -0.480  0.00  0.00     0.124 A 
ATOM      2  C1  UNL d   1      -0.722  -1.301   0.862  0.00  0.00     0.062 A 
ATOM      3  C2  UNL d   1      -0.340  -0.016   1.236  0.00  0.00     0.162 A 
ATOM      4  C3  UNL d   1      -0.006   0.929   0.266  0.00  0.00    -0.034 A 
ATOM      5  C4  UNL d   1      -0.059   0.569  -1.082  0.00  0.00     0.162 A 
ATOM      6  C5  UNL d   1      -0.442  -0.717  -1.450  0.00  0.00     0.062 A 
ATOM      7  F   UNL d   1      -0.490  -1.054  -2.747  0.00  0.00    -0.097 F 
ATOM      8  F1  UNL d   1       0.255   1.453  -2.040  0.00  0.00    -0.096 F 
ATOM      9  I   UNL d   1       0.566   2.851   0.821  0.00  0.00    -0.060 I 
ATOM     10  F2  UNL d   1      -0.300   0.295   2.540  0.00  0.00    -0.096 F 
ATOM     11  F3  UNL d   1      -1.042  -2.203   1.802  0.00  0.00    -0.097 F 
ATOM     12  F4  UNL d   1      -1.141  -2.889  -0.837  0.00  0.00    -0.092 F 
ENDROOT
TORSDOF 0
ENDMDL
