MODEL 1
REMARK minimizedAffinity -3.89648843
REMARK minimizedRMSD -1
REMARK  0 active torsions:
REMARK  status: ('A' for Active; 'I' for Inactive)
ROOT
ATOM      1  C   UNL d   1      -0.581  -2.414  -0.762  0.00  0.00     0.124 A 
ATOM      2  C1  UNL d   1      -0.824  -1.881   0.497  0.00  0.00     0.062 A 
ATOM      3  C2  UNL d   1      -0.509  -0.553   0.768  0.00  0.00     0.162 A 
ATOM      4  C3  UNL d   1       0.052   0.253  -0.223  0.00  0.00    -0.034 A 
ATOM      5  C4  UNL d   1       0.295  -0.289  -1.486  0.00  0.00     0.162 A 
ATOM      6  C5  UNL d   1      -0.022  -1.617  -1.752  0.00  0.00     0.062 A 
ATOM      7  F   UNL d   1       0.213  -2.130  -2.968  0.00  0.00    -0.097 F 
ATOM      8  F1  UNL d   1       0.833   0.458  -2.461  0.00  0.00    -0.096 F 
ATOM      9  I   UNL d   1       0.525   2.240   0.179  0.00  0.00    -0.060 I 
ATOM     10  F2  UNL d   1      -0.754  -0.065   1.993  0.00  0.00    -0.096 F 
ATOM     11  F3  UNL d   1      -1.363  -2.649   1.455  0.00  0.00    -0.097 F 
ATOM     12  F4  UNL d   1      -0.885  -3.692  -1.020  0.00  0.00    -0.092 F 
ENDROOT
TORSDOF 0
ENDMDL
