MODEL 1
REMARK minimizedAffinity -3.39585543
REMARK minimizedRMSD -1
REMARK  0 active torsions:
REMARK  status: ('A' for Active; 'I' for Inactive)
ROOT
ATOM      1  C   UNL d   1      -0.712  -0.444   1.004  0.00  0.00     0.124 A 
ATOM      2  C1  UNL d   1      -0.603  -1.818   0.835  0.00  0.00     0.062 A 
ATOM      3  C2  UNL d   1      -0.245  -2.345  -0.402  0.00  0.00     0.162 A 
ATOM      4  C3  UNL d   1       0.008  -1.498  -1.481  0.00  0.00    -0.034 A 
ATOM      5  C4  UNL d   1      -0.105  -0.118  -1.304  0.00  0.00     0.162 A 
ATOM      6  C5  UNL d   1      -0.463   0.404  -0.065  0.00  0.00     0.062 A 
ATOM      7  F   UNL d   1      -0.568   1.731   0.096  0.00  0.00    -0.097 F 
ATOM      8  F1  UNL d   1       0.131   0.725  -2.320  0.00  0.00    -0.096 F 
ATOM      9  I   UNL d   1       0.544  -2.282  -3.333  0.00  0.00    -0.060 I 
ATOM     10  F2  UNL d   1      -0.146  -3.676  -0.536  0.00  0.00    -0.096 F 
ATOM     11  F3  UNL d   1      -0.844  -2.640   1.867  0.00  0.00    -0.097 F 
ATOM     12  F4  UNL d   1      -1.058   0.060   2.196  0.00  0.00    -0.092 F 
ENDROOT
TORSDOF 0
ENDMDL
