MODEL 1
REMARK minimizedAffinity 4.81794214
REMARK minimizedRMSD -1
REMARK  0 active torsions:
REMARK  status: ('A' for Active; 'I' for Inactive)
ROOT
ATOM      1  C   UNL d   1      -0.633  -0.677  -0.393  0.00  0.00     0.124 A 
ATOM      2  C1  UNL d   1      -0.414   0.480  -1.127  0.00  0.00     0.062 A 
ATOM      3  C2  UNL d   1       0.286   1.544  -0.565  0.00  0.00     0.162 A 
ATOM      4  C3  UNL d   1       0.774   1.455   0.739  0.00  0.00    -0.034 A 
ATOM      5  C4  UNL d   1       0.548   0.289   1.472  0.00  0.00     0.162 A 
ATOM      6  C5  UNL d   1      -0.152  -0.772   0.906  0.00  0.00     0.062 A 
ATOM      7  F   UNL d   1      -0.363  -1.889   1.617  0.00  0.00    -0.097 F 
ATOM      8  F1  UNL d   1       1.003   0.170   2.728  0.00  0.00    -0.096 F 
ATOM      9  I   UNL d   1       1.821   3.043   1.582  0.00  0.00    -0.060 I 
ATOM     10  F2  UNL d   1       0.483   2.650  -1.298  0.00  0.00    -0.096 F 
ATOM     11  F3  UNL d   1      -0.879   0.574  -2.381  0.00  0.00    -0.097 F 
ATOM     12  F4  UNL d   1      -1.308  -1.699  -0.935  0.00  0.00    -0.092 F 
ENDROOT
TORSDOF 0
ENDMDL
