MODEL 1
REMARK minimizedAffinity -1.6809144
REMARK minimizedRMSD -1
REMARK  0 active torsions:
REMARK  status: ('A' for Active; 'I' for Inactive)
ROOT
ATOM      1  C   UNL d   1      -0.431  -3.242  -0.148  0.00  0.00     0.124 A 
ATOM      2  C1  UNL d   1       0.448  -2.716  -1.084  0.00  0.00     0.062 A 
ATOM      3  C2  UNL d   1       0.555  -1.338  -1.247  0.00  0.00     0.162 A 
ATOM      4  C3  UNL d   1      -0.219  -0.475  -0.470  0.00  0.00    -0.034 A 
ATOM      5  C4  UNL d   1      -1.102  -1.012   0.468  0.00  0.00     0.162 A 
ATOM      6  C5  UNL d   1      -1.205  -2.390   0.627  0.00  0.00     0.062 A 
ATOM      7  F   UNL d   1      -2.055  -2.896   1.532  0.00  0.00    -0.097 F 
ATOM      8  F1  UNL d   1      -1.861  -0.211   1.231  0.00  0.00    -0.096 F 
ATOM      9  I   UNL d   1      -0.062   1.586  -0.711  0.00  0.00    -0.060 I 
ATOM     10  F2  UNL d   1       1.413  -0.857  -2.159  0.00  0.00    -0.096 F 
ATOM     11  F3  UNL d   1       1.196  -3.537  -1.834  0.00  0.00    -0.097 F 
ATOM     12  F4  UNL d   1      -0.533  -4.569   0.006  0.00  0.00    -0.092 F 
ENDROOT
TORSDOF 0
ENDMDL
