MODEL 1
REMARK minimizedAffinity -3.2941215
REMARK minimizedRMSD -1
REMARK  0 active torsions:
REMARK  status: ('A' for Active; 'I' for Inactive)
ROOT
ATOM      1  C   UNL d   1       0.102  -2.609  -0.724  0.00  0.00     0.124 A 
ATOM      2  C1  UNL d   1      -0.082  -2.161   0.576  0.00  0.00     0.062 A 
ATOM      3  C2  UNL d   1      -0.072  -0.797   0.855  0.00  0.00     0.162 A 
ATOM      4  C3  UNL d   1       0.120   0.129  -0.169  0.00  0.00    -0.034 A 
ATOM      5  C4  UNL d   1       0.305  -0.329  -1.475  0.00  0.00     0.162 A 
ATOM      6  C5  UNL d   1       0.295  -1.693  -1.749  0.00  0.00     0.062 A 
ATOM      7  F   UNL d   1       0.473  -2.123  -3.006  0.00  0.00    -0.097 F 
ATOM      8  F1  UNL d   1       0.493   0.535  -2.484  0.00  0.00    -0.096 F 
ATOM      9  I   UNL d   1       0.134   2.169   0.243  0.00  0.00    -0.060 I 
ATOM     10  F2  UNL d   1      -0.252  -0.393   2.122  0.00  0.00    -0.096 F 
ATOM     11  F3  UNL d   1      -0.267  -3.044   1.568  0.00  0.00    -0.097 F 
ATOM     12  F4  UNL d   1       0.094  -3.921  -0.990  0.00  0.00    -0.092 F 
ENDROOT
TORSDOF 0
ENDMDL
