MODEL 1
REMARK minimizedAffinity -4.64120626
REMARK minimizedRMSD -1
REMARK  0 active torsions:
REMARK  status: ('A' for Active; 'I' for Inactive)
ROOT
ATOM      1  C   UNL d   1      -3.076  -0.163   1.836  0.00  0.00     0.077 C 
ATOM      2  C1  UNL d   1      -1.609  -0.047   1.545  0.00  0.00    -0.074 A 
ATOM      3  C2  UNL d   1      -0.678   0.075   2.582  0.00  0.00    -0.005 A 
ATOM      4  C3  UNL d   1       0.683   0.172   2.296  0.00  0.00     0.006 A 
ATOM      5  C4  UNL d   1       1.128   0.148   0.974  0.00  0.00    -0.005 A 
ATOM      6  C5  UNL d   1       0.211   0.026  -0.076  0.00  0.00    -0.074 A 
ATOM      7  C6  UNL d   1       0.673  -0.011  -1.503  0.00  0.00     0.077 C 
ATOM      8  C7  UNL d   1      -1.155  -0.078   0.219  0.00  0.00    -0.001 A 
ENDROOT
TORSDOF 0
ENDMDL
