MODEL 1
REMARK minimizedAffinity -5.09414244
REMARK minimizedRMSD -1
REMARK  0 active torsions:
REMARK  status: ('A' for Active; 'I' for Inactive)
ROOT
ATOM      1  C   UNL d   1       0.496  -0.110  -0.845  0.00  0.00     0.077 C 
ATOM      2  C1  UNL d   1      -0.173  -0.082   0.498  0.00  0.00    -0.074 A 
ATOM      3  C2  UNL d   1       0.571  -0.212   1.674  0.00  0.00    -0.005 A 
ATOM      4  C3  UNL d   1      -0.063  -0.175   2.916  0.00  0.00     0.006 A 
ATOM      5  C4  UNL d   1      -1.446  -0.006   2.993  0.00  0.00    -0.005 A 
ATOM      6  C5  UNL d   1      -2.207   0.128   1.827  0.00  0.00    -0.074 A 
ATOM      7  C6  UNL d   1      -3.693   0.320   1.893  0.00  0.00     0.077 C 
ATOM      8  C7  UNL d   1      -1.561   0.096   0.584  0.00  0.00    -0.001 A 
ENDROOT
TORSDOF 0
ENDMDL
