MODEL 1
REMARK minimizedAffinity -5.74332285
REMARK minimizedRMSD -1
REMARK  0 active torsions:
REMARK  status: ('A' for Active; 'I' for Inactive)
ROOT
ATOM      1  C   UNL d   1       0.276  -0.057  -1.142  0.00  0.00     0.077 C 
ATOM      2  C1  UNL d   1      -0.377  -0.117   0.206  0.00  0.00    -0.074 A 
ATOM      3  C2  UNL d   1       0.387  -0.248   1.370  0.00  0.00    -0.005 A 
ATOM      4  C3  UNL d   1      -0.235  -0.293   2.618  0.00  0.00     0.006 A 
ATOM      5  C4  UNL d   1      -1.624  -0.208   2.714  0.00  0.00    -0.005 A 
ATOM      6  C5  UNL d   1      -2.405  -0.076   1.561  0.00  0.00    -0.074 A 
ATOM      7  C6  UNL d   1      -3.899   0.026   1.648  0.00  0.00     0.077 C 
ATOM      8  C7  UNL d   1      -1.772  -0.025   0.312  0.00  0.00    -0.001 A 
ENDROOT
TORSDOF 0
ENDMDL
