MODEL 1
REMARK minimizedAffinity -5.32297421
REMARK minimizedRMSD -1
REMARK  0 active torsions:
REMARK  status: ('A' for Active; 'I' for Inactive)
ROOT
ATOM      1  C   UNL d   1      -3.647   1.113   1.877  0.00  0.00     0.077 C 
ATOM      2  C1  UNL d   1      -2.291   0.479   1.781  0.00  0.00    -0.074 A 
ATOM      3  C2  UNL d   1      -1.609   0.064   2.930  0.00  0.00    -0.005 A 
ATOM      4  C3  UNL d   1      -0.352  -0.532   2.825  0.00  0.00     0.006 A 
ATOM      5  C4  UNL d   1       0.234  -0.720   1.572  0.00  0.00    -0.005 A 
ATOM      6  C5  UNL d   1      -0.434  -0.313   0.413  0.00  0.00    -0.074 A 
ATOM      7  C6  UNL d   1       0.177  -0.517  -0.942  0.00  0.00     0.077 C 
ATOM      8  C7  UNL d   1      -1.699   0.279   0.526  0.00  0.00    -0.001 A 
ENDROOT
TORSDOF 0
ENDMDL
