MODEL 1
REMARK minimizedAffinity -3.53559637
REMARK minimizedRMSD -1
REMARK  0 active torsions:
REMARK  status: ('A' for Active; 'I' for Inactive)
ROOT
ATOM      1  C   UNL d   1      -0.896  -0.719   3.149  0.00  0.00     0.077 C 
ATOM      2  C1  UNL d   1       0.006  -0.287   2.031  0.00  0.00    -0.074 A 
ATOM      3  C2  UNL d   1       1.372  -0.079   2.249  0.00  0.00    -0.005 A 
ATOM      4  C3  UNL d   1       2.200   0.313   1.198  0.00  0.00     0.006 A 
ATOM      5  C4  UNL d   1       1.671   0.502  -0.080  0.00  0.00    -0.005 A 
ATOM      6  C5  UNL d   1       0.308   0.299  -0.317  0.00  0.00    -0.074 A 
ATOM      7  C6  UNL d   1      -0.274   0.488  -1.686  0.00  0.00     0.077 C 
ATOM      8  C7  UNL d   1      -0.516  -0.102   0.743  0.00  0.00    -0.001 A 
ENDROOT
TORSDOF 0
ENDMDL
