MODEL 1
REMARK minimizedAffinity -3.60988021
REMARK minimizedRMSD -1
REMARK  0 active torsions:
REMARK  status: ('A' for Active; 'I' for Inactive)
ROOT
ATOM      1  C   UNL d   1      -1.869  -0.153   3.494  0.00  0.00     0.077 C 
ATOM      2  C1  UNL d   1      -0.879   0.059   2.388  0.00  0.00    -0.074 A 
ATOM      3  C2  UNL d   1       0.486   0.201   2.662  0.00  0.00    -0.005 A 
ATOM      4  C3  UNL d   1       1.396   0.388   1.622  0.00  0.00     0.006 A 
ATOM      5  C4  UNL d   1       0.953   0.436   0.300  0.00  0.00    -0.005 A 
ATOM      6  C5  UNL d   1      -0.407   0.296   0.007  0.00  0.00    -0.074 A 
ATOM      7  C6  UNL d   1      -0.899   0.336  -1.410  0.00  0.00     0.077 C 
ATOM      8  C7  UNL d   1      -1.315   0.101   1.056  0.00  0.00    -0.001 A 
ENDROOT
TORSDOF 0
ENDMDL
