MODEL 1
REMARK minimizedAffinity -4.83733511
REMARK minimizedRMSD -1
REMARK  0 active torsions:
REMARK  status: ('A' for Active; 'I' for Inactive)
ROOT
ATOM      1  C   UNL d   1      -0.893  -0.685   3.764  0.00  0.00     0.077 C 
ATOM      2  C1  UNL d   1      -1.298  -0.317   2.368  0.00  0.00    -0.074 A 
ATOM      3  C2  UNL d   1      -2.625   0.007   2.066  0.00  0.00    -0.005 A 
ATOM      4  C3  UNL d   1      -2.985   0.357   0.765  0.00  0.00     0.006 A 
ATOM      5  C4  UNL d   1      -2.024   0.387  -0.246  0.00  0.00    -0.005 A 
ATOM      6  C5  UNL d   1      -0.692   0.068   0.037  0.00  0.00    -0.074 A 
ATOM      7  C6  UNL d   1       0.355   0.105  -1.036  0.00  0.00     0.077 C 
ATOM      8  C7  UNL d   1      -0.337  -0.276   1.348  0.00  0.00    -0.001 A 
ENDROOT
TORSDOF 0
ENDMDL
