MODEL 1
REMARK minimizedAffinity -5.96550798
REMARK minimizedRMSD -1
REMARK  0 active torsions:
REMARK  status: ('A' for Active; 'I' for Inactive)
ROOT
ATOM      1  C   UNL d   1       0.432   0.196  -1.300  0.00  0.00     0.077 C 
ATOM      2  C1  UNL d   1      -0.034   0.119   0.123  0.00  0.00    -0.074 A 
ATOM      3  C2  UNL d   1       0.882  -0.002   1.174  0.00  0.00    -0.005 A 
ATOM      4  C3  UNL d   1       0.435  -0.063   2.493  0.00  0.00     0.006 A 
ATOM      5  C4  UNL d   1      -0.931  -0.004   2.776  0.00  0.00    -0.005 A 
ATOM      6  C5  UNL d   1      -1.861   0.118   1.739  0.00  0.00    -0.074 A 
ATOM      7  C6  UNL d   1      -3.331   0.193   2.026  0.00  0.00     0.077 C 
ATOM      8  C7  UNL d   1      -1.403   0.186   0.416  0.00  0.00    -0.001 A 
ENDROOT
TORSDOF 0
ENDMDL
