MODEL 1
REMARK minimizedAffinity -5.91316891
REMARK minimizedRMSD -1
REMARK  0 active torsions:
REMARK  status: ('A' for Active; 'I' for Inactive)
ROOT
ATOM      1  C   UNL d   1      -3.701  -0.066   2.183  0.00  0.00     0.077 C 
ATOM      2  C1  UNL d   1      -2.235  -0.138   1.872  0.00  0.00    -0.074 A 
ATOM      3  C2  UNL d   1      -1.317  -0.574   2.832  0.00  0.00    -0.005 A 
ATOM      4  C3  UNL d   1       0.042  -0.645   2.525  0.00  0.00     0.006 A 
ATOM      5  C4  UNL d   1       0.495  -0.281   1.256  0.00  0.00    -0.005 A 
ATOM      6  C5  UNL d   1      -0.409   0.156   0.283  0.00  0.00    -0.074 A 
ATOM      7  C6  UNL d   1       0.061   0.542  -1.089  0.00  0.00     0.077 C 
ATOM      8  C7  UNL d   1      -1.773   0.218   0.597  0.00  0.00    -0.001 A 
ENDROOT
TORSDOF 0
ENDMDL
