MODEL 1
REMARK minimizedAffinity -2.40489054
REMARK minimizedRMSD -1
REMARK  0 active torsions:
REMARK  status: ('A' for Active; 'I' for Inactive)
ROOT
ATOM      1  C   UNL d   1       1.305  -0.706  -3.748  0.00  0.00     0.077 C 
ATOM      2  C1  UNL d   1       0.705  -0.254  -2.449  0.00  0.00    -0.074 A 
ATOM      3  C2  UNL d   1      -0.663   0.021  -2.347  0.00  0.00    -0.005 A 
ATOM      4  C3  UNL d   1      -1.208   0.431  -1.130  0.00  0.00     0.006 A 
ATOM      5  C4  UNL d   1      -0.394   0.569  -0.006  0.00  0.00    -0.005 A 
ATOM      6  C5  UNL d   1       0.976   0.297  -0.089  0.00  0.00    -0.074 A 
ATOM      7  C6  UNL d   1       1.863   0.432   1.112  0.00  0.00     0.077 C 
ATOM      8  C7  UNL d   1       1.515  -0.121  -1.313  0.00  0.00    -0.001 A 
ENDROOT
TORSDOF 0
ENDMDL
