MODEL 1
REMARK minimizedAffinity -4.47469044
REMARK minimizedRMSD -1
REMARK  0 active torsions:
REMARK  status: ('A' for Active; 'I' for Inactive)
ROOT
ATOM      1  C   UNL d   1       0.028  -0.322  -1.962  0.00  0.00     0.077 C 
ATOM      2  C1  UNL d   1       0.195  -0.123  -0.485  0.00  0.00    -0.074 A 
ATOM      3  C2  UNL d   1       1.392   0.370   0.044  0.00  0.00    -0.005 A 
ATOM      4  C3  UNL d   1       1.529   0.559   1.419  0.00  0.00     0.006 A 
ATOM      5  C4  UNL d   1       0.472   0.258   2.278  0.00  0.00    -0.005 A 
ATOM      6  C5  UNL d   1      -0.734  -0.234   1.768  0.00  0.00    -0.074 A 
ATOM      7  C6  UNL d   1      -1.884  -0.553   2.676  0.00  0.00     0.077 C 
ATOM      8  C7  UNL d   1      -0.866  -0.415   0.384  0.00  0.00    -0.001 A 
ENDROOT
TORSDOF 0
ENDMDL
