MODEL 1
REMARK minimizedAffinity -5.36003733
REMARK minimizedRMSD -1
REMARK  0 active torsions:
REMARK  status: ('A' for Active; 'I' for Inactive)
ROOT
ATOM      1  C   UNL d   1       0.687   0.476  -0.690  0.00  0.00     0.077 C 
ATOM      2  C1  UNL d   1      -0.101   0.179   0.551  0.00  0.00    -0.074 A 
ATOM      3  C2  UNL d   1       0.541  -0.178   1.742  0.00  0.00    -0.005 A 
ATOM      4  C3  UNL d   1      -0.205  -0.442   2.890  0.00  0.00     0.006 A 
ATOM      5  C4  UNL d   1      -1.597  -0.351   2.861  0.00  0.00    -0.005 A 
ATOM      6  C5  UNL d   1      -2.256   0.006   1.680  0.00  0.00    -0.074 A 
ATOM      7  C6  UNL d   1      -3.751   0.118   1.634  0.00  0.00     0.077 C 
ATOM      8  C7  UNL d   1      -1.499   0.276   0.532  0.00  0.00    -0.001 A 
ENDROOT
TORSDOF 0
ENDMDL
