MODEL 1
REMARK minimizedAffinity -4.88454628
REMARK minimizedRMSD -1
REMARK  0 active torsions:
REMARK  status: ('A' for Active; 'I' for Inactive)
ROOT
ATOM      1  C   UNL d   1      -2.977   0.361   1.894  0.00  0.00     0.077 C 
ATOM      2  C1  UNL d   1      -1.515   0.325   1.563  0.00  0.00    -0.074 A 
ATOM      3  C2  UNL d   1      -0.549   0.546   2.551  0.00  0.00    -0.005 A 
ATOM      4  C3  UNL d   1       0.808   0.500   2.230  0.00  0.00     0.006 A 
ATOM      5  C4  UNL d   1       1.212   0.234   0.921  0.00  0.00    -0.005 A 
ATOM      6  C5  UNL d   1       0.261   0.010  -0.079  0.00  0.00    -0.074 A 
ATOM      7  C6  UNL d   1       0.678  -0.287  -1.489  0.00  0.00     0.077 C 
ATOM      8  C7  UNL d   1      -1.101   0.051   0.252  0.00  0.00    -0.001 A 
ENDROOT
TORSDOF 0
ENDMDL
