MODEL 1
REMARK minimizedAffinity -5.10988617
REMARK minimizedRMSD -1
REMARK  0 active torsions:
REMARK  status: ('A' for Active; 'I' for Inactive)
ROOT
ATOM      1  C   UNL d   1       0.333   0.013  -0.956  0.00  0.00     0.077 C 
ATOM      2  C1  UNL d   1      -0.324  -0.028   0.391  0.00  0.00    -0.074 A 
ATOM      3  C2  UNL d   1       0.432   0.077   1.563  0.00  0.00    -0.005 A 
ATOM      4  C3  UNL d   1      -0.194   0.047   2.809  0.00  0.00     0.006 A 
ATOM      5  C4  UNL d   1      -1.580  -0.088   2.896  0.00  0.00    -0.005 A 
ATOM      6  C5  UNL d   1      -2.353  -0.194   1.735  0.00  0.00    -0.074 A 
ATOM      7  C6  UNL d   1      -3.844  -0.331   1.810  0.00  0.00     0.077 C 
ATOM      8  C7  UNL d   1      -1.717  -0.156   0.487  0.00  0.00    -0.001 A 
ENDROOT
TORSDOF 0
ENDMDL
