MODEL 1
REMARK minimizedAffinity -5.37912941
REMARK minimizedRMSD -1
REMARK  0 active torsions:
REMARK  status: ('A' for Active; 'I' for Inactive)
ROOT
ATOM      1  C   UNL d   1       1.318   0.344   0.311  0.00  0.00     0.077 C 
ATOM      2  C1  UNL d   1       0.226  -0.051   1.260  0.00  0.00    -0.074 A 
ATOM      3  C2  UNL d   1       0.514  -0.761   2.431  0.00  0.00    -0.005 A 
ATOM      4  C3  UNL d   1      -0.511  -1.113   3.309  0.00  0.00     0.006 A 
ATOM      5  C4  UNL d   1      -1.831  -0.760   3.026  0.00  0.00    -0.005 A 
ATOM      6  C5  UNL d   1      -2.137  -0.051   1.861  0.00  0.00    -0.074 A 
ATOM      7  C6  UNL d   1      -3.550   0.345   1.547  0.00  0.00     0.077 C 
ATOM      8  C7  UNL d   1      -1.101   0.306   0.987  0.00  0.00    -0.001 A 
ENDROOT
TORSDOF 0
ENDMDL
