MODEL 1
REMARK minimizedAffinity -6.3176651
REMARK minimizedRMSD -1
REMARK  0 active torsions:
REMARK  status: ('A' for Active; 'I' for Inactive)
ROOT
ATOM      1  C   UNL d   1       0.603   0.163  -0.693  0.00  0.00     0.077 C 
ATOM      2  C1  UNL d   1      -0.179  -0.004   0.576  0.00  0.00    -0.074 A 
ATOM      3  C2  UNL d   1       0.461  -0.322   1.778  0.00  0.00    -0.005 A 
ATOM      4  C3  UNL d   1      -0.279  -0.465   2.952  0.00  0.00     0.006 A 
ATOM      5  C4  UNL d   1      -1.663  -0.291   2.935  0.00  0.00    -0.005 A 
ATOM      6  C5  UNL d   1      -2.320   0.029   1.743  0.00  0.00    -0.074 A 
ATOM      7  C6  UNL d   1      -3.806   0.229   1.710  0.00  0.00     0.077 C 
ATOM      8  C7  UNL d   1      -1.569   0.177   0.569  0.00  0.00    -0.001 A 
ENDROOT
TORSDOF 0
ENDMDL
