MODEL 1
REMARK minimizedAffinity -2.37500811
REMARK minimizedRMSD -1
REMARK  0 active torsions:
REMARK  status: ('A' for Active; 'I' for Inactive)
ROOT
ATOM      1  C   UNL d   1      -2.574   0.932   2.012  0.00  0.00     0.077 C 
ATOM      2  C1  UNL d   1      -1.166   0.652   1.580  0.00  0.00    -0.074 A 
ATOM      3  C2  UNL d   1      -0.129   0.573   2.515  0.00  0.00    -0.005 A 
ATOM      4  C3  UNL d   1       1.175   0.303   2.099  0.00  0.00     0.006 A 
ATOM      5  C4  UNL d   1       1.454   0.109   0.746  0.00  0.00    -0.005 A 
ATOM      6  C5  UNL d   1       0.431   0.184  -0.204  0.00  0.00    -0.074 A 
ATOM      7  C6  UNL d   1       0.712  -0.032  -1.661  0.00  0.00     0.077 C 
ATOM      8  C7  UNL d   1      -0.878   0.449   0.223  0.00  0.00    -0.001 A 
ENDROOT
TORSDOF 0
ENDMDL
