MODEL 1
REMARK minimizedAffinity -4.39277935
REMARK minimizedRMSD -1
REMARK  0 active torsions:
REMARK  status: ('A' for Active; 'I' for Inactive)
ROOT
ATOM      1  N1  IND d   1       2.612   3.446   1.891  0.00  0.00    -0.196 N 
ATOM      2  C2  IND d   1       3.572   2.553   1.506  0.00  0.00     0.054 A 
ATOM      3  C3  IND d   1       3.271   2.030   0.296  0.00  0.00    -0.031 A 
ATOM      4  C4  IND d   1       1.306   2.572  -1.276  0.00  0.00     0.051 A 
ATOM      5  C5  IND d   1       0.149   3.296  -1.344  0.00  0.00    -0.031 A 
ATOM      6  C6  IND d   1      -0.252   4.127  -0.318  0.00  0.00     0.015 A 
ATOM      7  C7  IND d   1       0.497   4.273   0.815  0.00  0.00    -0.016 A 
ATOM      8  C8  IND d   1       1.668   3.533   0.891  0.00  0.00    -0.047 A 
ATOM      9  C9  IND d   1       2.060   2.656  -0.129  0.00  0.00    -0.096 A 
ATOM     10  HN1 IND d   1       2.599   3.880   2.633  0.00  0.00     0.298 HD
ENDROOT
TORSDOF 0
ENDMDL
