MODEL 1
REMARK minimizedAffinity 1.64696717
REMARK minimizedRMSD -1
REMARK  0 active torsions:
REMARK  status: ('A' for Active; 'I' for Inactive)
ROOT
ATOM      1  N1  IND d   1       2.809   0.514   0.794  0.00  0.00    -0.196 N 
ATOM      2  C2  IND d   1       2.707  -0.011  -0.464  0.00  0.00     0.054 A 
ATOM      3  C3  IND d   1       1.771   0.654  -1.177  0.00  0.00    -0.031 A 
ATOM      4  C4  IND d   1       0.357   2.700  -0.512  0.00  0.00     0.051 A 
ATOM      5  C5  IND d   1       0.072   3.514   0.549  0.00  0.00    -0.031 A 
ATOM      6  C6  IND d   1       0.699   3.368   1.769  0.00  0.00     0.015 A 
ATOM      7  C7  IND d   1       1.647   2.406   1.972  0.00  0.00    -0.016 A 
ATOM      8  C8  IND d   1       1.934   1.573   0.899  0.00  0.00    -0.047 A 
ATOM      9  C9  IND d   1       1.270   1.689  -0.328  0.00  0.00    -0.096 A 
ATOM     10  HN1 IND d   1       3.331   0.230   1.416  0.00  0.00     0.298 HD
ENDROOT
TORSDOF 0
ENDMDL
