MODEL 1
REMARK minimizedAffinity 11.4208088
REMARK minimizedRMSD -1
REMARK  0 active torsions:
REMARK  status: ('A' for Active; 'I' for Inactive)
ROOT
ATOM      1  N1  IND d   1      -3.729   2.749   0.391  0.00  0.00    -0.196 N 
ATOM      2  C2  IND d   1      -4.552   1.681   0.617  0.00  0.00     0.054 A 
ATOM      3  C3  IND d   1      -3.875   0.687   1.233  0.00  0.00    -0.031 A 
ATOM      4  C4  IND d   1      -1.436   0.635   2.055  0.00  0.00     0.051 A 
ATOM      5  C5  IND d   1      -0.279   1.362   2.042  0.00  0.00    -0.031 A 
ATOM      6  C6  IND d   1      -0.212   2.616   1.470  0.00  0.00     0.015 A 
ATOM      7  C7  IND d   1      -1.308   3.196   0.895  0.00  0.00    -0.016 A 
ATOM      8  C8  IND d   1      -2.483   2.457   0.900  0.00  0.00    -0.047 A 
ATOM      9  C9  IND d   1      -2.545   1.167   1.442  0.00  0.00    -0.096 A 
ATOM     10  HN1 IND d   1      -3.952   3.480  -0.004  0.00  0.00     0.298 HD
ENDROOT
TORSDOF 0
ENDMDL
