MODEL 1
REMARK minimizedAffinity 4.5501852
REMARK minimizedRMSD -1
REMARK  0 active torsions:
REMARK  status: ('A' for Active; 'I' for Inactive)
ROOT
ATOM      1  N1  IND d   1      -1.504   3.690   0.367  0.00  0.00    -0.196 N 
ATOM      2  C2  IND d   1      -2.669   2.989   0.224  0.00  0.00     0.054 A 
ATOM      3  C3  IND d   1      -2.438   1.662   0.343  0.00  0.00    -0.031 A 
ATOM      4  C4  IND d   1      -0.243   0.426   0.873  0.00  0.00     0.051 A 
ATOM      5  C5  IND d   1       1.095   0.635   1.051  0.00  0.00    -0.031 A 
ATOM      6  C6  IND d   1       1.647   1.900   1.012  0.00  0.00     0.015 A 
ATOM      7  C7  IND d   1       0.875   3.008   0.804  0.00  0.00    -0.016 A 
ATOM      8  C8  IND d   1      -0.484   2.798   0.616  0.00  0.00    -0.047 A 
ATOM      9  C9  IND d   1      -1.043   1.513   0.612  0.00  0.00    -0.096 A 
ATOM     10  HN1 IND d   1      -1.422   4.544   0.311  0.00  0.00     0.298 HD
ENDROOT
TORSDOF 0
ENDMDL
