MODEL 1
REMARK minimizedAffinity 9.07117271
REMARK minimizedRMSD -1
REMARK  0 active torsions:
REMARK  status: ('A' for Active; 'I' for Inactive)
ROOT
ATOM      1  N1  IND d   1      -0.983   0.824   2.112  0.00  0.00    -0.196 N 
ATOM      2  C2  IND d   1      -1.562   1.913   2.701  0.00  0.00     0.054 A 
ATOM      3  C3  IND d   1      -0.911   3.042   2.345  0.00  0.00    -0.031 A 
ATOM      4  C4  IND d   1       1.067   3.348   0.726  0.00  0.00     0.051 A 
ATOM      5  C5  IND d   1       1.961   2.641  -0.029  0.00  0.00    -0.031 A 
ATOM      6  C6  IND d   1       1.916   1.264  -0.112  0.00  0.00     0.015 A 
ATOM      7  C7  IND d   1       0.965   0.541   0.550  0.00  0.00    -0.016 A 
ATOM      8  C8  IND d   1       0.060   1.255   1.323  0.00  0.00    -0.047 A 
ATOM      9  C9  IND d   1       0.127   2.649   1.445  0.00  0.00    -0.096 A 
ATOM     10  HN1 IND d   1      -1.229   0.006   2.217  0.00  0.00     0.298 HD
ENDROOT
TORSDOF 0
ENDMDL
