MODEL 1
REMARK minimizedAffinity 2.21322703
REMARK minimizedRMSD -1
REMARK  0 active torsions:
REMARK  status: ('A' for Active; 'I' for Inactive)
ROOT
ATOM      1  N1  IND d   1       0.298   1.045   0.495  0.00  0.00    -0.196 N 
ATOM      2  C2  IND d   1      -0.580   2.071   0.282  0.00  0.00     0.054 A 
ATOM      3  C3  IND d   1       0.062   3.260   0.340  0.00  0.00    -0.031 A 
ATOM      4  C4  IND d   1       2.568   3.750   0.670  0.00  0.00     0.051 A 
ATOM      5  C5  IND d   1       3.759   3.137   0.941  0.00  0.00    -0.031 A 
ATOM      6  C6  IND d   1       3.859   1.768   1.078  0.00  0.00     0.015 A 
ATOM      7  C7  IND d   1       2.770   0.956   0.937  0.00  0.00    -0.016 A 
ATOM      8  C8  IND d   1       1.558   1.575   0.668  0.00  0.00    -0.047 A 
ATOM      9  C9  IND d   1       1.441   2.968   0.570  0.00  0.00    -0.096 A 
ATOM     10  HN1 IND d   1       0.097   0.210   0.518  0.00  0.00     0.298 HD
ENDROOT
TORSDOF 0
ENDMDL
