MODEL 1
REMARK minimizedAffinity 12.6939516
REMARK minimizedRMSD -1
REMARK  0 active torsions:
REMARK  status: ('A' for Active; 'I' for Inactive)
ROOT
ATOM      1  N1  IND d   1      -5.815   2.596  -2.835  0.00  0.00    -0.196 N 
ATOM      2  C2  IND d   1      -5.864   3.709  -3.628  0.00  0.00     0.054 A 
ATOM      3  C3  IND d   1      -5.966   4.823  -2.869  0.00  0.00    -0.031 A 
ATOM      4  C4  IND d   1      -5.966   5.060  -0.305  0.00  0.00     0.051 A 
ATOM      5  C5  IND d   1      -5.977   4.322   0.845  0.00  0.00    -0.031 A 
ATOM      6  C6  IND d   1      -5.930   2.943   0.827  0.00  0.00     0.015 A 
ATOM      7  C7  IND d   1      -5.860   2.248  -0.347  0.00  0.00    -0.016 A 
ATOM      8  C8  IND d   1      -5.856   2.994  -1.517  0.00  0.00    -0.047 A 
ATOM      9  C9  IND d   1      -5.946   4.392  -1.507  0.00  0.00    -0.096 A 
ATOM     10  HN1 IND d   1      -5.767   1.784  -3.114  0.00  0.00     0.298 HD
ENDROOT
TORSDOF 0
ENDMDL
