MODEL 1
REMARK minimizedAffinity 3.55342722
REMARK minimizedRMSD -1
REMARK  0 active torsions:
REMARK  status: ('A' for Active; 'I' for Inactive)
ROOT
ATOM      1  N1  IND d   1       2.964   0.777   0.830  0.00  0.00    -0.196 N 
ATOM      2  C2  IND d   1       3.854   1.809   0.937  0.00  0.00     0.054 A 
ATOM      3  C3  IND d   1       3.211   2.995   0.853  0.00  0.00    -0.031 A 
ATOM      4  C4  IND d   1       0.691   3.478   0.640  0.00  0.00     0.051 A 
ATOM      5  C5  IND d   1      -0.514   2.856   0.470  0.00  0.00    -0.031 A 
ATOM      6  C6  IND d   1      -0.624   1.482   0.412  0.00  0.00     0.015 A 
ATOM      7  C7  IND d   1       0.471   0.674   0.534  0.00  0.00    -0.016 A 
ATOM      8  C8  IND d   1       1.697   1.302   0.701  0.00  0.00    -0.047 A 
ATOM      9  C9  IND d   1       1.820   2.697   0.718  0.00  0.00    -0.096 A 
ATOM     10  HN1 IND d   1       3.163  -0.060   0.840  0.00  0.00     0.298 HD
ENDROOT
TORSDOF 0
ENDMDL
