MODEL 1
REMARK minimizedAffinity 1.15758884
REMARK minimizedRMSD -1
REMARK  0 active torsions:
REMARK  status: ('A' for Active; 'I' for Inactive)
ROOT
ATOM      1  N1  IND d   1       1.733   0.277   0.959  0.00  0.00    -0.196 N 
ATOM      2  C2  IND d   1       2.946   0.030   0.378  0.00  0.00     0.054 A 
ATOM      3  C3  IND d   1       3.286   1.043  -0.450  0.00  0.00    -0.031 A 
ATOM      4  C4  IND d   1       2.050   3.251  -0.926  0.00  0.00     0.051 A 
ATOM      5  C5  IND d   1       0.885   3.912  -0.659  0.00  0.00    -0.031 A 
ATOM      6  C6  IND d   1      -0.076   3.387   0.181  0.00  0.00     0.015 A 
ATOM      7  C7  IND d   1       0.100   2.179   0.796  0.00  0.00    -0.016 A 
ATOM      8  C8  IND d   1       1.279   1.501   0.521  0.00  0.00    -0.047 A 
ATOM      9  C9  IND d   1       2.238   2.010  -0.364  0.00  0.00    -0.096 A 
ATOM     10  HN1 IND d   1       1.323  -0.245   1.505  0.00  0.00     0.298 HD
ENDROOT
TORSDOF 0
ENDMDL
