MODEL 1
REMARK minimizedAffinity 9.62881279
REMARK minimizedRMSD -1
REMARK  0 active torsions:
REMARK  status: ('A' for Active; 'I' for Inactive)
ROOT
ATOM      1  N1  IND d   1       1.961  -0.033   0.625  0.00  0.00    -0.196 N 
ATOM      2  C2  IND d   1       1.452   1.216   0.853  0.00  0.00     0.054 A 
ATOM      3  C3  IND d   1       1.105   1.802  -0.315  0.00  0.00    -0.031 A 
ATOM      4  C4  IND d   1       1.189   0.857  -2.708  0.00  0.00     0.051 A 
ATOM      5  C5  IND d   1       1.611  -0.229  -3.423  0.00  0.00    -0.031 A 
ATOM      6  C6  IND d   1       2.180  -1.328  -2.813  0.00  0.00     0.015 A 
ATOM      7  C7  IND d   1       2.339  -1.387  -1.458  0.00  0.00    -0.016 A 
ATOM      8  C8  IND d   1       1.918  -0.284  -0.729  0.00  0.00    -0.047 A 
ATOM      9  C9  IND d   1       1.379   0.852  -1.346  0.00  0.00    -0.096 A 
ATOM     10  HN1 IND d   1       2.258  -0.571   1.227  0.00  0.00     0.298 HD
ENDROOT
TORSDOF 0
ENDMDL
