MODEL 1
REMARK minimizedAffinity 8.19239807
REMARK minimizedRMSD -1
REMARK  0 active torsions:
REMARK  status: ('A' for Active; 'I' for Inactive)
ROOT
ATOM      1  N1  IND d   1       2.106  -0.544   0.685  0.00  0.00    -0.196 N 
ATOM      2  C2  IND d   1       2.567   0.723   0.909  0.00  0.00     0.054 A 
ATOM      3  C3  IND d   1       2.699   1.389  -0.261  0.00  0.00    -0.031 A 
ATOM      4  C4  IND d   1       2.120   0.628  -2.651  0.00  0.00     0.051 A 
ATOM      5  C5  IND d   1       1.703  -0.462  -3.363  0.00  0.00    -0.031 A 
ATOM      6  C6  IND d   1       1.390  -1.657  -2.750  0.00  0.00     0.015 A 
ATOM      7  C7  IND d   1       1.472  -1.806  -1.394  0.00  0.00    -0.016 A 
ATOM      8  C8  IND d   1       1.902  -0.704  -0.668  0.00  0.00    -0.047 A 
ATOM      9  C9  IND d   1       2.262   0.499  -1.289  0.00  0.00    -0.096 A 
ATOM     10  HN1 IND d   1       1.967  -1.142   1.288  0.00  0.00     0.298 HD
ENDROOT
TORSDOF 0
ENDMDL
