MODEL 1
REMARK minimizedAffinity 0.64729315
REMARK minimizedRMSD -1
REMARK  0 active torsions:
REMARK  status: ('A' for Active; 'I' for Inactive)
ROOT
ATOM      1  N1  IND d   1      -0.135   3.676   0.646  0.00  0.00    -0.196 N 
ATOM      2  C2  IND d   1      -1.386   3.125   0.677  0.00  0.00     0.054 A 
ATOM      3  C3  IND d   1      -1.305   1.776   0.688  0.00  0.00    -0.031 A 
ATOM      4  C4  IND d   1       0.777   0.263   0.762  0.00  0.00     0.051 A 
ATOM      5  C5  IND d   1       2.142   0.305   0.711  0.00  0.00    -0.031 A 
ATOM      6  C6  IND d   1       2.832   1.498   0.637  0.00  0.00     0.015 A 
ATOM      7  C7  IND d   1       2.179   2.699   0.622  0.00  0.00    -0.016 A 
ATOM      8  C8  IND d   1       0.793   2.659   0.667  0.00  0.00    -0.047 A 
ATOM      9  C9  IND d   1       0.086   1.450   0.699  0.00  0.00    -0.096 A 
ATOM     10  HN1 IND d   1       0.042   4.517   0.618  0.00  0.00     0.298 HD
ENDROOT
TORSDOF 0
ENDMDL
