MODEL 1
REMARK minimizedAffinity 4.00214195
REMARK minimizedRMSD -1
REMARK  0 active torsions:
REMARK  status: ('A' for Active; 'I' for Inactive)
ROOT
ATOM      1  N1  IND d   1       2.222   2.366   1.673  0.00  0.00    -0.196 N 
ATOM      2  C2  IND d   1       3.321   2.715   0.939  0.00  0.00     0.054 A 
ATOM      3  C3  IND d   1       2.948   3.367  -0.186  0.00  0.00    -0.031 A 
ATOM      4  C4  IND d   1       0.596   4.058  -0.971  0.00  0.00     0.051 A 
ATOM      5  C5  IND d   1      -0.727   3.929  -0.653  0.00  0.00    -0.031 A 
ATOM      6  C6  IND d   1      -1.143   3.261   0.481  0.00  0.00     0.015 A 
ATOM      7  C7  IND d   1      -0.246   2.705   1.349  0.00  0.00    -0.016 A 
ATOM      8  C8  IND d   1       1.098   2.828   1.025  0.00  0.00    -0.047 A 
ATOM      9  C9  IND d   1       1.524   3.467  -0.146  0.00  0.00    -0.096 A 
ATOM     10  HN1 IND d   1       2.232   1.930   2.414  0.00  0.00     0.298 HD
ENDROOT
TORSDOF 0
ENDMDL
