MODEL 1
REMARK minimizedAffinity 6.42924356
REMARK minimizedRMSD -1
REMARK  0 active torsions:
REMARK  status: ('A' for Active; 'I' for Inactive)
ROOT
ATOM      1  N1  IND d   1       0.771   2.898   1.053  0.00  0.00    -0.196 N 
ATOM      2  C2  IND d   1      -0.547   2.539   1.017  0.00  0.00     0.054 A 
ATOM      3  C3  IND d   1      -0.668   1.217   0.760  0.00  0.00    -0.031 A 
ATOM      4  C4  IND d   1       1.166  -0.566   0.465  0.00  0.00     0.051 A 
ATOM      5  C5  IND d   1       2.522  -0.712   0.378  0.00  0.00    -0.031 A 
ATOM      6  C6  IND d   1       3.382   0.359   0.517  0.00  0.00     0.015 A 
ATOM      7  C7  IND d   1       2.915   1.620   0.761  0.00  0.00    -0.016 A 
ATOM      8  C8  IND d   1       1.538   1.773   0.842  0.00  0.00    -0.047 A 
ATOM      9  C9  IND d   1       0.660   0.697   0.660  0.00  0.00    -0.096 A 
ATOM     10  HN1 IND d   1       1.071   3.693   1.184  0.00  0.00     0.298 HD
ENDROOT
TORSDOF 0
ENDMDL
