MODEL 1
REMARK minimizedAffinity 11.6965122
REMARK minimizedRMSD -1
REMARK  0 active torsions:
REMARK  status: ('A' for Active; 'I' for Inactive)
ROOT
ATOM      1  N1  IND d   1       2.704   1.787   1.232  0.00  0.00    -0.196 N 
ATOM      2  C2  IND d   1       3.773   2.251   0.518  0.00  0.00     0.054 A 
ATOM      3  C3  IND d   1       3.365   3.137  -0.419  0.00  0.00    -0.031 A 
ATOM      4  C4  IND d   1       1.003   4.048  -0.888  0.00  0.00     0.051 A 
ATOM      5  C5  IND d   1      -0.304   3.894  -0.520  0.00  0.00    -0.031 A 
ATOM      6  C6  IND d   1      -0.682   3.014   0.473  0.00  0.00     0.015 A 
ATOM      7  C7  IND d   1       0.238   2.260   1.146  0.00  0.00    -0.016 A 
ATOM      8  C8  IND d   1       1.565   2.409   0.769  0.00  0.00    -0.047 A 
ATOM      9  C9  IND d   1       1.951   3.269  -0.267  0.00  0.00    -0.096 A 
ATOM     10  HN1 IND d   1       2.737   1.205   1.864  0.00  0.00     0.298 HD
ENDROOT
TORSDOF 0
ENDMDL
