MODEL 1
REMARK minimizedAffinity 14.6814957
REMARK minimizedRMSD -1
REMARK  0 active torsions:
REMARK  status: ('A' for Active; 'I' for Inactive)
ROOT
ATOM      1  N1  IND d   1       1.733  -0.060   0.730  0.00  0.00    -0.196 N 
ATOM      2  C2  IND d   1       2.854   0.479   0.162  0.00  0.00     0.054 A 
ATOM      3  C3  IND d   1       2.750   1.826   0.103  0.00  0.00    -0.031 A 
ATOM      4  C4  IND d   1       0.875   3.360   0.973  0.00  0.00     0.051 A 
ATOM      5  C5  IND d   1      -0.371   3.327   1.535  0.00  0.00    -0.031 A 
ATOM      6  C6  IND d   1      -0.990   2.140   1.866  0.00  0.00     0.015 A 
ATOM      7  C7  IND d   1      -0.379   0.935   1.657  0.00  0.00    -0.016 A 
ATOM      8  C8  IND d   1       0.883   0.965   1.081  0.00  0.00    -0.047 A 
ATOM      9  C9  IND d   1       1.498   2.165   0.703  0.00  0.00    -0.096 A 
ATOM     10  HN1 IND d   1       1.585  -0.899   0.848  0.00  0.00     0.298 HD
ENDROOT
TORSDOF 0
ENDMDL
