MODEL 1
REMARK minimizedAffinity 8.62161922
REMARK minimizedRMSD -1
REMARK  0 active torsions:
REMARK  status: ('A' for Active; 'I' for Inactive)
ROOT
ATOM      1  N1  IND d   1       0.417  -1.188   1.134  0.00  0.00    -0.196 N 
ATOM      2  C2  IND d   1       1.647  -1.210   0.538  0.00  0.00     0.054 A 
ATOM      3  C3  IND d   1       2.033   0.043   0.208  0.00  0.00    -0.031 A 
ATOM      4  C4  IND d   1       0.849   2.287   0.643  0.00  0.00     0.051 A 
ATOM      5  C5  IND d   1      -0.316   2.814   1.125  0.00  0.00    -0.031 A 
ATOM      6  C6  IND d   1      -1.315   2.019   1.648  0.00  0.00     0.015 A 
ATOM      7  C7  IND d   1      -1.181   0.661   1.719  0.00  0.00    -0.016 A 
ATOM      8  C8  IND d   1      -0.003   0.122   1.224  0.00  0.00    -0.047 A 
ATOM      9  C9  IND d   1       0.997   0.920   0.653  0.00  0.00    -0.096 A 
ATOM     10  HN1 IND d   1      -0.021  -1.875   1.407  0.00  0.00     0.298 HD
ENDROOT
TORSDOF 0
ENDMDL
