MODEL 1
REMARK minimizedAffinity -2.31758642
REMARK minimizedRMSD -1
REMARK  0 active torsions:
REMARK  status: ('A' for Active; 'I' for Inactive)
ROOT
ATOM      1  C1  BNZ d   1       5.650  -2.461   3.671  0.00  0.00     0.000 A 
ATOM      2  C2  BNZ d   1       5.281  -3.777   3.574  0.00  0.00     0.000 A 
ATOM      3  C3  BNZ d   1       5.245  -4.577   4.681  0.00  0.00     0.000 A 
ATOM      4  C4  BNZ d   1       5.616  -4.073   5.876  0.00  0.00     0.000 A 
ATOM      5  C5  BNZ d   1       5.999  -2.751   5.988  0.00  0.00     0.000 A 
ATOM      6  C6  BNZ d   1       5.996  -1.938   4.878  0.00  0.00     0.000 A 
ENDROOT
TORSDOF 0
ENDMDL
