MODEL 1
REMARK minimizedAffinity 1.08788478
REMARK minimizedRMSD -1
REMARK  0 active torsions:
REMARK  status: ('A' for Active; 'I' for Inactive)
ROOT
ATOM      1  C1  BNZ d   1       3.638   1.507   1.282  0.00  0.00     0.000 A 
ATOM      2  C2  BNZ d   1       3.655   0.746   2.420  0.00  0.00     0.000 A 
ATOM      3  C3  BNZ d   1       4.837   0.400   3.013  0.00  0.00     0.000 A 
ATOM      4  C4  BNZ d   1       6.000   0.780   2.445  0.00  0.00     0.000 A 
ATOM      5  C5  BNZ d   1       5.999   1.540   1.292  0.00  0.00     0.000 A 
ATOM      6  C6  BNZ d   1       4.807   1.919   0.720  0.00  0.00     0.000 A 
ENDROOT
TORSDOF 0
ENDMDL
