MODEL 1
REMARK minimizedAffinity -1.39966989
REMARK minimizedRMSD -1
REMARK  0 active torsions:
REMARK  status: ('A' for Active; 'I' for Inactive)
ROOT
ATOM      1  C1  BNZ d   1       5.955  -0.694   3.522  0.00  0.00     0.000 A 
ATOM      2  C2  BNZ d   1       5.973  -2.056   3.661  0.00  0.00     0.000 A 
ATOM      3  C3  BNZ d   1       5.975  -2.633   4.900  0.00  0.00     0.000 A 
ATOM      4  C4  BNZ d   1       5.999  -1.849   5.997  0.00  0.00     0.000 A 
ATOM      5  C5  BNZ d   1       5.990  -0.474   5.874  0.00  0.00     0.000 A 
ATOM      6  C6  BNZ d   1       5.949   0.104   4.625  0.00  0.00     0.000 A 
ENDROOT
TORSDOF 0
ENDMDL
