MODEL 1
REMARK minimizedAffinity -2.35119677
REMARK minimizedRMSD -1
REMARK  0 active torsions:
REMARK  status: ('A' for Active; 'I' for Inactive)
ROOT
ATOM      1  C1  BNZ d   1       5.454  -3.043   2.938  0.00  0.00     0.000 A 
ATOM      2  C2  BNZ d   1       4.897  -4.021   3.719  0.00  0.00     0.000 A 
ATOM      3  C3  BNZ d   1       4.865  -3.896   5.080  0.00  0.00     0.000 A 
ATOM      4  C4  BNZ d   1       5.424  -2.814   5.660  0.00  0.00     0.000 A 
ATOM      5  C5  BNZ d   1       5.998  -1.825   4.887  0.00  0.00     0.000 A 
ATOM      6  C6  BNZ d   1       5.994  -1.935   3.515  0.00  0.00     0.000 A 
ENDROOT
TORSDOF 0
ENDMDL
