MODEL 1
REMARK minimizedAffinity -2.77717066
REMARK minimizedRMSD -1
REMARK  0 active torsions:
REMARK  status: ('A' for Active; 'I' for Inactive)
ROOT
ATOM      1  C1  BNZ d   1       1.474   0.713   1.334  0.00  0.00     0.000 A 
ATOM      2  C2  BNZ d   1       1.539  -0.335   2.214  0.00  0.00     0.000 A 
ATOM      3  C3  BNZ d   1       0.400  -0.900   2.715  0.00  0.00     0.000 A 
ATOM      4  C4  BNZ d   1      -0.800  -0.392   2.367  0.00  0.00     0.000 A 
ATOM      5  C5  BNZ d   1      -0.882   0.670   1.489  0.00  0.00     0.000 A 
ATOM      6  C6  BNZ d   1       0.265   1.211   0.956  0.00  0.00     0.000 A 
ENDROOT
TORSDOF 0
ENDMDL
