MODEL 1
REMARK minimizedAffinity 4.92350292
REMARK minimizedRMSD -1
REMARK  0 active torsions:
REMARK  status: ('A' for Active; 'I' for Inactive)
ROOT
ATOM      1  C1  BNZ d   1       2.513   1.178  -1.371  0.00  0.00     0.000 A 
ATOM      2  C2  BNZ d   1       3.069  -0.074  -1.377  0.00  0.00     0.000 A 
ATOM      3  C3  BNZ d   1       3.351  -0.709  -2.555  0.00  0.00     0.000 A 
ATOM      4  C4  BNZ d   1       3.041  -0.109  -3.722  0.00  0.00     0.000 A 
ATOM      5  C5  BNZ d   1       2.471   1.148  -3.732  0.00  0.00     0.000 A 
ATOM      6  C6  BNZ d   1       2.224   1.801  -2.546  0.00  0.00     0.000 A 
ENDROOT
TORSDOF 0
ENDMDL
