MODEL 1
REMARK minimizedAffinity 1.47554564
REMARK minimizedRMSD -1
REMARK  0 active torsions:
REMARK  status: ('A' for Active; 'I' for Inactive)
ROOT
ATOM      1  C1  BNZ d   1      -5.994   1.843   4.372  0.00  0.00     0.000 A 
ATOM      2  C2  BNZ d   1      -5.997   2.429   3.135  0.00  0.00     0.000 A 
ATOM      3  C3  BNZ d   1      -5.674   1.709   2.019  0.00  0.00     0.000 A 
ATOM      4  C4  BNZ d   1      -5.311   0.417   2.145  0.00  0.00     0.000 A 
ATOM      5  C5  BNZ d   1      -5.294  -0.186   3.387  0.00  0.00     0.000 A 
ATOM      6  C6  BNZ d   1      -5.657   0.531   4.504  0.00  0.00     0.000 A 
ENDROOT
TORSDOF 0
ENDMDL
