MODEL 1
REMARK minimizedAffinity 3.46184611
REMARK minimizedRMSD -1
REMARK  0 active torsions:
REMARK  status: ('A' for Active; 'I' for Inactive)
ROOT
ATOM      1  C1  BNZ d   1      -4.232   3.605   5.994  0.00  0.00     0.000 A 
ATOM      2  C2  BNZ d   1      -4.729   4.881   6.000  0.00  0.00     0.000 A 
ATOM      3  C3  BNZ d   1      -3.890   5.959   5.980  0.00  0.00     0.000 A 
ATOM      4  C4  BNZ d   1      -2.556   5.762   5.996  0.00  0.00     0.000 A 
ATOM      5  C5  BNZ d   1      -2.039   4.482   5.999  0.00  0.00     0.000 A 
ATOM      6  C6  BNZ d   1      -2.887   3.398   5.980  0.00  0.00     0.000 A 
ENDROOT
TORSDOF 0
ENDMDL
