MODEL 1
REMARK minimizedAffinity 4.70087576
REMARK minimizedRMSD -1
REMARK  0 active torsions:
REMARK  status: ('A' for Active; 'I' for Inactive)
ROOT
ATOM      1  C1  BNZ d   1       0.424  -1.856   1.792  0.00  0.00     0.000 A 
ATOM      2  C2  BNZ d   1       1.221  -0.807   1.416  0.00  0.00     0.000 A 
ATOM      3  C3  BNZ d   1       0.816   0.066   0.446  0.00  0.00     0.000 A 
ATOM      4  C4  BNZ d   1      -0.365  -0.133  -0.175  0.00  0.00     0.000 A 
ATOM      5  C5  BNZ d   1      -1.175  -1.191   0.187  0.00  0.00     0.000 A 
ATOM      6  C6  BNZ d   1      -0.782  -2.045   1.191  0.00  0.00     0.000 A 
ENDROOT
TORSDOF 0
ENDMDL
