MODEL 1
REMARK minimizedAffinity 5.27868748
REMARK minimizedRMSD -1
REMARK  0 active torsions:
REMARK  status: ('A' for Active; 'I' for Inactive)
ROOT
ATOM      1  C1  BNZ d   1      -5.653  -2.593   2.908  0.00  0.00     0.000 A 
ATOM      2  C2  BNZ d   1      -5.646  -3.008   4.213  0.00  0.00     0.000 A 
ATOM      3  C3  BNZ d   1      -5.840  -2.117   5.231  0.00  0.00     0.000 A 
ATOM      4  C4  BNZ d   1      -6.000  -0.808   4.946  0.00  0.00     0.000 A 
ATOM      5  C5  BNZ d   1      -6.000  -0.373   3.636  0.00  0.00     0.000 A 
ATOM      6  C6  BNZ d   1      -5.843  -1.279   2.611  0.00  0.00     0.000 A 
ENDROOT
TORSDOF 0
ENDMDL
