MODEL 1
REMARK minimizedAffinity -1.3034054
REMARK minimizedRMSD -1
REMARK  0 active torsions:
REMARK  status: ('A' for Active; 'I' for Inactive)
ROOT
ATOM      1  C1  BNZ d   1       4.894  -3.812   5.318  0.00  0.00     0.000 A 
ATOM      2  C2  BNZ d   1       4.846  -3.793   3.949  0.00  0.00     0.000 A 
ATOM      3  C3  BNZ d   1       5.256  -2.693   3.250  0.00  0.00     0.000 A 
ATOM      4  C4  BNZ d   1       5.675  -1.600   3.920  0.00  0.00     0.000 A 
ATOM      5  C5  BNZ d   1       5.721  -1.600   5.300  0.00  0.00     0.000 A 
ATOM      6  C6  BNZ d   1       5.344  -2.724   5.999  0.00  0.00     0.000 A 
ENDROOT
TORSDOF 0
ENDMDL
