MODEL 1
REMARK minimizedAffinity -0.299051642
REMARK minimizedRMSD -1
REMARK  0 active torsions:
REMARK  status: ('A' for Active; 'I' for Inactive)
ROOT
ATOM      1  C1  BNZ d   1      -1.262   0.537  -0.248  0.00  0.00     0.000 A 
ATOM      2  C2  BNZ d   1      -1.602   0.977  -1.499  0.00  0.00     0.000 A 
ATOM      3  C3  BNZ d   1      -2.323   0.184  -2.348  0.00  0.00     0.000 A 
ATOM      4  C4  BNZ d   1      -2.668  -1.060  -1.960  0.00  0.00     0.000 A 
ATOM      5  C5  BNZ d   1      -2.325  -1.522  -0.705  0.00  0.00     0.000 A 
ATOM      6  C6  BNZ d   1      -1.633  -0.707   0.161  0.00  0.00     0.000 A 
ENDROOT
TORSDOF 0
ENDMDL
