MODEL 1
REMARK minimizedAffinity -0.781482577
REMARK minimizedRMSD -1
REMARK  0 active torsions:
REMARK  status: ('A' for Active; 'I' for Inactive)
ROOT
ATOM      1  C1  BNZ d   1       3.429  -0.328  -3.157  0.00  0.00     0.000 A 
ATOM      2  C2  BNZ d   1       2.729   0.657  -2.513  0.00  0.00     0.000 A 
ATOM      3  C3  BNZ d   1       2.499   1.861  -3.118  0.00  0.00     0.000 A 
ATOM      4  C4  BNZ d   1       3.003   2.092  -4.348  0.00  0.00     0.000 A 
ATOM      5  C5  BNZ d   1       3.719   1.112  -5.005  0.00  0.00     0.000 A 
ATOM      6  C6  BNZ d   1       3.915  -0.112  -4.409  0.00  0.00     0.000 A 
ENDROOT
TORSDOF 0
ENDMDL
