MODEL 1
REMARK minimizedAffinity 4.12531424
REMARK minimizedRMSD -1
REMARK  0 active torsions:
REMARK  status: ('A' for Active; 'I' for Inactive)
ROOT
ATOM      1  C1  BNZ d   1      -3.610   1.085   1.557  0.00  0.00     0.000 A 
ATOM      2  C2  BNZ d   1      -4.537   2.029   1.909  0.00  0.00     0.000 A 
ATOM      3  C3  BNZ d   1      -5.720   1.665   2.491  0.00  0.00     0.000 A 
ATOM      4  C4  BNZ d   1      -5.990   0.358   2.683  0.00  0.00     0.000 A 
ATOM      5  C5  BNZ d   1      -5.069  -0.606   2.325  0.00  0.00     0.000 A 
ATOM      6  C6  BNZ d   1      -3.863  -0.234   1.775  0.00  0.00     0.000 A 
ENDROOT
TORSDOF 0
ENDMDL
