MODEL 1
REMARK minimizedAffinity 3.17573547
REMARK minimizedRMSD -1
REMARK  0 active torsions:
REMARK  status: ('A' for Active; 'I' for Inactive)
ROOT
ATOM      1  C1  BNZ d   1      -3.187   3.642   5.314  0.00  0.00     0.000 A 
ATOM      2  C2  BNZ d   1      -4.507   3.678   5.675  0.00  0.00     0.000 A 
ATOM      3  C3  BNZ d   1      -5.115   4.860   5.992  0.00  0.00     0.000 A 
ATOM      4  C4  BNZ d   1      -4.392   5.999   5.987  0.00  0.00     0.000 A 
ATOM      5  C5  BNZ d   1      -3.057   5.978   5.635  0.00  0.00     0.000 A 
ATOM      6  C6  BNZ d   1      -2.459   4.791   5.279  0.00  0.00     0.000 A 
ENDROOT
TORSDOF 0
ENDMDL
