MODEL 1
REMARK minimizedAffinity 3.04989552
REMARK minimizedRMSD -1
REMARK  0 active torsions:
REMARK  status: ('A' for Active; 'I' for Inactive)
ROOT
ATOM      1  C1  BNZ d   1       3.120   0.149  -3.056  0.00  0.00     0.000 A 
ATOM      2  C2  BNZ d   1       3.886   0.468  -4.145  0.00  0.00     0.000 A 
ATOM      3  C3  BNZ d   1       4.722  -0.456  -4.707  0.00  0.00     0.000 A 
ATOM      4  C4  BNZ d   1       4.821  -1.683  -4.156  0.00  0.00     0.000 A 
ATOM      5  C5  BNZ d   1       4.062  -2.016  -3.052  0.00  0.00     0.000 A 
ATOM      6  C6  BNZ d   1       3.193  -1.096  -2.512  0.00  0.00     0.000 A 
ENDROOT
TORSDOF 0
ENDMDL
