MODEL 1
REMARK minimizedAffinity -4.3894577
REMARK minimizedRMSD -1
REMARK  0 active torsions:
REMARK  status: ('A' for Active; 'I' for Inactive)
ROOT
ATOM      1  C1  DEN d   1       0.210   0.196  -0.505  0.00  0.00     0.130 A 
ATOM      2  C2  DEN d   1      -0.052   0.714   0.835  0.00  0.00    -0.031 A 
ATOM      3  C3  DEN d   1      -0.326  -0.433   1.723  0.00  0.00     0.027 A 
ATOM      4  C4  DEN d   1      -0.363  -2.950   1.158  0.00  0.00     0.027 A 
ATOM      5  C5  DEN d   1      -0.213  -3.876   0.150  0.00  0.00    -0.003 A 
ATOM      6  C6  DEN d   1       0.054  -3.512  -1.143  0.00  0.00     0.001 A 
ATOM      7  C7  DEN d   1       0.222  -2.188  -1.454  0.00  0.00     0.017 A 
ATOM      8  C8  DEN d   1       0.065  -1.248  -0.445  0.00  0.00    -0.094 A 
ATOM      9  C9  DEN d   1      -0.192  -1.637   0.859  0.00  0.00    -0.072 A 
ENDROOT
TORSDOF 0
ENDMDL
