MODEL 1
REMARK minimizedAffinity -0.934008718
REMARK minimizedRMSD -1
REMARK  0 active torsions:
REMARK  status: ('A' for Active; 'I' for Inactive)
ROOT
ATOM      1  C1  DEN d   1       0.458  -0.751  -1.363  0.00  0.00     0.130 A 
ATOM      2  C2  DEN d   1       0.467   0.677  -1.667  0.00  0.00    -0.031 A 
ATOM      3  C3  DEN d   1      -0.293   1.374  -0.609  0.00  0.00     0.027 A 
ATOM      4  C4  DEN d   1      -1.470   0.385   1.462  0.00  0.00     0.027 A 
ATOM      5  C5  DEN d   1      -1.762  -0.779   2.139  0.00  0.00    -0.003 A 
ATOM      6  C6  DEN d   1      -1.366  -2.008   1.682  0.00  0.00     0.001 A 
ATOM      7  C7  DEN d   1      -0.617  -2.098   0.538  0.00  0.00     0.017 A 
ATOM      8  C8  DEN d   1      -0.326  -0.930  -0.154  0.00  0.00    -0.094 A 
ATOM      9  C9  DEN d   1      -0.724   0.304   0.331  0.00  0.00    -0.072 A 
ENDROOT
TORSDOF 0
ENDMDL
