MODEL 1
REMARK minimizedAffinity -2.69726253
REMARK minimizedRMSD -1
REMARK  0 active torsions:
REMARK  status: ('A' for Active; 'I' for Inactive)
ROOT
ATOM      1  C1  DEN d   1       0.458   0.842  -0.278  0.00  0.00     0.130 A 
ATOM      2  C2  DEN d   1      -0.684   1.373   0.462  0.00  0.00    -0.031 A 
ATOM      3  C3  DEN d   1      -1.407   0.235   1.064  0.00  0.00     0.027 A 
ATOM      4  C4  DEN d   1      -0.869  -2.284   0.926  0.00  0.00     0.027 A 
ATOM      5  C5  DEN d   1      -0.007  -3.221   0.401  0.00  0.00    -0.003 A 
ATOM      6  C6  DEN d   1       1.043  -2.875  -0.408  0.00  0.00     0.001 A 
ATOM      7  C7  DEN d   1       1.283  -1.554  -0.680  0.00  0.00     0.017 A 
ATOM      8  C8  DEN d   1       0.413  -0.604  -0.160  0.00  0.00    -0.094 A 
ATOM      9  C9  DEN d   1      -0.634  -0.973   0.666  0.00  0.00    -0.072 A 
ENDROOT
TORSDOF 0
ENDMDL
