MODEL 1
REMARK minimizedAffinity -4.88188028
REMARK minimizedRMSD -1
REMARK  0 active torsions:
REMARK  status: ('A' for Active; 'I' for Inactive)
ROOT
ATOM      1  C1  DEN d   1       0.664  -2.589  -0.245  0.00  0.00     0.130 A 
ATOM      2  C2  DEN d   1      -0.140  -3.277   0.762  0.00  0.00    -0.031 A 
ATOM      3  C3  DEN d   1      -0.951  -2.265   1.468  0.00  0.00     0.027 A 
ATOM      4  C4  DEN d   1      -1.042   0.286   1.100  0.00  0.00     0.027 A 
ATOM      5  C5  DEN d   1      -0.530   1.334   0.366  0.00  0.00    -0.003 A 
ATOM      6  C6  DEN d   1       0.432   1.153  -0.592  0.00  0.00     0.001 A 
ATOM      7  C7  DEN d   1       0.881  -0.111  -0.873  0.00  0.00     0.017 A 
ATOM      8  C8  DEN d   1       0.375  -1.171  -0.132  0.00  0.00    -0.094 A 
ATOM      9  C9  DEN d   1      -0.606  -0.969   0.824  0.00  0.00    -0.072 A 
ENDROOT
TORSDOF 0
ENDMDL
