MODEL 1
REMARK minimizedAffinity -4.88700962
REMARK minimizedRMSD -1
REMARK  0 active torsions:
REMARK  status: ('A' for Active; 'I' for Inactive)
ROOT
ATOM      1  C1  DEN d   1      -0.695  -0.827   1.383  0.00  0.00     0.130 A 
ATOM      2  C2  DEN d   1      -0.182   0.494   1.029  0.00  0.00    -0.031 A 
ATOM      3  C3  DEN d   1       0.260   0.450  -0.379  0.00  0.00     0.027 A 
ATOM      4  C4  DEN d   1       0.195  -1.522  -2.039  0.00  0.00     0.027 A 
ATOM      5  C5  DEN d   1      -0.144  -2.848  -2.194  0.00  0.00    -0.003 A 
ATOM      6  C6  DEN d   1      -0.654  -3.597  -1.167  0.00  0.00     0.001 A 
ATOM      7  C7  DEN d   1      -0.882  -3.011   0.051  0.00  0.00     0.017 A 
ATOM      8  C8  DEN d   1      -0.537  -1.677   0.217  0.00  0.00    -0.094 A 
ATOM      9  C9  DEN d   1      -0.034  -0.934  -0.838  0.00  0.00    -0.072 A 
ENDROOT
TORSDOF 0
ENDMDL
