MODEL 1
REMARK minimizedAffinity -5.35255289
REMARK minimizedRMSD -1
REMARK  0 active torsions:
REMARK  status: ('A' for Active; 'I' for Inactive)
ROOT
ATOM      1  C1  DEN d   1       0.108  -3.419  -0.756  0.00  0.00     0.130 A 
ATOM      2  C2  DEN d   1       0.410  -3.020  -2.128  0.00  0.00    -0.031 A 
ATOM      3  C3  DEN d   1       0.382  -1.545  -2.191  0.00  0.00     0.027 A 
ATOM      4  C4  DEN d   1      -0.092   0.151  -0.307  0.00  0.00     0.027 A 
ATOM      5  C5  DEN d   1      -0.411   0.288   1.026  0.00  0.00    -0.003 A 
ATOM      6  C6  DEN d   1      -0.612  -0.792   1.844  0.00  0.00     0.001 A 
ATOM      7  C7  DEN d   1      -0.450  -2.059   1.347  0.00  0.00     0.017 A 
ATOM      8  C8  DEN d   1      -0.135  -2.205   0.002  0.00  0.00    -0.094 A 
ATOM      9  C9  DEN d   1       0.075  -1.100  -0.805  0.00  0.00    -0.072 A 
ENDROOT
TORSDOF 0
ENDMDL
