MODEL 1
REMARK minimizedAffinity -3.95759106
REMARK minimizedRMSD -1
REMARK  0 active torsions:
REMARK  status: ('A' for Active; 'I' for Inactive)
ROOT
ATOM      1  C1  DEN d   1      -0.344  -2.551  -2.049  0.00  0.00     0.130 A 
ATOM      2  C2  DEN d   1       0.149  -1.527  -2.967  0.00  0.00    -0.031 A 
ATOM      3  C3  DEN d   1       0.142  -0.234  -2.255  0.00  0.00     0.027 A 
ATOM      4  C4  DEN d   1      -0.576   0.281   0.168  0.00  0.00     0.027 A 
ATOM      5  C5  DEN d   1      -1.077  -0.263   1.330  0.00  0.00    -0.003 A 
ATOM      6  C6  DEN d   1      -1.398  -1.591   1.435  0.00  0.00     0.001 A 
ATOM      7  C7  DEN d   1      -1.179  -2.428   0.374  0.00  0.00     0.017 A 
ATOM      8  C8  DEN d   1      -0.681  -1.885  -0.804  0.00  0.00    -0.094 A 
ATOM      9  C9  DEN d   1      -0.351  -0.543  -0.887  0.00  0.00    -0.072 A 
ENDROOT
TORSDOF 0
ENDMDL
