MODEL 1
REMARK minimizedAffinity -7.02312279
REMARK minimizedRMSD -1
REMARK  0 active torsions:
REMARK  status: ('A' for Active; 'I' for Inactive)
ROOT
ATOM      1  C1  DEN d   1       0.430   0.370  -1.322  0.00  0.00     0.130 A 
ATOM      2  C2  DEN d   1       0.000   0.894  -0.028  0.00  0.00    -0.031 A 
ATOM      3  C3  DEN d   1      -0.402  -0.249   0.816  0.00  0.00     0.027 A 
ATOM      4  C4  DEN d   1      -0.398  -2.766   0.251  0.00  0.00     0.027 A 
ATOM      5  C5  DEN d   1      -0.128  -3.695  -0.729  0.00  0.00    -0.003 A 
ATOM      6  C6  DEN d   1       0.311  -3.336  -1.976  0.00  0.00     0.001 A 
ATOM      7  C7  DEN d   1       0.536  -2.016  -2.261  0.00  0.00     0.017 A 
ATOM      8  C8  DEN d   1       0.259  -1.072  -1.281  0.00  0.00    -0.094 A 
ATOM      9  C9  DEN d   1      -0.172  -1.456  -0.023  0.00  0.00    -0.072 A 
ENDROOT
TORSDOF 0
ENDMDL
