MODEL 1
REMARK minimizedAffinity -4.9660449
REMARK minimizedRMSD -1
REMARK  0 active torsions:
REMARK  status: ('A' for Active; 'I' for Inactive)
ROOT
ATOM      1  C1  DEN d   1       0.268   0.265  -0.805  0.00  0.00     0.130 A 
ATOM      2  C2  DEN d   1      -0.770   0.895   0.006  0.00  0.00    -0.031 A 
ATOM      3  C3  DEN d   1      -1.535  -0.173   0.680  0.00  0.00     0.027 A 
ATOM      4  C4  DEN d   1      -1.211  -2.729   0.550  0.00  0.00     0.027 A 
ATOM      5  C5  DEN d   1      -0.466  -3.739  -0.018  0.00  0.00    -0.003 A 
ATOM      6  C6  DEN d   1       0.545  -3.488  -0.908  0.00  0.00     0.001 A 
ATOM      7  C7  DEN d   1       0.869  -2.195  -1.220  0.00  0.00     0.017 A 
ATOM      8  C8  DEN d   1       0.118  -1.171  -0.657  0.00  0.00    -0.094 A 
ATOM      9  C9  DEN d   1      -0.892  -1.444   0.250  0.00  0.00    -0.072 A 
ENDROOT
TORSDOF 0
ENDMDL
