MODEL 1
REMARK minimizedAffinity 1.1544162
REMARK minimizedRMSD -1
REMARK  0 active torsions:
REMARK  status: ('A' for Active; 'I' for Inactive)
ROOT
ATOM      1  C1  DEN d   1       0.774   2.913  -0.536  0.00  0.00     0.130 A 
ATOM      2  C2  DEN d   1       1.778   3.302   0.450  0.00  0.00    -0.031 A 
ATOM      3  C3  DEN d   1       1.960   2.173   1.385  0.00  0.00     0.027 A 
ATOM      4  C4  DEN d   1       0.797  -0.128   1.397  0.00  0.00     0.027 A 
ATOM      5  C5  DEN d   1      -0.138  -0.917   0.763  0.00  0.00    -0.003 A 
ATOM      6  C6  DEN d   1      -0.854  -0.475  -0.318  0.00  0.00     0.001 A 
ATOM      7  C7  DEN d   1      -0.613   0.774  -0.827  0.00  0.00     0.017 A 
ATOM      8  C8  DEN d   1       0.324   1.577  -0.190  0.00  0.00    -0.094 A 
ATOM      9  C9  DEN d   1       1.045   1.108   0.895  0.00  0.00    -0.072 A 
ENDROOT
TORSDOF 0
ENDMDL
