MODEL 1
REMARK minimizedAffinity -5.75578213
REMARK minimizedRMSD -1
REMARK  0 active torsions:
REMARK  status: ('A' for Active; 'I' for Inactive)
ROOT
ATOM      1  C1  DEN d   1       0.306  -1.264  -2.527  0.00  0.00     0.130 A 
ATOM      2  C2  DEN d   1       0.300  -2.724  -2.583  0.00  0.00    -0.031 A 
ATOM      3  C3  DEN d   1      -0.071  -3.231  -1.246  0.00  0.00     0.027 A 
ATOM      4  C4  DEN d   1      -0.638  -1.905   0.892  0.00  0.00     0.027 A 
ATOM      5  C5  DEN d   1      -0.755  -0.643   1.432  0.00  0.00    -0.003 A 
ATOM      6  C6  DEN d   1      -0.497   0.489   0.707  0.00  0.00     0.001 A 
ATOM      7  C7  DEN d   1      -0.151   0.384  -0.615  0.00  0.00     0.017 A 
ATOM      8  C8  DEN d   1      -0.023  -0.884  -1.165  0.00  0.00    -0.094 A 
ATOM      9  C9  DEN d   1      -0.301  -2.016  -0.418  0.00  0.00    -0.072 A 
ENDROOT
TORSDOF 0
ENDMDL
