MODEL 1
REMARK minimizedAffinity -4.77247
REMARK minimizedRMSD -1
REMARK  0 active torsions:
REMARK  status: ('A' for Active; 'I' for Inactive)
ROOT
ATOM      1  C1  DEN d   1      -0.007  -2.615  -2.197  0.00  0.00     0.130 A 
ATOM      2  C2  DEN d   1       0.524  -1.499  -2.975  0.00  0.00    -0.031 A 
ATOM      3  C3  DEN d   1       0.480  -0.290  -2.128  0.00  0.00     0.027 A 
ATOM      4  C4  DEN d   1      -0.350  -0.040   0.301  0.00  0.00     0.027 A 
ATOM      5  C5  DEN d   1      -0.901  -0.706   1.373  0.00  0.00    -0.003 A 
ATOM      6  C6  DEN d   1      -1.222  -2.037   1.319  0.00  0.00     0.001 A 
ATOM      7  C7  DEN d   1      -0.953  -2.755   0.184  0.00  0.00     0.017 A 
ATOM      8  C8  DEN d   1      -0.403  -2.088  -0.903  0.00  0.00    -0.094 A 
ATOM      9  C9  DEN d   1      -0.074  -0.746  -0.825  0.00  0.00    -0.072 A 
ENDROOT
TORSDOF 0
ENDMDL
