MODEL 1
REMARK minimizedAffinity -5.99952269
REMARK minimizedRMSD -1
REMARK  0 active torsions:
REMARK  status: ('A' for Active; 'I' for Inactive)
ROOT
ATOM      1  C1  DEN d   1       0.013  -3.125  -1.693  0.00  0.00     0.130 A 
ATOM      2  C2  DEN d   1       0.308  -2.203  -2.787  0.00  0.00    -0.031 A 
ATOM      3  C3  DEN d   1       0.157  -0.826  -2.276  0.00  0.00     0.027 A 
ATOM      4  C4  DEN d   1      -0.496  -0.035   0.090  0.00  0.00     0.027 A 
ATOM      5  C5  DEN d   1      -0.853  -0.450   1.354  0.00  0.00    -0.003 A 
ATOM      6  C6  DEN d   1      -0.978  -1.775   1.679  0.00  0.00     0.001 A 
ATOM      7  C7  DEN d   1      -0.700  -2.733   0.741  0.00  0.00     0.017 A 
ATOM      8  C8  DEN d   1      -0.347  -2.322  -0.538  0.00  0.00    -0.094 A 
ATOM      9  C9  DEN d   1      -0.214  -0.978  -0.844  0.00  0.00    -0.072 A 
ENDROOT
TORSDOF 0
ENDMDL
