MODEL 1
REMARK minimizedAffinity -2.69321275
REMARK minimizedRMSD -1
REMARK  0 active torsions:
REMARK  status: ('A' for Active; 'I' for Inactive)
ROOT
ATOM      1  C1  DEN d   1       0.178   1.149  -1.211  0.00  0.00     0.130 A 
ATOM      2  C2  DEN d   1       0.439   2.166  -0.196  0.00  0.00    -0.031 A 
ATOM      3  C3  DEN d   1       0.112   1.590   1.123  0.00  0.00     0.027 A 
ATOM      4  C4  DEN d   1      -0.764  -0.768   1.692  0.00  0.00     0.027 A 
ATOM      5  C5  DEN d   1      -1.151  -1.979   1.163  0.00  0.00    -0.003 A 
ATOM      6  C6  DEN d   1      -1.155  -2.220  -0.185  0.00  0.00     0.001 A 
ATOM      7  C7  DEN d   1      -0.720  -1.249  -1.049  0.00  0.00     0.017 A 
ATOM      8  C8  DEN d   1      -0.335  -0.023  -0.524  0.00  0.00    -0.094 A 
ATOM      9  C9  DEN d   1      -0.328   0.197   0.843  0.00  0.00    -0.072 A 
ENDROOT
TORSDOF 0
ENDMDL
