MODEL 1
REMARK minimizedAffinity -1.19926214
REMARK minimizedRMSD -1
REMARK  0 active torsions:
REMARK  status: ('A' for Active; 'I' for Inactive)
ROOT
ATOM      1  C   UNL d   1       2.616   5.571   3.510  0.00  0.00     0.078 C 
ATOM      2  C1  UNL d   1       3.793   5.396   2.596  0.00  0.00    -0.077 A 
ATOM      3  C2  UNL d   1       4.907   4.645   2.991  0.00  0.00    -0.001 A 
ATOM      4  C3  UNL d   1       5.999   4.499   2.134  0.00  0.00     0.003 A 
ATOM      5  C4  UNL d   1       5.988   5.102   0.878  0.00  0.00    -0.005 A 
ATOM      6  C5  UNL d   1       4.885   5.853   0.477  0.00  0.00     0.003 A 
ATOM      7  C6  UNL d   1       3.792   6.000   1.333  0.00  0.00    -0.001 A 
ENDROOT
TORSDOF 0
ENDMDL
