MODEL 1
REMARK minimizedAffinity -3.82963991
REMARK minimizedRMSD -1
REMARK  0 active torsions:
REMARK  status: ('A' for Active; 'I' for Inactive)
ROOT
ATOM      1  C   UNL d   1       2.985   0.120  -0.261  0.00  0.00     0.078 C 
ATOM      2  C1  UNL d   1       1.991  -0.343   0.761  0.00  0.00    -0.077 A 
ATOM      3  C2  UNL d   1       2.371  -0.559   2.091  0.00  0.00    -0.001 A 
ATOM      4  C3  UNL d   1       1.437  -0.998   3.031  0.00  0.00     0.003 A 
ATOM      5  C4  UNL d   1       0.116  -1.227   2.650  0.00  0.00    -0.005 A 
ATOM      6  C5  UNL d   1      -0.271  -1.016   1.328  0.00  0.00     0.003 A 
ATOM      7  C6  UNL d   1       0.661  -0.577   0.388  0.00  0.00    -0.001 A 
ENDROOT
TORSDOF 0
ENDMDL
