MODEL 1
REMARK minimizedAffinity -4.2465868
REMARK minimizedRMSD -1
REMARK  0 active torsions:
REMARK  status: ('A' for Active; 'I' for Inactive)
ROOT
ATOM      1  C   UNL d   1      -0.292   0.704  -0.907  0.00  0.00     0.078 C 
ATOM      2  C1  UNL d   1       0.412  -0.078   0.161  0.00  0.00    -0.077 A 
ATOM      3  C2  UNL d   1       1.488  -0.918  -0.150  0.00  0.00    -0.001 A 
ATOM      4  C3  UNL d   1       2.128  -1.647   0.853  0.00  0.00     0.003 A 
ATOM      5  C4  UNL d   1       1.698  -1.545   2.175  0.00  0.00    -0.005 A 
ATOM      6  C5  UNL d   1       0.627  -0.713   2.494  0.00  0.00     0.003 A 
ATOM      7  C6  UNL d   1      -0.014   0.017   1.492  0.00  0.00    -0.001 A 
ENDROOT
TORSDOF 0
ENDMDL
