MODEL 1
REMARK minimizedAffinity -4.39675379
REMARK minimizedRMSD -1
REMARK  0 active torsions:
REMARK  status: ('A' for Active; 'I' for Inactive)
ROOT
ATOM      1  C   UNL d   1       1.584  -0.863   2.629  0.00  0.00     0.078 C 
ATOM      2  C1  UNL d   1       0.901  -0.623   1.316  0.00  0.00    -0.077 A 
ATOM      3  C2  UNL d   1       1.557  -0.874   0.105  0.00  0.00    -0.001 A 
ATOM      4  C3  UNL d   1       0.913  -0.637  -1.110  0.00  0.00     0.003 A 
ATOM      5  C4  UNL d   1      -0.392  -0.147  -1.126  0.00  0.00    -0.005 A 
ATOM      6  C5  UNL d   1      -1.053   0.108   0.074  0.00  0.00     0.003 A 
ATOM      7  C6  UNL d   1      -0.409  -0.129   1.290  0.00  0.00    -0.001 A 
ENDROOT
TORSDOF 0
ENDMDL
