MODEL 1
REMARK minimizedAffinity -3.95983696
REMARK minimizedRMSD -1
REMARK  0 active torsions:
REMARK  status: ('A' for Active; 'I' for Inactive)
ROOT
ATOM      1  C   UNL d   1       2.024  -0.796  -1.045  0.00  0.00     0.078 C 
ATOM      2  C1  UNL d   1       1.121  -0.953   0.142  0.00  0.00    -0.077 A 
ATOM      3  C2  UNL d   1      -0.271  -0.917  -0.002  0.00  0.00    -0.001 A 
ATOM      4  C3  UNL d   1      -1.100  -1.054   1.113  0.00  0.00     0.003 A 
ATOM      5  C4  UNL d   1      -0.546  -1.226   2.379  0.00  0.00    -0.005 A 
ATOM      6  C5  UNL d   1       0.839  -1.261   2.533  0.00  0.00     0.003 A 
ATOM      7  C6  UNL d   1       1.669  -1.124   1.419  0.00  0.00    -0.001 A 
ENDROOT
TORSDOF 0
ENDMDL
