MODEL 1
REMARK minimizedAffinity 8.84922791
REMARK minimizedRMSD -1
REMARK  2 active torsions:
REMARK  status: ('A' for Active; 'I' for Inactive)
REMARK    1  A    between atoms: C2'_3  and  C1'_4 
REMARK    2  A    between atoms: C1'_4  and  C1_5 
ROOT
ATOM      1  C1  I4B d   1       3.378  -0.101   0.766  0.00  0.00    -0.075 A 
ATOM      2  C2  I4B d   1       2.480  -1.078   1.121  0.00  0.00     0.003 A 
ATOM      3  C3  I4B d   1       2.927  -2.256   1.767  0.00  0.00     0.002 A 
ATOM      4  C4  I4B d   1       4.276  -2.438   1.992  0.00  0.00    -0.004 A 
ATOM      5  C5  I4B d   1       5.182  -1.437   1.653  0.00  0.00     0.002 A 
ATOM      6  C6  I4B d   1       4.729  -0.256   1.047  0.00  0.00     0.003 A 
ENDROOT
BRANCH   1   7
ATOM      7  C1' I4B d   1       2.875   1.115   0.056  0.00  0.00     0.060 C 
BRANCH   7   8
ATOM      8  C2' I4B d   1       3.089   0.910  -1.430  0.00  0.00    -0.013 C 
ATOM      9  C4' I4B d   1       4.432   1.433  -1.865  0.00  0.00     0.013 C 
ATOM     10  C3' I4B d   1       2.959  -0.556  -1.718  0.00  0.00     0.013 C 
ENDBRANCH   7   8
ENDBRANCH   1   7
TORSDOF 2
ENDMDL
