MODEL 1
REMARK minimizedAffinity 10.6866169
REMARK minimizedRMSD -1
REMARK  2 active torsions:
REMARK  status: ('A' for Active; 'I' for Inactive)
REMARK    1  A    between atoms: C2'_3  and  C1'_4 
REMARK    2  A    between atoms: C1'_4  and  C1_5 
ROOT
ATOM      1  C1  I4B d   1       4.882   2.825  -1.255  0.00  0.00    -0.075 A 
ATOM      2  C2  I4B d   1       4.420   1.904  -2.162  0.00  0.00     0.003 A 
ATOM      3  C3  I4B d   1       3.407   0.986  -1.792  0.00  0.00     0.002 A 
ATOM      4  C4  I4B d   1       2.925   0.990  -0.499  0.00  0.00    -0.004 A 
ATOM      5  C5  I4B d   1       3.379   1.940   0.412  0.00  0.00     0.002 A 
ATOM      6  C6  I4B d   1       4.355   2.871   0.029  0.00  0.00     0.003 A 
ENDROOT
BRANCH   1   7
ATOM      7  C1' I4B d   1       5.975   3.758  -1.670  0.00  0.00     0.060 C 
BRANCH   7   8
ATOM      8  C2' I4B d   1       5.470   5.176  -1.494  0.00  0.00    -0.013 C 
ATOM      9  C4' I4B d   1       5.894   5.745  -0.166  0.00  0.00     0.013 C 
ATOM     10  C3' I4B d   1       5.999   6.000  -2.630  0.00  0.00     0.013 C 
ENDBRANCH   7   8
ENDBRANCH   1   7
TORSDOF 2
ENDMDL
