MODEL 1
REMARK minimizedAffinity 10.0973444
REMARK minimizedRMSD -1
REMARK  2 active torsions:
REMARK  status: ('A' for Active; 'I' for Inactive)
REMARK    1  A    between atoms: C2'_3  and  C1'_4 
REMARK    2  A    between atoms: C1'_4  and  C1_5 
ROOT
ATOM      1  C1  I4B d   1      -2.745   0.043  -4.754  0.00  0.00    -0.075 A 
ATOM      2  C2  I4B d   1      -2.698   0.735  -3.569  0.00  0.00     0.003 A 
ATOM      3  C3  I4B d   1      -1.755   0.381  -2.574  0.00  0.00     0.002 A 
ATOM      4  C4  I4B d   1      -0.917  -0.695  -2.784  0.00  0.00    -0.004 A 
ATOM      5  C5  I4B d   1      -0.950  -1.381  -3.995  0.00  0.00     0.002 A 
ATOM      6  C6  I4B d   1      -1.861  -1.002  -4.991  0.00  0.00     0.003 A 
ENDROOT
BRANCH   1   7
ATOM      7  C1' I4B d   1      -3.776   0.422  -5.769  0.00  0.00     0.060 C 
BRANCH   7   8
ATOM      8  C2' I4B d   1      -5.132   0.380  -5.096  0.00  0.00    -0.013 C 
ATOM      9  C4' I4B d   1      -5.754   1.751  -5.035  0.00  0.00     0.013 C 
ATOM     10  C3' I4B d   1      -6.000  -0.574  -5.861  0.00  0.00     0.013 C 
ENDBRANCH   7   8
ENDBRANCH   1   7
TORSDOF 2
ENDMDL
