MODEL 1
REMARK minimizedAffinity 9.5786953
REMARK minimizedRMSD -1
REMARK  1 active torsions:
REMARK  status: ('A' for Active; 'I' for Inactive)
REMARK    1  A    between atoms: N_2  and  C1_3 
ROOT
ATOM      1  C1  UNL d   1       2.504  -4.952  -0.681  0.00  0.00     0.143 A 
ATOM      2  C2  UNL d   1       3.427  -5.993  -0.832  0.00  0.00    -0.057 A 
ATOM      3  C3  UNL d   1       4.805  -5.745  -0.843  0.00  0.00     0.033 A 
ATOM      4  C4  UNL d   1       5.285  -4.444  -0.732  0.00  0.00    -0.042 A 
ATOM      5  C5  UNL d   1       4.385  -3.392  -0.606  0.00  0.00     0.033 A 
ATOM      6  C6  UNL d   1       3.010  -3.646  -0.589  0.00  0.00    -0.057 A 
ENDROOT
BRANCH   1   7
ATOM      7  N   UNL d   1       1.120  -5.123  -0.761  0.00  0.00    -0.732 N 
ATOM      8  C   UNL d   1       0.288  -4.117  -1.386  0.00  0.00     0.284 C 
ATOM      9  H3  UNL d   1       0.859  -6.079  -0.991  0.00  0.00     0.395 HD
ENDBRANCH   1   7
TORSDOF 1
ENDMDL
