MODEL 1
REMARK minimizedAffinity 9.34891319
REMARK minimizedRMSD -1
REMARK  1 active torsions:
REMARK  status: ('A' for Active; 'I' for Inactive)
REMARK    1  A    between atoms: N_2  and  C1_3 
ROOT
ATOM      1  C1  UNL d   1       4.977  -5.131  -2.702  0.00  0.00     0.143 A 
ATOM      2  C2  UNL d   1       3.697  -5.671  -2.867  0.00  0.00    -0.057 A 
ATOM      3  C3  UNL d   1       3.205  -5.999  -4.136  0.00  0.00     0.033 A 
ATOM      4  C4  UNL d   1       3.976  -5.764  -5.270  0.00  0.00    -0.042 A 
ATOM      5  C5  UNL d   1       5.241  -5.204  -5.132  0.00  0.00     0.033 A 
ATOM      6  C6  UNL d   1       5.730  -4.885  -3.862  0.00  0.00    -0.057 A 
ENDROOT
BRANCH   1   7
ATOM      7  N   UNL d   1       5.485  -4.693  -1.477  0.00  0.00    -0.732 N 
ATOM      8  C   UNL d   1       5.643  -3.280  -1.207  0.00  0.00     0.284 C 
ATOM      9  H3  UNL d   1       5.120  -5.227  -0.692  0.00  0.00     0.395 HD
ENDBRANCH   1   7
TORSDOF 1
ENDMDL
