MODEL 1
REMARK minimizedAffinity 5.21236753
REMARK minimizedRMSD -1
REMARK  1 active torsions:
REMARK  status: ('A' for Active; 'I' for Inactive)
REMARK    1  A    between atoms: N_2  and  C1_3 
ROOT
ATOM      1  C1  UNL d   1       0.045   3.660  -1.005  0.00  0.00     0.143 A 
ATOM      2  C2  UNL d   1       0.949   4.701  -0.770  0.00  0.00    -0.057 A 
ATOM      3  C3  UNL d   1       0.933   5.865  -1.548  0.00  0.00     0.033 A 
ATOM      4  C4  UNL d   1       0.029   5.996  -2.597  0.00  0.00    -0.042 A 
ATOM      5  C5  UNL d   1      -0.862   4.963  -2.864  0.00  0.00     0.033 A 
ATOM      6  C6  UNL d   1      -0.846   3.806  -2.080  0.00  0.00    -0.057 A 
ENDROOT
BRANCH   1   7
ATOM      7  N   UNL d   1       0.074   2.437  -0.330  0.00  0.00    -0.732 N 
ATOM      8  C   UNL d   1       0.516   2.365   1.046  0.00  0.00     0.284 C 
ATOM      9  H3  UNL d   1      -0.737   1.859  -0.537  0.00  0.00     0.395 HD
ENDBRANCH   1   7
TORSDOF 1
ENDMDL
