MODEL 1
REMARK minimizedAffinity 8.32469082
REMARK minimizedRMSD -1
REMARK  1 active torsions:
REMARK  status: ('A' for Active; 'I' for Inactive)
REMARK    1  A    between atoms: N_2  and  C1_3 
ROOT
ATOM      1  C1  UNL d   1       0.931   2.561   2.767  0.00  0.00     0.143 A 
ATOM      2  C2  UNL d   1       0.205   2.855   1.607  0.00  0.00    -0.057 A 
ATOM      3  C3  UNL d   1       0.822   3.431   0.490  0.00  0.00     0.033 A 
ATOM      4  C4  UNL d   1       2.175   3.752   0.524  0.00  0.00    -0.042 A 
ATOM      5  C5  UNL d   1       2.911   3.492   1.675  0.00  0.00     0.033 A 
ATOM      6  C6  UNL d   1       2.290   2.910   2.785  0.00  0.00    -0.057 A 
ENDROOT
BRANCH   1   7
ATOM      7  N   UNL d   1       0.354   2.080   3.944  0.00  0.00    -0.732 N 
ATOM      8  C   UNL d   1       0.682   0.760   4.440  0.00  0.00     0.284 C 
ATOM      9  H3  UNL d   1       0.295   2.793   4.668  0.00  0.00     0.395 HD
ENDBRANCH   1   7
TORSDOF 1
ENDMDL
