MODEL 1
REMARK minimizedAffinity 2.81136274
REMARK minimizedRMSD -1
REMARK  1 active torsions:
REMARK  status: ('A' for Active; 'I' for Inactive)
REMARK    1  A    between atoms: N_2  and  C1_3 
ROOT
ATOM      1  C1  UNL d   1       0.865   3.951  -0.089  0.00  0.00     0.143 A 
ATOM      2  C2  UNL d   1      -0.287   4.401   0.564  0.00  0.00    -0.057 A 
ATOM      3  C3  UNL d   1      -1.455   4.702  -0.147  0.00  0.00     0.033 A 
ATOM      4  C4  UNL d   1      -1.481   4.585  -1.533  0.00  0.00    -0.042 A 
ATOM      5  C5  UNL d   1      -0.340   4.164  -2.206  0.00  0.00     0.033 A 
ATOM      6  C6  UNL d   1       0.821   3.859  -1.489  0.00  0.00    -0.057 A 
ENDROOT
BRANCH   1   7
ATOM      7  N   UNL d   1       2.087   3.731   0.552  0.00  0.00    -0.732 N 
ATOM      8  C   UNL d   1       2.158   2.903   1.737  0.00  0.00     0.284 C 
ATOM      9  H3  UNL d   1       2.849   3.583  -0.105  0.00  0.00     0.395 HD
ENDBRANCH   1   7
TORSDOF 1
ENDMDL
