MODEL 1
REMARK minimizedAffinity 5.1454587
REMARK minimizedRMSD -1
REMARK  1 active torsions:
REMARK  status: ('A' for Active; 'I' for Inactive)
REMARK    1  A    between atoms: N_2  and  C1_3 
ROOT
ATOM      1  C1  UNL d   1      -0.202  -3.222  -1.379  0.00  0.00     0.143 A 
ATOM      2  C2  UNL d   1       0.085  -1.926  -0.939  0.00  0.00    -0.057 A 
ATOM      3  C3  UNL d   1       1.213  -1.659  -0.153  0.00  0.00     0.033 A 
ATOM      4  C4  UNL d   1       2.060  -2.692   0.233  0.00  0.00    -0.042 A 
ATOM      5  C5  UNL d   1       1.780  -3.993  -0.172  0.00  0.00     0.033 A 
ATOM      6  C6  UNL d   1       0.657  -4.252  -0.962  0.00  0.00    -0.057 A 
ENDROOT
BRANCH   1   7
ATOM      7  N   UNL d   1      -1.360  -3.567  -2.080  0.00  0.00    -0.732 N 
ATOM      8  C   UNL d   1      -1.330  -3.733  -3.517  0.00  0.00     0.284 C 
ATOM      9  H3  UNL d   1      -1.915  -4.266  -1.592  0.00  0.00     0.395 HD
ENDBRANCH   1   7
TORSDOF 1
ENDMDL
