MODEL 1
REMARK minimizedAffinity 7.87924767
REMARK minimizedRMSD -1
REMARK  3 active torsions:
REMARK  status: ('A' for Active; 'I' for Inactive)
REMARK    1  A    between atoms: C3'_2  and  C2'_3 
REMARK    2  A    between atoms: C2'_3  and  C1'_4 
REMARK    3  A    between atoms: C1'_4  and  C1_5 
ROOT
ATOM      1  C1  N4B d   1       0.633  -2.282  -0.850  0.00  0.00    -0.075 A 
ATOM      2  C2  N4B d   1       1.239  -3.392  -0.222  0.00  0.00     0.002 A 
ATOM      3  C3  N4B d   1       0.556  -4.092   0.743  0.00  0.00     0.002 A 
ATOM      4  C4  N4B d   1      -0.720  -3.691   1.108  0.00  0.00    -0.004 A 
ATOM      5  C5  N4B d   1      -1.308  -2.633   0.478  0.00  0.00     0.002 A 
ATOM      6  C6  N4B d   1      -0.636  -1.923  -0.496  0.00  0.00     0.002 A 
ENDROOT
BRANCH   1   7
ATOM      7  C1' N4B d   1       1.372  -1.433  -1.848  0.00  0.00     0.057 C 
BRANCH   7   8
ATOM      8  C2' N4B d   1       0.471  -0.285  -2.293  0.00  0.00     0.009 C 
BRANCH   8   9
ATOM      9  C3' N4B d   1       0.763   0.995  -1.528  0.00  0.00     0.004 C 
ATOM     10  C4' N4B d   1      -0.470   1.613  -0.939  0.00  0.00     0.003 C 
ENDBRANCH   8   9
ENDBRANCH   7   8
ENDBRANCH   1   7
TORSDOF 3
ENDMDL
