MODEL 1
REMARK minimizedAffinity 7.24587393
REMARK minimizedRMSD -1
REMARK  3 active torsions:
REMARK  status: ('A' for Active; 'I' for Inactive)
REMARK    1  A    between atoms: C3'_2  and  C2'_3 
REMARK    2  A    between atoms: C2'_3  and  C1'_4 
REMARK    3  A    between atoms: C1'_4  and  C1_5 
ROOT
ATOM      1  C1  N4B d   1       1.403  -0.593  -1.549  0.00  0.00    -0.075 A 
ATOM      2  C2  N4B d   1       0.779   0.670  -1.651  0.00  0.00     0.002 A 
ATOM      3  C3  N4B d   1       1.355   1.769  -1.062  0.00  0.00     0.002 A 
ATOM      4  C4  N4B d   1       2.538   1.627  -0.353  0.00  0.00    -0.004 A 
ATOM      5  C5  N4B d   1       3.147   0.408  -0.281  0.00  0.00     0.002 A 
ATOM      6  C6  N4B d   1       2.583  -0.704  -0.872  0.00  0.00     0.002 A 
ENDROOT
BRANCH   1   7
ATOM      7  C1' N4B d   1       0.768  -1.839  -2.103  0.00  0.00     0.057 C 
BRANCH   7   8
ATOM      8  C2' N4B d   1      -0.330  -2.307  -1.153  0.00  0.00     0.009 C 
BRANCH   8   9
ATOM      9  C3' N4B d   1      -0.092  -3.724  -0.662  0.00  0.00     0.004 C 
ATOM     10  C4' N4B d   1       0.054  -3.806   0.828  0.00  0.00     0.003 C 
ENDBRANCH   8   9
ENDBRANCH   7   8
ENDBRANCH   1   7
TORSDOF 3
ENDMDL
