MODEL 1
REMARK minimizedAffinity 1.11557543
REMARK minimizedRMSD -1
REMARK  3 active torsions:
REMARK  status: ('A' for Active; 'I' for Inactive)
REMARK    1  A    between atoms: C3'_2  and  C2'_3 
REMARK    2  A    between atoms: C2'_3  and  C1'_4 
REMARK    3  A    between atoms: C1'_4  and  C1_5 
ROOT
ATOM      1  C1  N4B d   1       3.909   3.617  -2.981  0.00  0.00    -0.075 A 
ATOM      2  C2  N4B d   1       3.364   4.920  -3.009  0.00  0.00     0.002 A 
ATOM      3  C3  N4B d   1       4.153   5.986  -3.366  0.00  0.00     0.002 A 
ATOM      4  C4  N4B d   1       5.487   5.777  -3.680  0.00  0.00    -0.004 A 
ATOM      5  C5  N4B d   1       5.999   4.513  -3.675  0.00  0.00     0.002 A 
ATOM      6  C6  N4B d   1       5.218   3.431  -3.322  0.00  0.00     0.002 A 
ENDROOT
BRANCH   1   7
ATOM      7  C1' N4B d   1       3.109   2.432  -2.514  0.00  0.00     0.057 C 
BRANCH   7   8
ATOM      8  C2' N4B d   1       3.721   1.891  -1.225  0.00  0.00     0.009 C 
BRANCH   8   9
ATOM      9  C3' N4B d   1       2.699   1.155  -0.375  0.00  0.00     0.004 C 
ATOM     10  C4' N4B d   1       3.320   0.116   0.510  0.00  0.00     0.003 C 
ENDBRANCH   8   9
ENDBRANCH   7   8
ENDBRANCH   1   7
TORSDOF 3
ENDMDL
