MODEL 1
REMARK minimizedAffinity 2.07063842
REMARK minimizedRMSD -1
REMARK  3 active torsions:
REMARK  status: ('A' for Active; 'I' for Inactive)
REMARK    1  A    between atoms: C3'_2  and  C2'_3 
REMARK    2  A    between atoms: C2'_3  and  C1'_4 
REMARK    3  A    between atoms: C1'_4  and  C1_5 
ROOT
ATOM      1  C1  N4B d   1       0.030  -2.953   0.452  0.00  0.00    -0.075 A 
ATOM      2  C2  N4B d   1       0.300  -1.862  -0.403  0.00  0.00     0.002 A 
ATOM      3  C3  N4B d   1       0.824  -2.083  -1.653  0.00  0.00     0.002 A 
ATOM      4  C4  N4B d   1       1.103  -3.379  -2.061  0.00  0.00    -0.004 A 
ATOM      5  C5  N4B d   1       0.815  -4.429  -1.238  0.00  0.00     0.002 A 
ATOM      6  C6  N4B d   1       0.285  -4.222   0.019  0.00  0.00     0.002 A 
ENDROOT
BRANCH   1   7
ATOM      7  C1' N4B d   1      -0.462  -2.755   1.860  0.00  0.00     0.057 C 
BRANCH   7   8
ATOM      8  C2' N4B d   1      -1.082  -1.366   1.983  0.00  0.00     0.009 C 
BRANCH   8   9
ATOM      9  C3' N4B d   1      -1.138  -0.895   3.426  0.00  0.00     0.004 C 
ATOM     10  C4' N4B d   1      -1.958   0.349   3.600  0.00  0.00     0.003 C 
ENDBRANCH   8   9
ENDBRANCH   7   8
ENDBRANCH   1   7
TORSDOF 3
ENDMDL
