MODEL 1
REMARK minimizedAffinity 9.43919754
REMARK minimizedRMSD -1
REMARK  3 active torsions:
REMARK  status: ('A' for Active; 'I' for Inactive)
REMARK    1  A    between atoms: C3'_2  and  C2'_3 
REMARK    2  A    between atoms: C2'_3  and  C1'_4 
REMARK    3  A    between atoms: C1'_4  and  C1_5 
ROOT
ATOM      1  C1  N4B d   1       0.850  -2.741  -1.900  0.00  0.00    -0.075 A 
ATOM      2  C2  N4B d   1       1.073  -3.939  -1.187  0.00  0.00     0.002 A 
ATOM      3  C3  N4B d   1       0.518  -4.111   0.058  0.00  0.00     0.002 A 
ATOM      4  C4  N4B d   1      -0.243  -3.094   0.616  0.00  0.00    -0.004 A 
ATOM      5  C5  N4B d   1      -0.474  -1.950  -0.090  0.00  0.00     0.002 A 
ATOM      6  C6  N4B d   1       0.073  -1.766  -1.344  0.00  0.00     0.002 A 
ENDROOT
BRANCH   1   7
ATOM      7  C1' N4B d   1       1.506  -2.473  -3.227  0.00  0.00     0.057 C 
BRANCH   7   8
ATOM      8  C2' N4B d   1       2.716  -3.388  -3.381  0.00  0.00     0.009 C 
BRANCH   8   9
ATOM      9  C3' N4B d   1       2.937  -3.800  -4.827  0.00  0.00     0.004 C 
ATOM     10  C4' N4B d   1       3.319  -5.243  -4.968  0.00  0.00     0.003 C 
ENDBRANCH   8   9
ENDBRANCH   7   8
ENDBRANCH   1   7
TORSDOF 3
ENDMDL
