MODEL 1
REMARK minimizedAffinity 10.8849239
REMARK minimizedRMSD -1
REMARK  3 active torsions:
REMARK  status: ('A' for Active; 'I' for Inactive)
REMARK    1  A    between atoms: C3'_2  and  C2'_3 
REMARK    2  A    between atoms: C2'_3  and  C1'_4 
REMARK    3  A    between atoms: C1'_4  and  C1_5 
ROOT
ATOM      1  C1  N4B d   1       0.410  -2.364  -1.564  0.00  0.00    -0.075 A 
ATOM      2  C2  N4B d   1      -0.623  -1.630  -0.940  0.00  0.00     0.002 A 
ATOM      3  C3  N4B d   1      -1.210  -2.108   0.206  0.00  0.00     0.002 A 
ATOM      4  C4  N4B d   1      -0.795  -3.321   0.734  0.00  0.00    -0.004 A 
ATOM      5  C5  N4B d   1       0.220  -4.012   0.140  0.00  0.00     0.002 A 
ATOM      6  C6  N4B d   1       0.822  -3.542  -1.010  0.00  0.00     0.002 A 
ENDROOT
BRANCH   1   7
ATOM      7  C1' N4B d   1       1.023  -1.925  -2.865  0.00  0.00     0.057 C 
BRANCH   7   8
ATOM      8  C2' N4B d   1       2.282  -2.745  -3.128  0.00  0.00     0.009 C 
BRANCH   8   9
ATOM      9  C3' N4B d   1       2.581  -2.867  -4.613  0.00  0.00     0.004 C 
ATOM     10  C4' N4B d   1       3.357  -4.106  -4.949  0.00  0.00     0.003 C 
ENDBRANCH   8   9
ENDBRANCH   7   8
ENDBRANCH   1   7
TORSDOF 3
ENDMDL
