MODEL 1
REMARK minimizedAffinity 9.82066727
REMARK minimizedRMSD -1
REMARK  3 active torsions:
REMARK  status: ('A' for Active; 'I' for Inactive)
REMARK    1  A    between atoms: C3'_2  and  C2'_3 
REMARK    2  A    between atoms: C2'_3  and  C1'_4 
REMARK    3  A    between atoms: C1'_4  and  C1_5 
ROOT
ATOM      1  C1  N4B d   1      -0.037   1.570   1.918  0.00  0.00    -0.075 A 
ATOM      2  C2  N4B d   1      -0.846   1.598   0.761  0.00  0.00     0.002 A 
ATOM      3  C3  N4B d   1      -1.518   0.467   0.366  0.00  0.00     0.002 A 
ATOM      4  C4  N4B d   1      -1.382  -0.703   1.098  0.00  0.00    -0.004 A 
ATOM      5  C5  N4B d   1      -0.618  -0.715   2.228  0.00  0.00     0.002 A 
ATOM      6  C6  N4B d   1       0.059   0.415   2.640  0.00  0.00     0.002 A 
ENDROOT
BRANCH   1   7
ATOM      7  C1' N4B d   1       0.785   2.757   2.342  0.00  0.00     0.057 C 
BRANCH   7   8
ATOM      8  C2' N4B d   1       1.168   3.566   1.107  0.00  0.00     0.009 C 
BRANCH   8   9
ATOM      9  C3' N4B d   1       2.659   3.854   1.056  0.00  0.00     0.004 C 
ATOM     10  C4' N4B d   1       3.032   4.797  -0.049  0.00  0.00     0.003 C 
ENDBRANCH   8   9
ENDBRANCH   7   8
ENDBRANCH   1   7
TORSDOF 3
ENDMDL
