MODEL 1
REMARK minimizedAffinity 5.36688662
REMARK minimizedRMSD -1
REMARK  3 active torsions:
REMARK  status: ('A' for Active; 'I' for Inactive)
REMARK    1  A    between atoms: C3'_2  and  C2'_3 
REMARK    2  A    between atoms: C2'_3  and  C1'_4 
REMARK    3  A    between atoms: C1'_4  and  C1_5 
ROOT
ATOM      1  C1  N4B d   1      -0.444  -0.815  -0.230  0.00  0.00    -0.075 A 
ATOM      2  C2  N4B d   1      -1.085  -2.047   0.029  0.00  0.00     0.002 A 
ATOM      3  C3  N4B d   1      -1.805  -2.216   1.186  0.00  0.00     0.002 A 
ATOM      4  C4  N4B d   1      -1.882  -1.180   2.104  0.00  0.00    -0.004 A 
ATOM      5  C5  N4B d   1      -1.281   0.015   1.835  0.00  0.00     0.002 A 
ATOM      6  C6  N4B d   1      -0.558   0.201   0.674  0.00  0.00     0.002 A 
ENDROOT
BRANCH   1   7
ATOM      7  C1' N4B d   1       0.425  -0.611  -1.441  0.00  0.00     0.057 C 
BRANCH   7   8
ATOM      8  C2' N4B d   1       1.760  -0.016  -1.004  0.00  0.00     0.009 C 
BRANCH   8   9
ATOM      9  C3' N4B d   1       2.935  -0.693  -1.689  0.00  0.00     0.004 C 
ATOM     10  C4' N4B d   1       3.654  -1.655  -0.791  0.00  0.00     0.003 C 
ENDBRANCH   8   9
ENDBRANCH   7   8
ENDBRANCH   1   7
TORSDOF 3
ENDMDL
