MODEL 1
REMARK minimizedAffinity -4.41619301
REMARK minimizedRMSD -1
REMARK  1 active torsions:
REMARK  status: ('A' for Active; 'I' for Inactive)
REMARK    1  A    between atoms: C1_2  and  C2_3 
ROOT
ATOM      1  C2  UNL d   1       0.096  -0.245  -0.669  0.00  0.00    -0.081 A 
ATOM      2  C3  UNL d   1      -1.203  -0.237  -0.146  0.00  0.00     0.006 A 
ATOM      3  C4  UNL d   1      -1.486   0.450   1.037  0.00  0.00     0.002 A 
ATOM      4  C5  UNL d   1      -0.478   1.147   1.711  0.00  0.00    -0.080 A 
ATOM      5  C6  UNL d   1      -0.775   1.914   2.965  0.00  0.00     0.076 C 
ATOM      6  C7  UNL d   1       0.823   1.125   1.198  0.00  0.00     0.002 A 
ATOM      7  C8  UNL d   1       1.107   0.438   0.016  0.00  0.00     0.006 A 
ENDROOT
BRANCH   1   8
ATOM      8  C1  UNL d   1       0.391  -0.931  -1.978  0.00  0.00     0.054 C 
ATOM      9  C   UNL d   1       1.184  -0.027  -2.911  0.00  0.00     0.018 C 
ENDBRANCH   1   8
TORSDOF 1
ENDMDL
