MODEL 1
REMARK minimizedAffinity -6.29078579
REMARK minimizedRMSD -1
REMARK  1 active torsions:
REMARK  status: ('A' for Active; 'I' for Inactive)
REMARK    1  A    between atoms: C1_2  and  C2_3 
ROOT
ATOM      1  C2  UNL d   1       0.070  -0.517  -0.354  0.00  0.00    -0.081 A 
ATOM      2  C3  UNL d   1      -1.246  -0.330   0.087  0.00  0.00     0.006 A 
ATOM      3  C4  UNL d   1      -1.510   0.435   1.225  0.00  0.00     0.002 A 
ATOM      4  C5  UNL d   1      -0.464   1.033   1.937  0.00  0.00    -0.080 A 
ATOM      5  C6  UNL d   1      -0.736   1.882   3.143  0.00  0.00     0.076 C 
ATOM      6  C7  UNL d   1       0.852   0.832   1.507  0.00  0.00     0.002 A 
ATOM      7  C8  UNL d   1       1.117   0.066   0.369  0.00  0.00     0.006 A 
ENDROOT
BRANCH   1   8
ATOM      8  C1  UNL d   1       0.353  -1.288  -1.618  0.00  0.00     0.054 C 
ATOM      9  C   UNL d   1       0.836  -0.368  -2.730  0.00  0.00     0.018 C 
ENDBRANCH   1   8
TORSDOF 1
ENDMDL
