MODEL 1
REMARK minimizedAffinity -3.33634257
REMARK minimizedRMSD -1
REMARK  0 active torsions:
REMARK  status: ('A' for Active; 'I' for Inactive)
ROOT
ATOM      1  C   UNL d   1       2.956  -1.016   0.412  0.00  0.00     0.172 C 
ATOM      2  N   UNL d   1       2.165   0.182   0.573  0.00  0.00    -0.070 N 
ATOM      3  C1  UNL d   1       2.653   1.429   0.858  0.00  0.00    -0.004 A 
ATOM      4  C2  UNL d   1       1.584   2.295   0.930  0.00  0.00    -0.047 A 
ATOM      5  C3  UNL d   1       0.412   1.542   0.680  0.00  0.00    -0.047 A 
ATOM      6  C4  UNL d   1       0.800   0.237   0.462  0.00  0.00    -0.004 A 
ENDROOT
TORSDOF 0
ENDMDL
