MODEL 1
REMARK minimizedAffinity -2.23993635
REMARK minimizedRMSD -1
REMARK  0 active torsions:
REMARK  status: ('A' for Active; 'I' for Inactive)
ROOT
ATOM      1  C   UNL d   1       0.577   2.037   0.975  0.00  0.00     0.172 C 
ATOM      2  N   UNL d   1       0.612   0.726   0.370  0.00  0.00    -0.070 N 
ATOM      3  C1  UNL d   1       1.576  -0.224   0.578  0.00  0.00    -0.004 A 
ATOM      4  C2  UNL d   1       1.249  -1.330  -0.177  0.00  0.00    -0.047 A 
ATOM      5  C3  UNL d   1       0.048  -1.033  -0.864  0.00  0.00    -0.047 A 
ATOM      6  C4  UNL d   1      -0.324   0.246  -0.507  0.00  0.00    -0.004 A 
ENDROOT
TORSDOF 0
ENDMDL
