MODEL 1
REMARK minimizedAffinity 0.418640614
REMARK minimizedRMSD -1
REMARK  0 active torsions:
REMARK  status: ('A' for Active; 'I' for Inactive)
ROOT
ATOM      1  C   UNL d   1       0.767   1.808   0.325  0.00  0.00     0.172 C 
ATOM      2  N   UNL d   1       0.587   0.453  -0.142  0.00  0.00    -0.070 N 
ATOM      3  C1  UNL d   1      -0.487  -0.010  -0.854  0.00  0.00    -0.004 A 
ATOM      4  C2  UNL d   1      -0.280  -1.349  -1.106  0.00  0.00    -0.047 A 
ATOM      5  C3  UNL d   1       0.961  -1.703  -0.525  0.00  0.00    -0.047 A 
ATOM      6  C4  UNL d   1       1.476  -0.568   0.065  0.00  0.00    -0.004 A 
ENDROOT
TORSDOF 0
ENDMDL
