MODEL 1
REMARK minimizedAffinity 2.19735742
REMARK minimizedRMSD -1
REMARK  0 active torsions:
REMARK  status: ('A' for Active; 'I' for Inactive)
ROOT
ATOM      1  C   UNL d   1       0.920   0.966   0.464  0.00  0.00     0.172 C 
ATOM      2  N   UNL d   1       0.276  -0.246   0.012  0.00  0.00    -0.070 N 
ATOM      3  C1  UNL d   1       0.637  -1.520   0.363  0.00  0.00    -0.004 A 
ATOM      4  C2  UNL d   1      -0.219  -2.391  -0.274  0.00  0.00    -0.047 A 
ATOM      5  C3  UNL d   1      -1.125  -1.615  -1.035  0.00  0.00    -0.047 A 
ATOM      6  C4  UNL d   1      -0.796  -0.290  -0.839  0.00  0.00    -0.004 A 
ENDROOT
TORSDOF 0
ENDMDL
