MODEL 1
REMARK minimizedAffinity 3.37287307
REMARK minimizedRMSD -1
REMARK  0 active torsions:
REMARK  status: ('A' for Active; 'I' for Inactive)
ROOT
ATOM      1  C   UNL d   1       4.436   3.007   3.963  0.00  0.00     0.172 C 
ATOM      2  N   UNL d   1       4.820   4.221   4.644  0.00  0.00    -0.070 N 
ATOM      3  C1  UNL d   1       4.078   4.874   5.592  0.00  0.00    -0.004 A 
ATOM      4  C2  UNL d   1       4.789   5.984   5.994  0.00  0.00    -0.047 A 
ATOM      5  C3  UNL d   1       6.000   5.999   5.262  0.00  0.00    -0.047 A 
ATOM      6  C4  UNL d   1       5.993   4.897   4.434  0.00  0.00    -0.004 A 
ENDROOT
TORSDOF 0
ENDMDL
