MODEL 1
REMARK minimizedAffinity 2.77468085
REMARK minimizedRMSD -1
REMARK  0 active torsions:
REMARK  status: ('A' for Active; 'I' for Inactive)
ROOT
ATOM      1  C   UNL d   1      -0.700  -1.969  -2.738  0.00  0.00     0.172 C 
ATOM      2  N   UNL d   1      -0.311  -1.894  -1.350  0.00  0.00    -0.070 N 
ATOM      3  C1  UNL d   1      -0.337  -0.767  -0.572  0.00  0.00    -0.004 A 
ATOM      4  C2  UNL d   1       0.108  -1.112   0.686  0.00  0.00    -0.047 A 
ATOM      5  C3  UNL d   1       0.413  -2.494   0.664  0.00  0.00    -0.047 A 
ATOM      6  C4  UNL d   1       0.144  -2.953  -0.609  0.00  0.00    -0.004 A 
ENDROOT
TORSDOF 0
ENDMDL
