MODEL 1
REMARK minimizedAffinity 4.55154943
REMARK minimizedRMSD -1
REMARK  0 active torsions:
REMARK  status: ('A' for Active; 'I' for Inactive)
ROOT
ATOM      1  C   UNL d   1      -0.576  -2.749  -1.891  0.00  0.00     0.172 C 
ATOM      2  N   UNL d   1      -1.161  -2.992  -3.189  0.00  0.00    -0.070 N 
ATOM      3  C1  UNL d   1      -1.756  -4.159  -3.590  0.00  0.00    -0.004 A 
ATOM      4  C2  UNL d   1      -2.185  -3.988  -4.889  0.00  0.00    -0.047 A 
ATOM      5  C3  UNL d   1      -1.836  -2.674  -5.281  0.00  0.00    -0.047 A 
ATOM      6  C4  UNL d   1      -1.204  -2.080  -4.210  0.00  0.00    -0.004 A 
ENDROOT
TORSDOF 0
ENDMDL
