MODEL 1
REMARK minimizedAffinity -1.93534935
REMARK minimizedRMSD -1
REMARK  0 active torsions:
REMARK  status: ('A' for Active; 'I' for Inactive)
ROOT
ATOM      1  C   UNL d   1       2.828  -1.621  -0.454  0.00  0.00     0.172 C 
ATOM      2  N   UNL d   1       1.581  -0.920  -0.254  0.00  0.00    -0.070 N 
ATOM      3  C1  UNL d   1       0.358  -1.505  -0.063  0.00  0.00    -0.004 A 
ATOM      4  C2  UNL d   1      -0.572  -0.499   0.089  0.00  0.00    -0.047 A 
ATOM      5  C3  UNL d   1       0.116   0.733  -0.016  0.00  0.00    -0.047 A 
ATOM      6  C4  UNL d   1       1.447   0.443  -0.228  0.00  0.00    -0.004 A 
ENDROOT
TORSDOF 0
ENDMDL
