MODEL 1
REMARK minimizedAffinity -1.63228607
REMARK minimizedRMSD -1
REMARK  0 active torsions:
REMARK  status: ('A' for Active; 'I' for Inactive)
ROOT
ATOM      1  C   UNL d   1       0.962   0.562  -0.383  0.00  0.00     0.172 C 
ATOM      2  N   UNL d   1       2.312   0.149  -0.691  0.00  0.00    -0.070 N 
ATOM      3  C1  UNL d   1       2.671  -1.043  -1.261  0.00  0.00    -0.004 A 
ATOM      4  C2  UNL d   1       4.043  -1.053  -1.389  0.00  0.00    -0.047 A 
ATOM      5  C3  UNL d   1       4.525   0.175  -0.876  0.00  0.00    -0.047 A 
ATOM      6  C4  UNL d   1       3.432   0.900  -0.451  0.00  0.00    -0.004 A 
ENDROOT
TORSDOF 0
ENDMDL
