MODEL 1
REMARK minimizedAffinity 8.16042042
REMARK minimizedRMSD -1
REMARK  0 active torsions:
REMARK  status: ('A' for Active; 'I' for Inactive)
ROOT
ATOM      1  C   UNL d   1       1.244  -0.179  -2.194  0.00  0.00    -0.002 A 
ATOM      2  C1  UNL d   1       0.159   0.677  -2.066  0.00  0.00     0.010 A 
ATOM      3  C2  UNL d   1      -0.387   0.948  -0.810  0.00  0.00     0.041 A 
ATOM      4  C3  UNL d   1       0.182   0.340   0.326  0.00  0.00    -0.075 A 
ATOM      5  S   UNL d   1      -0.320   0.525   1.965  0.00  0.00     0.015 SA
ATOM      6  C4  UNL d   1       0.894  -0.527   2.534  0.00  0.00     0.022 A 
ATOM      7  C5  UNL d   1       1.672  -1.017   1.512  0.00  0.00     0.026 A 
ATOM      8  C6  UNL d   1       1.275  -0.525   0.223  0.00  0.00    -0.082 A 
ATOM      9  C7  UNL d   1       1.805  -0.781  -1.065  0.00  0.00     0.045 A 
ENDROOT
TORSDOF 0
ENDMDL
