MODEL 1
REMARK minimizedAffinity 11.7236385
REMARK minimizedRMSD -1
REMARK  0 active torsions:
REMARK  status: ('A' for Active; 'I' for Inactive)
ROOT
ATOM      1  C   UNL d   1      -6.000   3.904  -5.988  0.00  0.00    -0.002 A 
ATOM      2  C1  UNL d   1      -5.985   5.292  -5.990  0.00  0.00     0.010 A 
ATOM      3  C2  UNL d   1      -5.430   5.999  -4.922  0.00  0.00     0.041 A 
ATOM      4  C3  UNL d   1      -4.881   5.281  -3.842  0.00  0.00    -0.075 A 
ATOM      5  S   UNL d   1      -4.146   5.934  -2.425  0.00  0.00     0.015 SA
ATOM      6  C4  UNL d   1      -3.833   4.386  -1.784  0.00  0.00     0.022 A 
ATOM      7  C5  UNL d   1      -4.272   3.384  -2.616  0.00  0.00     0.026 A 
ATOM      8  C6  UNL d   1      -4.883   3.883  -3.816  0.00  0.00    -0.082 A 
ATOM      9  C7  UNL d   1      -5.455   3.195  -4.914  0.00  0.00     0.045 A 
ENDROOT
TORSDOF 0
ENDMDL
