MODEL 1
REMARK minimizedAffinity 3.33867288
REMARK minimizedRMSD -1
REMARK  0 active torsions:
REMARK  status: ('A' for Active; 'I' for Inactive)
ROOT
ATOM      1  C   UNL d   1       0.891  -0.428   2.776  0.00  0.00    -0.002 A 
ATOM      2  C1  UNL d   1       0.140   0.720   2.986  0.00  0.00     0.010 A 
ATOM      3  C2  UNL d   1      -0.296   1.491   1.906  0.00  0.00     0.041 A 
ATOM      4  C3  UNL d   1       0.036   1.083   0.599  0.00  0.00    -0.075 A 
ATOM      5  S   UNL d   1      -0.390   1.869  -0.875  0.00  0.00     0.015 SA
ATOM      6  C4  UNL d   1       0.414   0.698  -1.818  0.00  0.00     0.022 A 
ATOM      7  C5  UNL d   1       0.999  -0.275  -1.043  0.00  0.00     0.026 A 
ATOM      8  C6  UNL d   1       0.790  -0.070   0.363  0.00  0.00    -0.082 A 
ATOM      9  C7  UNL d   1       1.218  -0.829   1.478  0.00  0.00     0.045 A 
ENDROOT
TORSDOF 0
ENDMDL
