MODEL 1
REMARK minimizedAffinity 5.77341938
REMARK minimizedRMSD -1
REMARK  0 active torsions:
REMARK  status: ('A' for Active; 'I' for Inactive)
ROOT
ATOM      1  C   UNL d   1       0.019   1.770   2.557  0.00  0.00    -0.002 A 
ATOM      2  C1  UNL d   1       1.000   0.804   2.730  0.00  0.00     0.010 A 
ATOM      3  C2  UNL d   1       1.620   0.215   1.626  0.00  0.00     0.041 A 
ATOM      4  C3  UNL d   1       1.235   0.619   0.333  0.00  0.00    -0.075 A 
ATOM      5  S   UNL d   1       1.857   0.036  -1.166  0.00  0.00     0.015 SA
ATOM      6  C4  UNL d   1       0.836   1.057  -2.072  0.00  0.00     0.022 A 
ATOM      7  C5  UNL d   1       0.033   1.830  -1.267  0.00  0.00     0.026 A 
ATOM      8  C6  UNL d   1       0.250   1.590   0.132  0.00  0.00    -0.082 A 
ATOM      9  C7  UNL d   1      -0.360   2.168   1.272  0.00  0.00     0.045 A 
ENDROOT
TORSDOF 0
ENDMDL
