MODEL 1
REMARK minimizedAffinity 11.6613884
REMARK minimizedRMSD -1
REMARK  1 active torsions:
REMARK  status: ('A' for Active; 'I' for Inactive)
REMARK    1  A    between atoms: C3_4  and  O_7 
ROOT
ATOM      1  C   UNL d   1      -3.639  -5.062  -2.166  0.00  0.00    -0.033 A 
ATOM      2  C1  UNL d   1      -3.010  -3.931  -2.690  0.00  0.00     0.039 A 
ATOM      3  C2  UNL d   1      -3.748  -2.991  -3.413  0.00  0.00    -0.080 A 
ATOM      4  C3  UNL d   1      -5.112  -3.195  -3.604  0.00  0.00     0.150 A 
ATOM      5  C4  UNL d   1      -5.745  -4.318  -3.082  0.00  0.00    -0.007 A 
ATOM      6  C5  UNL d   1      -5.007  -5.255  -2.361  0.00  0.00     0.039 A 
ENDROOT
BRANCH   4   7
ATOM      7  O   UNL d   1      -5.873  -2.308  -4.307  0.00  0.00    -0.526 OA
ATOM      8  H5  UNL d   1      -5.296  -1.597  -4.632  0.00  0.00     0.418 HD
ENDBRANCH   4   7
TORSDOF 1
ENDMDL
