MODEL 1
REMARK minimizedAffinity 11.7543621
REMARK minimizedRMSD -1
REMARK  1 active torsions:
REMARK  status: ('A' for Active; 'I' for Inactive)
REMARK    1  A    between atoms: C3_4  and  O_7 
ROOT
ATOM      1  C   UNL d   1      -1.557  -6.000   1.890  0.00  0.00    -0.033 A 
ATOM      2  C1  UNL d   1      -2.742  -5.881   1.161  0.00  0.00     0.039 A 
ATOM      3  C2  UNL d   1      -3.141  -4.636   0.672  0.00  0.00    -0.080 A 
ATOM      4  C3  UNL d   1      -2.347  -3.519   0.917  0.00  0.00     0.150 A 
ATOM      5  C4  UNL d   1      -1.163  -3.631   1.639  0.00  0.00    -0.007 A 
ATOM      6  C5  UNL d   1      -0.767  -4.875   2.128  0.00  0.00     0.039 A 
ENDROOT
BRANCH   4   7
ATOM      7  O   UNL d   1      -2.697  -2.282   0.464  0.00  0.00    -0.526 OA
ATOM      8  H5  UNL d   1      -3.552  -2.353   0.007  0.00  0.00     0.418 HD
ENDBRANCH   4   7
TORSDOF 1
ENDMDL
