MODEL 1
REMARK minimizedAffinity 14.5118237
REMARK minimizedRMSD -1
REMARK  1 active torsions:
REMARK  status: ('A' for Active; 'I' for Inactive)
REMARK    1  A    between atoms: C3_4  and  O_7 
ROOT
ATOM      1  C   UNL d   1      -0.012  -0.215   4.815  0.00  0.00    -0.033 A 
ATOM      2  C1  UNL d   1       0.249   0.187   3.504  0.00  0.00     0.039 A 
ATOM      3  C2  UNL d   1      -0.269  -0.544   2.432  0.00  0.00    -0.080 A 
ATOM      4  C3  UNL d   1      -1.044  -1.672   2.686  0.00  0.00     0.150 A 
ATOM      5  C4  UNL d   1      -1.311  -2.076   3.990  0.00  0.00    -0.007 A 
ATOM      6  C5  UNL d   1      -0.792  -1.346   5.058  0.00  0.00     0.039 A 
ENDROOT
BRANCH   4   7
ATOM      7  O   UNL d   1      -1.566  -2.420   1.672  0.00  0.00    -0.526 OA
ATOM      8  H5  UNL d   1      -1.276  -2.039   0.827  0.00  0.00     0.418 HD
ENDBRANCH   4   7
TORSDOF 1
ENDMDL
