MODEL 1
REMARK minimizedAffinity 4.01211119
REMARK minimizedRMSD -1
REMARK  1 active torsions:
REMARK  status: ('A' for Active; 'I' for Inactive)
REMARK    1  A    between atoms: C3_4  and  O_7 
ROOT
ATOM      1  C   UNL d   1      -0.088   0.748   3.349  0.00  0.00    -0.033 A 
ATOM      2  C1  UNL d   1       0.431  -0.421   3.909  0.00  0.00     0.039 A 
ATOM      3  C2  UNL d   1       1.603  -0.982   3.398  0.00  0.00    -0.080 A 
ATOM      4  C3  UNL d   1       2.246  -0.364   2.330  0.00  0.00     0.150 A 
ATOM      5  C4  UNL d   1       1.737   0.803   1.769  0.00  0.00    -0.007 A 
ATOM      6  C5  UNL d   1       0.566   1.361   2.280  0.00  0.00     0.039 A 
ENDROOT
BRANCH   4   7
ATOM      7  O   UNL d   1       3.390  -0.877   1.794  0.00  0.00    -0.526 OA
ATOM      8  H5  UNL d   1       3.608  -1.699   2.263  0.00  0.00     0.418 HD
ENDBRANCH   4   7
TORSDOF 1
ENDMDL
