MODEL 1
REMARK minimizedAffinity 7.33942413
REMARK minimizedRMSD -1
REMARK  1 active torsions:
REMARK  status: ('A' for Active; 'I' for Inactive)
REMARK    1  A    between atoms: C3_4  and  O_7 
ROOT
ATOM      1  C   UNL d   1       3.804   4.449  -3.771  0.00  0.00    -0.033 A 
ATOM      2  C1  UNL d   1       2.635   3.687  -3.741  0.00  0.00     0.039 A 
ATOM      3  C2  UNL d   1       1.522   4.081  -4.487  0.00  0.00    -0.080 A 
ATOM      4  C3  UNL d   1       1.592   5.237  -5.259  0.00  0.00     0.150 A 
ATOM      5  C4  UNL d   1       2.755   6.000  -5.297  0.00  0.00    -0.007 A 
ATOM      6  C5  UNL d   1       3.864   5.605  -4.550  0.00  0.00     0.039 A 
ENDROOT
BRANCH   4   7
ATOM      7  O   UNL d   1       0.531   5.665  -6.000  0.00  0.00    -0.526 OA
ATOM      8  H5  UNL d   1      -0.212   5.055  -5.853  0.00  0.00     0.418 HD
ENDBRANCH   4   7
TORSDOF 1
ENDMDL
