MODEL 1
REMARK minimizedAffinity 6.20992422
REMARK minimizedRMSD -1
REMARK  1 active torsions:
REMARK  status: ('A' for Active; 'I' for Inactive)
REMARK    1  A    between atoms: C3_4  and  O_7 
ROOT
ATOM      1  C   UNL d   1       0.818  -0.719   2.601  0.00  0.00    -0.033 A 
ATOM      2  C1  UNL d   1       1.423  -0.350   1.398  0.00  0.00     0.039 A 
ATOM      3  C2  UNL d   1       2.785  -0.582   1.199  0.00  0.00    -0.080 A 
ATOM      4  C3  UNL d   1       3.530  -1.184   2.209  0.00  0.00     0.150 A 
ATOM      5  C4  UNL d   1       2.933  -1.557   3.409  0.00  0.00    -0.007 A 
ATOM      6  C5  UNL d   1       1.573  -1.324   3.606  0.00  0.00     0.039 A 
ENDROOT
BRANCH   4   7
ATOM      7  O   UNL d   1       4.864  -1.427   2.063  0.00  0.00    -0.526 OA
ATOM      8  H5  UNL d   1       5.144  -1.090   1.196  0.00  0.00     0.418 HD
ENDBRANCH   4   7
TORSDOF 1
ENDMDL
