MODEL 1
REMARK minimizedAffinity 4.46242476
REMARK minimizedRMSD -1
REMARK  1 active torsions:
REMARK  status: ('A' for Active; 'I' for Inactive)
REMARK    1  A    between atoms: C3_4  and  O_7 
ROOT
ATOM      1  C   UNL d   1      -2.956  -2.532  -0.896  0.00  0.00    -0.033 A 
ATOM      2  C1  UNL d   1      -1.872  -1.671  -1.075  0.00  0.00     0.039 A 
ATOM      3  C2  UNL d   1      -1.261  -1.566  -2.326  0.00  0.00    -0.080 A 
ATOM      4  C3  UNL d   1      -1.743  -2.326  -3.388  0.00  0.00     0.150 A 
ATOM      5  C4  UNL d   1      -2.825  -3.184  -3.217  0.00  0.00    -0.007 A 
ATOM      6  C5  UNL d   1      -3.433  -3.288  -1.967  0.00  0.00     0.039 A 
ENDROOT
BRANCH   4   7
ATOM      7  O   UNL d   1      -1.176  -2.262  -4.626  0.00  0.00    -0.526 OA
ATOM      8  H5  UNL d   1      -0.422  -1.650  -4.588  0.00  0.00     0.418 HD
ENDBRANCH   4   7
TORSDOF 1
ENDMDL
