MODEL 1
REMARK minimizedAffinity 7.59279823
REMARK minimizedRMSD -1
REMARK  1 active torsions:
REMARK  status: ('A' for Active; 'I' for Inactive)
REMARK    1  A    between atoms: C3_4  and  O_7 
ROOT
ATOM      1  C   UNL d   1      -2.115  -2.113   0.220  0.00  0.00    -0.033 A 
ATOM      2  C1  UNL d   1      -0.777  -2.407  -0.048  0.00  0.00     0.039 A 
ATOM      3  C2  UNL d   1      -0.375  -2.712  -1.350  0.00  0.00    -0.080 A 
ATOM      4  C3  UNL d   1      -1.319  -2.718  -2.373  0.00  0.00     0.150 A 
ATOM      5  C4  UNL d   1      -2.653  -2.422  -2.114  0.00  0.00    -0.007 A 
ATOM      6  C5  UNL d   1      -3.053  -2.119  -0.813  0.00  0.00     0.039 A 
ENDROOT
BRANCH   4   7
ATOM      7  O   UNL d   1      -0.975  -3.014  -3.659  0.00  0.00    -0.526 OA
ATOM      8  H5  UNL d   1      -0.027  -3.226  -3.683  0.00  0.00     0.418 HD
ENDBRANCH   4   7
TORSDOF 1
ENDMDL
