MODEL 1
REMARK minimizedAffinity 6.38779545
REMARK minimizedRMSD -1
REMARK  1 active torsions:
REMARK  status: ('A' for Active; 'I' for Inactive)
REMARK    1  A    between atoms: C3_4  and  O_7 
ROOT
ATOM      1  C   UNL d   1      -0.396   1.569   2.973  0.00  0.00    -0.033 A 
ATOM      2  C1  UNL d   1      -1.090   0.422   3.364  0.00  0.00     0.039 A 
ATOM      3  C2  UNL d   1      -2.480   0.454   3.489  0.00  0.00    -0.080 A 
ATOM      4  C3  UNL d   1      -3.164   1.636   3.220  0.00  0.00     0.150 A 
ATOM      5  C4  UNL d   1      -2.479   2.781   2.826  0.00  0.00    -0.007 A 
ATOM      6  C5  UNL d   1      -1.091   2.748   2.703  0.00  0.00     0.039 A 
ENDROOT
BRANCH   4   7
ATOM      7  O   UNL d   1      -4.520   1.717   3.333  0.00  0.00    -0.526 OA
ATOM      8  H5  UNL d   1      -4.855   0.858   3.641  0.00  0.00     0.418 HD
ENDBRANCH   4   7
TORSDOF 1
ENDMDL
