MODEL 1
REMARK minimizedAffinity 0.529940128
REMARK minimizedRMSD -1
REMARK  1 active torsions:
REMARK  status: ('A' for Active; 'I' for Inactive)
REMARK    1  A    between atoms: C3_4  and  O_7 
ROOT
ATOM      1  C   UNL d   1       5.153  -0.230   1.169  0.00  0.00    -0.033 A 
ATOM      2  C1  UNL d   1       5.999   0.063   0.098  0.00  0.00     0.039 A 
ATOM      3  C2  UNL d   1       5.874   1.277  -0.581  0.00  0.00    -0.080 A 
ATOM      4  C3  UNL d   1       4.902   2.188  -0.177  0.00  0.00     0.150 A 
ATOM      5  C4  UNL d   1       4.059   1.905   0.892  0.00  0.00    -0.007 A 
ATOM      6  C5  UNL d   1       4.184   0.691   1.567  0.00  0.00     0.039 A 
ENDROOT
BRANCH   4   7
ATOM      7  O   UNL d   1       4.740   3.384  -0.812  0.00  0.00    -0.526 OA
ATOM      8  H5  UNL d   1       5.372   3.430  -1.548  0.00  0.00     0.418 HD
ENDBRANCH   4   7
TORSDOF 1
ENDMDL
