MODEL 1
REMARK minimizedAffinity 5.42071676
REMARK minimizedRMSD -1
REMARK  1 active torsions:
REMARK  status: ('A' for Active; 'I' for Inactive)
REMARK    1  A    between atoms: C3_4  and  O_7 
ROOT
ATOM      1  C   UNL d   1       5.048  -1.488  -4.935  0.00  0.00    -0.033 A 
ATOM      2  C1  UNL d   1       6.000  -0.543  -4.548  0.00  0.00     0.039 A 
ATOM      3  C2  UNL d   1       5.601   0.746  -4.190  0.00  0.00    -0.080 A 
ATOM      4  C3  UNL d   1       4.249   1.076  -4.222  0.00  0.00     0.150 A 
ATOM      5  C4  UNL d   1       3.295   0.139  -4.603  0.00  0.00    -0.007 A 
ATOM      6  C5  UNL d   1       3.695  -1.148  -4.962  0.00  0.00     0.039 A 
ENDROOT
BRANCH   4   7
ATOM      7  O   UNL d   1       3.812   2.323  -3.885  0.00  0.00    -0.526 OA
ATOM      8  H5  UNL d   1       4.584   2.873  -3.671  0.00  0.00     0.418 HD
ENDBRANCH   4   7
TORSDOF 1
ENDMDL
