MODEL 1
REMARK minimizedAffinity 3.98258829
REMARK minimizedRMSD -1
REMARK  1 active torsions:
REMARK  status: ('A' for Active; 'I' for Inactive)
REMARK    1  A    between atoms: C3_4  and  O_7 
ROOT
ATOM      1  C   UNL d   1       2.061   1.351   1.795  0.00  0.00    -0.033 A 
ATOM      2  C1  UNL d   1       3.079   1.923   1.029  0.00  0.00     0.039 A 
ATOM      3  C2  UNL d   1       4.322   1.295   0.937  0.00  0.00    -0.080 A 
ATOM      4  C3  UNL d   1       4.535   0.097   1.614  0.00  0.00     0.150 A 
ATOM      5  C4  UNL d   1       3.524  -0.481   2.375  0.00  0.00    -0.007 A 
ATOM      6  C5  UNL d   1       2.283   0.148   2.467  0.00  0.00     0.039 A 
ENDROOT
BRANCH   4   7
ATOM      7  O   UNL d   1       5.733  -0.550   1.558  0.00  0.00    -0.526 OA
ATOM      8  H5  UNL d   1       6.344  -0.021   1.019  0.00  0.00     0.418 HD
ENDBRANCH   4   7
TORSDOF 1
ENDMDL
