MODEL 1
REMARK minimizedAffinity 3.87352109
REMARK minimizedRMSD -1
REMARK  1 active torsions:
REMARK  status: ('A' for Active; 'I' for Inactive)
REMARK    1  A    between atoms: C3_4  and  O_7 
ROOT
ATOM      1  C   UNL d   1       6.000   0.336  -0.041  0.00  0.00    -0.033 A 
ATOM      2  C1  UNL d   1       5.618   1.480  -0.744  0.00  0.00     0.039 A 
ATOM      3  C2  UNL d   1       4.471   2.183  -0.367  0.00  0.00    -0.080 A 
ATOM      4  C3  UNL d   1       3.717   1.731   0.713  0.00  0.00     0.150 A 
ATOM      5  C4  UNL d   1       4.095   0.594   1.420  0.00  0.00    -0.007 A 
ATOM      6  C5  UNL d   1       5.239  -0.106   1.042  0.00  0.00     0.039 A 
ENDROOT
BRANCH   4   7
ATOM      7  O   UNL d   1       2.588   2.381   1.115  0.00  0.00    -0.526 OA
ATOM      8  H5  UNL d   1       2.435   3.131   0.517  0.00  0.00     0.418 HD
ENDBRANCH   4   7
TORSDOF 1
ENDMDL
