MODEL 1
REMARK minimizedAffinity 8.42617226
REMARK minimizedRMSD -1
REMARK  1 active torsions:
REMARK  status: ('A' for Active; 'I' for Inactive)
REMARK    1  A    between atoms: C3_4  and  O_7 
ROOT
ATOM      1  C   UNL d   1       2.958   6.000  -4.967  0.00  0.00    -0.033 A 
ATOM      2  C1  UNL d   1       3.699   5.393  -5.982  0.00  0.00     0.039 A 
ATOM      3  C2  UNL d   1       3.857   4.006  -6.000  0.00  0.00    -0.080 A 
ATOM      4  C3  UNL d   1       3.268   3.238  -4.999  0.00  0.00     0.150 A 
ATOM      5  C4  UNL d   1       2.525   3.836  -3.987  0.00  0.00    -0.007 A 
ATOM      6  C5  UNL d   1       2.369   5.221  -3.970  0.00  0.00     0.039 A 
ENDROOT
BRANCH   4   7
ATOM      7  O   UNL d   1       3.399   1.881  -4.972  0.00  0.00    -0.526 OA
ATOM      8  H5  UNL d   1       3.962   1.611  -5.716  0.00  0.00     0.418 HD
ENDBRANCH   4   7
TORSDOF 1
ENDMDL
