MODEL 1
REMARK minimizedAffinity 13.0847015
REMARK minimizedRMSD -1
REMARK  1 active torsions:
REMARK  status: ('A' for Active; 'I' for Inactive)
REMARK    1  A    between atoms: C3_4  and  O_7 
ROOT
ATOM      1  C   UNL d   1       1.777   0.327   3.443  0.00  0.00    -0.033 A 
ATOM      2  C1  UNL d   1       2.101   0.773   2.160  0.00  0.00     0.039 A 
ATOM      3  C2  UNL d   1       1.401   1.840   1.593  0.00  0.00    -0.080 A 
ATOM      4  C3  UNL d   1       0.382   2.452   2.318  0.00  0.00     0.150 A 
ATOM      5  C4  UNL d   1       0.057   2.015   3.598  0.00  0.00    -0.007 A 
ATOM      6  C5  UNL d   1       0.756   0.949   4.162  0.00  0.00     0.039 A 
ENDROOT
BRANCH   4   7
ATOM      7  O   UNL d   1      -0.332   3.493   1.804  0.00  0.00    -0.526 OA
ATOM      8  H5  UNL d   1      -0.016   3.668   0.902  0.00  0.00     0.418 HD
ENDBRANCH   4   7
TORSDOF 1
ENDMDL
