MODEL 1
REMARK minimizedAffinity 9.30106449
REMARK minimizedRMSD -1
REMARK  1 active torsions:
REMARK  status: ('A' for Active; 'I' for Inactive)
REMARK    1  A    between atoms: C3_4  and  O_7 
ROOT
ATOM      1  C   UNL d   1       1.855   5.738  -5.681  0.00  0.00    -0.033 A 
ATOM      2  C1  UNL d   1       1.497   4.427  -6.000  0.00  0.00     0.039 A 
ATOM      3  C2  UNL d   1       1.883   3.374  -5.168  0.00  0.00    -0.080 A 
ATOM      4  C3  UNL d   1       2.623   3.646  -4.021  0.00  0.00     0.150 A 
ATOM      5  C4  UNL d   1       2.980   4.950  -3.694  0.00  0.00    -0.007 A 
ATOM      6  C5  UNL d   1       2.595   6.000  -4.527  0.00  0.00     0.039 A 
ENDROOT
BRANCH   4   7
ATOM      7  O   UNL d   1       3.026   2.650  -3.180  0.00  0.00    -0.526 OA
ATOM      8  H5  UNL d   1       2.732   1.800  -3.547  0.00  0.00     0.418 HD
ENDBRANCH   4   7
TORSDOF 1
ENDMDL
