MODEL 1
REMARK minimizedAffinity 10.1943951
REMARK minimizedRMSD -1
REMARK  1 active torsions:
REMARK  status: ('A' for Active; 'I' for Inactive)
REMARK    1  A    between atoms: C3_4  and  O_7 
ROOT
ATOM      1  C   UNL d   1       2.299   5.634  -5.903  0.00  0.00    -0.033 A 
ATOM      2  C1  UNL d   1       3.087   5.999  -4.810  0.00  0.00     0.039 A 
ATOM      3  C2  UNL d   1       3.365   5.069  -3.807  0.00  0.00    -0.080 A 
ATOM      4  C3  UNL d   1       2.851   3.779  -3.909  0.00  0.00     0.150 A 
ATOM      5  C4  UNL d   1       2.069   3.408  -4.997  0.00  0.00    -0.007 A 
ATOM      6  C5  UNL d   1       1.791   4.338  -5.998  0.00  0.00     0.039 A 
ENDROOT
BRANCH   4   7
ATOM      7  O   UNL d   1       3.092   2.839  -2.952  0.00  0.00    -0.526 OA
ATOM      8  H5  UNL d   1       3.622   3.246  -2.247  0.00  0.00     0.418 HD
ENDBRANCH   4   7
TORSDOF 1
ENDMDL
