MODEL 1
REMARK minimizedAffinity 11.2845449
REMARK minimizedRMSD -1
REMARK  1 active torsions:
REMARK  status: ('A' for Active; 'I' for Inactive)
REMARK    1  A    between atoms: C3_4  and  O_7 
ROOT
ATOM      1  C   UNL d   1      -0.008   0.837   3.742  0.00  0.00    -0.033 A 
ATOM      2  C1  UNL d   1       0.680   0.935   2.531  0.00  0.00     0.039 A 
ATOM      3  C2  UNL d   1       1.891   0.261   2.358  0.00  0.00    -0.080 A 
ATOM      4  C3  UNL d   1       2.400  -0.507   3.401  0.00  0.00     0.150 A 
ATOM      5  C4  UNL d   1       1.718  -0.613   4.608  0.00  0.00    -0.007 A 
ATOM      6  C5  UNL d   1       0.510   0.062   4.780  0.00  0.00     0.039 A 
ENDROOT
BRANCH   4   7
ATOM      7  O   UNL d   1       3.580  -1.179   3.280  0.00  0.00    -0.526 OA
ATOM      8  H5  UNL d   1       3.954  -0.990   2.403  0.00  0.00     0.418 HD
ENDBRANCH   4   7
TORSDOF 1
ENDMDL
