MODEL 1
REMARK minimizedAffinity -2.23540425
REMARK minimizedRMSD -1
REMARK  1 active torsions:
REMARK  status: ('A' for Active; 'I' for Inactive)
REMARK    1  A    between atoms: C3_4  and  O_7 
ROOT
ATOM      1  C   UNL d   1       4.955   2.955  -3.099  0.00  0.00    -0.033 A 
ATOM      2  C1  UNL d   1       4.776   2.445  -4.386  0.00  0.00     0.039 A 
ATOM      3  C2  UNL d   1       4.036   3.163  -5.327  0.00  0.00    -0.080 A 
ATOM      4  C3  UNL d   1       3.481   4.389  -4.968  0.00  0.00     0.150 A 
ATOM      5  C4  UNL d   1       3.659   4.905  -3.689  0.00  0.00    -0.007 A 
ATOM      6  C5  UNL d   1       4.398   4.186  -2.751  0.00  0.00     0.039 A 
ENDROOT
BRANCH   4   7
ATOM      7  O   UNL d   1       2.746   5.123  -5.851  0.00  0.00    -0.526 OA
ATOM      8  H5  UNL d   1       2.683   4.629  -6.685  0.00  0.00     0.418 HD
ENDBRANCH   4   7
TORSDOF 1
ENDMDL
