MODEL 1
REMARK minimizedAffinity -2.03216839
REMARK minimizedRMSD -1
REMARK  0 active torsions:
REMARK  status: ('A' for Active; 'I' for Inactive)
ROOT
ATOM      1  C2' OXE d   1      -2.405   0.323   1.835  0.00  0.00     0.078 C 
ATOM      2  C1' OXE d   1       0.338  -0.086   2.270  0.00  0.00     0.078 C 
ATOM      3  C1  OXE d   1      -0.454  -1.218   1.665  0.00  0.00    -0.078 A 
ATOM      4  C2  OXE d   1      -1.805  -1.026   1.499  0.00  0.00    -0.078 A 
ATOM      5  C3  OXE d   1      -2.573  -2.017   0.895  0.00  0.00     0.003 A 
ATOM      6  C4  OXE d   1      -2.012  -3.265   0.596  0.00  0.00    -0.002 A 
ATOM      7  C5  OXE d   1      -0.647  -3.495   0.795  0.00  0.00    -0.002 A 
ATOM      8  C6  OXE d   1       0.153  -2.470   1.288  0.00  0.00     0.003 A 
ENDROOT
TORSDOF 0
ENDMDL
