MODEL 1
REMARK minimizedAffinity -2.67777801
REMARK minimizedRMSD -1
REMARK  0 active torsions:
REMARK  status: ('A' for Active; 'I' for Inactive)
ROOT
ATOM      1  C2' OXE d   1       0.920  -2.870   0.233  0.00  0.00     0.078 C 
ATOM      2  C1' OXE d   1       1.200  -1.866  -2.374  0.00  0.00     0.078 C 
ATOM      3  C1  OXE d   1       0.734  -0.915  -1.300  0.00  0.00    -0.078 A 
ATOM      4  C2  OXE d   1       0.555  -1.426  -0.037  0.00  0.00    -0.078 A 
ATOM      5  C3  OXE d   1       0.179  -0.580   1.002  0.00  0.00     0.003 A 
ATOM      6  C4  OXE d   1      -0.167   0.751   0.742  0.00  0.00    -0.002 A 
ATOM      7  C5  OXE d   1      -0.030   1.282  -0.545  0.00  0.00    -0.002 A 
ATOM      8  C6  OXE d   1       0.459   0.475  -1.566  0.00  0.00     0.003 A 
ENDROOT
TORSDOF 0
ENDMDL
