MODEL 1
REMARK minimizedAffinity -3.45203972
REMARK minimizedRMSD -1
REMARK  0 active torsions:
REMARK  status: ('A' for Active; 'I' for Inactive)
ROOT
ATOM      1  C2' OXE d   1       1.201  -1.529  -1.214  0.00  0.00     0.078 C 
ATOM      2  C1' OXE d   1       0.294   0.811   0.043  0.00  0.00     0.078 C 
ATOM      3  C1  OXE d   1      -0.484  -0.460   0.276  0.00  0.00    -0.078 A 
ATOM      4  C2  OXE d   1      -0.060  -1.590  -0.380  0.00  0.00    -0.078 A 
ATOM      5  C3  OXE d   1      -0.710  -2.801  -0.157  0.00  0.00     0.003 A 
ATOM      6  C4  OXE d   1      -1.881  -2.847   0.608  0.00  0.00    -0.002 A 
ATOM      7  C5  OXE d   1      -2.353  -1.698   1.253  0.00  0.00    -0.002 A 
ATOM      8  C6  OXE d   1      -1.644  -0.509   1.132  0.00  0.00     0.003 A 
ENDROOT
TORSDOF 0
ENDMDL
