MODEL 1
REMARK minimizedAffinity -3.63929057
REMARK minimizedRMSD -1
REMARK  0 active torsions:
REMARK  status: ('A' for Active; 'I' for Inactive)
ROOT
ATOM      1  C2' OXE d   1      -2.656  -2.838   0.381  0.00  0.00     0.078 C 
ATOM      2  C1' OXE d   1      -1.902  -0.159   0.748  0.00  0.00     0.078 C 
ATOM      3  C1  OXE d   1      -0.882  -1.103   0.162  0.00  0.00    -0.078 A 
ATOM      4  C2  OXE d   1      -1.244  -2.422   0.029  0.00  0.00    -0.078 A 
ATOM      5  C3  OXE d   1      -0.360  -3.324  -0.557  0.00  0.00     0.003 A 
ATOM      6  C4  OXE d   1       0.947  -2.933  -0.871  0.00  0.00    -0.002 A 
ATOM      7  C5  OXE d   1       1.349  -1.603  -0.706  0.00  0.00    -0.002 A 
ATOM      8  C6  OXE d   1       0.435  -0.668  -0.232  0.00  0.00     0.003 A 
ENDROOT
TORSDOF 0
ENDMDL
