MODEL 1
REMARK minimizedAffinity 0.225473419
REMARK minimizedRMSD -1
REMARK  0 active torsions:
REMARK  status: ('A' for Active; 'I' for Inactive)
ROOT
ATOM      1  C2' OXE d   1      -2.217  -0.512   1.459  0.00  0.00     0.078 C 
ATOM      2  C1' OXE d   1      -2.860  -3.165   0.805  0.00  0.00     0.078 C 
ATOM      3  C1  OXE d   1      -1.480  -2.669   0.454  0.00  0.00    -0.078 A 
ATOM      4  C2  OXE d   1      -1.190  -1.356   0.735  0.00  0.00    -0.078 A 
ATOM      5  C3  OXE d   1       0.087  -0.862   0.481  0.00  0.00     0.003 A 
ATOM      6  C4  OXE d   1       1.028  -1.646  -0.198  0.00  0.00    -0.002 A 
ATOM      7  C5  OXE d   1       0.739  -2.974  -0.529  0.00  0.00    -0.002 A 
ATOM      8  C6  OXE d   1      -0.492  -3.513  -0.173  0.00  0.00     0.003 A 
ENDROOT
TORSDOF 0
ENDMDL
