MODEL 1
REMARK minimizedAffinity -1.36897206
REMARK minimizedRMSD -1
REMARK  0 active torsions:
REMARK  status: ('A' for Active; 'I' for Inactive)
ROOT
ATOM      1  C2' OXE d   1       0.854   4.611   1.578  0.00  0.00     0.078 C 
ATOM      2  C1' OXE d   1       3.071   3.064   0.821  0.00  0.00     0.078 C 
ATOM      3  C1  OXE d   1       1.697   2.513   0.532  0.00  0.00    -0.078 A 
ATOM      4  C2  OXE d   1       0.618   3.255   0.948  0.00  0.00    -0.078 A 
ATOM      5  C3  OXE d   1      -0.671   2.819   0.658  0.00  0.00     0.003 A 
ATOM      6  C4  OXE d   1      -0.881   1.559   0.084  0.00  0.00    -0.002 A 
ATOM      7  C5  OXE d   1       0.203   0.769  -0.311  0.00  0.00    -0.002 A 
ATOM      8  C6  OXE d   1       1.496   1.249  -0.133  0.00  0.00     0.003 A 
ENDROOT
TORSDOF 0
ENDMDL
