MODEL 1
REMARK minimizedAffinity -2.98927903
REMARK minimizedRMSD -1
REMARK  0 active torsions:
REMARK  status: ('A' for Active; 'I' for Inactive)
ROOT
ATOM      1  C2' OXE d   1       0.026  -2.944   0.849  0.00  0.00     0.078 C 
ATOM      2  C1' OXE d   1      -1.445  -1.222   2.507  0.00  0.00     0.078 C 
ATOM      3  C1  OXE d   1      -0.807  -0.635   1.273  0.00  0.00    -0.078 A 
ATOM      4  C2  OXE d   1      -0.050  -1.476   0.492  0.00  0.00    -0.078 A 
ATOM      5  C3  OXE d   1       0.515  -0.999  -0.687  0.00  0.00     0.003 A 
ATOM      6  C4  OXE d   1       0.448   0.363  -1.005  0.00  0.00    -0.002 A 
ATOM      7  C5  OXE d   1      -0.284   1.244  -0.203  0.00  0.00    -0.002 A 
ATOM      8  C6  OXE d   1      -0.952   0.754   0.914  0.00  0.00     0.003 A 
ENDROOT
TORSDOF 0
ENDMDL
