MODEL 1
REMARK minimizedAffinity -3.81351542
REMARK minimizedRMSD -1
REMARK  0 active torsions:
REMARK  status: ('A' for Active; 'I' for Inactive)
ROOT
ATOM      1  C2' OXE d   1       1.073  -1.308  -1.296  0.00  0.00     0.078 C 
ATOM      2  C1' OXE d   1       0.008   0.898   0.073  0.00  0.00     0.078 C 
ATOM      3  C1  OXE d   1      -0.618  -0.452   0.319  0.00  0.00    -0.078 A 
ATOM      4  C2  OXE d   1      -0.121  -1.518  -0.390  0.00  0.00    -0.078 A 
ATOM      5  C3  OXE d   1      -0.625  -2.795  -0.160  0.00  0.00     0.003 A 
ATOM      6  C4  OXE d   1      -1.736  -2.978   0.672  0.00  0.00    -0.002 A 
ATOM      7  C5  OXE d   1      -2.284  -1.899   1.374  0.00  0.00    -0.002 A 
ATOM      8  C6  OXE d   1      -1.711  -0.639   1.242  0.00  0.00     0.003 A 
ENDROOT
TORSDOF 0
ENDMDL
