MODEL 1
REMARK minimizedAffinity -4.38670731
REMARK minimizedRMSD -1
REMARK  0 active torsions:
REMARK  status: ('A' for Active; 'I' for Inactive)
ROOT
ATOM      1  C2' OXE d   1      -1.869  -0.274   1.863  0.00  0.00     0.078 C 
ATOM      2  C1' OXE d   1       0.020   0.681   0.018  0.00  0.00     0.078 C 
ATOM      3  C1  OXE d   1      -0.148  -0.812   0.143  0.00  0.00    -0.078 A 
ATOM      4  C2  OXE d   1      -1.041  -1.272   1.082  0.00  0.00    -0.078 A 
ATOM      5  C3  OXE d   1      -1.273  -2.639   1.200  0.00  0.00     0.003 A 
ATOM      6  C4  OXE d   1      -0.496  -3.555   0.481  0.00  0.00    -0.002 A 
ATOM      7  C5  OXE d   1       0.447  -3.109  -0.451  0.00  0.00    -0.002 A 
ATOM      8  C6  OXE d   1       0.603  -1.744  -0.662  0.00  0.00     0.003 A 
ENDROOT
TORSDOF 0
ENDMDL
