MODEL 1
REMARK minimizedAffinity -4.25138855
REMARK minimizedRMSD -1
REMARK  0 active torsions:
REMARK  status: ('A' for Active; 'I' for Inactive)
ROOT
ATOM      1  C2' OXE d   1       0.181   1.128   0.288  0.00  0.00     0.078 C 
ATOM      2  C1' OXE d   1      -1.255  -0.316   2.220  0.00  0.00     0.078 C 
ATOM      3  C1  OXE d   1      -0.512  -1.098   1.166  0.00  0.00    -0.078 A 
ATOM      4  C2  OXE d   1       0.149  -0.383   0.197  0.00  0.00    -0.078 A 
ATOM      5  C3  OXE d   1       0.896  -1.055  -0.767  0.00  0.00     0.003 A 
ATOM      6  C4  OXE d   1       0.853  -2.452  -0.850  0.00  0.00    -0.002 A 
ATOM      7  C5  OXE d   1       0.152  -3.198   0.103  0.00  0.00    -0.002 A 
ATOM      8  C6  OXE d   1      -0.499  -2.540   1.140  0.00  0.00     0.003 A 
ENDROOT
TORSDOF 0
ENDMDL
