MODEL 1
REMARK minimizedAffinity -3.94040656
REMARK minimizedRMSD -1
REMARK  0 active torsions:
REMARK  status: ('A' for Active; 'I' for Inactive)
ROOT
ATOM      1  C2' OXE d   1      -0.058   1.066  -0.059  0.00  0.00     0.078 C 
ATOM      2  C1' OXE d   1      -2.255   0.091   1.390  0.00  0.00     0.078 C 
ATOM      3  C1  OXE d   1      -1.258  -0.911   0.866  0.00  0.00    -0.078 A 
ATOM      4  C2  OXE d   1      -0.210  -0.429   0.118  0.00  0.00    -0.078 A 
ATOM      5  C3  OXE d   1       0.768  -1.305  -0.343  0.00  0.00     0.003 A 
ATOM      6  C4  OXE d   1       0.615  -2.687  -0.183  0.00  0.00    -0.002 A 
ATOM      7  C5  OXE d   1      -0.466  -3.202   0.541  0.00  0.00    -0.002 A 
ATOM      8  C6  OXE d   1      -1.386  -2.327   1.107  0.00  0.00     0.003 A 
ENDROOT
TORSDOF 0
ENDMDL
