MODEL 1
REMARK minimizedAffinity -4.44365072
REMARK minimizedRMSD -1
REMARK  0 active torsions:
REMARK  status: ('A' for Active; 'I' for Inactive)
ROOT
ATOM      1  C2' OXE d   1      -2.184   0.085   1.494  0.00  0.00     0.078 C 
ATOM      2  C1' OXE d   1       0.040   0.723  -0.096  0.00  0.00     0.078 C 
ATOM      3  C1  OXE d   1      -0.324  -0.733   0.053  0.00  0.00    -0.078 A 
ATOM      4  C2  OXE d   1      -1.385  -1.039   0.870  0.00  0.00    -0.078 A 
ATOM      5  C3  OXE d   1      -1.797  -2.363   0.999  0.00  0.00     0.003 A 
ATOM      6  C4  OXE d   1      -1.047  -3.397   0.427  0.00  0.00    -0.002 A 
ATOM      7  C5  OXE d   1       0.061  -3.110  -0.377  0.00  0.00    -0.002 A 
ATOM      8  C6  OXE d   1       0.410  -1.784  -0.608  0.00  0.00     0.003 A 
ENDROOT
TORSDOF 0
ENDMDL
