MODEL 1
REMARK minimizedAffinity -4.51519585
REMARK minimizedRMSD -1
REMARK  0 active torsions:
REMARK  status: ('A' for Active; 'I' for Inactive)
ROOT
ATOM      1  C2' OXE d   1      -1.493  -0.554   1.823  0.00  0.00     0.078 C 
ATOM      2  C1' OXE d   1       0.358   0.743   0.159  0.00  0.00     0.078 C 
ATOM      3  C1  OXE d   1       0.103  -0.724  -0.082  0.00  0.00    -0.078 A 
ATOM      4  C2  OXE d   1      -0.769  -1.361   0.767  0.00  0.00    -0.078 A 
ATOM      5  C3  OXE d   1      -1.082  -2.701   0.556  0.00  0.00     0.003 A 
ATOM      6  C4  OXE d   1      -0.401  -3.443  -0.417  0.00  0.00    -0.002 A 
ATOM      7  C5  OXE d   1       0.521  -2.822  -1.267  0.00  0.00    -0.002 A 
ATOM      8  C6  OXE d   1       0.752  -1.457  -1.140  0.00  0.00     0.003 A 
ENDROOT
TORSDOF 0
ENDMDL
