MODEL 1
REMARK minimizedAffinity -5.68988562
REMARK minimizedRMSD -1
REMARK  0 active torsions:
REMARK  status: ('A' for Active; 'I' for Inactive)
ROOT
ATOM      1  C2' OXE d   1      -0.241   0.934  -0.238  0.00  0.00     0.078 C 
ATOM      2  C1' OXE d   1       0.523  -0.448  -2.559  0.00  0.00     0.078 C 
ATOM      3  C1  OXE d   1       0.177  -1.262  -1.337  0.00  0.00    -0.078 A 
ATOM      4  C2  OXE d   1      -0.150  -0.577  -0.192  0.00  0.00    -0.078 A 
ATOM      5  C3  OXE d   1      -0.530  -1.279   0.947  0.00  0.00     0.003 A 
ATOM      6  C4  OXE d   1      -0.433  -2.676   0.984  0.00  0.00    -0.002 A 
ATOM      7  C5  OXE d   1      -0.063  -3.392  -0.159  0.00  0.00    -0.002 A 
ATOM      8  C6  OXE d   1       0.203  -2.704  -1.338  0.00  0.00     0.003 A 
ENDROOT
TORSDOF 0
ENDMDL
