MODEL 1
REMARK minimizedAffinity -4.28261614
REMARK minimizedRMSD -1
REMARK  0 active torsions:
REMARK  status: ('A' for Active; 'I' for Inactive)
ROOT
ATOM      1  C2' OXE d   1       0.631  -1.120  -1.956  0.00  0.00     0.078 C 
ATOM      2  C1' OXE d   1       0.393   1.074  -0.222  0.00  0.00     0.078 C 
ATOM      3  C1  OXE d   1      -0.189  -0.243   0.226  0.00  0.00    -0.078 A 
ATOM      4  C2  OXE d   1      -0.109  -1.300  -0.649  0.00  0.00    -0.078 A 
ATOM      5  C3  OXE d   1      -0.581  -2.551  -0.263  0.00  0.00     0.003 A 
ATOM      6  C4  OXE d   1      -1.274  -2.707   0.944  0.00  0.00    -0.002 A 
ATOM      7  C5  OXE d   1      -1.401  -1.634   1.832  0.00  0.00    -0.002 A 
ATOM      8  C6  OXE d   1      -0.829  -0.409   1.508  0.00  0.00     0.003 A 
ENDROOT
TORSDOF 0
ENDMDL
