MODEL 1
REMARK minimizedAffinity -4.3831296
REMARK minimizedRMSD -1
REMARK  0 active torsions:
REMARK  status: ('A' for Active; 'I' for Inactive)
ROOT
ATOM      1  C2' OXE d   1      -1.939   0.237   1.589  0.00  0.00     0.078 C 
ATOM      2  C1' OXE d   1       0.133   1.319   0.034  0.00  0.00     0.078 C 
ATOM      3  C1  OXE d   1       0.028  -0.183   0.119  0.00  0.00    -0.078 A 
ATOM      4  C2  OXE d   1      -0.960  -0.704   0.920  0.00  0.00    -0.078 A 
ATOM      5  C3  OXE d   1      -1.136  -2.083   0.990  0.00  0.00     0.003 A 
ATOM      6  C4  OXE d   1      -0.220  -2.946   0.375  0.00  0.00    -0.002 A 
ATOM      7  C5  OXE d   1       0.817  -2.437  -0.412  0.00  0.00    -0.002 A 
ATOM      8  C6  OXE d   1       0.929  -1.061  -0.585  0.00  0.00     0.003 A 
ENDROOT
TORSDOF 0
ENDMDL
