MODEL 1
REMARK minimizedAffinity -4.35326529
REMARK minimizedRMSD -1
REMARK  0 active torsions:
REMARK  status: ('A' for Active; 'I' for Inactive)
ROOT
ATOM      1  C2' OXE d   1       0.234   0.235  -0.181  0.00  0.00     0.078 C 
ATOM      2  C1' OXE d   1       0.577  -1.371  -2.458  0.00  0.00     0.078 C 
ATOM      3  C1  OXE d   1       0.042  -2.026  -1.209  0.00  0.00    -0.078 A 
ATOM      4  C2  OXE d   1      -0.079  -1.242  -0.087  0.00  0.00    -0.078 A 
ATOM      5  C3  OXE d   1      -0.618  -1.783   1.077  0.00  0.00     0.003 A 
ATOM      6  C4  OXE d   1      -0.896  -3.153   1.159  0.00  0.00    -0.002 A 
ATOM      7  C5  OXE d   1      -0.743  -3.977   0.039  0.00  0.00    -0.002 A 
ATOM      8  C6  OXE d   1      -0.316  -3.422  -1.162  0.00  0.00     0.003 A 
ENDROOT
TORSDOF 0
ENDMDL
