MODEL 1
REMARK minimizedAffinity 2.35673404
REMARK minimizedRMSD -1
REMARK  0 active torsions:
REMARK  status: ('A' for Active; 'I' for Inactive)
ROOT
ATOM      1  C   UNL d   1       3.773   1.130  -2.252  0.00  0.00     0.078 C 
ATOM      2  C1  UNL d   1       4.241   1.704  -3.556  0.00  0.00    -0.077 A 
ATOM      3  C2  UNL d   1       3.379   2.454  -4.365  0.00  0.00    -0.001 A 
ATOM      4  C3  UNL d   1       3.826   2.973  -5.581  0.00  0.00     0.003 A 
ATOM      5  C4  UNL d   1       5.135   2.747  -6.000  0.00  0.00    -0.005 A 
ATOM      6  C5  UNL d   1       6.000   2.000  -5.203  0.00  0.00     0.003 A 
ATOM      7  C6  UNL d   1       5.555   1.480  -3.986  0.00  0.00    -0.001 A 
ENDROOT
TORSDOF 0
ENDMDL
