MODEL 1
REMARK minimizedAffinity 6.06725979
REMARK minimizedRMSD -1
REMARK  0 active torsions:
REMARK  status: ('A' for Active; 'I' for Inactive)
ROOT
ATOM      1  C   UNL d   1       1.852   1.933  -5.794  0.00  0.00     0.078 C 
ATOM      2  C1  UNL d   1       3.297   2.326  -5.873  0.00  0.00    -0.077 A 
ATOM      3  C2  UNL d   1       4.305   1.357  -5.933  0.00  0.00    -0.001 A 
ATOM      4  C3  UNL d   1       5.647   1.737  -5.997  0.00  0.00     0.003 A 
ATOM      5  C4  UNL d   1       5.992   3.087  -5.999  0.00  0.00    -0.005 A 
ATOM      6  C5  UNL d   1       4.996   4.058  -5.937  0.00  0.00     0.003 A 
ATOM      7  C6  UNL d   1       3.654   3.680  -5.874  0.00  0.00    -0.001 A 
ENDROOT
TORSDOF 0
ENDMDL
