MODEL 1
REMARK minimizedAffinity 2.82820201
REMARK minimizedRMSD -1
REMARK  0 active torsions:
REMARK  status: ('A' for Active; 'I' for Inactive)
ROOT
ATOM      1  C   UNL d   1      -3.123   5.999  -5.969  0.00  0.00     0.078 C 
ATOM      2  C1  UNL d   1      -3.584   4.573  -5.962  0.00  0.00    -0.077 A 
ATOM      3  C2  UNL d   1      -2.665   3.517  -5.996  0.00  0.00    -0.001 A 
ATOM      4  C3  UNL d   1      -3.109   2.194  -5.999  0.00  0.00     0.003 A 
ATOM      5  C4  UNL d   1      -4.474   1.914  -5.968  0.00  0.00    -0.005 A 
ATOM      6  C5  UNL d   1      -5.396   2.958  -5.936  0.00  0.00     0.003 A 
ATOM      7  C6  UNL d   1      -4.954   4.282  -5.934  0.00  0.00    -0.001 A 
ENDROOT
TORSDOF 0
ENDMDL
