MODEL 1
REMARK minimizedAffinity 2.82752299
REMARK minimizedRMSD -1
REMARK  0 active torsions:
REMARK  status: ('A' for Active; 'I' for Inactive)
ROOT
ATOM      1  C   UNL d   1       5.726  -5.979  -3.090  0.00  0.00     0.078 C 
ATOM      2  C1  UNL d   1       4.448  -5.993  -3.876  0.00  0.00    -0.077 A 
ATOM      3  C2  UNL d   1       4.462  -5.996  -5.276  0.00  0.00    -0.001 A 
ATOM      4  C3  UNL d   1       3.265  -5.999  -5.994  0.00  0.00     0.003 A 
ATOM      5  C4  UNL d   1       2.046  -5.999  -5.320  0.00  0.00    -0.005 A 
ATOM      6  C5  UNL d   1       2.021  -5.994  -3.927  0.00  0.00     0.003 A 
ATOM      7  C6  UNL d   1       3.217  -5.991  -3.208  0.00  0.00    -0.001 A 
ENDROOT
TORSDOF 0
ENDMDL
