MODEL 1
REMARK minimizedAffinity 6.11687613
REMARK minimizedRMSD -1
REMARK  0 active torsions:
REMARK  status: ('A' for Active; 'I' for Inactive)
ROOT
ATOM      1  C   UNL d   1      -2.007   5.703  -5.999  0.00  0.00     0.078 C 
ATOM      2  C1  UNL d   1      -2.830   4.450  -5.989  0.00  0.00    -0.077 A 
ATOM      3  C2  UNL d   1      -2.223   3.188  -5.984  0.00  0.00    -0.001 A 
ATOM      4  C3  UNL d   1      -3.001   2.030  -5.985  0.00  0.00     0.003 A 
ATOM      5  C4  UNL d   1      -4.392   2.121  -5.992  0.00  0.00    -0.005 A 
ATOM      6  C5  UNL d   1      -5.005   3.372  -6.000  0.00  0.00     0.003 A 
ATOM      7  C6  UNL d   1      -4.228   4.532  -5.999  0.00  0.00    -0.001 A 
ENDROOT
TORSDOF 0
ENDMDL
