MODEL 1
REMARK minimizedAffinity 6.69494677
REMARK minimizedRMSD -1
REMARK  0 active torsions:
REMARK  status: ('A' for Active; 'I' for Inactive)
ROOT
ATOM      1  C   UNL d   1       1.503   0.803  -3.753  0.00  0.00     0.078 C 
ATOM      2  C1  UNL d   1       1.696   0.443  -2.310  0.00  0.00    -0.077 A 
ATOM      3  C2  UNL d   1       2.852  -0.218  -1.880  0.00  0.00    -0.001 A 
ATOM      4  C3  UNL d   1       3.014  -0.555  -0.535  0.00  0.00     0.003 A 
ATOM      5  C4  UNL d   1       2.022  -0.236   0.390  0.00  0.00    -0.005 A 
ATOM      6  C5  UNL d   1       0.867   0.420  -0.029  0.00  0.00     0.003 A 
ATOM      7  C6  UNL d   1       0.704   0.758  -1.373  0.00  0.00    -0.001 A 
ENDROOT
TORSDOF 0
ENDMDL
