MODEL 1
REMARK minimizedAffinity -0.52786237
REMARK minimizedRMSD -1
REMARK  0 active torsions:
REMARK  status: ('A' for Active; 'I' for Inactive)
ROOT
ATOM      1  C   UNL d   1       5.847   3.587   4.416  0.00  0.00     0.078 C 
ATOM      2  C1  UNL d   1       4.598   4.378   4.667  0.00  0.00    -0.077 A 
ATOM      3  C2  UNL d   1       3.493   4.271   3.814  0.00  0.00    -0.001 A 
ATOM      4  C3  UNL d   1       2.341   5.021   4.055  0.00  0.00     0.003 A 
ATOM      5  C4  UNL d   1       2.283   5.885   5.147  0.00  0.00    -0.005 A 
ATOM      6  C5  UNL d   1       3.379   6.000   6.000  0.00  0.00     0.003 A 
ATOM      7  C6  UNL d   1       4.532   5.250   5.761  0.00  0.00    -0.001 A 
ENDROOT
TORSDOF 0
ENDMDL
