MODEL 1
REMARK minimizedAffinity 9.75285721
REMARK minimizedRMSD -1
REMARK  0 active torsions:
REMARK  status: ('A' for Active; 'I' for Inactive)
ROOT
ATOM      1  C   UNL d   1       3.095   5.680   4.312  0.00  0.00     0.078 C 
ATOM      2  C1  UNL d   1       4.108   4.625   4.642  0.00  0.00    -0.077 A 
ATOM      3  C2  UNL d   1       4.145   3.415   3.938  0.00  0.00    -0.001 A 
ATOM      4  C3  UNL d   1       5.088   2.438   4.263  0.00  0.00     0.003 A 
ATOM      5  C4  UNL d   1       6.000   2.661   5.293  0.00  0.00    -0.005 A 
ATOM      6  C5  UNL d   1       5.969   3.861   6.000  0.00  0.00     0.003 A 
ATOM      7  C6  UNL d   1       5.027   4.839   5.677  0.00  0.00    -0.001 A 
ENDROOT
TORSDOF 0
ENDMDL
