MODEL 1
REMARK minimizedAffinity -0.174022257
REMARK minimizedRMSD -1
REMARK  0 active torsions:
REMARK  status: ('A' for Active; 'I' for Inactive)
ROOT
ATOM      1  C   UNL d   1       3.023   5.181   1.708  0.00  0.00     0.078 C 
ATOM      2  C1  UNL d   1       2.973   5.282   3.203  0.00  0.00    -0.077 A 
ATOM      3  C2  UNL d   1       1.898   5.904   3.849  0.00  0.00    -0.001 A 
ATOM      4  C3  UNL d   1       1.870   6.000   5.241  0.00  0.00     0.003 A 
ATOM      5  C4  UNL d   1       2.915   5.476   6.000  0.00  0.00    -0.005 A 
ATOM      6  C5  UNL d   1       3.990   4.858   5.366  0.00  0.00     0.003 A 
ATOM      7  C6  UNL d   1       4.020   4.761   3.974  0.00  0.00    -0.001 A 
ENDROOT
TORSDOF 0
ENDMDL
