MODEL 1
REMARK minimizedAffinity 2.73305702
REMARK minimizedRMSD -1
REMARK  0 active torsions:
REMARK  status: ('A' for Active; 'I' for Inactive)
ROOT
ATOM      1  C   UNL d   1       2.443  -2.314   0.404  0.00  0.00     0.078 C 
ATOM      2  C1  UNL d   1       2.775  -0.902   0.023  0.00  0.00    -0.077 A 
ATOM      3  C2  UNL d   1       3.532  -0.624  -1.122  0.00  0.00    -0.001 A 
ATOM      4  C3  UNL d   1       3.842   0.694  -1.460  0.00  0.00     0.003 A 
ATOM      5  C4  UNL d   1       3.401   1.745  -0.658  0.00  0.00    -0.005 A 
ATOM      6  C5  UNL d   1       2.649   1.477   0.485  0.00  0.00     0.003 A 
ATOM      7  C6  UNL d   1       2.338   0.160   0.824  0.00  0.00    -0.001 A 
ENDROOT
TORSDOF 0
ENDMDL
