MODEL 1
REMARK minimizedAffinity -0.0331344604
REMARK minimizedRMSD -1
REMARK  0 active torsions:
REMARK  status: ('A' for Active; 'I' for Inactive)
ROOT
ATOM      1  C   UNL d   1       1.163  -5.998  -4.555  0.00  0.00     0.078 C 
ATOM      2  C1  UNL d   1       2.660  -5.964  -4.637  0.00  0.00    -0.077 A 
ATOM      3  C2  UNL d   1       3.444  -5.908  -3.478  0.00  0.00    -0.001 A 
ATOM      4  C3  UNL d   1       4.836  -5.866  -3.568  0.00  0.00     0.003 A 
ATOM      5  C4  UNL d   1       5.456  -5.879  -4.816  0.00  0.00    -0.005 A 
ATOM      6  C5  UNL d   1       4.685  -5.932  -5.975  0.00  0.00     0.003 A 
ATOM      7  C6  UNL d   1       3.292  -5.973  -5.886  0.00  0.00    -0.001 A 
ENDROOT
TORSDOF 0
ENDMDL
