MODEL 1
REMARK minimizedAffinity 7.0778594
REMARK minimizedRMSD -1
REMARK  0 active torsions:
REMARK  status: ('A' for Active; 'I' for Inactive)
ROOT
ATOM      1  C   UNL d   1       2.676   2.999  -0.423  0.00  0.00     0.078 C 
ATOM      2  C1  UNL d   1       3.842   2.567  -1.261  0.00  0.00    -0.077 A 
ATOM      3  C2  UNL d   1       4.926   3.425  -1.486  0.00  0.00    -0.001 A 
ATOM      4  C3  UNL d   1       6.000   3.013  -2.276  0.00  0.00     0.003 A 
ATOM      5  C4  UNL d   1       6.000   1.743  -2.850  0.00  0.00    -0.005 A 
ATOM      6  C5  UNL d   1       4.924   0.884  -2.635  0.00  0.00     0.003 A 
ATOM      7  C6  UNL d   1       3.850   1.294  -1.844  0.00  0.00    -0.001 A 
ENDROOT
TORSDOF 0
ENDMDL
