MODEL 1
REMARK minimizedAffinity 8.78119373
REMARK minimizedRMSD -1
REMARK  0 active torsions:
REMARK  status: ('A' for Active; 'I' for Inactive)
ROOT
ATOM      1  C   UNL d   1       4.342   1.541   2.586  0.00  0.00     0.078 C 
ATOM      2  C1  UNL d   1       3.347   1.767   1.488  0.00  0.00    -0.077 A 
ATOM      3  C2  UNL d   1       2.180   0.997   1.403  0.00  0.00    -0.001 A 
ATOM      4  C3  UNL d   1       1.267   1.212   0.369  0.00  0.00     0.003 A 
ATOM      5  C4  UNL d   1       1.511   2.195  -0.588  0.00  0.00    -0.005 A 
ATOM      6  C5  UNL d   1       2.671   2.965  -0.512  0.00  0.00     0.003 A 
ATOM      7  C6  UNL d   1       3.585   2.752   0.521  0.00  0.00    -0.001 A 
ENDROOT
TORSDOF 0
ENDMDL
