MODEL 1
REMARK minimizedAffinity 2.3805995
REMARK minimizedRMSD -1
REMARK  0 active torsions:
REMARK  status: ('A' for Active; 'I' for Inactive)
ROOT
ATOM      1  C   UNL d   1      -0.832   3.991  -5.998  0.00  0.00     0.078 C 
ATOM      2  C1  UNL d   1       0.260   2.965  -5.924  0.00  0.00    -0.077 A 
ATOM      3  C2  UNL d   1      -0.037   1.606  -5.767  0.00  0.00    -0.001 A 
ATOM      4  C3  UNL d   1       0.989   0.663  -5.690  0.00  0.00     0.003 A 
ATOM      5  C4  UNL d   1       2.320   1.070  -5.768  0.00  0.00    -0.005 A 
ATOM      6  C5  UNL d   1       2.625   2.420  -5.922  0.00  0.00     0.003 A 
ATOM      7  C6  UNL d   1       1.600   3.364  -6.000  0.00  0.00    -0.001 A 
ENDROOT
TORSDOF 0
ENDMDL
