MODEL 1
REMARK minimizedAffinity 3.25416875
REMARK minimizedRMSD -1
REMARK  0 active torsions:
REMARK  status: ('A' for Active; 'I' for Inactive)
ROOT
ATOM      1  C   UNL d   1       3.664   2.167   2.895  0.00  0.00     0.078 C 
ATOM      2  C1  UNL d   1       2.740   2.041   1.720  0.00  0.00    -0.077 A 
ATOM      3  C2  UNL d   1       1.665   1.144   1.741  0.00  0.00    -0.001 A 
ATOM      4  C3  UNL d   1       0.819   1.031   0.636  0.00  0.00     0.003 A 
ATOM      5  C4  UNL d   1       1.040   1.811  -0.497  0.00  0.00    -0.005 A 
ATOM      6  C5  UNL d   1       2.108   2.705  -0.527  0.00  0.00     0.003 A 
ATOM      7  C6  UNL d   1       2.955   2.820   0.576  0.00  0.00    -0.001 A 
ENDROOT
TORSDOF 0
ENDMDL
