MODEL 1
REMARK minimizedAffinity 12.9717302
REMARK minimizedRMSD -1
REMARK  0 active torsions:
REMARK  status: ('A' for Active; 'I' for Inactive)
ROOT
ATOM      1  C   UNL d   1      -4.908  -4.450   6.000  0.00  0.00     0.078 C 
ATOM      2  C1  UNL d   1      -4.836  -3.362   4.970  0.00  0.00    -0.077 A 
ATOM      3  C2  UNL d   1      -5.996  -2.869   4.360  0.00  0.00    -0.001 A 
ATOM      4  C3  UNL d   1      -5.913  -1.863   3.396  0.00  0.00     0.003 A 
ATOM      5  C4  UNL d   1      -4.673  -1.343   3.032  0.00  0.00    -0.005 A 
ATOM      6  C5  UNL d   1      -3.513  -1.829   3.632  0.00  0.00     0.003 A 
ATOM      7  C6  UNL d   1      -3.594  -2.835   4.596  0.00  0.00    -0.001 A 
ENDROOT
TORSDOF 0
ENDMDL
