MODEL 1
REMARK minimizedAffinity 8.88898182
REMARK minimizedRMSD -1
REMARK  0 active torsions:
REMARK  status: ('A' for Active; 'I' for Inactive)
ROOT
ATOM      1  C   UNL d   1       3.370   2.843   2.764  0.00  0.00     0.078 C 
ATOM      2  C1  UNL d   1       3.694   3.927   3.748  0.00  0.00    -0.077 A 
ATOM      3  C2  UNL d   1       4.877   3.891   4.497  0.00  0.00    -0.001 A 
ATOM      4  C3  UNL d   1       5.161   4.902   5.417  0.00  0.00     0.003 A 
ATOM      5  C4  UNL d   1       4.268   5.956   5.596  0.00  0.00    -0.005 A 
ATOM      6  C5  UNL d   1       3.088   6.000   4.857  0.00  0.00     0.003 A 
ATOM      7  C6  UNL d   1       2.802   4.990   3.937  0.00  0.00    -0.001 A 
ENDROOT
TORSDOF 0
ENDMDL
