MODEL 1
REMARK minimizedAffinity 13.6393166
REMARK minimizedRMSD -1
REMARK  0 active torsions:
REMARK  status: ('A' for Active; 'I' for Inactive)
ROOT
ATOM      1  C   UNL d   1      -4.816   5.518  -5.995  0.00  0.00     0.078 C 
ATOM      2  C1  UNL d   1      -4.117   4.192  -5.982  0.00  0.00    -0.077 A 
ATOM      3  C2  UNL d   1      -2.719   4.113  -5.999  0.00  0.00    -0.001 A 
ATOM      4  C3  UNL d   1      -2.081   2.872  -5.997  0.00  0.00     0.003 A 
ATOM      5  C4  UNL d   1      -2.833   1.699  -5.978  0.00  0.00    -0.005 A 
ATOM      6  C5  UNL d   1      -4.225   1.767  -5.963  0.00  0.00     0.003 A 
ATOM      7  C6  UNL d   1      -4.864   3.007  -5.965  0.00  0.00    -0.001 A 
ENDROOT
TORSDOF 0
ENDMDL
