MODEL 1
REMARK minimizedAffinity -4.00614214
REMARK minimizedRMSD -1
REMARK  0 active torsions:
REMARK  status: ('A' for Active; 'I' for Inactive)
ROOT
ATOM      1  C   UNL d   1       0.403  -2.131   4.385  0.00  0.00     0.172 C 
ATOM      2  N   UNL d   1      -0.062  -1.156   3.426  0.00  0.00    -0.070 N 
ATOM      3  C1  UNL d   1       0.733  -0.333   2.674  0.00  0.00    -0.004 A 
ATOM      4  C2  UNL d   1      -0.088   0.445   1.887  0.00  0.00    -0.047 A 
ATOM      5  C3  UNL d   1      -1.424   0.077   2.177  0.00  0.00    -0.047 A 
ATOM      6  C4  UNL d   1      -1.379  -0.916   3.133  0.00  0.00    -0.004 A 
ENDROOT
TORSDOF 0
ENDMDL
