MODEL 1
REMARK minimizedAffinity -1.15306652
REMARK minimizedRMSD -1
REMARK  0 active torsions:
REMARK  status: ('A' for Active; 'I' for Inactive)
ROOT
ATOM      1  C   UNL d   1       0.381  -0.737   2.925  0.00  0.00     0.172 C 
ATOM      2  N   UNL d   1       1.269  -1.397   3.853  0.00  0.00    -0.070 N 
ATOM      3  C1  UNL d   1       1.084  -2.645   4.385  0.00  0.00    -0.004 A 
ATOM      4  C2  UNL d   1       2.148  -2.910   5.220  0.00  0.00    -0.047 A 
ATOM      5  C3  UNL d   1       3.001  -1.781   5.190  0.00  0.00    -0.047 A 
ATOM      6  C4  UNL d   1       2.433  -0.860   4.336  0.00  0.00    -0.004 A 
ENDROOT
TORSDOF 0
ENDMDL
