MODEL 1
REMARK minimizedAffinity -1.26296067
REMARK minimizedRMSD -1
REMARK  0 active torsions:
REMARK  status: ('A' for Active; 'I' for Inactive)
ROOT
ATOM      1  C   UNL d   1      -0.162   0.204  -5.160  0.00  0.00     0.172 C 
ATOM      2  N   UNL d   1      -1.525   0.451  -4.752  0.00  0.00    -0.070 N 
ATOM      3  C1  UNL d   1      -1.915   0.988  -3.554  0.00  0.00    -0.004 A 
ATOM      4  C2  UNL d   1      -3.291   1.061  -3.552  0.00  0.00    -0.047 A 
ATOM      5  C3  UNL d   1      -3.744   0.548  -4.791  0.00  0.00    -0.047 A 
ATOM      6  C4  UNL d   1      -2.630   0.178  -5.514  0.00  0.00    -0.004 A 
ENDROOT
TORSDOF 0
ENDMDL
