MODEL 1
REMARK minimizedAffinity -0.112498954
REMARK minimizedRMSD -1
REMARK  0 active torsions:
REMARK  status: ('A' for Active; 'I' for Inactive)
ROOT
ATOM      1  C   UNL d   1       1.117  -1.457   3.734  0.00  0.00     0.172 C 
ATOM      2  N   UNL d   1       0.539  -0.735   2.625  0.00  0.00    -0.070 N 
ATOM      3  C1  UNL d   1       1.194  -0.377   1.477  0.00  0.00    -0.004 A 
ATOM      4  C2  UNL d   1       0.299   0.293   0.672  0.00  0.00    -0.047 A 
ATOM      5  C3  UNL d   1      -0.937   0.341   1.360  0.00  0.00    -0.047 A 
ATOM      6  C4  UNL d   1      -0.760  -0.303   2.566  0.00  0.00    -0.004 A 
ENDROOT
TORSDOF 0
ENDMDL
