MODEL 1
REMARK minimizedAffinity 1.83397555
REMARK minimizedRMSD -1
REMARK  0 active torsions:
REMARK  status: ('A' for Active; 'I' for Inactive)
ROOT
ATOM      1  C   UNL d   1       1.036  -1.158   2.995  0.00  0.00     0.172 C 
ATOM      2  N   UNL d   1      -0.141  -0.576   2.394  0.00  0.00    -0.070 N 
ATOM      3  C1  UNL d   1      -1.430  -0.994   2.596  0.00  0.00    -0.004 A 
ATOM      4  C2  UNL d   1      -2.258  -0.184   1.849  0.00  0.00    -0.047 A 
ATOM      5  C3  UNL d   1      -1.438   0.752   1.174  0.00  0.00    -0.047 A 
ATOM      6  C4  UNL d   1      -0.133   0.486   1.529  0.00  0.00    -0.004 A 
ENDROOT
TORSDOF 0
ENDMDL
