MODEL 1
REMARK minimizedAffinity -2.64595699
REMARK minimizedRMSD -1
REMARK  2 active torsions:
REMARK  status: ('A' for Active; 'I' for Inactive)
REMARK    1  A    between atoms: C1_2  and  C2_3 
REMARK    2  A    between atoms: C2_3  and  C3_4 
ROOT
ATOM      1  C3  UNL d   1       0.362  -0.678  -1.231  0.00  0.00    -0.075 A 
ATOM      2  C4  UNL d   1      -0.936  -0.355  -0.808  0.00  0.00     0.002 A 
ATOM      3  C5  UNL d   1      -1.228  -0.230   0.551  0.00  0.00     0.002 A 
ATOM      4  C6  UNL d   1      -0.231  -0.436   1.502  0.00  0.00    -0.004 A 
ATOM      5  C7  UNL d   1       1.057  -0.774   1.094  0.00  0.00     0.002 A 
ATOM      6  C8  UNL d   1       1.353  -0.895  -0.265  0.00  0.00     0.002 A 
ENDROOT
BRANCH   1   7
ATOM      7  C2  UNL d   1       0.691  -0.786  -2.700  0.00  0.00     0.056 C 
BRANCH   7   8
ATOM      8  C1  UNL d   1       1.527   0.380  -3.239  0.00  0.00     0.007 C 
ATOM      9  C   UNL d   1       0.909   1.047  -4.461  0.00  0.00     0.009 C 
ENDBRANCH   7   8
ENDBRANCH   1   7
TORSDOF 2
ENDMDL
