MODEL 1
REMARK minimizedAffinity -4.41342258
REMARK minimizedRMSD -1
REMARK  2 active torsions:
REMARK  status: ('A' for Active; 'I' for Inactive)
REMARK    1  A    between atoms: C1_2  and  C2_3 
REMARK    2  A    between atoms: C2_3  and  C3_4 
ROOT
ATOM      1  C3  UNL d   1      -0.898   0.422   1.723  0.00  0.00    -0.075 A 
ATOM      2  C4  UNL d   1      -0.381   0.391   0.419  0.00  0.00     0.002 A 
ATOM      3  C5  UNL d   1      -1.198   0.047  -0.658  0.00  0.00     0.002 A 
ATOM      4  C6  UNL d   1      -2.536  -0.278  -0.446  0.00  0.00    -0.004 A 
ATOM      5  C7  UNL d   1      -3.055  -0.267   0.847  0.00  0.00     0.002 A 
ATOM      6  C8  UNL d   1      -2.241   0.081   1.926  0.00  0.00     0.002 A 
ENDROOT
BRANCH   1   7
ATOM      7  C2  UNL d   1      -0.026   0.821   2.890  0.00  0.00     0.056 C 
BRANCH   7   8
ATOM      8  C1  UNL d   1       0.351  -0.342   3.813  0.00  0.00     0.007 C 
ATOM      9  C   UNL d   1       1.362   0.046   4.884  0.00  0.00     0.009 C 
ENDBRANCH   7   8
ENDBRANCH   1   7
TORSDOF 2
ENDMDL
