MODEL 1
REMARK minimizedAffinity 4.5633812
REMARK minimizedRMSD -1
REMARK  2 active torsions:
REMARK  status: ('A' for Active; 'I' for Inactive)
REMARK    1  A    between atoms: C1_2  and  C2_3 
REMARK    2  A    between atoms: C2_3  and  C3_4 
ROOT
ATOM      1  C3  UNL d   1       1.084   0.284   0.390  0.00  0.00    -0.075 A 
ATOM      2  C4  UNL d   1       0.090  -0.473  -0.247  0.00  0.00     0.002 A 
ATOM      3  C5  UNL d   1      -1.129  -0.717   0.387  0.00  0.00     0.002 A 
ATOM      4  C6  UNL d   1      -1.365  -0.219   1.666  0.00  0.00    -0.004 A 
ATOM      5  C7  UNL d   1      -0.378   0.520   2.315  0.00  0.00     0.002 A 
ATOM      6  C8  UNL d   1       0.840   0.770   1.682  0.00  0.00     0.002 A 
ENDROOT
BRANCH   1   7
ATOM      7  C2  UNL d   1       2.394   0.577  -0.301  0.00  0.00     0.056 C 
BRANCH   7   8
ATOM      8  C1  UNL d   1       2.886   2.017  -0.120  0.00  0.00     0.007 C 
ATOM      9  C   UNL d   1       4.279   2.103   0.491  0.00  0.00     0.009 C 
ENDBRANCH   7   8
ENDBRANCH   1   7
TORSDOF 2
ENDMDL
