MODEL 1
REMARK minimizedAffinity 8.06739616
REMARK minimizedRMSD -1
REMARK  2 active torsions:
REMARK  status: ('A' for Active; 'I' for Inactive)
REMARK    1  A    between atoms: C1_2  and  C2_3 
REMARK    2  A    between atoms: C2_3  and  C3_4 
ROOT
ATOM      1  C3  UNL d   1       0.842   0.205   1.089  0.00  0.00    -0.075 A 
ATOM      2  C4  UNL d   1       0.528  -1.010   0.463  0.00  0.00     0.002 A 
ATOM      3  C5  UNL d   1      -0.786  -1.297   0.090  0.00  0.00     0.002 A 
ATOM      4  C6  UNL d   1      -1.802  -0.379   0.347  0.00  0.00    -0.004 A 
ATOM      5  C7  UNL d   1      -1.504   0.824   0.984  0.00  0.00     0.002 A 
ATOM      6  C8  UNL d   1      -0.190   1.115   1.353  0.00  0.00     0.002 A 
ENDROOT
BRANCH   1   7
ATOM      7  C2  UNL d   1       2.266   0.533   1.467  0.00  0.00     0.056 C 
BRANCH   7   8
ATOM      8  C1  UNL d   1       3.104   1.095   0.314  0.00  0.00     0.007 C 
ATOM      9  C   UNL d   1       4.229   2.010   0.780  0.00  0.00     0.009 C 
ENDBRANCH   7   8
ENDBRANCH   1   7
TORSDOF 2
ENDMDL
