MODEL 1
REMARK minimizedAffinity 7.66120195
REMARK minimizedRMSD -1
REMARK  2 active torsions:
REMARK  status: ('A' for Active; 'I' for Inactive)
REMARK    1  A    between atoms: C1_2  and  C2_3 
REMARK    2  A    between atoms: C2_3  and  C3_4 
ROOT
ATOM      1  C3  UNL d   1       1.693   0.339   1.266  0.00  0.00    -0.075 A 
ATOM      2  C4  UNL d   1       2.576   1.418   1.413  0.00  0.00     0.002 A 
ATOM      3  C5  UNL d   1       3.490   1.728   0.405  0.00  0.00     0.002 A 
ATOM      4  C6  UNL d   1       3.540   0.958  -0.755  0.00  0.00    -0.004 A 
ATOM      5  C7  UNL d   1       2.679  -0.126  -0.905  0.00  0.00     0.002 A 
ATOM      6  C8  UNL d   1       1.760  -0.436   0.100  0.00  0.00     0.002 A 
ENDROOT
BRANCH   1   7
ATOM      7  C2  UNL d   1       0.682   0.016   2.340  0.00  0.00     0.056 C 
BRANCH   7   8
ATOM      8  C1  UNL d   1      -0.583   0.879   2.284  0.00  0.00     0.007 C 
ATOM      9  C   UNL d   1      -0.430   2.215   3.000  0.00  0.00     0.009 C 
ENDBRANCH   7   8
ENDBRANCH   1   7
TORSDOF 2
ENDMDL
