MODEL 1
REMARK minimizedAffinity 7.97511339
REMARK minimizedRMSD -1
REMARK  2 active torsions:
REMARK  status: ('A' for Active; 'I' for Inactive)
REMARK    1  A    between atoms: C1_2  and  C2_3 
REMARK    2  A    between atoms: C2_3  and  C3_4 
ROOT
ATOM      1  C3  UNL d   1      -3.232  -0.290  -0.461  0.00  0.00    -0.075 A 
ATOM      2  C4  UNL d   1      -3.250  -0.055   0.921  0.00  0.00     0.002 A 
ATOM      3  C5  UNL d   1      -2.121   0.448   1.569  0.00  0.00     0.002 A 
ATOM      4  C6  UNL d   1      -0.959   0.711   0.846  0.00  0.00    -0.004 A 
ATOM      5  C7  UNL d   1      -0.925   0.464  -0.525  0.00  0.00     0.002 A 
ATOM      6  C8  UNL d   1      -2.055  -0.034  -1.176  0.00  0.00     0.002 A 
ENDROOT
BRANCH   1   7
ATOM      7  C2  UNL d   1      -4.460  -0.806  -1.172  0.00  0.00     0.056 C 
BRANCH   7   8
ATOM      8  C1  UNL d   1      -4.540  -2.334  -1.251  0.00  0.00     0.007 C 
ATOM      9  C   UNL d   1      -5.771  -2.834  -1.996  0.00  0.00     0.009 C 
ENDBRANCH   7   8
ENDBRANCH   1   7
TORSDOF 2
ENDMDL
