MODEL 1
REMARK minimizedAffinity 8.95327568
REMARK minimizedRMSD -1
REMARK  0 active torsions:
REMARK  status: ('A' for Active; 'I' for Inactive)
ROOT
ATOM      1  C   UNL d   1       0.489   4.566  -1.067  0.00  0.00    -0.002 A 
ATOM      2  C1  UNL d   1       1.557   5.398  -0.765  0.00  0.00     0.010 A 
ATOM      3  C2  UNL d   1       2.227   5.280   0.454  0.00  0.00     0.041 A 
ATOM      4  C3  UNL d   1       1.803   4.299   1.372  0.00  0.00    -0.075 A 
ATOM      5  S   UNL d   1       2.474   3.971   2.926  0.00  0.00     0.015 SA
ATOM      6  C4  UNL d   1       1.359   2.717   3.225  0.00  0.00     0.022 A 
ATOM      7  C5  UNL d   1       0.488   2.540   2.176  0.00  0.00     0.026 A 
ATOM      8  C6  UNL d   1       0.730   3.449   1.090  0.00  0.00    -0.082 A 
ATOM      9  C7  UNL d   1       0.071   3.595  -0.154  0.00  0.00     0.045 A 
ENDROOT
TORSDOF 0
ENDMDL
