MODEL 1
REMARK minimizedAffinity -1.41281211
REMARK minimizedRMSD -1
REMARK  0 active torsions:
REMARK  status: ('A' for Active; 'I' for Inactive)
ROOT
ATOM      1  C   UNL d   1      -3.878   1.940  -1.374  0.00  0.00    -0.002 A 
ATOM      2  C1  UNL d   1      -5.265   1.948  -1.341  0.00  0.00     0.010 A 
ATOM      3  C2  UNL d   1      -6.000   2.381  -2.447  0.00  0.00     0.041 A 
ATOM      4  C3  UNL d   1      -5.310   2.808  -3.598  0.00  0.00    -0.075 A 
ATOM      5  S   UNL d   1      -6.000   3.380  -5.071  0.00  0.00     0.015 SA
ATOM      6  C4  UNL d   1      -4.469   3.626  -5.780  0.00  0.00     0.022 A 
ATOM      7  C5  UNL d   1      -3.446   3.287  -4.927  0.00  0.00     0.026 A 
ATOM      8  C6  UNL d   1      -3.913   2.809  -3.656  0.00  0.00    -0.082 A 
ATOM      9  C7  UNL d   1      -3.197   2.365  -2.518  0.00  0.00     0.045 A 
ENDROOT
TORSDOF 0
ENDMDL
