MODEL 1
REMARK minimizedAffinity -1.12822938
REMARK minimizedRMSD -1
REMARK  0 active torsions:
REMARK  status: ('A' for Active; 'I' for Inactive)
ROOT
ATOM      1  C   UNL d   1      -3.122   2.212  -3.746  0.00  0.00    -0.002 A 
ATOM      2  C1  UNL d   1      -2.746   1.463  -4.853  0.00  0.00     0.010 A 
ATOM      3  C2  UNL d   1      -2.129   0.221  -4.693  0.00  0.00     0.041 A 
ATOM      4  C3  UNL d   1      -1.895  -0.262  -3.391  0.00  0.00    -0.075 A 
ATOM      5  S   UNL d   1      -1.155  -1.756  -2.954  0.00  0.00     0.015 SA
ATOM      6  C4  UNL d   1      -1.321  -1.437  -1.288  0.00  0.00     0.022 A 
ATOM      7  C5  UNL d   1      -1.924  -0.224  -1.053  0.00  0.00     0.026 A 
ATOM      8  C6  UNL d   1      -2.265   0.473  -2.261  0.00  0.00    -0.082 A 
ATOM      9  C7  UNL d   1      -2.888   1.729  -2.456  0.00  0.00     0.045 A 
ENDROOT
TORSDOF 0
ENDMDL
