MODEL 1
REMARK minimizedAffinity 9.91778755
REMARK minimizedRMSD -1
REMARK  0 active torsions:
REMARK  status: ('A' for Active; 'I' for Inactive)
ROOT
ATOM      1  C   UNL d   1      -0.732   3.635   0.034  0.00  0.00    -0.002 A 
ATOM      2  C1  UNL d   1      -0.038   3.449   1.221  0.00  0.00     0.010 A 
ATOM      3  C2  UNL d   1       0.847   2.379   1.365  0.00  0.00     0.041 A 
ATOM      4  C3  UNL d   1       1.026   1.491   0.286  0.00  0.00    -0.075 A 
ATOM      5  S   UNL d   1       2.058   0.111   0.235  0.00  0.00     0.015 SA
ATOM      6  C4  UNL d   1       1.602  -0.263  -1.365  0.00  0.00     0.022 A 
ATOM      7  C5  UNL d   1       0.686   0.633  -1.863  0.00  0.00     0.026 A 
ATOM      8  C6  UNL d   1       0.339   1.659  -0.920  0.00  0.00    -0.082 A 
ATOM      9  C7  UNL d   1      -0.552   2.753  -1.035  0.00  0.00     0.045 A 
ENDROOT
TORSDOF 0
ENDMDL
