MODEL 1
REMARK minimizedAffinity 10.5628071
REMARK minimizedRMSD -1
REMARK  0 active torsions:
REMARK  status: ('A' for Active; 'I' for Inactive)
ROOT
ATOM      1  C   UNL d   1       2.383   4.015   1.002  0.00  0.00    -0.002 A 
ATOM      2  C1  UNL d   1       2.195   4.894  -0.055  0.00  0.00     0.010 A 
ATOM      3  C2  UNL d   1       1.033   4.836  -0.828  0.00  0.00     0.041 A 
ATOM      4  C3  UNL d   1       0.054   3.872  -0.516  0.00  0.00    -0.075 A 
ATOM      5  S   UNL d   1      -1.448   3.617  -1.324  0.00  0.00     0.015 SA
ATOM      6  C4  UNL d   1      -1.875   2.336  -0.283  0.00  0.00     0.022 A 
ATOM      7  C5  UNL d   1      -0.907   2.096   0.663  0.00  0.00     0.026 A 
ATOM      8  C6  UNL d   1       0.221   2.977   0.545  0.00  0.00    -0.082 A 
ATOM      9  C7  UNL d   1       1.409   3.061   1.309  0.00  0.00     0.045 A 
ENDROOT
TORSDOF 0
ENDMDL
