MODEL 1
REMARK minimizedAffinity 12.4153576
REMARK minimizedRMSD -1
REMARK  0 active torsions:
REMARK  status: ('A' for Active; 'I' for Inactive)
ROOT
ATOM      1  C   UNL d   1       0.133  -5.193  -0.822  0.00  0.00    -0.002 A 
ATOM      2  C1  UNL d   1      -0.639  -4.166  -1.347  0.00  0.00     0.010 A 
ATOM      3  C2  UNL d   1      -0.176  -2.849  -1.329  0.00  0.00     0.041 A 
ATOM      4  C3  UNL d   1       1.089  -2.579  -0.771  0.00  0.00    -0.075 A 
ATOM      5  S   UNL d   1       1.862  -1.044  -0.640  0.00  0.00     0.015 SA
ATOM      6  C4  UNL d   1       3.234  -1.715   0.115  0.00  0.00     0.022 A 
ATOM      7  C5  UNL d   1       3.123  -3.076   0.272  0.00  0.00     0.026 A 
ATOM      8  C6  UNL d   1       1.885  -3.597  -0.237  0.00  0.00    -0.082 A 
ATOM      9  C7  UNL d   1       1.387  -4.922  -0.269  0.00  0.00     0.045 A 
ENDROOT
TORSDOF 0
ENDMDL
