MODEL 1
REMARK minimizedAffinity 6.19032431
REMARK minimizedRMSD -1
REMARK  0 active torsions:
REMARK  status: ('A' for Active; 'I' for Inactive)
ROOT
ATOM      1  C   UNL d   1      -0.587  -4.751  -2.039  0.00  0.00    -0.002 A 
ATOM      2  C1  UNL d   1       0.428  -5.248  -1.233  0.00  0.00     0.010 A 
ATOM      3  C2  UNL d   1       1.405  -4.396  -0.716  0.00  0.00     0.041 A 
ATOM      4  C3  UNL d   1       1.344  -3.022  -1.023  0.00  0.00    -0.075 A 
ATOM      5  S   UNL d   1       2.432  -1.791  -0.501  0.00  0.00     0.015 SA
ATOM      6  C4  UNL d   1       1.575  -0.576  -1.334  0.00  0.00     0.022 A 
ATOM      7  C5  UNL d   1       0.483  -1.080  -2.000  0.00  0.00     0.026 A 
ATOM      8  C6  UNL d   1       0.332  -2.498  -1.832  0.00  0.00    -0.082 A 
ATOM      9  C7  UNL d   1      -0.644  -3.387  -2.342  0.00  0.00     0.045 A 
ENDROOT
TORSDOF 0
ENDMDL
