MODEL 1
REMARK minimizedAffinity 9.46301651
REMARK minimizedRMSD -1
REMARK  0 active torsions:
REMARK  status: ('A' for Active; 'I' for Inactive)
ROOT
ATOM      1  C   UNL d   1      -5.203   4.378  -5.974  0.00  0.00    -0.002 A 
ATOM      2  C1  UNL d   1      -3.880   3.960  -6.000  0.00  0.00     0.010 A 
ATOM      3  C2  UNL d   1      -3.301   3.367  -4.876  0.00  0.00     0.041 A 
ATOM      4  C3  UNL d   1      -4.081   3.199  -3.715  0.00  0.00    -0.075 A 
ATOM      5  S   UNL d   1      -3.583   2.498  -2.221  0.00  0.00     0.015 SA
ATOM      6  C4  UNL d   1      -5.115   2.737  -1.513  0.00  0.00     0.022 A 
ATOM      7  C5  UNL d   1      -5.997   3.336  -2.381  0.00  0.00     0.026 A 
ATOM      8  C6  UNL d   1      -5.415   3.612  -3.665  0.00  0.00    -0.082 A 
ATOM      9  C7  UNL d   1      -5.974   4.210  -4.821  0.00  0.00     0.045 A 
ENDROOT
TORSDOF 0
ENDMDL
