MODEL 1
REMARK minimizedAffinity 4.06635618
REMARK minimizedRMSD -1
REMARK  3 active torsions:
REMARK  status: ('A' for Active; 'I' for Inactive)
REMARK    1  A    between atoms: C3'_2  and  C2'_3 
REMARK    2  A    between atoms: C2'_3  and  C1'_4 
REMARK    3  A    between atoms: C1'_4  and  C1_5 
ROOT
ATOM      1  C1  N4B d   1      -1.387  -1.606  -4.720  0.00  0.00    -0.075 A 
ATOM      2  C2  N4B d   1      -0.880  -0.473  -5.394  0.00  0.00     0.002 A 
ATOM      3  C3  N4B d   1       0.472  -0.233  -5.412  0.00  0.00     0.002 A 
ATOM      4  C4  N4B d   1       1.331  -1.097  -4.751  0.00  0.00    -0.004 A 
ATOM      5  C5  N4B d   1       0.836  -2.203  -4.124  0.00  0.00     0.002 A 
ATOM      6  C6  N4B d   1      -0.520  -2.460  -4.101  0.00  0.00     0.002 A 
ENDROOT
BRANCH   1   7
ATOM      7  C1' N4B d   1      -2.864  -1.864  -4.600  0.00  0.00     0.057 C 
BRANCH   7   8
ATOM      8  C2' N4B d   1      -3.245  -1.916  -3.123  0.00  0.00     0.009 C 
BRANCH   8   9
ATOM      9  C3' N4B d   1      -4.320  -2.953  -2.849  0.00  0.00     0.004 C 
ATOM     10  C4' N4B d   1      -4.693  -3.034  -1.399  0.00  0.00     0.003 C 
ENDBRANCH   8   9
ENDBRANCH   7   8
ENDBRANCH   1   7
TORSDOF 3
ENDMDL
