MODEL 1
REMARK minimizedAffinity -1.47697532
REMARK minimizedRMSD -1
REMARK  3 active torsions:
REMARK  status: ('A' for Active; 'I' for Inactive)
REMARK    1  A    between atoms: C3'_2  and  C2'_3 
REMARK    2  A    between atoms: C2'_3  and  C1'_4 
REMARK    3  A    between atoms: C1'_4  and  C1_5 
ROOT
ATOM      1  C1  N4B d   1       3.546   5.097  -5.144  0.00  0.00    -0.075 A 
ATOM      2  C2  N4B d   1       3.432   3.859  -4.475  0.00  0.00     0.002 A 
ATOM      3  C3  N4B d   1       4.500   3.357  -3.773  0.00  0.00     0.002 A 
ATOM      4  C4  N4B d   1       5.693   4.065  -3.740  0.00  0.00    -0.004 A 
ATOM      5  C5  N4B d   1       5.786   5.273  -4.367  0.00  0.00     0.002 A 
ATOM      6  C6  N4B d   1       4.719   5.790  -5.074  0.00  0.00     0.002 A 
ENDROOT
BRANCH   1   7
ATOM      7  C1' N4B d   1       2.433   5.645  -5.996  0.00  0.00     0.057 C 
BRANCH   7   8
ATOM      8  C2' N4B d   1       1.172   5.778  -5.147  0.00  0.00     0.009 C 
BRANCH   8   9
ATOM      9  C3' N4B d   1      -0.066   6.000  -6.000  0.00  0.00     0.004 C 
ATOM     10  C4' N4B d   1      -1.339   5.870  -5.219  0.00  0.00     0.003 C 
ENDBRANCH   8   9
ENDBRANCH   7   8
ENDBRANCH   1   7
TORSDOF 3
ENDMDL
