MODEL 1
REMARK minimizedAffinity -1.96876705
REMARK minimizedRMSD -1
REMARK  3 active torsions:
REMARK  status: ('A' for Active; 'I' for Inactive)
REMARK    1  A    between atoms: C3'_2  and  C2'_3 
REMARK    2  A    between atoms: C2'_3  and  C1'_4 
REMARK    3  A    between atoms: C1'_4  and  C1_5 
ROOT
ATOM      1  C1  N4B d   1      -1.070  -1.954  -4.444  0.00  0.00    -0.075 A 
ATOM      2  C2  N4B d   1      -0.580  -1.001  -5.364  0.00  0.00     0.002 A 
ATOM      3  C3  N4B d   1       0.773  -0.822  -5.513  0.00  0.00     0.002 A 
ATOM      4  C4  N4B d   1       1.652  -1.568  -4.742  0.00  0.00    -0.004 A 
ATOM      5  C5  N4B d   1       1.172  -2.504  -3.874  0.00  0.00     0.002 A 
ATOM      6  C6  N4B d   1      -0.186  -2.697  -3.717  0.00  0.00     0.002 A 
ENDROOT
BRANCH   1   7
ATOM      7  C1' N4B d   1      -2.541  -2.125  -4.185  0.00  0.00     0.057 C 
BRANCH   7   8
ATOM      8  C2' N4B d   1      -2.801  -2.018  -2.685  0.00  0.00     0.009 C 
BRANCH   8   9
ATOM      9  C3' N4B d   1      -4.047  -2.781  -2.269  0.00  0.00     0.004 C 
ATOM     10  C4' N4B d   1      -4.077  -3.088  -0.801  0.00  0.00     0.003 C 
ENDBRANCH   8   9
ENDBRANCH   7   8
ENDBRANCH   1   7
TORSDOF 3
ENDMDL
