MODEL 1
REMARK minimizedAffinity -2.86680818
REMARK minimizedRMSD -1
REMARK  3 active torsions:
REMARK  status: ('A' for Active; 'I' for Inactive)
REMARK    1  A    between atoms: C3'_2  and  C2'_3 
REMARK    2  A    between atoms: C2'_3  and  C1'_4 
REMARK    3  A    between atoms: C1'_4  and  C1_5 
ROOT
ATOM      1  C1  N4B d   1       2.507   5.922  -4.733  0.00  0.00    -0.075 A 
ATOM      2  C2  N4B d   1       1.737   5.993  -3.551  0.00  0.00     0.002 A 
ATOM      3  C3  N4B d   1       0.365   5.999  -3.624  0.00  0.00     0.002 A 
ATOM      4  C4  N4B d   1      -0.255   5.953  -4.864  0.00  0.00    -0.004 A 
ATOM      5  C5  N4B d   1       0.495   5.859  -5.999  0.00  0.00     0.002 A 
ATOM      6  C6  N4B d   1       1.875   5.848  -5.940  0.00  0.00     0.002 A 
ENDROOT
BRANCH   1   7
ATOM      7  C1' N4B d   1       4.009   5.999  -4.708  0.00  0.00     0.057 C 
BRANCH   7   8
ATOM      8  C2' N4B d   1       4.564   5.376  -5.985  0.00  0.00     0.009 C 
BRANCH   8   9
ATOM      9  C3' N4B d   1       5.925   4.739  -5.762  0.00  0.00     0.004 C 
ATOM     10  C4' N4B d   1       5.971   3.884  -4.531  0.00  0.00     0.003 C 
ENDBRANCH   8   9
ENDBRANCH   7   8
ENDBRANCH   1   7
TORSDOF 3
ENDMDL
