MODEL 1
REMARK minimizedAffinity 2.96416092
REMARK minimizedRMSD -1
REMARK  3 active torsions:
REMARK  status: ('A' for Active; 'I' for Inactive)
REMARK    1  A    between atoms: C3'_2  and  C2'_3 
REMARK    2  A    between atoms: C2'_3  and  C1'_4 
REMARK    3  A    between atoms: C1'_4  and  C1_5 
ROOT
ATOM      1  C1  N4B d   1       0.832   5.914  -4.761  0.00  0.00    -0.075 A 
ATOM      2  C2  N4B d   1       0.896   5.968  -3.351  0.00  0.00     0.002 A 
ATOM      3  C3  N4B d   1      -0.260   5.993  -2.611  0.00  0.00     0.002 A 
ATOM      4  C4  N4B d   1      -1.488   5.985  -3.257  0.00  0.00    -0.004 A 
ATOM      5  C5  N4B d   1      -1.542   5.908  -4.618  0.00  0.00     0.002 A 
ATOM      6  C6  N4B d   1      -0.387   5.878  -5.374  0.00  0.00     0.002 A 
ENDROOT
BRANCH   1   7
ATOM      7  C1' N4B d   1       2.068   5.971  -5.616  0.00  0.00     0.057 C 
BRANCH   7   8
ATOM      8  C2' N4B d   1       3.299   5.996  -4.714  0.00  0.00     0.009 C 
BRANCH   8   9
ATOM      9  C3' N4B d   1       4.590   5.992  -5.515  0.00  0.00     0.004 C 
ATOM     10  C4' N4B d   1       5.812   5.987  -4.646  0.00  0.00     0.003 C 
ENDBRANCH   8   9
ENDBRANCH   7   8
ENDBRANCH   1   7
TORSDOF 3
ENDMDL
