MODEL 1
REMARK minimizedAffinity -3.27174878
REMARK minimizedRMSD -1
REMARK  3 active torsions:
REMARK  status: ('A' for Active; 'I' for Inactive)
REMARK    1  A    between atoms: C3'_2  and  C2'_3 
REMARK    2  A    between atoms: C2'_3  and  C1'_4 
REMARK    3  A    between atoms: C1'_4  and  C1_5 
ROOT
ATOM      1  C1  N4B d   1       3.403   5.557  -5.265  0.00  0.00    -0.075 A 
ATOM      2  C2  N4B d   1       3.539   4.782  -4.093  0.00  0.00     0.002 A 
ATOM      3  C3  N4B d   1       4.790   4.469  -3.618  0.00  0.00     0.002 A 
ATOM      4  C4  N4B d   1       5.913   4.903  -4.307  0.00  0.00    -0.004 A 
ATOM      5  C5  N4B d   1       5.772   5.673  -5.424  0.00  0.00     0.002 A 
ATOM      6  C6  N4B d   1       4.522   5.998  -5.910  0.00  0.00     0.002 A 
ENDROOT
BRANCH   1   7
ATOM      7  C1' N4B d   1       2.058   5.852  -5.870  0.00  0.00     0.057 C 
BRANCH   7   8
ATOM      8  C2' N4B d   1       0.981   5.111  -5.083  0.00  0.00     0.009 C 
BRANCH   8   9
ATOM      9  C3' N4B d   1       0.326   6.000  -4.041  0.00  0.00     0.004 C 
ATOM     10  C4' N4B d   1      -1.172   5.952  -4.095  0.00  0.00     0.003 C 
ENDBRANCH   8   9
ENDBRANCH   7   8
ENDBRANCH   1   7
TORSDOF 3
ENDMDL
