MODEL 1
REMARK minimizedAffinity 7.36090612
REMARK minimizedRMSD -1
REMARK  3 active torsions:
REMARK  status: ('A' for Active; 'I' for Inactive)
REMARK    1  A    between atoms: C3'_2  and  C2'_3 
REMARK    2  A    between atoms: C2'_3  and  C1'_4 
REMARK    3  A    between atoms: C1'_4  and  C1_5 
ROOT
ATOM      1  C1  N4B d   1       0.996   0.420   0.500  0.00  0.00    -0.075 A 
ATOM      2  C2  N4B d   1       1.850   1.115   1.384  0.00  0.00     0.002 A 
ATOM      3  C3  N4B d   1       2.283   2.380   1.069  0.00  0.00     0.002 A 
ATOM      4  C4  N4B d   1       1.892   2.959  -0.129  0.00  0.00    -0.004 A 
ATOM      5  C5  N4B d   1       1.047   2.292  -0.966  0.00  0.00     0.002 A 
ATOM      6  C6  N4B d   1       0.600   1.022  -0.660  0.00  0.00     0.002 A 
ENDROOT
BRANCH   1   7
ATOM      7  C1' N4B d   1       0.565  -0.997   0.761  0.00  0.00     0.057 C 
BRANCH   7   8
ATOM      8  C2' N4B d   1      -0.705  -0.987   1.606  0.00  0.00     0.009 C 
BRANCH   8   9
ATOM      9  C3' N4B d   1      -0.587  -0.054   2.799  0.00  0.00     0.004 C 
ATOM     10  C4' N4B d   1      -1.600  -0.345   3.866  0.00  0.00     0.003 C 
ENDBRANCH   8   9
ENDBRANCH   7   8
ENDBRANCH   1   7
TORSDOF 3
ENDMDL
