MODEL 1
REMARK minimizedAffinity -1.94782054
REMARK minimizedRMSD -1
REMARK  3 active torsions:
REMARK  status: ('A' for Active; 'I' for Inactive)
REMARK    1  A    between atoms: C3'_2  and  C2'_3 
REMARK    2  A    between atoms: C2'_3  and  C1'_4 
REMARK    3  A    between atoms: C1'_4  and  C1_5 
ROOT
ATOM      1  C1  N4B d   1      -0.567   5.936  -4.763  0.00  0.00    -0.075 A 
ATOM      2  C2  N4B d   1      -0.067   5.929  -3.442  0.00  0.00     0.002 A 
ATOM      3  C3  N4B d   1      -0.935   5.951  -2.379  0.00  0.00     0.002 A 
ATOM      4  C4  N4B d   1      -2.302   5.999  -2.610  0.00  0.00    -0.004 A 
ATOM      5  C5  N4B d   1      -2.778   5.980  -3.889  0.00  0.00     0.002 A 
ATOM      6  C6  N4B d   1      -1.916   5.953  -4.967  0.00  0.00     0.002 A 
ENDROOT
BRANCH   1   7
ATOM      7  C1' N4B d   1       0.345   5.999  -5.957  0.00  0.00     0.057 C 
BRANCH   7   8
ATOM      8  C2' N4B d   1       1.562   5.114  -5.705  0.00  0.00     0.009 C 
BRANCH   8   9
ATOM      9  C3' N4B d   1       2.700   5.883  -5.057  0.00  0.00     0.004 C 
ATOM     10  C4' N4B d   1       3.905   5.995  -5.944  0.00  0.00     0.003 C 
ENDBRANCH   8   9
ENDBRANCH   7   8
ENDBRANCH   1   7
TORSDOF 3
ENDMDL
