MODEL 1
REMARK minimizedAffinity 2.36469388
REMARK minimizedRMSD -1
REMARK  3 active torsions:
REMARK  status: ('A' for Active; 'I' for Inactive)
REMARK    1  A    between atoms: C3'_2  and  C2'_3 
REMARK    2  A    between atoms: C2'_3  and  C1'_4 
REMARK    3  A    between atoms: C1'_4  and  C1_5 
ROOT
ATOM      1  C1  N4B d   1       0.959   0.547   0.522  0.00  0.00    -0.075 A 
ATOM      2  C2  N4B d   1       0.777   1.237  -0.697  0.00  0.00     0.002 A 
ATOM      3  C3  N4B d   1       1.481   2.390  -0.945  0.00  0.00     0.002 A 
ATOM      4  C4  N4B d   1       2.354   2.880   0.015  0.00  0.00    -0.004 A 
ATOM      5  C5  N4B d   1       2.543   2.194   1.179  0.00  0.00     0.002 A 
ATOM      6  C6  N4B d   1       1.845   1.032   1.440  0.00  0.00     0.002 A 
ENDROOT
BRANCH   1   7
ATOM      7  C1' N4B d   1       0.148  -0.670   0.874  0.00  0.00     0.057 C 
BRANCH   7   8
ATOM      8  C2' N4B d   1      -1.260  -0.237   1.270  0.00  0.00     0.009 C 
BRANCH   8   9
ATOM      9  C3' N4B d   1      -1.348   0.138   2.739  0.00  0.00     0.004 C 
ATOM     10  C4' N4B d   1      -2.652   0.788   3.096  0.00  0.00     0.003 C 
ENDBRANCH   8   9
ENDBRANCH   7   8
ENDBRANCH   1   7
TORSDOF 3
ENDMDL
