MODEL 1
REMARK minimizedAffinity -3.7675674
REMARK minimizedRMSD -1
REMARK  0 active torsions:
REMARK  status: ('A' for Active; 'I' for Inactive)
ROOT
ATOM      1  C   UNL d   1       0.964  -0.416  -0.394  0.00  0.00     0.172 C 
ATOM      2  N   UNL d   1      -0.071   0.283   0.332  0.00  0.00    -0.070 N 
ATOM      3  C1  UNL d   1      -0.749   1.387  -0.111  0.00  0.00    -0.004 A 
ATOM      4  C2  UNL d   1      -1.649   1.749   0.868  0.00  0.00    -0.047 A 
ATOM      5  C3  UNL d   1      -1.506   0.832   1.936  0.00  0.00    -0.047 A 
ATOM      6  C4  UNL d   1      -0.522  -0.065   1.577  0.00  0.00    -0.004 A 
ENDROOT
TORSDOF 0
ENDMDL
