MODEL 1
REMARK minimizedAffinity -3.92318249
REMARK minimizedRMSD -1
REMARK  0 active torsions:
REMARK  status: ('A' for Active; 'I' for Inactive)
ROOT
ATOM      1  C   UNL d   1       0.768  -0.499  -0.254  0.00  0.00     0.172 C 
ATOM      2  N   UNL d   1      -0.287   0.205   0.436  0.00  0.00    -0.070 N 
ATOM      3  C1  UNL d   1      -0.962  -0.250   1.538  0.00  0.00    -0.004 A 
ATOM      4  C2  UNL d   1      -1.885   0.710   1.893  0.00  0.00    -0.047 A 
ATOM      5  C3  UNL d   1      -1.761   1.778   0.973  0.00  0.00    -0.047 A 
ATOM      6  C4  UNL d   1      -0.765   1.439   0.082  0.00  0.00    -0.004 A 
ENDROOT
TORSDOF 0
ENDMDL
