MODEL 1
REMARK minimizedAffinity -2.20852804
REMARK minimizedRMSD -1
REMARK  0 active torsions:
REMARK  status: ('A' for Active; 'I' for Inactive)
ROOT
ATOM      1  C   UNL d   1       0.329   2.245  -1.508  0.00  0.00     0.172 C 
ATOM      2  N   UNL d   1       0.196   0.993  -0.802  0.00  0.00    -0.070 N 
ATOM      3  C1  UNL d   1      -0.632   0.762   0.264  0.00  0.00    -0.004 A 
ATOM      4  C2  UNL d   1      -0.467  -0.551   0.649  0.00  0.00    -0.047 A 
ATOM      5  C3  UNL d   1       0.493  -1.129  -0.216  0.00  0.00    -0.047 A 
ATOM      6  C4  UNL d   1       0.886  -0.151  -1.104  0.00  0.00    -0.004 A 
ENDROOT
TORSDOF 0
ENDMDL
