MODEL 1
REMARK minimizedAffinity -3.16260624
REMARK minimizedRMSD -1
REMARK  0 active torsions:
REMARK  status: ('A' for Active; 'I' for Inactive)
ROOT
ATOM      1  C   UNL d   1      -1.884   2.012   1.304  0.00  0.00     0.172 C 
ATOM      2  N   UNL d   1      -0.990   0.995   0.803  0.00  0.00    -0.070 N 
ATOM      3  C1  UNL d   1      -0.545   0.889  -0.487  0.00  0.00    -0.004 A 
ATOM      4  C2  UNL d   1       0.286  -0.208  -0.558  0.00  0.00    -0.047 A 
ATOM      5  C3  UNL d   1       0.342  -0.782   0.734  0.00  0.00    -0.047 A 
ATOM      6  C4  UNL d   1      -0.457  -0.017   1.558  0.00  0.00    -0.004 A 
ENDROOT
TORSDOF 0
ENDMDL
