MODEL 1
REMARK minimizedAffinity -2.3943541
REMARK minimizedRMSD -1
REMARK  0 active torsions:
REMARK  status: ('A' for Active; 'I' for Inactive)
ROOT
ATOM      1  C   UNL d   1       0.738  -0.743  -0.737  0.00  0.00     0.172 C 
ATOM      2  N   UNL d   1      -0.157   0.020   0.100  0.00  0.00    -0.070 N 
ATOM      3  C1  UNL d   1      -1.118   0.889  -0.343  0.00  0.00    -0.004 A 
ATOM      4  C2  UNL d   1      -1.755   1.413   0.761  0.00  0.00    -0.047 A 
ATOM      5  C3  UNL d   1      -1.156   0.840   1.907  0.00  0.00    -0.047 A 
ATOM      6  C4  UNL d   1      -0.169  -0.018   1.470  0.00  0.00    -0.004 A 
ENDROOT
TORSDOF 0
ENDMDL
