MODEL 1
REMARK minimizedAffinity -2.83160043
REMARK minimizedRMSD -1
REMARK  0 active torsions:
REMARK  status: ('A' for Active; 'I' for Inactive)
ROOT
ATOM      1  C   UNL d   1       0.628   0.191  -1.073  0.00  0.00     0.172 C 
ATOM      2  N   UNL d   1      -0.280   0.613  -0.031  0.00  0.00    -0.070 N 
ATOM      3  C1  UNL d   1      -0.350   0.082   1.229  0.00  0.00    -0.004 A 
ATOM      4  C2  UNL d   1      -1.338   0.755   1.916  0.00  0.00    -0.047 A 
ATOM      5  C3  UNL d   1      -1.880   1.723   1.037  0.00  0.00    -0.047 A 
ATOM      6  C4  UNL d   1      -1.207   1.613  -0.161  0.00  0.00    -0.004 A 
ENDROOT
TORSDOF 0
ENDMDL
