MODEL 1
REMARK minimizedAffinity -2.78152037
REMARK minimizedRMSD -1
REMARK  0 active torsions:
REMARK  status: ('A' for Active; 'I' for Inactive)
ROOT
ATOM      1  C   UNL d   1       0.602  -0.735  -0.650  0.00  0.00     0.172 C 
ATOM      2  N   UNL d   1      -0.273   0.164   0.065  0.00  0.00    -0.070 N 
ATOM      3  C1  UNL d   1      -0.760   1.352  -0.411  0.00  0.00    -0.004 A 
ATOM      4  C2  UNL d   1      -1.554   1.907   0.569  0.00  0.00    -0.047 A 
ATOM      5  C3  UNL d   1      -1.544   1.022   1.673  0.00  0.00    -0.047 A 
ATOM      6  C4  UNL d   1      -0.744  -0.048   1.334  0.00  0.00    -0.004 A 
ENDROOT
TORSDOF 0
ENDMDL
