MODEL 1
REMARK minimizedAffinity -4.17731094
REMARK minimizedRMSD -1
REMARK  0 active torsions:
REMARK  status: ('A' for Active; 'I' for Inactive)
ROOT
ATOM      1  C   UNL d   1       0.395  -0.180  -0.571  0.00  0.00     0.172 C 
ATOM      2  N   UNL d   1      -0.374   0.946  -0.095  0.00  0.00    -0.070 N 
ATOM      3  C1  UNL d   1      -1.172   0.955   1.018  0.00  0.00    -0.004 A 
ATOM      4  C2  UNL d   1      -1.728   2.211   1.129  0.00  0.00    -0.047 A 
ATOM      5  C3  UNL d   1      -1.248   2.984   0.044  0.00  0.00    -0.047 A 
ATOM      6  C4  UNL d   1      -0.412   2.176  -0.697  0.00  0.00    -0.004 A 
ENDROOT
TORSDOF 0
ENDMDL
