MODEL 1
REMARK minimizedAffinity -2.59823608
REMARK minimizedRMSD -1
REMARK  0 active torsions:
REMARK  status: ('A' for Active; 'I' for Inactive)
ROOT
ATOM      1  C   UNL d   1      -2.774   1.500   0.000  0.00  0.00     0.172 C 
ATOM      2  N   UNL d   1      -1.528   0.969   0.502  0.00  0.00    -0.070 N 
ATOM      3  C1  UNL d   1      -1.125   0.979   1.810  0.00  0.00    -0.004 A 
ATOM      4  C2  UNL d   1       0.115   0.381   1.875  0.00  0.00    -0.047 A 
ATOM      5  C3  UNL d   1       0.470  -0.000   0.559  0.00  0.00    -0.047 A 
ATOM      6  C4  UNL d   1      -0.565   0.376  -0.271  0.00  0.00    -0.004 A 
ENDROOT
TORSDOF 0
ENDMDL
