MODEL 1
REMARK minimizedAffinity -3.88679814
REMARK minimizedRMSD -1
REMARK  0 active torsions:
REMARK  status: ('A' for Active; 'I' for Inactive)
ROOT
ATOM      1  C   UNL d   1       0.816   0.006  -0.403  0.00  0.00     0.172 C 
ATOM      2  N   UNL d   1       0.045   1.077   0.184  0.00  0.00    -0.070 N 
ATOM      3  C1  UNL d   1       0.044   2.381  -0.235  0.00  0.00    -0.004 A 
ATOM      4  C2  UNL d   1      -0.818   3.084   0.579  0.00  0.00    -0.047 A 
ATOM      5  C3  UNL d   1      -1.352   2.171   1.519  0.00  0.00    -0.047 A 
ATOM      6  C4  UNL d   1      -0.801   0.936   1.252  0.00  0.00    -0.004 A 
ENDROOT
TORSDOF 0
ENDMDL
