MODEL 1
REMARK minimizedAffinity -4.13232231
REMARK minimizedRMSD -1
REMARK  0 active torsions:
REMARK  status: ('A' for Active; 'I' for Inactive)
ROOT
ATOM      1  C   UNL d   1       0.481   0.001  -0.499  0.00  0.00     0.172 C 
ATOM      2  N   UNL d   1      -0.290   1.139  -0.056  0.00  0.00    -0.070 N 
ATOM      3  C1  UNL d   1      -0.216   2.404  -0.575  0.00  0.00    -0.004 A 
ATOM      4  C2  UNL d   1      -1.106   3.196   0.117  0.00  0.00    -0.047 A 
ATOM      5  C3  UNL d   1      -1.735   2.380   1.087  0.00  0.00    -0.047 A 
ATOM      6  C4  UNL d   1      -1.211   1.111   0.957  0.00  0.00    -0.004 A 
ENDROOT
TORSDOF 0
ENDMDL
