MODEL 1
REMARK minimizedAffinity -3.37486291
REMARK minimizedRMSD -1
REMARK  0 active torsions:
REMARK  status: ('A' for Active; 'I' for Inactive)
ROOT
ATOM      1  C   UNL d   1       0.835  -0.088  -0.255  0.00  0.00     0.172 C 
ATOM      2  N   UNL d   1      -0.343   0.337   0.464  0.00  0.00    -0.070 N 
ATOM      3  C1  UNL d   1      -0.810  -0.211   1.628  0.00  0.00    -0.004 A 
ATOM      4  C2  UNL d   1      -1.950   0.473   1.990  0.00  0.00    -0.047 A 
ATOM      5  C3  UNL d   1      -2.177   1.467   1.009  0.00  0.00    -0.047 A 
ATOM      6  C4  UNL d   1      -1.167   1.360   0.075  0.00  0.00    -0.004 A 
ENDROOT
TORSDOF 0
ENDMDL
