MODEL 1
REMARK minimizedAffinity -3.43914175
REMARK minimizedRMSD -1
REMARK  0 active torsions:
REMARK  status: ('A' for Active; 'I' for Inactive)
ROOT
ATOM      1  C   UNL d   1      -1.829   1.753   1.332  0.00  0.00     0.172 C 
ATOM      2  N   UNL d   1      -0.811   0.876   0.802  0.00  0.00    -0.070 N 
ATOM      3  C1  UNL d   1      -0.308  -0.233   1.428  0.00  0.00    -0.004 A 
ATOM      4  C2  UNL d   1       0.639  -0.793   0.598  0.00  0.00    -0.047 A 
ATOM      5  C3  UNL d   1       0.708   0.008  -0.567  0.00  0.00    -0.047 A 
ATOM      6  C4  UNL d   1      -0.201   1.034  -0.414  0.00  0.00    -0.004 A 
ENDROOT
TORSDOF 0
ENDMDL
