MODEL 1
REMARK minimizedAffinity -3.06279874
REMARK minimizedRMSD -1
REMARK  0 active torsions:
REMARK  status: ('A' for Active; 'I' for Inactive)
ROOT
ATOM      1  C   UNL d   1      -2.243   2.309   1.560  0.00  0.00     0.172 C 
ATOM      2  N   UNL d   1      -1.194   1.373   1.232  0.00  0.00    -0.070 N 
ATOM      3  C1  UNL d   1      -0.577   1.261   0.014  0.00  0.00    -0.004 A 
ATOM      4  C2  UNL d   1       0.363   0.257   0.108  0.00  0.00    -0.047 A 
ATOM      5  C3  UNL d   1       0.308  -0.252   1.427  0.00  0.00    -0.047 A 
ATOM      6  C4  UNL d   1      -0.664   0.456   2.101  0.00  0.00    -0.004 A 
ENDROOT
TORSDOF 0
ENDMDL
