MODEL 1
REMARK minimizedAffinity -3.62622738
REMARK minimizedRMSD -1
REMARK  0 active torsions:
REMARK  status: ('A' for Active; 'I' for Inactive)
ROOT
ATOM      1  C   UNL d   1       0.026  -0.101  -0.731  0.00  0.00     0.172 C 
ATOM      2  N   UNL d   1      -0.703   0.823   0.106  0.00  0.00    -0.070 N 
ATOM      3  C1  UNL d   1      -1.509   1.837  -0.338  0.00  0.00    -0.004 A 
ATOM      4  C2  UNL d   1      -2.019   2.485   0.766  0.00  0.00    -0.047 A 
ATOM      5  C3  UNL d   1      -1.501   1.838   1.913  0.00  0.00    -0.047 A 
ATOM      6  C4  UNL d   1      -0.690   0.813   1.476  0.00  0.00    -0.004 A 
ENDROOT
TORSDOF 0
ENDMDL
