MODEL 1
REMARK minimizedAffinity -2.0875392
REMARK minimizedRMSD -1
REMARK  0 active torsions:
REMARK  status: ('A' for Active; 'I' for Inactive)
ROOT
ATOM      1  C   UNL d   1       0.534  -0.177  -2.256  0.00  0.00     0.020 A 
ATOM      2  C1  UNL d   1       0.344  -1.275  -1.418  0.00  0.00     0.020 A 
ATOM      3  C2  UNL d   1       0.061  -1.080  -0.065  0.00  0.00     0.034 A 
ATOM      4  C3  UNL d   1      -0.033   0.216   0.455  0.00  0.00     0.017 A 
ATOM      5  C4  UNL d   1       0.158   1.318  -0.386  0.00  0.00     0.017 A 
ATOM      6  C5  UNL d   1       0.441   1.117  -1.741  0.00  0.00     0.034 A 
ATOM      7 Cl   UNL d   1       0.059   2.947   0.182  0.00  0.00    -0.070 Cl
ATOM      8 Cl1  UNL d   1      -0.385   0.383   2.139  0.00  0.00    -0.070 Cl
ENDROOT
TORSDOF 0
ENDMDL
