MODEL 1
REMARK minimizedAffinity -3.26964784
REMARK minimizedRMSD -1
REMARK  0 active torsions:
REMARK  status: ('A' for Active; 'I' for Inactive)
ROOT
ATOM      1  C   UNL d   1       0.651  -2.451  -0.536  0.00  0.00     0.020 A 
ATOM      2  C1  UNL d   1      -0.093  -3.080   0.461  0.00  0.00     0.020 A 
ATOM      3  C2  UNL d   1      -0.837  -2.318   1.363  0.00  0.00     0.034 A 
ATOM      4  C3  UNL d   1      -0.839  -0.921   1.271  0.00  0.00     0.017 A 
ATOM      5  C4  UNL d   1      -0.092  -0.290   0.270  0.00  0.00     0.017 A 
ATOM      6  C5  UNL d   1       0.651  -1.059  -0.632  0.00  0.00     0.034 A 
ATOM      7 Cl   UNL d   1      -0.045   1.429   0.092  0.00  0.00    -0.070 Cl
ATOM      8 Cl1  UNL d   1      -1.782  -0.041   2.420  0.00  0.00    -0.070 Cl
ENDROOT
TORSDOF 0
ENDMDL
