MODEL 1
REMARK minimizedAffinity -3.8839767
REMARK minimizedRMSD -1
REMARK  0 active torsions:
REMARK  status: ('A' for Active; 'I' for Inactive)
ROOT
ATOM      1  C   UNL d   1      -0.081   1.141   0.023  0.00  0.00     0.020 A 
ATOM      2  C1  UNL d   1      -0.264   0.514   1.254  0.00  0.00     0.020 A 
ATOM      3  C2  UNL d   1      -0.163  -0.876   1.352  0.00  0.00     0.034 A 
ATOM      4  C3  UNL d   1       0.121  -1.642   0.216  0.00  0.00     0.017 A 
ATOM      5  C4  UNL d   1       0.305  -1.011  -1.020  0.00  0.00     0.017 A 
ATOM      6  C5  UNL d   1       0.203   0.380  -1.112  0.00  0.00     0.034 A 
ATOM      7 Cl   UNL d   1       0.658  -1.890  -2.466  0.00  0.00    -0.070 Cl
ATOM      8 Cl1  UNL d   1       0.231  -3.356   0.410  0.00  0.00    -0.070 Cl
ENDROOT
TORSDOF 0
ENDMDL
