MODEL 1
REMARK minimizedAffinity -4.13936281
REMARK minimizedRMSD -1
REMARK  0 active torsions:
REMARK  status: ('A' for Active; 'I' for Inactive)
ROOT
ATOM      1  C   UNL d   1       0.703  -2.803   0.510  0.00  0.00     0.020 A 
ATOM      2  C1  UNL d   1      -0.634  -3.040   0.825  0.00  0.00     0.020 A 
ATOM      3  C2  UNL d   1      -1.540  -1.978   0.870  0.00  0.00     0.034 A 
ATOM      4  C3  UNL d   1      -1.110  -0.674   0.599  0.00  0.00     0.017 A 
ATOM      5  C4  UNL d   1       0.233  -0.437   0.283  0.00  0.00     0.017 A 
ATOM      6  C5  UNL d   1       1.136  -1.504   0.240  0.00  0.00     0.034 A 
ATOM      7 Cl   UNL d   1       0.838   1.145  -0.063  0.00  0.00    -0.070 Cl
ATOM      8 Cl1  UNL d   1      -2.284   0.591   0.672  0.00  0.00    -0.070 Cl
ENDROOT
TORSDOF 0
ENDMDL
