MODEL 1
REMARK minimizedAffinity -4.87731457
REMARK minimizedRMSD -1
REMARK  0 active torsions:
REMARK  status: ('A' for Active; 'I' for Inactive)
ROOT
ATOM      1  C   UNL d   1      -0.126  -3.107   0.071  0.00  0.00     0.020 A 
ATOM      2  C1  UNL d   1       0.602  -2.616  -1.012  0.00  0.00     0.020 A 
ATOM      3  C2  UNL d   1       0.768  -1.240  -1.176  0.00  0.00     0.034 A 
ATOM      4  C3  UNL d   1       0.204  -0.348  -0.255  0.00  0.00     0.017 A 
ATOM      5  C4  UNL d   1      -0.527  -0.842   0.831  0.00  0.00     0.017 A 
ATOM      6  C5  UNL d   1      -0.689  -2.222   0.991  0.00  0.00     0.034 A 
ATOM      7 Cl   UNL d   1      -1.252   0.195   2.009  0.00  0.00    -0.070 Cl
ATOM      8 Cl1  UNL d   1       0.449   1.341  -0.520  0.00  0.00    -0.070 Cl
ENDROOT
TORSDOF 0
ENDMDL
