MODEL 1
REMARK minimizedAffinity -4.31237459
REMARK minimizedRMSD -1
REMARK  0 active torsions:
REMARK  status: ('A' for Active; 'I' for Inactive)
ROOT
ATOM      1  C   UNL d   1      -0.247   0.900  -1.392  0.00  0.00     0.020 A 
ATOM      2  C1  UNL d   1       0.524  -0.032  -2.086  0.00  0.00     0.020 A 
ATOM      3  C2  UNL d   1       0.791  -1.279  -1.517  0.00  0.00     0.034 A 
ATOM      4  C3  UNL d   1       0.288  -1.597  -0.250  0.00  0.00     0.017 A 
ATOM      5  C4  UNL d   1      -0.486  -0.661   0.445  0.00  0.00     0.017 A 
ATOM      6  C5  UNL d   1      -0.751   0.586  -0.129  0.00  0.00     0.034 A 
ATOM      7 Cl   UNL d   1      -1.142  -0.981   2.012  0.00  0.00    -0.070 Cl
ATOM      8 Cl1  UNL d   1       0.658  -3.158   0.393  0.00  0.00    -0.070 Cl
ENDROOT
TORSDOF 0
ENDMDL
