MODEL 1
REMARK minimizedAffinity -4.38193512
REMARK minimizedRMSD -1
REMARK  0 active torsions:
REMARK  status: ('A' for Active; 'I' for Inactive)
ROOT
ATOM      1  C   UNL d   1      -1.299  -1.322   1.635  0.00  0.00     0.020 A 
ATOM      2  C1  UNL d   1      -1.039  -2.488   0.916  0.00  0.00     0.020 A 
ATOM      3  C2  UNL d   1      -0.463  -2.412  -0.353  0.00  0.00     0.034 A 
ATOM      4  C3  UNL d   1      -0.144  -1.168  -0.909  0.00  0.00     0.017 A 
ATOM      5  C4  UNL d   1      -0.406   0.003  -0.187  0.00  0.00     0.017 A 
ATOM      6  C5  UNL d   1      -0.983  -0.079   1.084  0.00  0.00     0.034 A 
ATOM      7 Cl   UNL d   1      -0.041   1.574  -0.807  0.00  0.00    -0.070 Cl
ATOM      8 Cl1  UNL d   1       0.566  -1.149  -2.484  0.00  0.00    -0.070 Cl
ENDROOT
TORSDOF 0
ENDMDL
