MODEL 1
REMARK minimizedAffinity -4.39940786
REMARK minimizedRMSD -1
REMARK  0 active torsions:
REMARK  status: ('A' for Active; 'I' for Inactive)
ROOT
ATOM      1  C   UNL d   1      -0.404  -1.749   1.206  0.00  0.00     0.020 A 
ATOM      2  C1  UNL d   1      -0.638  -0.462   1.688  0.00  0.00     0.020 A 
ATOM      3  C2  UNL d   1      -0.514   0.637   0.835  0.00  0.00     0.034 A 
ATOM      4  C3  UNL d   1      -0.156   0.450  -0.505  0.00  0.00     0.017 A 
ATOM      5  C4  UNL d   1       0.078  -0.842  -0.989  0.00  0.00     0.017 A 
ATOM      6  C5  UNL d   1      -0.047  -1.939  -0.130  0.00  0.00     0.034 A 
ATOM      7 Cl   UNL d   1       0.523  -1.152  -2.630  0.00  0.00    -0.070 Cl
ATOM      8 Cl1  UNL d   1      -0.022   1.854  -1.504  0.00  0.00    -0.070 Cl
ENDROOT
TORSDOF 0
ENDMDL
