MODEL 1
REMARK minimizedAffinity -5.6281004
REMARK minimizedRMSD -1
REMARK  0 active torsions:
REMARK  status: ('A' for Active; 'I' for Inactive)
ROOT
ATOM      1  C   UNL d   1       0.781  -2.948  -0.300  0.00  0.00     0.020 A 
ATOM      2  C1  UNL d   1       0.024  -3.286   0.820  0.00  0.00     0.020 A 
ATOM      3  C2  UNL d   1      -0.853  -2.353   1.378  0.00  0.00     0.034 A 
ATOM      4  C3  UNL d   1      -0.975  -1.078   0.815  0.00  0.00     0.017 A 
ATOM      5  C4  UNL d   1      -0.214  -0.739  -0.310  0.00  0.00     0.017 A 
ATOM      6  C5  UNL d   1       0.662  -1.677  -0.864  0.00  0.00     0.034 A 
ATOM      7 Cl   UNL d   1      -0.310   0.815  -1.060  0.00  0.00    -0.070 Cl
ATOM      8 Cl1  UNL d   1      -2.079   0.025   1.556  0.00  0.00    -0.070 Cl
ENDROOT
TORSDOF 0
ENDMDL
