MODEL 1
REMARK minimizedAffinity -6.16854191
REMARK minimizedRMSD -1
REMARK  0 active torsions:
REMARK  status: ('A' for Active; 'I' for Inactive)
ROOT
ATOM      1  C   UNL d   1       0.337  -2.759  -1.957  0.00  0.00     0.020 A 
ATOM      2  C1  UNL d   1      -0.034  -3.488  -0.828  0.00  0.00     0.020 A 
ATOM      3  C2  UNL d   1      -0.401  -2.822   0.344  0.00  0.00     0.034 A 
ATOM      4  C3  UNL d   1      -0.399  -1.423   0.388  0.00  0.00     0.017 A 
ATOM      5  C4  UNL d   1      -0.027  -0.692  -0.746  0.00  0.00     0.017 A 
ATOM      6  C5  UNL d   1       0.340  -1.364  -1.916  0.00  0.00     0.034 A 
ATOM      7 Cl   UNL d   1       0.000   1.036  -0.768  0.00  0.00    -0.070 Cl
ATOM      8 Cl1  UNL d   1      -0.865  -0.665   1.869  0.00  0.00    -0.070 Cl
ENDROOT
TORSDOF 0
ENDMDL
