MODEL 1
REMARK minimizedAffinity -4.84845114
REMARK minimizedRMSD -1
REMARK  0 active torsions:
REMARK  status: ('A' for Active; 'I' for Inactive)
ROOT
ATOM      1  C   UNL d   1       0.863  -2.652  -1.318  0.00  0.00     0.020 A 
ATOM      2  C1  UNL d   1       0.328  -3.196  -0.151  0.00  0.00     0.020 A 
ATOM      3  C2  UNL d   1      -0.326  -2.373   0.768  0.00  0.00     0.034 A 
ATOM      4  C3  UNL d   1      -0.446  -1.000   0.521  0.00  0.00     0.017 A 
ATOM      5  C4  UNL d   1       0.091  -0.455  -0.650  0.00  0.00     0.017 A 
ATOM      6  C5  UNL d   1       0.745  -1.284  -1.567  0.00  0.00     0.034 A 
ATOM      7 Cl   UNL d   1      -0.018   1.229  -1.024  0.00  0.00    -0.070 Cl
ATOM      8 Cl1  UNL d   1      -1.268  -0.041   1.700  0.00  0.00    -0.070 Cl
ENDROOT
TORSDOF 0
ENDMDL
