MODEL 1
REMARK minimizedAffinity -3.61560059
REMARK minimizedRMSD -1
REMARK  0 active torsions:
REMARK  status: ('A' for Active; 'I' for Inactive)
ROOT
ATOM      1  C   UNL d   1       0.395  -2.893   0.795  0.00  0.00     0.020 A 
ATOM      2  C1  UNL d   1       1.405  -2.397  -0.028  0.00  0.00     0.020 A 
ATOM      3  C2  UNL d   1       1.355  -1.076  -0.476  0.00  0.00     0.034 A 
ATOM      4  C3  UNL d   1       0.292  -0.246  -0.102  0.00  0.00     0.017 A 
ATOM      5  C4  UNL d   1      -0.722  -0.744   0.724  0.00  0.00     0.017 A 
ATOM      6  C5  UNL d   1      -0.666  -2.068   1.170  0.00  0.00     0.034 A 
ATOM      7 Cl   UNL d   1      -2.065   0.219   1.228  0.00  0.00    -0.070 Cl
ATOM      8 Cl1  UNL d   1       0.293   1.378  -0.694  0.00  0.00    -0.070 Cl
ENDROOT
TORSDOF 0
ENDMDL
