MODEL 1
REMARK minimizedAffinity -4.55259228
REMARK minimizedRMSD -1
REMARK  0 active torsions:
REMARK  status: ('A' for Active; 'I' for Inactive)
ROOT
ATOM      1  C   UNL d   1      -0.149   0.912  -1.477  0.00  0.00     0.020 A 
ATOM      2  C1  UNL d   1       0.446  -0.169  -2.126  0.00  0.00     0.020 A 
ATOM      3  C2  UNL d   1       0.589  -1.389  -1.461  0.00  0.00     0.034 A 
ATOM      4  C3  UNL d   1       0.138  -1.530  -0.144  0.00  0.00     0.017 A 
ATOM      5  C4  UNL d   1      -0.459  -0.444   0.506  0.00  0.00     0.017 A 
ATOM      6  C5  UNL d   1      -0.601   0.775  -0.164  0.00  0.00     0.034 A 
ATOM      7 Cl   UNL d   1      -1.041  -0.543   2.131  0.00  0.00    -0.070 Cl
ATOM      8 Cl1  UNL d   1       0.348  -3.068   0.616  0.00  0.00    -0.070 Cl
ENDROOT
TORSDOF 0
ENDMDL
