MODEL 1
REMARK minimizedAffinity -3.42526817
REMARK minimizedRMSD -1
REMARK  0 active torsions:
REMARK  status: ('A' for Active; 'I' for Inactive)
ROOT
ATOM      1  C   UNL d   1       0.778  -2.144  -0.313  0.00  0.00     0.020 A 
ATOM      2  C1  UNL d   1      -0.236  -2.764   0.416  0.00  0.00     0.020 A 
ATOM      3  C2  UNL d   1      -1.044  -2.010   1.270  0.00  0.00     0.034 A 
ATOM      4  C3  UNL d   1      -0.839  -0.631   1.397  0.00  0.00     0.017 A 
ATOM      5  C4  UNL d   1       0.179  -0.009   0.665  0.00  0.00     0.017 A 
ATOM      6  C5  UNL d   1       0.985  -0.770  -0.188  0.00  0.00     0.034 A 
ATOM      7 Cl   UNL d   1       0.493   1.687   0.769  0.00  0.00    -0.070 Cl
ATOM      8 Cl1  UNL d   1      -1.876   0.240   2.470  0.00  0.00    -0.070 Cl
ENDROOT
TORSDOF 0
ENDMDL
