MODEL 1
REMARK minimizedAffinity 4.0982728
REMARK minimizedRMSD -1
REMARK  0 active torsions:
REMARK  status: ('A' for Active; 'I' for Inactive)
ROOT
ATOM      1  C   UNL d   1      -5.138  -5.999  -5.689  0.00  0.00     0.023 A 
ATOM      2  C1  UNL d   1      -6.000  -4.948  -6.000  0.00  0.00     0.003 A 
ATOM      3  C2  UNL d   1      -5.721  -3.657  -5.545  0.00  0.00     0.048 A 
ATOM      4  C3  UNL d   1      -4.578  -3.425  -4.780  0.00  0.00     0.023 A 
ATOM      5  C4  UNL d   1      -3.713  -4.475  -4.467  0.00  0.00     0.048 A 
ATOM      6  C5  UNL d   1      -3.996  -5.763  -4.924  0.00  0.00     0.003 A 
ATOM      7  I   UNL d   1      -4.162  -1.505  -4.102  0.00  0.00    -0.146 I 
ENDROOT
TORSDOF 0
ENDMDL
