MODEL 1
REMARK minimizedAffinity 7.51951885
REMARK minimizedRMSD -1
REMARK  0 active torsions:
REMARK  status: ('A' for Active; 'I' for Inactive)
ROOT
ATOM      1  C   UNL d   1      -2.641   1.512  -1.586  0.00  0.00     0.023 A 
ATOM      2  C1  UNL d   1      -3.020   1.992  -2.840  0.00  0.00     0.003 A 
ATOM      3  C2  UNL d   1      -3.979   3.002  -2.942  0.00  0.00     0.048 A 
ATOM      4  C3  UNL d   1      -4.555   3.527  -1.786  0.00  0.00     0.023 A 
ATOM      5  C4  UNL d   1      -4.179   3.051  -0.530  0.00  0.00     0.048 A 
ATOM      6  C5  UNL d   1      -3.220   2.041  -0.432  0.00  0.00     0.003 A 
ATOM      7  I   UNL d   1      -5.983   5.030  -1.936  0.00  0.00    -0.146 I 
ENDROOT
TORSDOF 0
ENDMDL
