MODEL 1
REMARK minimizedAffinity -0.215007603
REMARK minimizedRMSD -1
REMARK  0 active torsions:
REMARK  status: ('A' for Active; 'I' for Inactive)
ROOT
ATOM      1  C   UNL d   1       3.476   4.247  -2.209  0.00  0.00     0.023 A 
ATOM      2  C1  UNL d   1       4.661   4.952  -1.997  0.00  0.00     0.003 A 
ATOM      3  C2  UNL d   1       5.386   5.445  -3.084  0.00  0.00     0.048 A 
ATOM      4  C3  UNL d   1       4.920   5.229  -4.380  0.00  0.00     0.023 A 
ATOM      5  C4  UNL d   1       3.735   4.525  -4.598  0.00  0.00     0.048 A 
ATOM      6  C5  UNL d   1       3.014   4.033  -3.508  0.00  0.00     0.003 A 
ATOM      7  I   UNL d   1       5.998   5.961  -6.000  0.00  0.00    -0.146 I 
ENDROOT
TORSDOF 0
ENDMDL
