MODEL 1
REMARK minimizedAffinity 16.8919029
REMARK minimizedRMSD -1
REMARK  0 active torsions:
REMARK  status: ('A' for Active; 'I' for Inactive)
ROOT
ATOM      1  C   UNL d   1       2.689   5.311  -2.464  0.00  0.00     0.023 A 
ATOM      2  C1  UNL d   1       2.951   4.127  -1.773  0.00  0.00     0.003 A 
ATOM      3  C2  UNL d   1       2.020   3.629  -0.859  0.00  0.00     0.048 A 
ATOM      4  C3  UNL d   1       0.828   4.320  -0.641  0.00  0.00     0.023 A 
ATOM      5  C4  UNL d   1       0.561   5.504  -1.330  0.00  0.00     0.048 A 
ATOM      6  C5  UNL d   1       1.495   5.998  -2.242  0.00  0.00     0.003 A 
ATOM      7  I   UNL d   1      -0.560   3.581   0.718  0.00  0.00    -0.146 I 
ENDROOT
TORSDOF 0
ENDMDL
