MODEL 1
REMARK minimizedAffinity 7.71809292
REMARK minimizedRMSD -1
REMARK  0 active torsions:
REMARK  status: ('A' for Active; 'I' for Inactive)
ROOT
ATOM      1  C   UNL d   1       0.815  -2.281   6.000  0.00  0.00     0.023 A 
ATOM      2  C1  UNL d   1       2.002  -2.734   5.425  0.00  0.00     0.003 A 
ATOM      3  C2  UNL d   1       2.319  -2.388   4.110  0.00  0.00     0.048 A 
ATOM      4  C3  UNL d   1       1.444  -1.590   3.375  0.00  0.00     0.023 A 
ATOM      5  C4  UNL d   1       0.254  -1.134   3.946  0.00  0.00     0.048 A 
ATOM      6  C5  UNL d   1      -0.058  -1.482   5.261  0.00  0.00     0.003 A 
ATOM      7  I   UNL d   1       1.913  -1.074   1.417  0.00  0.00    -0.146 I 
ENDROOT
TORSDOF 0
ENDMDL
