MODEL 1
REMARK minimizedAffinity 17.3190804
REMARK minimizedRMSD -1
REMARK  0 active torsions:
REMARK  status: ('A' for Active; 'I' for Inactive)
ROOT
ATOM      1  C   UNL d   1       1.508  -1.232   0.771  0.00  0.00     0.023 A 
ATOM      2  C1  UNL d   1       0.763  -0.424   1.631  0.00  0.00     0.003 A 
ATOM      3  C2  UNL d   1       0.299  -0.936   2.844  0.00  0.00     0.048 A 
ATOM      4  C3  UNL d   1       0.585  -2.256   3.192  0.00  0.00     0.023 A 
ATOM      5  C4  UNL d   1       1.330  -3.067   2.336  0.00  0.00     0.048 A 
ATOM      6  C5  UNL d   1       1.791  -2.551   1.123  0.00  0.00     0.003 A 
ATOM      7  I   UNL d   1      -0.105  -3.020   4.998  0.00  0.00    -0.146 I 
ENDROOT
TORSDOF 0
ENDMDL
