MODEL 1
REMARK minimizedAffinity 16.0944843
REMARK minimizedRMSD -1
REMARK  0 active torsions:
REMARK  status: ('A' for Active; 'I' for Inactive)
ROOT
ATOM      1  C   UNL d   1      -3.371   1.489  -2.246  0.00  0.00     0.023 A 
ATOM      2  C1  UNL d   1      -4.742   1.326  -2.048  0.00  0.00     0.003 A 
ATOM      3  C2  UNL d   1      -5.498   2.365  -1.500  0.00  0.00     0.048 A 
ATOM      4  C3  UNL d   1      -4.877   3.564  -1.155  0.00  0.00     0.023 A 
ATOM      5  C4  UNL d   1      -3.505   3.732  -1.352  0.00  0.00     0.048 A 
ATOM      6  C5  UNL d   1      -2.753   2.690  -1.899  0.00  0.00     0.003 A 
ATOM      7  I   UNL d   1      -6.000   5.112  -0.340  0.00  0.00    -0.146 I 
ENDROOT
TORSDOF 0
ENDMDL
