MODEL 1
REMARK minimizedAffinity 11.4116764
REMARK minimizedRMSD -1
REMARK  0 active torsions:
REMARK  status: ('A' for Active; 'I' for Inactive)
ROOT
ATOM      1  C   UNL d   1      -4.065   4.129   2.149  0.00  0.00     0.023 A 
ATOM      2  C1  UNL d   1      -3.244   3.713   1.100  0.00  0.00     0.003 A 
ATOM      3  C2  UNL d   1      -3.798   3.423  -0.148  0.00  0.00     0.048 A 
ATOM      4  C3  UNL d   1      -5.173   3.553  -0.342  0.00  0.00     0.023 A 
ATOM      5  C4  UNL d   1      -5.998   3.970   0.705  0.00  0.00     0.048 A 
ATOM      6  C5  UNL d   1      -5.440   4.257   1.951  0.00  0.00     0.003 A 
ATOM      7  I   UNL d   1      -6.000   3.122  -2.199  0.00  0.00    -0.146 I 
ENDROOT
TORSDOF 0
ENDMDL
