MODEL 1
REMARK minimizedAffinity 13.2633018
REMARK minimizedRMSD -1
REMARK  0 active torsions:
REMARK  status: ('A' for Active; 'I' for Inactive)
ROOT
ATOM      1  C   UNL d   1       5.279   5.934  -5.804  0.00  0.00     0.023 A 
ATOM      2  C1  UNL d   1       3.886   5.971  -5.766  0.00  0.00     0.003 A 
ATOM      3  C2  UNL d   1       3.208   5.633  -4.593  0.00  0.00     0.048 A 
ATOM      4  C3  UNL d   1       3.931   5.260  -3.460  0.00  0.00     0.023 A 
ATOM      5  C4  UNL d   1       5.326   5.222  -3.493  0.00  0.00     0.048 A 
ATOM      6  C5  UNL d   1       5.999   5.560  -4.669  0.00  0.00     0.003 A 
ATOM      7  I   UNL d   1       2.925   4.756  -1.713  0.00  0.00    -0.146 I 
ENDROOT
TORSDOF 0
ENDMDL
