MODEL 1
REMARK minimizedAffinity 13.762435
REMARK minimizedRMSD -1
REMARK  0 active torsions:
REMARK  status: ('A' for Active; 'I' for Inactive)
ROOT
ATOM      1  C   UNL d   1       0.732  -3.145   3.640  0.00  0.00     0.023 A 
ATOM      2  C1  UNL d   1      -0.015  -2.158   4.282  0.00  0.00     0.003 A 
ATOM      3  C2  UNL d   1       0.070  -0.830   3.859  0.00  0.00     0.048 A 
ATOM      4  C3  UNL d   1       0.904  -0.496   2.792  0.00  0.00     0.023 A 
ATOM      5  C4  UNL d   1       1.653  -1.481   2.146  0.00  0.00     0.048 A 
ATOM      6  C5  UNL d   1       1.565  -2.808   2.573  0.00  0.00     0.003 A 
ATOM      7  I   UNL d   1       1.033   1.480   2.161  0.00  0.00    -0.146 I 
ENDROOT
TORSDOF 0
ENDMDL
