MODEL 1
REMARK minimizedAffinity 2.34182072
REMARK minimizedRMSD -1
REMARK  0 active torsions:
REMARK  status: ('A' for Active; 'I' for Inactive)
ROOT
ATOM      1  C   UNL d   1       0.613  -1.591   4.338  0.00  0.00     0.023 A 
ATOM      2  C1  UNL d   1       1.197  -0.366   4.659  0.00  0.00     0.003 A 
ATOM      3  C2  UNL d   1       1.827   0.389   3.668  0.00  0.00     0.048 A 
ATOM      4  C3  UNL d   1       1.869  -0.087   2.358  0.00  0.00     0.023 A 
ATOM      5  C4  UNL d   1       1.286  -1.313   2.032  0.00  0.00     0.048 A 
ATOM      6  C5  UNL d   1       0.658  -2.064   3.027  0.00  0.00     0.003 A 
ATOM      7  I   UNL d   1       2.807   1.035   0.881  0.00  0.00    -0.146 I 
ENDROOT
TORSDOF 0
ENDMDL
