MODEL 1
REMARK minimizedAffinity 1.98500645
REMARK minimizedRMSD -1
REMARK  0 active torsions:
REMARK  status: ('A' for Active; 'I' for Inactive)
ROOT
ATOM      1  C   UNL d   1       3.359   4.178  -2.031  0.00  0.00     0.023 A 
ATOM      2  C1  UNL d   1       4.064   5.377  -1.917  0.00  0.00     0.003 A 
ATOM      3  C2  UNL d   1       4.748   5.894  -3.019  0.00  0.00     0.048 A 
ATOM      4  C3  UNL d   1       4.724   5.207  -4.232  0.00  0.00     0.023 A 
ATOM      5  C4  UNL d   1       4.020   4.008  -4.351  0.00  0.00     0.048 A 
ATOM      6  C5  UNL d   1       3.337   3.494  -3.246  0.00  0.00     0.003 A 
ATOM      7  I   UNL d   1       5.742   5.974  -5.873  0.00  0.00    -0.146 I 
ENDROOT
TORSDOF 0
ENDMDL
