MODEL 1
REMARK minimizedAffinity 2.59792829
REMARK minimizedRMSD -1
REMARK  0 active torsions:
REMARK  status: ('A' for Active; 'I' for Inactive)
ROOT
ATOM      1  C   UNL d   1       5.999   4.902  -5.999  0.00  0.00     0.023 A 
ATOM      2  C1  UNL d   1       5.993   3.747  -5.217  0.00  0.00     0.003 A 
ATOM      3  C2  UNL d   1       5.211   3.687  -4.062  0.00  0.00     0.048 A 
ATOM      4  C3  UNL d   1       4.436   4.786  -3.694  0.00  0.00     0.023 A 
ATOM      5  C4  UNL d   1       4.438   5.944  -4.473  0.00  0.00     0.048 A 
ATOM      6  C5  UNL d   1       5.222   6.000  -5.627  0.00  0.00     0.003 A 
ATOM      7  I   UNL d   1       3.271   4.699  -1.975  0.00  0.00    -0.146 I 
ENDROOT
TORSDOF 0
ENDMDL
