MODEL 1
REMARK minimizedAffinity 8.33244419
REMARK minimizedRMSD -1
REMARK  0 active torsions:
REMARK  status: ('A' for Active; 'I' for Inactive)
ROOT
ATOM      1  C   UNL d   1       3.745   5.140  -1.748  0.00  0.00     0.023 A 
ATOM      2  C1  UNL d   1       5.002   5.745  -1.759  0.00  0.00     0.003 A 
ATOM      3  C2  UNL d   1       5.649   5.990  -2.971  0.00  0.00     0.048 A 
ATOM      4  C3  UNL d   1       5.034   5.628  -4.169  0.00  0.00     0.023 A 
ATOM      5  C4  UNL d   1       3.776   5.024  -4.163  0.00  0.00     0.048 A 
ATOM      6  C5  UNL d   1       3.132   4.780  -2.948  0.00  0.00     0.003 A 
ATOM      7  I   UNL d   1       5.996   5.992  -5.975  0.00  0.00    -0.146 I 
ENDROOT
TORSDOF 0
ENDMDL
