MODEL 1
REMARK minimizedAffinity -5.85196352
REMARK minimizedRMSD -1
REMARK  0 active torsions:
REMARK  status: ('A' for Active; 'I' for Inactive)
ROOT
ATOM      1  C   UNL d   1       0.981  -0.060  -0.411  0.00  0.00     0.078 C 
ATOM      2  C1  UNL d   1       0.673   0.222   1.029  0.00  0.00    -0.077 A 
ATOM      3  C2  UNL d   1      -0.544   0.804   1.406  0.00  0.00    -0.001 A 
ATOM      4  C3  UNL d   1      -0.813   1.071   2.749  0.00  0.00     0.003 A 
ATOM      5  C4  UNL d   1       0.131   0.760   3.726  0.00  0.00    -0.005 A 
ATOM      6  C5  UNL d   1       1.345   0.183   3.361  0.00  0.00     0.003 A 
ATOM      7  C6  UNL d   1       1.616  -0.084   2.018  0.00  0.00    -0.001 A 
ENDROOT
TORSDOF 0
ENDMDL
