MODEL 1
REMARK minimizedAffinity -1.91294467
REMARK minimizedRMSD -1
REMARK  0 active torsions:
REMARK  status: ('A' for Active; 'I' for Inactive)
ROOT
ATOM      1  C   UNL d   1       0.358  -0.400  -0.331  0.00  0.00     0.078 C 
ATOM      2  C1  UNL d   1       0.539  -0.022  -1.771  0.00  0.00    -0.077 A 
ATOM      3  C2  UNL d   1       1.473   0.950  -2.150  0.00  0.00    -0.001 A 
ATOM      4  C3  UNL d   1       1.624   1.299  -3.493  0.00  0.00     0.003 A 
ATOM      5  C4  UNL d   1       0.844   0.681  -4.468  0.00  0.00    -0.005 A 
ATOM      6  C5  UNL d   1      -0.089  -0.287  -4.101  0.00  0.00     0.003 A 
ATOM      7  C6  UNL d   1      -0.242  -0.637  -2.758  0.00  0.00    -0.001 A 
ENDROOT
TORSDOF 0
ENDMDL
