MODEL 1
REMARK minimizedAffinity -3.91595459
REMARK minimizedRMSD -1
REMARK  0 active torsions:
REMARK  status: ('A' for Active; 'I' for Inactive)
ROOT
ATOM      1  C   UNL d   1       0.130  -0.123  -0.799  0.00  0.00     0.078 C 
ATOM      2  C1  UNL d   1      -0.153   0.257   0.624  0.00  0.00    -0.077 A 
ATOM      3  C2  UNL d   1       0.819   0.890   1.408  0.00  0.00    -0.001 A 
ATOM      4  C3  UNL d   1       0.545   1.229   2.734  0.00  0.00     0.003 A 
ATOM      5  C4  UNL d   1      -0.700   0.938   3.288  0.00  0.00    -0.005 A 
ATOM      6  C5  UNL d   1      -1.673   0.307   2.516  0.00  0.00     0.003 A 
ATOM      7  C6  UNL d   1      -1.401  -0.033   1.190  0.00  0.00    -0.001 A 
ENDROOT
TORSDOF 0
ENDMDL
