MODEL 1
REMARK minimizedAffinity -5.41561174
REMARK minimizedRMSD -1
REMARK  0 active torsions:
REMARK  status: ('A' for Active; 'I' for Inactive)
ROOT
ATOM      1  C   UNL d   1       0.360  -0.449  -0.817  0.00  0.00     0.078 C 
ATOM      2  C1  UNL d   1       0.151  -0.046   0.612  0.00  0.00    -0.077 A 
ATOM      3  C2  UNL d   1       1.184  -0.155   1.551  0.00  0.00    -0.001 A 
ATOM      4  C3  UNL d   1       0.972   0.215   2.880  0.00  0.00     0.003 A 
ATOM      5  C4  UNL d   1      -0.272   0.696   3.282  0.00  0.00    -0.005 A 
ATOM      6  C5  UNL d   1      -1.307   0.807   2.355  0.00  0.00     0.003 A 
ATOM      7  C6  UNL d   1      -1.097   0.437   1.026  0.00  0.00    -0.001 A 
ENDROOT
TORSDOF 0
ENDMDL
