MODEL 1
REMARK minimizedAffinity -4.89868116
REMARK minimizedRMSD -1
REMARK  0 active torsions:
REMARK  status: ('A' for Active; 'I' for Inactive)
ROOT
ATOM      1  C   UNL d   1       0.316  -0.195  -0.359  0.00  0.00     0.078 C 
ATOM      2  C1  UNL d   1       0.400   0.215   1.081  0.00  0.00    -0.077 A 
ATOM      3  C2  UNL d   1       1.561  -0.015   1.829  0.00  0.00    -0.001 A 
ATOM      4  C3  UNL d   1       1.621   0.362   3.172  0.00  0.00     0.003 A 
ATOM      5  C4  UNL d   1       0.524   0.971   3.778  0.00  0.00    -0.005 A 
ATOM      6  C5  UNL d   1      -0.636   1.202   3.041  0.00  0.00     0.003 A 
ATOM      7  C6  UNL d   1      -0.698   0.826   1.699  0.00  0.00    -0.001 A 
ENDROOT
TORSDOF 0
ENDMDL
