MODEL 1
REMARK minimizedAffinity -5.29541397
REMARK minimizedRMSD -1
REMARK  0 active torsions:
REMARK  status: ('A' for Active; 'I' for Inactive)
ROOT
ATOM      1  C   UNL d   1       1.402  -0.476  -0.181  0.00  0.00     0.078 C 
ATOM      2  C1  UNL d   1       0.898   0.165   1.078  0.00  0.00    -0.077 A 
ATOM      3  C2  UNL d   1       1.656   0.136   2.255  0.00  0.00    -0.001 A 
ATOM      4  C3  UNL d   1       1.170   0.728   3.422  0.00  0.00     0.003 A 
ATOM      5  C4  UNL d   1      -0.076   1.352   3.423  0.00  0.00    -0.005 A 
ATOM      6  C5  UNL d   1      -0.839   1.383   2.257  0.00  0.00     0.003 A 
ATOM      7  C6  UNL d   1      -0.354   0.792   1.089  0.00  0.00    -0.001 A 
ENDROOT
TORSDOF 0
ENDMDL
