MODEL 1
REMARK minimizedAffinity -1.30481899
REMARK minimizedRMSD -1
REMARK  0 active torsions:
REMARK  status: ('A' for Active; 'I' for Inactive)
ROOT
ATOM      1  C   UNL d   1       2.152  -0.700   0.982  0.00  0.00     0.078 C 
ATOM      2  C1  UNL d   1       0.767  -0.573   0.423  0.00  0.00    -0.077 A 
ATOM      3  C2  UNL d   1      -0.215   0.169   1.091  0.00  0.00    -0.001 A 
ATOM      4  C3  UNL d   1      -1.504   0.270   0.564  0.00  0.00     0.003 A 
ATOM      5  C4  UNL d   1      -1.823  -0.369  -0.632  0.00  0.00    -0.005 A 
ATOM      6  C5  UNL d   1      -0.853  -1.111  -1.303  0.00  0.00     0.003 A 
ATOM      7  C6  UNL d   1       0.436  -1.214  -0.778  0.00  0.00    -0.001 A 
ENDROOT
TORSDOF 0
ENDMDL
