MODEL 1
REMARK minimizedAffinity -4.62336922
REMARK minimizedRMSD -1
REMARK  0 active torsions:
REMARK  status: ('A' for Active; 'I' for Inactive)
ROOT
ATOM      1  C   UNL d   1       0.298  -0.397  -0.724  0.00  0.00     0.078 C 
ATOM      2  C1  UNL d   1       0.059  -0.000   0.702  0.00  0.00    -0.077 A 
ATOM      3  C2  UNL d   1      -1.118   0.656   1.081  0.00  0.00    -0.001 A 
ATOM      4  C3  UNL d   1      -1.323   1.028   2.411  0.00  0.00     0.003 A 
ATOM      5  C4  UNL d   1      -0.353   0.750   3.372  0.00  0.00    -0.005 A 
ATOM      6  C5  UNL d   1       0.823   0.100   3.004  0.00  0.00     0.003 A 
ATOM      7  C6  UNL d   1       1.029  -0.274   1.675  0.00  0.00    -0.001 A 
ENDROOT
TORSDOF 0
ENDMDL
