MODEL 1
REMARK minimizedAffinity -3.08887672
REMARK minimizedRMSD -1
REMARK  2 active torsions:
REMARK  status: ('A' for Active; 'I' for Inactive)
REMARK    1  A    between atoms: C1_2  and  C2_3 
REMARK    2  A    between atoms: C2_3  and  C3_4 
ROOT
ATOM      1  C3  UNL d   1       2.689  -0.905  -0.416  0.00  0.00    -0.075 A 
ATOM      2  C4  UNL d   1       2.389   0.442  -0.165  0.00  0.00     0.002 A 
ATOM      3  C5  UNL d   1       1.169   0.802   0.408  0.00  0.00     0.002 A 
ATOM      4  C6  UNL d   1       0.230  -0.177   0.726  0.00  0.00    -0.004 A 
ATOM      5  C7  UNL d   1       0.511  -1.517   0.466  0.00  0.00     0.002 A 
ATOM      6  C8  UNL d   1       1.733  -1.880  -0.103  0.00  0.00     0.002 A 
ENDROOT
BRANCH   1   7
ATOM      7  C2  UNL d   1       4.020  -1.302  -1.008  0.00  0.00     0.056 C 
BRANCH   7   8
ATOM      8  C1  UNL d   1       4.781  -0.147  -1.666  0.00  0.00     0.007 C 
ATOM      9  C   UNL d   1       5.997  -0.603  -2.460  0.00  0.00     0.009 C 
ENDBRANCH   7   8
ENDBRANCH   1   7
TORSDOF 2
ENDMDL
