MODEL 1
REMARK minimizedAffinity -5.00017262
REMARK minimizedRMSD -1
REMARK  2 active torsions:
REMARK  status: ('A' for Active; 'I' for Inactive)
REMARK    1  A    between atoms: C1_2  and  C2_3 
REMARK    2  A    between atoms: C2_3  and  C3_4 
ROOT
ATOM      1  C3  UNL d   1       1.592  -0.373   0.272  0.00  0.00    -0.075 A 
ATOM      2  C4  UNL d   1       2.140  -1.570  -0.211  0.00  0.00     0.002 A 
ATOM      3  C5  UNL d   1       3.005  -1.561  -1.306  0.00  0.00     0.002 A 
ATOM      4  C6  UNL d   1       3.326  -0.360  -1.935  0.00  0.00    -0.004 A 
ATOM      5  C7  UNL d   1       2.774   0.833  -1.473  0.00  0.00     0.002 A 
ATOM      6  C8  UNL d   1       1.911   0.828  -0.376  0.00  0.00     0.002 A 
ENDROOT
BRANCH   1   7
ATOM      7  C2  UNL d   1       0.678  -0.372   1.474  0.00  0.00     0.056 C 
BRANCH   7   8
ATOM      8  C1  UNL d   1       0.025  -1.728   1.763  0.00  0.00     0.007 C 
ATOM      9  C   UNL d   1      -1.496  -1.667   1.794  0.00  0.00     0.009 C 
ENDBRANCH   7   8
ENDBRANCH   1   7
TORSDOF 2
ENDMDL
