MODEL 1
REMARK minimizedAffinity -1.35226285
REMARK minimizedRMSD -1
REMARK  2 active torsions:
REMARK  status: ('A' for Active; 'I' for Inactive)
REMARK    1  A    between atoms: C1_2  and  C2_3 
REMARK    2  A    between atoms: C2_3  and  C3_4 
ROOT
ATOM      1  C3  UNL d   1       2.652   0.098  -0.820  0.00  0.00    -0.075 A 
ATOM      2  C4  UNL d   1       1.508   0.790  -0.397  0.00  0.00     0.002 A 
ATOM      3  C5  UNL d   1       0.730   0.297   0.652  0.00  0.00     0.002 A 
ATOM      4  C6  UNL d   1       1.080  -0.894   1.283  0.00  0.00    -0.004 A 
ATOM      5  C7  UNL d   1       2.206  -1.598   0.860  0.00  0.00     0.002 A 
ATOM      6  C8  UNL d   1       2.988  -1.105  -0.186  0.00  0.00     0.002 A 
ENDROOT
BRANCH   1   7
ATOM      7  C2  UNL d   1       3.514   0.641  -1.934  0.00  0.00     0.056 C 
BRANCH   7   8
ATOM      8  C1  UNL d   1       4.851  -0.090  -2.101  0.00  0.00     0.007 C 
ATOM      9  C   UNL d   1       5.570   0.263  -3.396  0.00  0.00     0.009 C 
ENDBRANCH   7   8
ENDBRANCH   1   7
TORSDOF 2
ENDMDL
