MODEL 1
REMARK minimizedAffinity -2.94509339
REMARK minimizedRMSD -1
REMARK  2 active torsions:
REMARK  status: ('A' for Active; 'I' for Inactive)
REMARK    1  A    between atoms: C1_2  and  C2_3 
REMARK    2  A    between atoms: C2_3  and  C3_4 
ROOT
ATOM      1  C3  UNL d   1       1.711  -0.713   0.255  0.00  0.00    -0.075 A 
ATOM      2  C4  UNL d   1       2.809  -1.327  -0.365  0.00  0.00     0.002 A 
ATOM      3  C5  UNL d   1       3.660  -0.592  -1.189  0.00  0.00     0.002 A 
ATOM      4  C6  UNL d   1       3.420   0.762  -1.413  0.00  0.00    -0.004 A 
ATOM      5  C7  UNL d   1       2.323   1.380  -0.816  0.00  0.00     0.002 A 
ATOM      6  C8  UNL d   1       1.472   0.647   0.013  0.00  0.00     0.002 A 
ENDROOT
BRANCH   1   7
ATOM      7  C2  UNL d   1       0.802  -1.496   1.171  0.00  0.00     0.056 C 
BRANCH   7   8
ATOM      8  C1  UNL d   1       0.137  -0.651   2.263  0.00  0.00     0.007 C 
ATOM      9  C   UNL d   1      -1.312  -1.038   2.522  0.00  0.00     0.009 C 
ENDBRANCH   7   8
ENDBRANCH   1   7
TORSDOF 2
ENDMDL
