MODEL 1
REMARK minimizedAffinity 1.06951392
REMARK minimizedRMSD -1
REMARK  2 active torsions:
REMARK  status: ('A' for Active; 'I' for Inactive)
REMARK    1  A    between atoms: C1_2  and  C2_3 
REMARK    2  A    between atoms: C2_3  and  C3_4 
ROOT
ATOM      1  C3  UNL d   1       2.828  -0.614  -1.178  0.00  0.00    -0.075 A 
ATOM      2  C4  UNL d   1       2.617   0.771  -1.110  0.00  0.00     0.002 A 
ATOM      3  C5  UNL d   1       1.662   1.301  -0.242  0.00  0.00     0.002 A 
ATOM      4  C6  UNL d   1       0.900   0.454   0.561  0.00  0.00    -0.004 A 
ATOM      5  C7  UNL d   1       1.089  -0.924   0.489  0.00  0.00     0.002 A 
ATOM      6  C8  UNL d   1       2.047  -1.456  -0.375  0.00  0.00     0.002 A 
ENDROOT
BRANCH   1   7
ATOM      7  C2  UNL d   1       3.880  -1.191  -2.094  0.00  0.00     0.056 C 
BRANCH   7   8
ATOM      8  C1  UNL d   1       4.811  -0.143  -2.713  0.00  0.00     0.007 C 
ATOM      9  C   UNL d   1       6.000  -0.753  -3.444  0.00  0.00     0.009 C 
ENDBRANCH   7   8
ENDBRANCH   1   7
TORSDOF 2
ENDMDL
