MODEL 1
REMARK minimizedAffinity 3.01521635
REMARK minimizedRMSD -1
REMARK  2 active torsions:
REMARK  status: ('A' for Active; 'I' for Inactive)
REMARK    1  A    between atoms: C1_2  and  C2_3 
REMARK    2  A    between atoms: C2_3  and  C3_4 
ROOT
ATOM      1  C3  UNL d   1       1.642   0.479   0.399  0.00  0.00    -0.075 A 
ATOM      2  C4  UNL d   1       0.530  -0.157   0.971  0.00  0.00     0.002 A 
ATOM      3  C5  UNL d   1       0.302  -1.516   0.752  0.00  0.00     0.002 A 
ATOM      4  C6  UNL d   1       1.173  -2.252  -0.048  0.00  0.00    -0.004 A 
ATOM      5  C7  UNL d   1       2.271  -1.626  -0.635  0.00  0.00     0.002 A 
ATOM      6  C8  UNL d   1       2.505  -0.268  -0.413  0.00  0.00     0.002 A 
ENDROOT
BRANCH   1   7
ATOM      7  C2  UNL d   1       1.911   1.943   0.657  0.00  0.00     0.056 C 
BRANCH   7   8
ATOM      8  C1  UNL d   1       3.139   2.206   1.533  0.00  0.00     0.007 C 
ATOM      9  C   UNL d   1       3.484   1.039   2.450  0.00  0.00     0.009 C 
ENDBRANCH   7   8
ENDBRANCH   1   7
TORSDOF 2
ENDMDL
