MODEL 1
REMARK minimizedAffinity -2.38162732
REMARK minimizedRMSD -1
REMARK  2 active torsions:
REMARK  status: ('A' for Active; 'I' for Inactive)
REMARK    1  A    between atoms: C1_2  and  C2_3 
REMARK    2  A    between atoms: C2_3  and  C3_4 
ROOT
ATOM      1  C3  UNL d   1       2.912  -0.748  -0.787  0.00  0.00    -0.075 A 
ATOM      2  C4  UNL d   1       2.132   0.372  -1.110  0.00  0.00     0.002 A 
ATOM      3  C5  UNL d   1       1.047   0.733  -0.311  0.00  0.00     0.002 A 
ATOM      4  C6  UNL d   1       0.723  -0.024   0.813  0.00  0.00    -0.004 A 
ATOM      5  C7  UNL d   1       1.480  -1.148   1.133  0.00  0.00     0.002 A 
ATOM      6  C8  UNL d   1       2.569  -1.510   0.338  0.00  0.00     0.002 A 
ENDROOT
BRANCH   1   7
ATOM      7  C2  UNL d   1       4.106  -1.128  -1.631  0.00  0.00     0.056 C 
BRANCH   7   8
ATOM      8  C1  UNL d   1       4.843   0.069  -2.242  0.00  0.00     0.007 C 
ATOM      9  C   UNL d   1       5.999  -0.337  -3.146  0.00  0.00     0.009 C 
ENDBRANCH   7   8
ENDBRANCH   1   7
TORSDOF 2
ENDMDL
