MODEL 1
REMARK minimizedAffinity -3.17291307
REMARK minimizedRMSD -1
REMARK  2 active torsions:
REMARK  status: ('A' for Active; 'I' for Inactive)
REMARK    1  A    between atoms: C1_2  and  C2_3 
REMARK    2  A    between atoms: C2_3  and  C3_4 
ROOT
ATOM      1  C3  UNL d   1       2.552   0.036  -1.109  0.00  0.00    -0.075 A 
ATOM      2  C4  UNL d   1       2.712  -1.257  -0.590  0.00  0.00     0.002 A 
ATOM      3  C5  UNL d   1       1.737  -1.814   0.237  0.00  0.00     0.002 A 
ATOM      4  C6  UNL d   1       0.597  -1.084   0.565  0.00  0.00    -0.004 A 
ATOM      5  C7  UNL d   1       0.435   0.208   0.069  0.00  0.00     0.002 A 
ATOM      6  C8  UNL d   1       1.407   0.767  -0.763  0.00  0.00     0.002 A 
ENDROOT
BRANCH   1   7
ATOM      7  C2  UNL d   1       3.590   0.634  -2.029  0.00  0.00     0.056 C 
BRANCH   7   8
ATOM      8  C1  UNL d   1       4.534  -0.397  -2.657  0.00  0.00     0.007 C 
ATOM      9  C   UNL d   1       5.997   0.021  -2.608  0.00  0.00     0.009 C 
ENDBRANCH   7   8
ENDBRANCH   1   7
TORSDOF 2
ENDMDL
