MODEL 1
REMARK minimizedAffinity -3.97973514
REMARK minimizedRMSD -1
REMARK  2 active torsions:
REMARK  status: ('A' for Active; 'I' for Inactive)
REMARK    1  A    between atoms: C1_2  and  C2_3 
REMARK    2  A    between atoms: C2_3  and  C3_4 
ROOT
ATOM      1  C3  UNL d   1       2.578  -0.904  -1.022  0.00  0.00    -0.075 A 
ATOM      2  C4  UNL d   1       2.103   0.387  -0.748  0.00  0.00     0.002 A 
ATOM      3  C5  UNL d   1       1.296   0.623   0.365  0.00  0.00     0.002 A 
ATOM      4  C6  UNL d   1       0.945  -0.427   1.211  0.00  0.00    -0.004 A 
ATOM      5  C7  UNL d   1       1.398  -1.716   0.939  0.00  0.00     0.002 A 
ATOM      6  C8  UNL d   1       2.209  -1.955  -0.171  0.00  0.00     0.002 A 
ENDROOT
BRANCH   1   7
ATOM      7  C2  UNL d   1       3.476  -1.162  -2.209  0.00  0.00     0.056 C 
BRANCH   7   8
ATOM      8  C1  UNL d   1       4.348   0.035  -2.602  0.00  0.00     0.007 C 
ATOM      9  C   UNL d   1       5.830  -0.304  -2.686  0.00  0.00     0.009 C 
ENDBRANCH   7   8
ENDBRANCH   1   7
TORSDOF 2
ENDMDL
