MODEL 1
REMARK minimizedAffinity -1.71483529
REMARK minimizedRMSD -1
REMARK  2 active torsions:
REMARK  status: ('A' for Active; 'I' for Inactive)
REMARK    1  A    between atoms: C1_2  and  C2_3 
REMARK    2  A    between atoms: C2_3  and  C3_4 
ROOT
ATOM      1  C3  UNL d   1       3.080  -0.749  -0.540  0.00  0.00    -0.075 A 
ATOM      2  C4  UNL d   1       2.148  -1.745  -0.213  0.00  0.00     0.002 A 
ATOM      3  C5  UNL d   1       0.917  -1.406   0.348  0.00  0.00     0.002 A 
ATOM      4  C6  UNL d   1       0.606  -0.071   0.598  0.00  0.00    -0.004 A 
ATOM      5  C7  UNL d   1       1.531   0.925   0.293  0.00  0.00     0.002 A 
ATOM      6  C8  UNL d   1       2.762   0.589  -0.273  0.00  0.00     0.002 A 
ENDROOT
BRANCH   1   7
ATOM      7  C2  UNL d   1       4.402  -1.108  -1.175  0.00  0.00     0.056 C 
BRANCH   7   8
ATOM      8  C1  UNL d   1       5.031   0.028  -1.990  0.00  0.00     0.007 C 
ATOM      9  C   UNL d   1       5.991  -0.465  -3.065  0.00  0.00     0.009 C 
ENDBRANCH   7   8
ENDBRANCH   1   7
TORSDOF 2
ENDMDL
