MODEL 1
REMARK minimizedAffinity -5.37352753
REMARK minimizedRMSD -1
REMARK  2 active torsions:
REMARK  status: ('A' for Active; 'I' for Inactive)
REMARK    1  A    between atoms: C1_2  and  C2_3 
REMARK    2  A    between atoms: C2_3  and  C3_4 
ROOT
ATOM      1  C3  UNL d   1       2.838  -0.873  -0.920  0.00  0.00    -0.075 A 
ATOM      2  C4  UNL d   1       2.347  -1.928  -0.137  0.00  0.00     0.002 A 
ATOM      3  C5  UNL d   1       1.300  -1.717   0.761  0.00  0.00     0.002 A 
ATOM      4  C6  UNL d   1       0.738  -0.449   0.894  0.00  0.00    -0.004 A 
ATOM      5  C7  UNL d   1       1.229   0.610   0.133  0.00  0.00     0.002 A 
ATOM      6  C8  UNL d   1       2.274   0.401  -0.769  0.00  0.00     0.002 A 
ENDROOT
BRANCH   1   7
ATOM      7  C2  UNL d   1       3.951  -1.102  -1.914  0.00  0.00     0.056 C 
BRANCH   7   8
ATOM      8  C1  UNL d   1       4.717   0.169  -2.296  0.00  0.00     0.007 C 
ATOM      9  C   UNL d   1       5.999  -0.112  -3.069  0.00  0.00     0.009 C 
ENDBRANCH   7   8
ENDBRANCH   1   7
TORSDOF 2
ENDMDL
