MODEL 1
REMARK minimizedAffinity -0.0251859054
REMARK minimizedRMSD -1
REMARK  2 active torsions:
REMARK  status: ('A' for Active; 'I' for Inactive)
REMARK    1  A    between atoms: C1_2  and  C2_3 
REMARK    2  A    between atoms: C2_3  and  C3_4 
ROOT
ATOM      1  C3  UNL d   1       2.503   0.043  -1.132  0.00  0.00    -0.075 A 
ATOM      2  C4  UNL d   1       1.501   0.791  -0.496  0.00  0.00     0.002 A 
ATOM      3  C5  UNL d   1       0.825   0.274   0.609  0.00  0.00     0.002 A 
ATOM      4  C6  UNL d   1       1.134  -0.999   1.086  0.00  0.00    -0.004 A 
ATOM      5  C7  UNL d   1       2.116  -1.757   0.452  0.00  0.00     0.002 A 
ATOM      6  C8  UNL d   1       2.797  -1.240  -0.652  0.00  0.00     0.002 A 
ENDROOT
BRANCH   1   7
ATOM      7  C2  UNL d   1       3.259   0.609  -2.310  0.00  0.00     0.056 C 
BRANCH   7   8
ATOM      8  C1  UNL d   1       4.052  -0.435  -3.102  0.00  0.00     0.007 C 
ATOM      9  C   UNL d   1       5.520  -0.067  -3.279  0.00  0.00     0.009 C 
ENDBRANCH   7   8
ENDBRANCH   1   7
TORSDOF 2
ENDMDL
