MODEL 1
REMARK minimizedAffinity 12.021553
REMARK minimizedRMSD -1
REMARK  1 active torsions:
REMARK  status: ('A' for Active; 'I' for Inactive)
REMARK    1  A    between atoms: C1_2  and  C2_3 
ROOT
ATOM      1  C2  UNL d   1      -5.604   4.851   3.732  0.00  0.00    -0.073 A 
ATOM      2  C3  UNL d   1      -4.855   3.670   3.673  0.00  0.00    -0.002 A 
ATOM      3  C4  UNL d   1      -4.485   3.131   2.440  0.00  0.00     0.004 A 
ATOM      4  C5  UNL d   1      -4.854   3.770   1.256  0.00  0.00    -0.004 A 
ATOM      5  C6  UNL d   1      -5.593   4.957   1.295  0.00  0.00    -0.075 A 
ATOM      6  C7  UNL d   1      -5.999   5.654   0.030  0.00  0.00     0.076 C 
ATOM      7  C8  UNL d   1      -5.962   5.490   2.537  0.00  0.00     0.001 A 
ENDROOT
BRANCH   1   8
ATOM      8  C1  UNL d   1      -6.000   5.440   5.062  0.00  0.00     0.053 C 
ATOM      9  C   UNL d   1      -4.804   5.998   5.817  0.00  0.00     0.018 C 
ENDBRANCH   1   8
TORSDOF 1
ENDMDL
