MODEL 1
REMARK minimizedAffinity 11.8055201
REMARK minimizedRMSD -1
REMARK  1 active torsions:
REMARK  status: ('A' for Active; 'I' for Inactive)
REMARK    1  A    between atoms: C1_2  and  C2_3 
ROOT
ATOM      1  C2  UNL d   1      -5.122   4.882   3.668  0.00  0.00    -0.073 A 
ATOM      2  C3  UNL d   1      -5.854   5.250   4.802  0.00  0.00    -0.002 A 
ATOM      3  C4  UNL d   1      -5.209   5.799   5.910  0.00  0.00     0.004 A 
ATOM      4  C5  UNL d   1      -3.827   5.992   5.894  0.00  0.00    -0.004 A 
ATOM      5  C6  UNL d   1      -3.080   5.642   4.765  0.00  0.00    -0.075 A 
ATOM      6  C7  UNL d   1      -1.593   5.841   4.732  0.00  0.00     0.076 C 
ATOM      7  C8  UNL d   1      -3.735   5.088   3.657  0.00  0.00     0.001 A 
ENDROOT
BRANCH   1   8
ATOM      8  C1  UNL d   1      -5.816   4.295   2.466  0.00  0.00     0.053 C 
ATOM      9  C   UNL d   1      -5.167   2.997   2.011  0.00  0.00     0.018 C 
ENDBRANCH   1   8
TORSDOF 1
ENDMDL
