MODEL 1
REMARK minimizedAffinity 10.3374014
REMARK minimizedRMSD -1
REMARK  1 active torsions:
REMARK  status: ('A' for Active; 'I' for Inactive)
REMARK    1  A    between atoms: C1_2  and  C2_3 
ROOT
ATOM      1  C2  UNL d   1      -5.682   4.167   3.396  0.00  0.00    -0.073 A 
ATOM      2  C3  UNL d   1      -6.000   5.133   2.433  0.00  0.00    -0.002 A 
ATOM      3  C4  UNL d   1      -5.709   4.908   1.087  0.00  0.00     0.004 A 
ATOM      4  C5  UNL d   1      -5.105   3.715   0.689  0.00  0.00    -0.004 A 
ATOM      5  C6  UNL d   1      -4.791   2.734   1.634  0.00  0.00    -0.075 A 
ATOM      6  C7  UNL d   1      -4.139   1.446   1.222  0.00  0.00     0.076 C 
ATOM      7  C8  UNL d   1      -5.084   2.968   2.985  0.00  0.00     0.001 A 
ENDROOT
BRANCH   1   8
ATOM      8  C1  UNL d   1      -6.000   4.403   4.850  0.00  0.00     0.053 C 
ATOM      9  C   UNL d   1      -5.493   5.753   5.333  0.00  0.00     0.018 C 
ENDBRANCH   1   8
TORSDOF 1
ENDMDL
