MODEL 1
REMARK minimizedAffinity 9.95699978
REMARK minimizedRMSD -1
REMARK  1 active torsions:
REMARK  status: ('A' for Active; 'I' for Inactive)
REMARK    1  A    between atoms: C1_2  and  C2_3 
ROOT
ATOM      1  C2  UNL d   1       2.806   0.686   0.055  0.00  0.00    -0.073 A 
ATOM      2  C3  UNL d   1       2.133   1.399  -0.944  0.00  0.00    -0.002 A 
ATOM      3  C4  UNL d   1       1.268   0.739  -1.818  0.00  0.00     0.004 A 
ATOM      4  C5  UNL d   1       1.062  -0.635  -1.698  0.00  0.00    -0.004 A 
ATOM      5  C6  UNL d   1       1.716  -1.362  -0.699  0.00  0.00    -0.075 A 
ATOM      6  C7  UNL d   1       1.507  -2.841  -0.558  0.00  0.00     0.076 C 
ATOM      7  C8  UNL d   1       2.586  -0.693   0.173  0.00  0.00     0.001 A 
ENDROOT
BRANCH   1   8
ATOM      8  C1  UNL d   1       3.737   1.395   1.005  0.00  0.00     0.053 C 
ATOM      9  C   UNL d   1       5.197   1.129   0.677  0.00  0.00     0.018 C 
ENDBRANCH   1   8
TORSDOF 1
ENDMDL
