MODEL 1
REMARK minimizedAffinity 6.15973473
REMARK minimizedRMSD -1
REMARK  1 active torsions:
REMARK  status: ('A' for Active; 'I' for Inactive)
REMARK    1  A    between atoms: C1_2  and  C2_3 
ROOT
ATOM      1  C2  UNL d   1       0.916   0.249  -0.737  0.00  0.00    -0.073 A 
ATOM      2  C3  UNL d   1       1.196  -0.332   0.505  0.00  0.00    -0.002 A 
ATOM      3  C4  UNL d   1       2.477  -0.246   1.050  0.00  0.00     0.004 A 
ATOM      4  C5  UNL d   1       3.489   0.426   0.365  0.00  0.00    -0.004 A 
ATOM      5  C6  UNL d   1       3.226   1.024  -0.872  0.00  0.00    -0.075 A 
ATOM      6  C7  UNL d   1       4.303   1.749  -1.623  0.00  0.00     0.076 C 
ATOM      7  C8  UNL d   1       1.937   0.931  -1.415  0.00  0.00     0.001 A 
ENDROOT
BRANCH   1   8
ATOM      8  C1  UNL d   1      -0.468   0.165  -1.328  0.00  0.00     0.053 C 
ATOM      9  C   UNL d   1      -1.548   0.386  -0.281  0.00  0.00     0.018 C 
ENDBRANCH   1   8
TORSDOF 1
ENDMDL
