MODEL 1
REMARK minimizedAffinity 4.0092001
REMARK minimizedRMSD -1
REMARK  1 active torsions:
REMARK  status: ('A' for Active; 'I' for Inactive)
REMARK    1  A    between atoms: C1_2  and  C2_3 
ROOT
ATOM      1  C2  UNL d   1      -5.121   4.657   3.404  0.00  0.00    -0.073 A 
ATOM      2  C3  UNL d   1      -5.999   5.004   4.437  0.00  0.00    -0.002 A 
ATOM      3  C4  UNL d   1      -5.526   5.662   5.573  0.00  0.00     0.004 A 
ATOM      4  C5  UNL d   1      -4.174   5.986   5.685  0.00  0.00    -0.004 A 
ATOM      5  C6  UNL d   1      -3.283   5.658   4.657  0.00  0.00    -0.075 A 
ATOM      6  C7  UNL d   1      -1.825   5.998   4.763  0.00  0.00     0.076 C 
ATOM      7  C8  UNL d   1      -3.765   4.995   3.521  0.00  0.00     0.001 A 
ENDROOT
BRANCH   1   8
ATOM      8  C1  UNL d   1      -5.629   3.952   2.172  0.00  0.00     0.053 C 
ATOM      9  C   UNL d   1      -4.562   3.072   1.539  0.00  0.00     0.018 C 
ENDBRANCH   1   8
TORSDOF 1
ENDMDL
