MODEL 1
REMARK minimizedAffinity 6.80799723
REMARK minimizedRMSD -1
REMARK  1 active torsions:
REMARK  status: ('A' for Active; 'I' for Inactive)
REMARK    1  A    between atoms: C1_2  and  C2_3 
ROOT
ATOM      1  C2  UNL d   1       2.397   2.825   0.705  0.00  0.00    -0.073 A 
ATOM      2  C3  UNL d   1       1.563   2.670  -0.408  0.00  0.00    -0.002 A 
ATOM      3  C4  UNL d   1       1.467   1.435  -1.050  0.00  0.00     0.004 A 
ATOM      4  C5  UNL d   1       2.197   0.342  -0.584  0.00  0.00    -0.004 A 
ATOM      5  C6  UNL d   1       3.027   0.474   0.534  0.00  0.00    -0.075 A 
ATOM      6  C7  UNL d   1       3.821  -0.692   1.048  0.00  0.00     0.076 C 
ATOM      7  C8  UNL d   1       3.120   1.718   1.173  0.00  0.00     0.001 A 
ENDROOT
BRANCH   1   8
ATOM      8  C1  UNL d   1       2.499   4.154   1.406  0.00  0.00     0.053 C 
ATOM      9  C   UNL d   1       1.310   5.052   1.103  0.00  0.00     0.018 C 
ENDBRANCH   1   8
TORSDOF 1
ENDMDL
