MODEL 1
REMARK minimizedAffinity 4.5711751
REMARK minimizedRMSD -1
REMARK  1 active torsions:
REMARK  status: ('A' for Active; 'I' for Inactive)
REMARK    1  A    between atoms: C1_2  and  C2_3 
ROOT
ATOM      1  C2  UNL d   1       3.138   0.205  -0.720  0.00  0.00    -0.073 A 
ATOM      2  C3  UNL d   1       3.531   0.166   0.623  0.00  0.00    -0.002 A 
ATOM      3  C4  UNL d   1       3.291  -0.970   1.395  0.00  0.00     0.004 A 
ATOM      4  C5  UNL d   1       2.661  -2.081   0.833  0.00  0.00    -0.004 A 
ATOM      5  C6  UNL d   1       2.271  -2.066  -0.510  0.00  0.00    -0.075 A 
ATOM      6  C7  UNL d   1       1.591  -3.252  -1.129  0.00  0.00     0.076 C 
ATOM      7  C8  UNL d   1       2.514  -0.920  -1.278  0.00  0.00     0.001 A 
ENDROOT
BRANCH   1   8
ATOM      8  C1  UNL d   1       3.401   1.428  -1.560  0.00  0.00     0.053 C 
ATOM      9  C   UNL d   1       4.755   1.365  -2.249  0.00  0.00     0.018 C 
ENDBRANCH   1   8
TORSDOF 1
ENDMDL
