MODEL 1
REMARK minimizedAffinity 5.17762327
REMARK minimizedRMSD -1
REMARK  0 active torsions:
REMARK  status: ('A' for Active; 'I' for Inactive)
ROOT
ATOM      1  C4' PXY d   1       2.601  -4.132   3.020  0.00  0.00     0.077 C 
ATOM      2  C1' PXY d   1       1.891   1.601   2.798  0.00  0.00     0.077 C 
ATOM      3  C1  PXY d   1       2.077   0.098   2.869  0.00  0.00    -0.082 A 
ATOM      4  C2  PXY d   1       2.600  -0.546   1.838  0.00  0.00     0.003 A 
ATOM      5  C3  PXY d   1       2.746  -1.909   1.873  0.00  0.00     0.003 A 
ATOM      6  C4  PXY d   1       2.403  -2.613   2.996  0.00  0.00    -0.082 A 
ATOM      7  C5  PXY d   1       1.879  -1.963   4.056  0.00  0.00     0.003 A 
ATOM      8  C6  PXY d   1       1.700  -0.584   3.984  0.00  0.00     0.003 A 
ENDROOT
TORSDOF 0
ENDMDL
