MODEL 1
REMARK minimizedAffinity 2.72189283
REMARK minimizedRMSD -1
REMARK  0 active torsions:
REMARK  status: ('A' for Active; 'I' for Inactive)
ROOT
ATOM      1  C4' PXY d   1      -4.802   2.628  -0.083  0.00  0.00     0.077 C 
ATOM      2  C1' PXY d   1      -5.243   2.499  -5.845  0.00  0.00     0.077 C 
ATOM      3  C1  PXY d   1      -5.134   2.545  -4.334  0.00  0.00    -0.082 A 
ATOM      4  C2  PXY d   1      -4.197   1.836  -3.724  0.00  0.00     0.003 A 
ATOM      5  C3  PXY d   1      -4.104   1.840  -2.356  0.00  0.00     0.003 A 
ATOM      6  C4  PXY d   1      -4.944   2.620  -1.607  0.00  0.00    -0.082 A 
ATOM      7  C5  PXY d   1      -5.896   3.354  -2.222  0.00  0.00     0.003 A 
ATOM      8  C6  PXY d   1      -6.000   3.304  -3.609  0.00  0.00     0.003 A 
ENDROOT
TORSDOF 0
ENDMDL
