MODEL 1
REMARK minimizedAffinity 5.31013441
REMARK minimizedRMSD -1
REMARK  0 active torsions:
REMARK  status: ('A' for Active; 'I' for Inactive)
ROOT
ATOM      1  C4' PXY d   1       1.571  -0.415   2.246  0.00  0.00     0.077 C 
ATOM      2  C1' PXY d   1       3.001  -4.572   6.000  0.00  0.00     0.077 C 
ATOM      3  C1  PXY d   1       2.630  -3.489   5.005  0.00  0.00    -0.082 A 
ATOM      4  C2  PXY d   1       2.607  -2.225   5.393  0.00  0.00     0.003 A 
ATOM      5  C3  PXY d   1       2.243  -1.236   4.516  0.00  0.00     0.003 A 
ATOM      6  C4  PXY d   1       1.949  -1.540   3.213  0.00  0.00    -0.082 A 
ATOM      7  C5  PXY d   1       1.981  -2.827   2.807  0.00  0.00     0.003 A 
ATOM      8  C6  PXY d   1       2.313  -3.820   3.724  0.00  0.00     0.003 A 
ENDROOT
TORSDOF 0
ENDMDL
