MODEL 1
REMARK minimizedAffinity 3.03704
REMARK minimizedRMSD -1
REMARK  0 active torsions:
REMARK  status: ('A' for Active; 'I' for Inactive)
ROOT
ATOM      1  C4' PXY d   1       3.024  -2.110   3.970  0.00  0.00     0.077 C 
ATOM      2  C1' PXY d   1       2.503   2.878   1.097  0.00  0.00     0.077 C 
ATOM      3  C1  PXY d   1       2.639   1.577   1.862  0.00  0.00    -0.082 A 
ATOM      4  C2  PXY d   1       3.184   0.525   1.271  0.00  0.00     0.003 A 
ATOM      5  C3  PXY d   1       3.286  -0.669   1.938  0.00  0.00     0.003 A 
ATOM      6  C4  PXY d   1       2.875  -0.773   3.239  0.00  0.00    -0.082 A 
ATOM      7  C5  PXY d   1       2.328   0.298   3.852  0.00  0.00     0.003 A 
ATOM      8  C6  PXY d   1       2.195   1.490   3.145  0.00  0.00     0.003 A 
ENDROOT
TORSDOF 0
ENDMDL
