MODEL 1
REMARK minimizedAffinity 2.34441137
REMARK minimizedRMSD -1
REMARK  0 active torsions:
REMARK  status: ('A' for Active; 'I' for Inactive)
ROOT
ATOM      1  C4' PXY d   1       2.882  -1.164   3.167  0.00  0.00     0.077 C 
ATOM      2  C1' PXY d   1       2.336   3.249  -0.527  0.00  0.00     0.077 C 
ATOM      3  C1  PXY d   1       2.486   2.099   0.450  0.00  0.00    -0.082 A 
ATOM      4  C2  PXY d   1       2.393   0.854   0.014  0.00  0.00     0.003 A 
ATOM      5  C3  PXY d   1       2.494  -0.197   0.889  0.00  0.00     0.003 A 
ATOM      6  C4  PXY d   1       2.747   0.028   2.215  0.00  0.00    -0.082 A 
ATOM      7  C5  PXY d   1       2.854   1.296   2.666  0.00  0.00     0.003 A 
ATOM      8  C6  PXY d   1       2.707   2.349   1.769  0.00  0.00     0.003 A 
ENDROOT
TORSDOF 0
ENDMDL
