MODEL 1
REMARK minimizedAffinity 2.46020508
REMARK minimizedRMSD -1
REMARK  0 active torsions:
REMARK  status: ('A' for Active; 'I' for Inactive)
ROOT
ATOM      1  C4' PXY d   1       2.597   1.296   1.028  0.00  0.00     0.077 C 
ATOM      2  C1' PXY d   1       2.897  -3.506   4.233  0.00  0.00     0.077 C 
ATOM      3  C1  PXY d   1       2.806  -2.249   3.390  0.00  0.00    -0.082 A 
ATOM      4  C2  PXY d   1       3.897  -1.761   2.823  0.00  0.00     0.003 A 
ATOM      5  C3  PXY d   1       3.838  -0.607   2.084  0.00  0.00     0.003 A 
ATOM      6  C4  PXY d   1       2.640   0.024   1.879  0.00  0.00    -0.082 A 
ATOM      7  C5  PXY d   1       1.521  -0.474   2.446  0.00  0.00     0.003 A 
ATOM      8  C6  PXY d   1       1.609  -1.623   3.226  0.00  0.00     0.003 A 
ENDROOT
TORSDOF 0
ENDMDL
