MODEL 1
REMARK minimizedAffinity 7.68177509
REMARK minimizedRMSD -1
REMARK  0 active torsions:
REMARK  status: ('A' for Active; 'I' for Inactive)
ROOT
ATOM      1  C4' PXY d   1      -5.627   2.631  -4.888  0.00  0.00     0.077 C 
ATOM      2  C1' PXY d   1      -3.752   2.475   0.578  0.00  0.00     0.077 C 
ATOM      3  C1  PXY d   1      -4.256   2.515  -0.851  0.00  0.00    -0.082 A 
ATOM      4  C2  PXY d   1      -3.446   2.173  -1.840  0.00  0.00     0.003 A 
ATOM      5  C3  PXY d   1      -3.876   2.234  -3.141  0.00  0.00     0.003 A 
ATOM      6  C4  PXY d   1      -5.164   2.597  -3.429  0.00  0.00    -0.082 A 
ATOM      7  C5  PXY d   1      -6.000   2.936  -2.424  0.00  0.00     0.003 A 
ATOM      8  C6  PXY d   1      -5.532   2.908  -1.114  0.00  0.00     0.003 A 
ENDROOT
TORSDOF 0
ENDMDL
