MODEL 1
REMARK minimizedAffinity 7.23019123
REMARK minimizedRMSD -1
REMARK  0 active torsions:
REMARK  status: ('A' for Active; 'I' for Inactive)
ROOT
ATOM      1  C4' PXY d   1      -3.771   1.554   0.805  0.00  0.00     0.077 C 
ATOM      2  C1' PXY d   1      -5.394   3.241  -4.481  0.00  0.00     0.077 C 
ATOM      3  C1  PXY d   1      -4.977   2.806  -3.089  0.00  0.00    -0.082 A 
ATOM      4  C2  PXY d   1      -3.756   2.339  -2.888  0.00  0.00     0.003 A 
ATOM      5  C3  PXY d   1      -3.373   1.911  -1.643  0.00  0.00     0.003 A 
ATOM      6  C4  PXY d   1      -4.232   2.013  -0.581  0.00  0.00    -0.082 A 
ATOM      7  C5  PXY d   1      -5.476   2.499  -0.776  0.00  0.00     0.003 A 
ATOM      8  C6  PXY d   1      -5.859   2.889  -2.056  0.00  0.00     0.003 A 
ENDROOT
TORSDOF 0
ENDMDL
