MODEL 1
REMARK minimizedAffinity 0.51643461
REMARK minimizedRMSD -1
REMARK  0 active torsions:
REMARK  status: ('A' for Active; 'I' for Inactive)
ROOT
ATOM      1  C4' PXY d   1       1.133   4.513  -0.440  0.00  0.00     0.077 C 
ATOM      2  C1' PXY d   1       1.514  -0.602   2.225  0.00  0.00     0.077 C 
ATOM      3  C1  PXY d   1       1.401   0.737   1.523  0.00  0.00    -0.082 A 
ATOM      4  C2  PXY d   1       2.483   1.298   1.008  0.00  0.00     0.003 A 
ATOM      5  C3  PXY d   1       2.404   2.524   0.398  0.00  0.00     0.003 A 
ATOM      6  C4  PXY d   1       1.198   3.158   0.268  0.00  0.00    -0.082 A 
ATOM      7  C5  PXY d   1       0.088   2.586   0.782  0.00  0.00     0.003 A 
ATOM      8  C6  PXY d   1       0.195   1.361   1.434  0.00  0.00     0.003 A 
ENDROOT
TORSDOF 0
ENDMDL
