MODEL 1
REMARK minimizedAffinity 6.74434233
REMARK minimizedRMSD -1
REMARK  0 active torsions:
REMARK  status: ('A' for Active; 'I' for Inactive)
ROOT
ATOM      1  C4' PXY d   1      -4.085   2.569   0.750  0.00  0.00     0.077 C 
ATOM      2  C1' PXY d   1      -5.389   2.568  -4.882  0.00  0.00     0.077 C 
ATOM      3  C1  PXY d   1      -5.057   2.577  -3.403  0.00  0.00    -0.082 A 
ATOM      4  C2  PXY d   1      -3.849   2.215  -3.002  0.00  0.00     0.003 A 
ATOM      5  C3  PXY d   1      -3.541   2.187  -1.666  0.00  0.00     0.003 A 
ATOM      6  C4  PXY d   1      -4.463   2.584  -0.734  0.00  0.00    -0.082 A 
ATOM      7  C5  PXY d   1      -5.694   2.965  -1.136  0.00  0.00     0.003 A 
ATOM      8  C6  PXY d   1      -5.999   2.948  -2.494  0.00  0.00     0.003 A 
ENDROOT
TORSDOF 0
ENDMDL
