MODEL 1
REMARK minimizedAffinity 8.42461777
REMARK minimizedRMSD -1
REMARK  0 active torsions:
REMARK  status: ('A' for Active; 'I' for Inactive)
ROOT
ATOM      1  C4' PXY d   1       3.688  -3.093   4.669  0.00  0.00     0.077 C 
ATOM      2  C1' PXY d   1       2.444   1.173   0.972  0.00  0.00     0.077 C 
ATOM      3  C1  PXY d   1       2.780   0.050   1.934  0.00  0.00    -0.082 A 
ATOM      4  C2  PXY d   1       1.857  -0.388   2.775  0.00  0.00     0.003 A 
ATOM      5  C3  PXY d   1       2.153  -1.381   3.673  0.00  0.00     0.003 A 
ATOM      6  C4  PXY d   1       3.390  -1.968   3.674  0.00  0.00    -0.082 A 
ATOM      7  C5  PXY d   1       4.334  -1.533   2.812  0.00  0.00     0.003 A 
ATOM      8  C6  PXY d   1       4.026  -0.496   1.936  0.00  0.00     0.003 A 
ENDROOT
TORSDOF 0
ENDMDL
