MODEL 1
REMARK minimizedAffinity 1.21095073
REMARK minimizedRMSD -1
REMARK  0 active torsions:
REMARK  status: ('A' for Active; 'I' for Inactive)
ROOT
ATOM      1  C4' PXY d   1       1.592   4.142  -0.391  0.00  0.00     0.077 C 
ATOM      2  C1' PXY d   1       1.929  -0.926   2.370  0.00  0.00     0.077 C 
ATOM      3  C1  PXY d   1       1.828   0.403   1.647  0.00  0.00    -0.082 A 
ATOM      4  C2  PXY d   1       2.804   0.784   0.840  0.00  0.00     0.003 A 
ATOM      5  C3  PXY d   1       2.744   1.997   0.203  0.00  0.00     0.003 A 
ATOM      6  C4  PXY d   1       1.648   2.804   0.352  0.00  0.00    -0.082 A 
ATOM      7  C5  PXY d   1       0.642   2.417   1.166  0.00  0.00     0.003 A 
ATOM      8  C6  PXY d   1       0.742   1.201   1.836  0.00  0.00     0.003 A 
ENDROOT
TORSDOF 0
ENDMDL
