MODEL 1
REMARK minimizedAffinity 4.86303043
REMARK minimizedRMSD -1
REMARK  0 active torsions:
REMARK  status: ('A' for Active; 'I' for Inactive)
ROOT
ATOM      1  C4' PXY d   1      -3.752   2.598   0.672  0.00  0.00     0.077 C 
ATOM      2  C1' PXY d   1      -5.405   2.454  -4.865  0.00  0.00     0.077 C 
ATOM      3  C1  PXY d   1      -4.982   2.499  -3.410  0.00  0.00    -0.082 A 
ATOM      4  C2  PXY d   1      -3.717   2.280  -3.090  0.00  0.00     0.003 A 
ATOM      5  C3  PXY d   1      -3.323   2.286  -1.777  0.00  0.00     0.003 A 
ATOM      6  C4  PXY d   1      -4.223   2.571  -0.785  0.00  0.00    -0.082 A 
ATOM      7  C5  PXY d   1      -5.513   2.806  -1.104  0.00  0.00     0.003 A 
ATOM      8  C6  PXY d   1      -5.901   2.755  -2.440  0.00  0.00     0.003 A 
ENDROOT
TORSDOF 0
ENDMDL
