MODEL 1
REMARK minimizedAffinity 7.48723125
REMARK minimizedRMSD -1
REMARK  0 active torsions:
REMARK  status: ('A' for Active; 'I' for Inactive)
ROOT
ATOM      1  C4' PXY d   1      -4.861  -3.385  -1.633  0.00  0.00     0.077 C 
ATOM      2  C1' PXY d   1       0.824  -2.375  -1.907  0.00  0.00     0.077 C 
ATOM      3  C1  PXY d   1      -0.665  -2.651  -1.828  0.00  0.00    -0.082 A 
ATOM      4  C2  PXY d   1      -1.478  -2.109  -2.720  0.00  0.00     0.003 A 
ATOM      5  C3  PXY d   1      -2.831  -2.323  -2.645  0.00  0.00     0.003 A 
ATOM      6  C4  PXY d   1      -3.350  -3.142  -1.679  0.00  0.00    -0.082 A 
ATOM      7  C5  PXY d   1      -2.526  -3.707  -0.772  0.00  0.00     0.003 A 
ATOM      8  C6  PXY d   1      -1.160  -3.445  -0.840  0.00  0.00     0.003 A 
ENDROOT
TORSDOF 0
ENDMDL
