MODEL 1
REMARK minimizedAffinity 3.04987574
REMARK minimizedRMSD -1
REMARK  0 active torsions:
REMARK  status: ('A' for Active; 'I' for Inactive)
ROOT
ATOM      1  C4' PXY d   1       1.501   2.846   0.871  0.00  0.00     0.077 C 
ATOM      2  C1' PXY d   1       2.150  -2.283   3.457  0.00  0.00     0.077 C 
ATOM      3  C1  PXY d   1       1.972  -0.943   2.770  0.00  0.00    -0.082 A 
ATOM      4  C2  PXY d   1       2.858   0.018   2.972  0.00  0.00     0.003 A 
ATOM      5  C3  PXY d   1       2.696   1.246   2.384  0.00  0.00     0.003 A 
ATOM      6  C4  PXY d   1       1.645   1.475   1.537  0.00  0.00    -0.082 A 
ATOM      7  C5  PXY d   1       0.743   0.496   1.317  0.00  0.00     0.003 A 
ATOM      8  C6  PXY d   1       0.903  -0.730   1.956  0.00  0.00     0.003 A 
ENDROOT
TORSDOF 0
ENDMDL
