MODEL 1
REMARK minimizedAffinity -4.88829088
REMARK minimizedRMSD -1
REMARK  1 active torsions:
REMARK  status: ('A' for Active; 'I' for Inactive)
REMARK    1  A    between atoms: C1_2  and  C2_3 
ROOT
ATOM      1  C2  UNL d   1      -0.071   0.293   0.413  0.00  0.00    -0.076 A 
ATOM      2  C3  UNL d   1       1.023   0.484   1.274  0.00  0.00     0.004 A 
ATOM      3  C4  UNL d   1       0.835   0.913   2.587  0.00  0.00    -0.003 A 
ATOM      4  C5  UNL d   1      -0.449   1.157   3.060  0.00  0.00     0.000 A 
ATOM      5  C6  UNL d   1      -1.547   0.955   2.225  0.00  0.00     0.000 A 
ATOM      6  C7  UNL d   1      -1.377   0.507   0.903  0.00  0.00    -0.073 A 
ATOM      7  C8  UNL d   1      -2.596   0.312   0.044  0.00  0.00     0.078 C 
ENDROOT
BRANCH   1   8
ATOM      8  C1  UNL d   1       0.195  -0.147  -1.009  0.00  0.00     0.053 C 
ATOM      9  C   UNL d   1       1.137  -1.339  -1.084  0.00  0.00     0.018 C 
ENDBRANCH   1   8
TORSDOF 1
ENDMDL
