MODEL 1
REMARK minimizedAffinity -3.45995188
REMARK minimizedRMSD -1
REMARK  1 active torsions:
REMARK  status: ('A' for Active; 'I' for Inactive)
REMARK    1  A    between atoms: C1_2  and  C2_3 
ROOT
ATOM      1  C2  UNL d   1      -0.125  -0.242   0.210  0.00  0.00    -0.076 A 
ATOM      2  C3  UNL d   1      -1.525  -0.149   0.113  0.00  0.00     0.004 A 
ATOM      3  C4  UNL d   1      -2.263   0.564   1.055  0.00  0.00    -0.003 A 
ATOM      4  C5  UNL d   1      -1.615   1.197   2.110  0.00  0.00     0.000 A 
ATOM      5  C6  UNL d   1      -0.226   1.130   2.212  0.00  0.00     0.000 A 
ATOM      6  C7  UNL d   1       0.536   0.429   1.261  0.00  0.00    -0.073 A 
ATOM      7  C8  UNL d   1       2.030   0.384   1.423  0.00  0.00     0.078 C 
ENDROOT
BRANCH   1   8
ATOM      8  C1  UNL d   1       0.620  -1.052  -0.827  0.00  0.00     0.053 C 
ATOM      9  C   UNL d   1       0.507  -0.459  -2.222  0.00  0.00     0.018 C 
ENDBRANCH   1   8
TORSDOF 1
ENDMDL
