MODEL 1
REMARK minimizedAffinity -3.87483835
REMARK minimizedRMSD -1
REMARK  1 active torsions:
REMARK  status: ('A' for Active; 'I' for Inactive)
REMARK    1  A    between atoms: C1_2  and  C2_3 
ROOT
ATOM      1  C2  UNL d   1       0.558   0.215   0.995  0.00  0.00    -0.076 A 
ATOM      2  C3  UNL d   1       0.536  -0.421  -0.258  0.00  0.00     0.004 A 
ATOM      3  C4  UNL d   1      -0.647  -0.528  -0.987  0.00  0.00    -0.003 A 
ATOM      4  C5  UNL d   1      -1.827   0.001  -0.475  0.00  0.00     0.000 A 
ATOM      5  C6  UNL d   1      -1.819   0.651   0.758  0.00  0.00     0.000 A 
ATOM      6  C7  UNL d   1      -0.632   0.782   1.499  0.00  0.00    -0.073 A 
ATOM      7  C8  UNL d   1      -0.683   1.487   2.826  0.00  0.00     0.078 C 
ENDROOT
BRANCH   1   8
ATOM      8  C1  UNL d   1       1.866   0.277   1.753  0.00  0.00     0.053 C 
ATOM      9  C   UNL d   1       2.852  -0.788   1.300  0.00  0.00     0.018 C 
ENDBRANCH   1   8
TORSDOF 1
ENDMDL
