MODEL 1
REMARK minimizedAffinity 2.10465169
REMARK minimizedRMSD -1
REMARK  1 active torsions:
REMARK  status: ('A' for Active; 'I' for Inactive)
REMARK    1  A    between atoms: C1_2  and  C2_3 
ROOT
ATOM      1  C2  UNL d   1       0.431  -0.481  -0.478  0.00  0.00    -0.076 A 
ATOM      2  C3  UNL d   1      -0.912  -0.095  -0.638  0.00  0.00     0.004 A 
ATOM      3  C4  UNL d   1      -1.650   0.394   0.438  0.00  0.00    -0.003 A 
ATOM      4  C5  UNL d   1      -1.059   0.504   1.692  0.00  0.00     0.000 A 
ATOM      5  C6  UNL d   1       0.277   0.142   1.864  0.00  0.00     0.000 A 
ATOM      6  C7  UNL d   1       1.041  -0.337   0.786  0.00  0.00    -0.073 A 
ATOM      7  C8  UNL d   1       2.475  -0.718   1.030  0.00  0.00     0.078 C 
ENDROOT
BRANCH   1   8
ATOM      8  C1  UNL d   1       1.174  -1.029  -1.676  0.00  0.00     0.053 C 
ATOM      9  C   UNL d   1       1.129  -0.089  -2.870  0.00  0.00     0.018 C 
ENDBRANCH   1   8
TORSDOF 1
ENDMDL
