MODEL 1
REMARK minimizedAffinity 8.46642113
REMARK minimizedRMSD -1
REMARK  0 active torsions:
REMARK  status: ('A' for Active; 'I' for Inactive)
ROOT
ATOM      1  C   UNL d   1      -1.759  -1.278  -2.421  0.00  0.00     0.077 C 
ATOM      2  C1  UNL d   1      -2.755  -0.899  -1.366  0.00  0.00    -0.074 A 
ATOM      3  C2  UNL d   1      -4.044  -0.481  -1.711  0.00  0.00    -0.005 A 
ATOM      4  C3  UNL d   1      -4.963  -0.141  -0.719  0.00  0.00     0.006 A 
ATOM      5  C4  UNL d   1      -4.603  -0.215   0.627  0.00  0.00    -0.005 A 
ATOM      6  C5  UNL d   1      -3.318  -0.631   0.992  0.00  0.00    -0.074 A 
ATOM      7  C6  UNL d   1      -2.918  -0.726   2.434  0.00  0.00     0.077 C 
ATOM      8  C7  UNL d   1      -2.403  -0.978  -0.011  0.00  0.00    -0.001 A 
ENDROOT
TORSDOF 0
ENDMDL
