MODEL 1
REMARK minimizedAffinity -1.63065803
REMARK minimizedRMSD -1
REMARK  0 active torsions:
REMARK  status: ('A' for Active; 'I' for Inactive)
ROOT
ATOM      1  C   UNL d   1      -1.896  -1.203  -0.933  0.00  0.00     0.077 C 
ATOM      2  C1  UNL d   1      -2.840  -1.011   0.217  0.00  0.00    -0.074 A 
ATOM      3  C2  UNL d   1      -4.219  -1.168   0.048  0.00  0.00    -0.005 A 
ATOM      4  C3  UNL d   1      -5.084  -0.995   1.129  0.00  0.00     0.006 A 
ATOM      5  C4  UNL d   1      -4.579  -0.663   2.387  0.00  0.00    -0.005 A 
ATOM      6  C5  UNL d   1      -3.202  -0.503   2.575  0.00  0.00    -0.074 A 
ATOM      7  C6  UNL d   1      -2.642  -0.157   3.922  0.00  0.00     0.077 C 
ATOM      8  C7  UNL d   1      -2.339  -0.685   1.485  0.00  0.00    -0.001 A 
ENDROOT
TORSDOF 0
ENDMDL
