MODEL 1
REMARK minimizedAffinity 3.78829479
REMARK minimizedRMSD -1
REMARK  0 active torsions:
REMARK  status: ('A' for Active; 'I' for Inactive)
ROOT
ATOM      1  C   UNL d   1      -1.020  -5.615  -0.708  0.00  0.00     0.077 C 
ATOM      2  C1  UNL d   1      -1.234  -4.140  -0.876  0.00  0.00    -0.074 A 
ATOM      3  C2  UNL d   1      -1.178  -3.544  -2.140  0.00  0.00    -0.005 A 
ATOM      4  C3  UNL d   1      -1.390  -2.172  -2.281  0.00  0.00     0.006 A 
ATOM      5  C4  UNL d   1      -1.658  -1.384  -1.161  0.00  0.00    -0.005 A 
ATOM      6  C5  UNL d   1      -1.719  -1.962   0.111  0.00  0.00    -0.074 A 
ATOM      7  C6  UNL d   1      -2.016  -1.131   1.323  0.00  0.00     0.077 C 
ATOM      8  C7  UNL d   1      -1.512  -3.342   0.243  0.00  0.00    -0.001 A 
ENDROOT
TORSDOF 0
ENDMDL
