MODEL 1
REMARK minimizedAffinity -2.81792068
REMARK minimizedRMSD -1
REMARK  0 active torsions:
REMARK  status: ('A' for Active; 'I' for Inactive)
ROOT
ATOM      1  C   UNL d   1      -4.687   5.918   0.386  0.00  0.00     0.077 C 
ATOM      2  C1  UNL d   1      -4.290   5.911   1.832  0.00  0.00    -0.074 A 
ATOM      3  C2  UNL d   1      -2.946   5.998   2.209  0.00  0.00    -0.005 A 
ATOM      4  C3  UNL d   1      -2.593   6.000   3.558  0.00  0.00     0.006 A 
ATOM      5  C4  UNL d   1      -3.578   5.914   4.543  0.00  0.00    -0.005 A 
ATOM      6  C5  UNL d   1      -4.927   5.826   4.185  0.00  0.00    -0.074 A 
ATOM      7  C6  UNL d   1      -6.000   5.743   5.230  0.00  0.00     0.077 C 
ATOM      8  C7  UNL d   1      -5.275   5.832   2.827  0.00  0.00    -0.001 A 
ENDROOT
TORSDOF 0
ENDMDL
