MODEL 1
REMARK minimizedAffinity 7.9367156
REMARK minimizedRMSD -1
REMARK  0 active torsions:
REMARK  status: ('A' for Active; 'I' for Inactive)
ROOT
ATOM      1  C   UNL d   1       2.537   0.429   0.012  0.00  0.00     0.077 C 
ATOM      2  C1  UNL d   1       1.558   1.265   0.782  0.00  0.00    -0.074 A 
ATOM      3  C2  UNL d   1       0.841   2.290   0.158  0.00  0.00    -0.005 A 
ATOM      4  C3  UNL d   1      -0.073   3.053   0.885  0.00  0.00     0.006 A 
ATOM      5  C4  UNL d   1      -0.279   2.798   2.241  0.00  0.00    -0.005 A 
ATOM      6  C5  UNL d   1       0.428   1.776   2.882  0.00  0.00    -0.074 A 
ATOM      7  C6  UNL d   1       0.211   1.482   4.337  0.00  0.00     0.077 C 
ATOM      8  C7  UNL d   1       1.340   1.009   2.143  0.00  0.00    -0.001 A 
ENDROOT
TORSDOF 0
ENDMDL
