MODEL 1
REMARK minimizedAffinity -5.90462017
REMARK minimizedRMSD -1
REMARK  0 active torsions:
REMARK  status: ('A' for Active; 'I' for Inactive)
ROOT
ATOM      1  C4' PXY d   1      -1.085  -0.854   2.602  0.00  0.00     0.077 C 
ATOM      2  C1' PXY d   1       0.546  -2.612  -2.657  0.00  0.00     0.077 C 
ATOM      3  C1  PXY d   1       0.127  -2.142  -1.278  0.00  0.00    -0.082 A 
ATOM      4  C2  PXY d   1      -0.449  -2.992  -0.444  0.00  0.00     0.003 A 
ATOM      5  C3  PXY d   1      -0.863  -2.575   0.795  0.00  0.00     0.003 A 
ATOM      6  C4  PXY d   1      -0.637  -1.288   1.204  0.00  0.00    -0.082 A 
ATOM      7  C5  PXY d   1      -0.040  -0.417   0.363  0.00  0.00     0.003 A 
ATOM      8  C6  PXY d   1       0.336  -0.850  -0.906  0.00  0.00     0.003 A 
ENDROOT
TORSDOF 0
ENDMDL
