MODEL 1
REMARK minimizedAffinity -4.92253828
REMARK minimizedRMSD -1
REMARK  0 active torsions:
REMARK  status: ('A' for Active; 'I' for Inactive)
ROOT
ATOM      1  C4' PXY d   1       1.087   2.799  -0.137  0.00  0.00     0.077 C 
ATOM      2  C1' PXY d   1      -0.264  -2.797   0.390  0.00  0.00     0.077 C 
ATOM      3  C1  PXY d   1       0.090  -1.331   0.239  0.00  0.00    -0.082 A 
ATOM      4  C2  PXY d   1       0.720  -0.706   1.220  0.00  0.00     0.003 A 
ATOM      5  C3  PXY d   1       1.020   0.628   1.113  0.00  0.00     0.003 A 
ATOM      6  C4  PXY d   1       0.718   1.316  -0.032  0.00  0.00    -0.082 A 
ATOM      7  C5  PXY d   1       0.084   0.683  -1.041  0.00  0.00     0.003 A 
ATOM      8  C6  PXY d   1      -0.248  -0.661  -0.896  0.00  0.00     0.003 A 
ENDROOT
TORSDOF 0
ENDMDL
