MODEL 1
REMARK minimizedAffinity -3.81973362
REMARK minimizedRMSD -1
REMARK  0 active torsions:
REMARK  status: ('A' for Active; 'I' for Inactive)
ROOT
ATOM      1  C4' PXY d   1       0.422  -3.563   0.463  0.00  0.00     0.077 C 
ATOM      2  C1' PXY d   1      -1.309   1.918  -0.160  0.00  0.00     0.077 C 
ATOM      3  C1  PXY d   1      -0.860   0.480   0.016  0.00  0.00    -0.082 A 
ATOM      4  C2  PXY d   1       0.167   0.025  -0.684  0.00  0.00     0.003 A 
ATOM      5  C3  PXY d   1       0.566  -1.281  -0.561  0.00  0.00     0.003 A 
ATOM      6  C4  PXY d   1      -0.060  -2.116   0.326  0.00  0.00    -0.082 A 
ATOM      7  C5  PXY d   1      -1.102  -1.656   1.051  0.00  0.00     0.003 A 
ATOM      8  C6  PXY d   1      -1.517  -0.339   0.881  0.00  0.00     0.003 A 
ENDROOT
TORSDOF 0
ENDMDL
