MODEL 1
REMARK minimizedAffinity -3.89736438
REMARK minimizedRMSD -1
REMARK  0 active torsions:
REMARK  status: ('A' for Active; 'I' for Inactive)
ROOT
ATOM      1  C4' PXY d   1      -1.458  -2.928   0.368  0.00  0.00     0.077 C 
ATOM      2  C1' PXY d   1       0.922   2.324  -0.041  0.00  0.00     0.077 C 
ATOM      3  C1  PXY d   1       0.303   0.944   0.054  0.00  0.00    -0.082 A 
ATOM      4  C2  PXY d   1      -0.753   0.753   0.828  0.00  0.00     0.003 A 
ATOM      5  C3  PXY d   1      -1.306  -0.496   0.951  0.00  0.00     0.003 A 
ATOM      6  C4  PXY d   1      -0.805  -1.549   0.233  0.00  0.00    -0.082 A 
ATOM      7  C5  PXY d   1       0.266  -1.360  -0.566  0.00  0.00     0.003 A 
ATOM      8  C6  PXY d   1       0.838  -0.094  -0.645  0.00  0.00     0.003 A 
ENDROOT
TORSDOF 0
ENDMDL
