MODEL 1
REMARK minimizedAffinity -3.22216392
REMARK minimizedRMSD -1
REMARK  0 active torsions:
REMARK  status: ('A' for Active; 'I' for Inactive)
ROOT
ATOM      1  C4' PXY d   1      -1.582  -0.858   2.478  0.00  0.00     0.077 C 
ATOM      2  C1' PXY d   1       1.209  -0.847  -2.584  0.00  0.00     0.077 C 
ATOM      3  C1  PXY d   1       0.472  -0.862  -1.259  0.00  0.00    -0.082 A 
ATOM      4  C2  PXY d   1       0.141   0.282  -0.682  0.00  0.00     0.003 A 
ATOM      5  C3  PXY d   1      -0.497   0.287   0.532  0.00  0.00     0.003 A 
ATOM      6  C4  PXY d   1      -0.847  -0.891   1.135  0.00  0.00    -0.082 A 
ATOM      7  C5  PXY d   1      -0.522  -2.062   0.548  0.00  0.00     0.003 A 
ATOM      8  C6  PXY d   1       0.162  -2.046  -0.665  0.00  0.00     0.003 A 
ENDROOT
TORSDOF 0
ENDMDL
