MODEL 1
REMARK minimizedAffinity -4.45820189
REMARK minimizedRMSD -1
REMARK  0 active torsions:
REMARK  status: ('A' for Active; 'I' for Inactive)
ROOT
ATOM      1  C4' PXY d   1       0.583  -1.390  -2.504  0.00  0.00     0.077 C 
ATOM      2  C1' PXY d   1      -1.576  -0.580   2.796  0.00  0.00     0.077 C 
ATOM      3  C1  PXY d   1      -1.012  -0.779   1.404  0.00  0.00    -0.082 A 
ATOM      4  C2  PXY d   1      -1.047  -1.981   0.850  0.00  0.00     0.003 A 
ATOM      5  C3  PXY d   1      -0.512  -2.186  -0.396  0.00  0.00     0.003 A 
ATOM      6  C4  PXY d   1       0.016  -1.140  -1.104  0.00  0.00    -0.082 A 
ATOM      7  C5  PXY d   1       0.046   0.091  -0.550  0.00  0.00     0.003 A 
ATOM      8  C6  PXY d   1      -0.465   0.270   0.732  0.00  0.00     0.003 A 
ENDROOT
TORSDOF 0
ENDMDL
