MODEL 1
REMARK minimizedAffinity -3.72727489
REMARK minimizedRMSD -1
REMARK  0 active torsions:
REMARK  status: ('A' for Active; 'I' for Inactive)
ROOT
ATOM      1  C4' PXY d   1       0.475  -0.624  -1.615  0.00  0.00     0.077 C 
ATOM      2  C1' PXY d   1      -1.653  -0.750   3.758  0.00  0.00     0.077 C 
ATOM      3  C1  PXY d   1      -1.090  -0.729   2.351  0.00  0.00    -0.082 A 
ATOM      4  C2  PXY d   1      -0.881   0.430   1.747  0.00  0.00     0.003 A 
ATOM      5  C3  PXY d   1      -0.402   0.467   0.463  0.00  0.00     0.003 A 
ATOM      6  C4  PXY d   1      -0.084  -0.693  -0.191  0.00  0.00    -0.082 A 
ATOM      7  C5  PXY d   1      -0.284  -1.879   0.422  0.00  0.00     0.003 A 
ATOM      8  C6  PXY d   1      -0.810  -1.896   1.710  0.00  0.00     0.003 A 
ENDROOT
TORSDOF 0
ENDMDL
