MODEL 1
REMARK minimizedAffinity -5.22703886
REMARK minimizedRMSD -1
REMARK  0 active torsions:
REMARK  status: ('A' for Active; 'I' for Inactive)
ROOT
ATOM      1  C4' PXY d   1       0.508   2.963   0.371  0.00  0.00     0.077 C 
ATOM      2  C1' PXY d   1       0.286  -2.805   0.695  0.00  0.00     0.077 C 
ATOM      3  C1  PXY d   1       0.342  -1.291   0.623  0.00  0.00    -0.082 A 
ATOM      4  C2  PXY d   1       0.033  -0.678  -0.508  0.00  0.00     0.003 A 
ATOM      5  C3  PXY d   1       0.110   0.688  -0.600  0.00  0.00     0.003 A 
ATOM      6  C4  PXY d   1       0.455   1.437   0.492  0.00  0.00    -0.082 A 
ATOM      7  C5  PXY d   1       0.762   0.820   1.653  0.00  0.00     0.003 A 
ATOM      8  C6  PXY d   1       0.718  -0.570   1.714  0.00  0.00     0.003 A 
ENDROOT
TORSDOF 0
ENDMDL
