MODEL 1
REMARK minimizedAffinity -5.60905218
REMARK minimizedRMSD -1
REMARK  0 active torsions:
REMARK  status: ('A' for Active; 'I' for Inactive)
ROOT
ATOM      1  C4' PXY d   1      -1.093  -2.603   0.684  0.00  0.00     0.077 C 
ATOM      2  C1' PXY d   1       2.362   2.027   0.474  0.00  0.00     0.077 C 
ATOM      3  C1  PXY d   1       1.465   0.807   0.537  0.00  0.00    -0.082 A 
ATOM      4  C2  PXY d   1       0.611   0.571  -0.446  0.00  0.00     0.003 A 
ATOM      5  C3  PXY d   1      -0.230  -0.510  -0.390  0.00  0.00     0.003 A 
ATOM      6  C4  PXY d   1      -0.161  -1.388   0.658  0.00  0.00    -0.082 A 
ATOM      7  C5  PXY d   1       0.715  -1.160   1.660  0.00  0.00     0.003 A 
ATOM      8  C6  PXY d   1       1.531  -0.035   1.604  0.00  0.00     0.003 A 
ENDROOT
TORSDOF 0
ENDMDL
