MODEL 1
REMARK minimizedAffinity -3.00520515
REMARK minimizedRMSD -1
REMARK  0 active torsions:
REMARK  status: ('A' for Active; 'I' for Inactive)
ROOT
ATOM      1  C4' PXY d   1       0.030  -2.679  -2.676  0.00  0.00     0.077 C 
ATOM      2  C1' PXY d   1      -0.714  -0.142   2.464  0.00  0.00     0.077 C 
ATOM      3  C1  PXY d   1      -0.518  -0.819   1.122  0.00  0.00    -0.082 A 
ATOM      4  C2  PXY d   1      -0.006  -0.134   0.112  0.00  0.00     0.003 A 
ATOM      5  C3  PXY d   1       0.148  -0.722  -1.117  0.00  0.00     0.003 A 
ATOM      6  C4  PXY d   1      -0.176  -2.039  -1.301  0.00  0.00    -0.082 A 
ATOM      7  C5  PXY d   1      -0.690  -2.747  -0.273  0.00  0.00     0.003 A 
ATOM      8  C6  PXY d   1      -0.876  -2.121   0.956  0.00  0.00     0.003 A 
ENDROOT
TORSDOF 0
ENDMDL
