MODEL 1
REMARK minimizedAffinity -4.94003725
REMARK minimizedRMSD -1
REMARK  0 active torsions:
REMARK  status: ('A' for Active; 'I' for Inactive)
ROOT
ATOM      1  C4' PXY d   1       1.132  -2.963  -2.272  0.00  0.00     0.077 C 
ATOM      2  C1' PXY d   1      -1.779  -0.149   1.854  0.00  0.00     0.077 C 
ATOM      3  C1  PXY d   1      -1.016  -0.898   0.779  0.00  0.00    -0.082 A 
ATOM      4  C2  PXY d   1      -0.238  -0.230  -0.056  0.00  0.00     0.003 A 
ATOM      5  C3  PXY d   1       0.434  -0.888  -1.054  0.00  0.00     0.003 A 
ATOM      6  C4  PXY d   1       0.350  -2.250  -1.165  0.00  0.00    -0.082 A 
ATOM      7  C5  PXY d   1      -0.433  -2.940  -0.310  0.00  0.00     0.003 A 
ATOM      8  C6  PXY d   1      -1.139  -2.249   0.671  0.00  0.00     0.003 A 
ENDROOT
TORSDOF 0
ENDMDL
