MODEL 1
REMARK minimizedAffinity -4.92885923
REMARK minimizedRMSD -1
REMARK  0 active torsions:
REMARK  status: ('A' for Active; 'I' for Inactive)
ROOT
ATOM      1  C4' PXY d   1      -0.713  -2.881   0.680  0.00  0.00     0.077 C 
ATOM      2  C1' PXY d   1       0.389   2.758   0.038  0.00  0.00     0.077 C 
ATOM      3  C1  PXY d   1       0.100   1.280   0.219  0.00  0.00    -0.082 A 
ATOM      4  C2  PXY d   1       0.407   0.431  -0.747  0.00  0.00     0.003 A 
ATOM      5  C3  PXY d   1       0.124  -0.904  -0.613  0.00  0.00     0.003 A 
ATOM      6  C4  PXY d   1      -0.431  -1.382   0.544  0.00  0.00    -0.082 A 
ATOM      7  C5  PXY d   1      -0.737  -0.523   1.539  0.00  0.00     0.003 A 
ATOM      8  C6  PXY d   1      -0.479   0.834   1.367  0.00  0.00     0.003 A 
ENDROOT
TORSDOF 0
ENDMDL
