MODEL 1
REMARK minimizedAffinity -2.40613031
REMARK minimizedRMSD -1
REMARK  0 active torsions:
REMARK  status: ('A' for Active; 'I' for Inactive)
ROOT
ATOM      1  C4' PXY d   1       0.635   2.461   0.096  0.00  0.00     0.077 C 
ATOM      2  C1' PXY d   1      -0.000  -3.267   0.548  0.00  0.00     0.077 C 
ATOM      3  C1  PXY d   1       0.179  -1.766   0.430  0.00  0.00    -0.082 A 
ATOM      4  C2  PXY d   1      -0.816  -0.960   0.764  0.00  0.00     0.003 A 
ATOM      5  C3  PXY d   1      -0.681   0.398   0.633  0.00  0.00     0.003 A 
ATOM      6  C4  PXY d   1       0.502   0.939   0.207  0.00  0.00    -0.082 A 
ATOM      7  C5  PXY d   1       1.525   0.124  -0.125  0.00  0.00     0.003 A 
ATOM      8  C6  PXY d   1       1.355  -1.253  -0.025  0.00  0.00     0.003 A 
ENDROOT
TORSDOF 0
ENDMDL
