MODEL 1
REMARK minimizedAffinity -3.00532913
REMARK minimizedRMSD -1
REMARK  0 active torsions:
REMARK  status: ('A' for Active; 'I' for Inactive)
ROOT
ATOM      1  C4' PXY d   1       0.885   2.152   0.823  0.00  0.00     0.077 C 
ATOM      2  C1' PXY d   1      -0.901  -3.335   0.476  0.00  0.00     0.077 C 
ATOM      3  C1  PXY d   1      -0.444  -1.893   0.574  0.00  0.00    -0.082 A 
ATOM      4  C2  PXY d   1       0.390  -1.408  -0.333  0.00  0.00     0.003 A 
ATOM      5  C3  PXY d   1       0.839  -0.116  -0.241  0.00  0.00     0.003 A 
ATOM      6  C4  PXY d   1       0.389   0.705   0.758  0.00  0.00    -0.082 A 
ATOM      7  C5  PXY d   1      -0.469   0.221   1.681  0.00  0.00     0.003 A 
ATOM      8  C6  PXY d   1      -0.881  -1.106   1.594  0.00  0.00     0.003 A 
ENDROOT
TORSDOF 0
ENDMDL
