MODEL 1
REMARK minimizedAffinity -2.46802282
REMARK minimizedRMSD -1
REMARK  0 active torsions:
REMARK  status: ('A' for Active; 'I' for Inactive)
ROOT
ATOM      1  C4' PXY d   1       0.398   2.086   0.371  0.00  0.00     0.077 C 
ATOM      2  C1' PXY d   1       0.008  -3.679   0.198  0.00  0.00     0.077 C 
ATOM      3  C1  PXY d   1       0.099  -2.166   0.250  0.00  0.00    -0.082 A 
ATOM      4  C2  PXY d   1       0.821  -1.523  -0.653  0.00  0.00     0.003 A 
ATOM      5  C3  PXY d   1       0.940  -0.158  -0.602  0.00  0.00     0.003 A 
ATOM      6  C4  PXY d   1       0.270   0.560   0.352  0.00  0.00    -0.082 A 
ATOM      7  C5  PXY d   1      -0.477  -0.088   1.270  0.00  0.00     0.003 A 
ATOM      8  C6  PXY d   1      -0.552  -1.477   1.226  0.00  0.00     0.003 A 
ENDROOT
TORSDOF 0
ENDMDL
