MODEL 1
REMARK minimizedAffinity -4.93220615
REMARK minimizedRMSD -1
REMARK  0 active torsions:
REMARK  status: ('A' for Active; 'I' for Inactive)
ROOT
ATOM      1  C4' PXY d   1       0.337   2.232  -0.410  0.00  0.00     0.077 C 
ATOM      2  C1' PXY d   1      -0.617  -3.362   0.692  0.00  0.00     0.077 C 
ATOM      3  C1  PXY d   1      -0.358  -1.898   0.394  0.00  0.00    -0.082 A 
ATOM      4  C2  PXY d   1      -0.596  -0.989   1.325  0.00  0.00     0.003 A 
ATOM      5  C3  PXY d   1      -0.398   0.342   1.062  0.00  0.00     0.003 A 
ATOM      6  C4  PXY d   1       0.099   0.742  -0.150  0.00  0.00    -0.082 A 
ATOM      7  C5  PXY d   1       0.354  -0.181  -1.101  0.00  0.00     0.003 A 
ATOM      8  C6  PXY d   1       0.107  -1.523  -0.828  0.00  0.00     0.003 A 
ENDROOT
TORSDOF 0
ENDMDL
