MODEL 1
REMARK minimizedAffinity -6.20297003
REMARK minimizedRMSD -1
REMARK  0 active torsions:
REMARK  status: ('A' for Active; 'I' for Inactive)
ROOT
ATOM      1  C4' PXY d   1       0.350   2.297  -0.891  0.00  0.00     0.077 C 
ATOM      2  C1' PXY d   1       0.010  -3.360   0.249  0.00  0.00     0.077 C 
ATOM      3  C1  PXY d   1       0.090  -1.874  -0.042  0.00  0.00    -0.082 A 
ATOM      4  C2  PXY d   1       0.576  -1.459  -1.200  0.00  0.00     0.003 A 
ATOM      5  C3  PXY d   1       0.684  -0.119  -1.466  0.00  0.00     0.003 A 
ATOM      6  C4  PXY d   1       0.242   0.806  -0.558  0.00  0.00    -0.082 A 
ATOM      7  C5  PXY d   1      -0.265   0.390   0.622  0.00  0.00     0.003 A 
ATOM      8  C6  PXY d   1      -0.328  -0.974   0.889  0.00  0.00     0.003 A 
ENDROOT
TORSDOF 0
ENDMDL
