MODEL 1
REMARK minimizedAffinity -4.34540558
REMARK minimizedRMSD -1
REMARK  0 active torsions:
REMARK  status: ('A' for Active; 'I' for Inactive)
ROOT
ATOM      1  C4' PXY d   1       1.473   3.571   0.604  0.00  0.00     0.077 C 
ATOM      2  C1' PXY d   1      -0.117  -1.944  -0.086  0.00  0.00     0.077 C 
ATOM      3  C1  PXY d   1       0.300  -0.496   0.082  0.00  0.00    -0.082 A 
ATOM      4  C2  PXY d   1       0.945  -0.124   1.175  0.00  0.00     0.003 A 
ATOM      5  C3  PXY d   1       1.301   1.188   1.358  0.00  0.00     0.003 A 
ATOM      6  C4  PXY d   1       1.041   2.118   0.387  0.00  0.00    -0.082 A 
ATOM      7  C5  PXY d   1       0.392   1.744  -0.736  0.00  0.00     0.003 A 
ATOM      8  C6  PXY d   1       0.002   0.416  -0.883  0.00  0.00     0.003 A 
ENDROOT
TORSDOF 0
ENDMDL
