MODEL 1
REMARK minimizedAffinity -3.22207427
REMARK minimizedRMSD -1
REMARK  0 active torsions:
REMARK  status: ('A' for Active; 'I' for Inactive)
ROOT
ATOM      1  C4' PXY d   1       0.710   2.481  -0.040  0.00  0.00     0.077 C 
ATOM      2  C1' PXY d   1      -0.694  -3.106   0.437  0.00  0.00     0.077 C 
ATOM      3  C1  PXY d   1      -0.317  -1.644   0.303  0.00  0.00    -0.082 A 
ATOM      4  C2  PXY d   1      -0.536  -0.817   1.312  0.00  0.00     0.003 A 
ATOM      5  C3  PXY d   1      -0.230   0.515   1.196  0.00  0.00     0.003 A 
ATOM      6  C4  PXY d   1       0.354   0.995   0.054  0.00  0.00    -0.082 A 
ATOM      7  C5  PXY d   1       0.590   0.155  -0.976  0.00  0.00     0.003 A 
ATOM      8  C6  PXY d   1       0.235  -1.185  -0.853  0.00  0.00     0.003 A 
ENDROOT
TORSDOF 0
ENDMDL
