MODEL 1
REMARK minimizedAffinity -4.60504961
REMARK minimizedRMSD -1
REMARK  0 active torsions:
REMARK  status: ('A' for Active; 'I' for Inactive)
ROOT
ATOM      1  C   UNL d   1       2.794  -0.096  -0.361  0.00  0.00     0.020 A 
ATOM      2  C1  UNL d   1       2.773  -1.118   0.587  0.00  0.00     0.020 A 
ATOM      3  C2  UNL d   1       1.566  -1.498   1.178  0.00  0.00     0.034 A 
ATOM      4  C3  UNL d   1       0.375  -0.855   0.821  0.00  0.00     0.017 A 
ATOM      5  C4  UNL d   1       0.397   0.171  -0.130  0.00  0.00     0.017 A 
ATOM      6  C5  UNL d   1       1.609   0.547  -0.719  0.00  0.00     0.034 A 
ATOM      7 Cl   UNL d   1      -1.031   1.011  -0.622  0.00  0.00    -0.070 Cl
ATOM      8 Cl1  UNL d   1      -1.081  -1.376   1.591  0.00  0.00    -0.070 Cl
ENDROOT
TORSDOF 0
ENDMDL
