MODEL 1
REMARK minimizedAffinity 0.604528844
REMARK minimizedRMSD -1
REMARK  0 active torsions:
REMARK  status: ('A' for Active; 'I' for Inactive)
ROOT
ATOM      1  C   UNL d   1       0.995  -0.515  -0.376  0.00  0.00     0.020 A 
ATOM      2  C1  UNL d   1      -0.094  -0.516   0.494  0.00  0.00     0.020 A 
ATOM      3  C2  UNL d   1       0.076  -0.895   1.827  0.00  0.00     0.034 A 
ATOM      4  C3  UNL d   1       1.339  -1.276   2.294  0.00  0.00     0.017 A 
ATOM      5  C4  UNL d   1       2.433  -1.275   1.420  0.00  0.00     0.017 A 
ATOM      6  C5  UNL d   1       2.256  -0.894   0.086  0.00  0.00     0.034 A 
ATOM      7 Cl   UNL d   1       4.022  -1.732   1.924  0.00  0.00    -0.070 Cl
ATOM      8 Cl1  UNL d   1       1.478  -1.733   3.955  0.00  0.00    -0.070 Cl
ENDROOT
TORSDOF 0
ENDMDL
