MODEL 1
REMARK minimizedAffinity -4.21181059
REMARK minimizedRMSD -1
REMARK  0 active torsions:
REMARK  status: ('A' for Active; 'I' for Inactive)
ROOT
ATOM      1  C   UNL d   1      -0.241   1.058  -0.100  0.00  0.00     0.020 A 
ATOM      2  C1  UNL d   1       0.979   0.598  -0.594  0.00  0.00     0.020 A 
ATOM      3  C2  UNL d   1       1.526  -0.591  -0.106  0.00  0.00     0.034 A 
ATOM      4  C3  UNL d   1       0.853  -1.324   0.878  0.00  0.00     0.017 A 
ATOM      5  C4  UNL d   1      -0.372  -0.862   1.372  0.00  0.00     0.017 A 
ATOM      6  C5  UNL d   1      -0.915   0.329   0.881  0.00  0.00     0.034 A 
ATOM      7 Cl   UNL d   1      -1.261  -1.711   2.587  0.00  0.00    -0.070 Cl
ATOM      8 Cl1  UNL d   1       1.588  -2.786   1.434  0.00  0.00    -0.070 Cl
ENDROOT
TORSDOF 0
ENDMDL
