MODEL 1
REMARK minimizedAffinity -1.72980952
REMARK minimizedRMSD -1
REMARK  0 active torsions:
REMARK  status: ('A' for Active; 'I' for Inactive)
ROOT
ATOM      1  C   UNL d   1       1.243   0.491  -0.661  0.00  0.00     0.020 A 
ATOM      2  C1  UNL d   1      -0.002   1.004  -0.299  0.00  0.00     0.020 A 
ATOM      3  C2  UNL d   1      -0.845   0.266   0.534  0.00  0.00     0.034 A 
ATOM      4  C3  UNL d   1      -0.446  -0.989   1.006  0.00  0.00     0.017 A 
ATOM      5  C4  UNL d   1       0.804  -1.504   0.642  0.00  0.00     0.017 A 
ATOM      6  C5  UNL d   1       1.645  -0.760  -0.192  0.00  0.00     0.034 A 
ATOM      7 Cl   UNL d   1       1.366  -3.045   1.186  0.00  0.00    -0.070 Cl
ATOM      8 Cl1  UNL d   1      -1.540  -1.847   2.032  0.00  0.00    -0.070 Cl
ENDROOT
TORSDOF 0
ENDMDL
