MODEL 1
REMARK minimizedAffinity -4.63412285
REMARK minimizedRMSD -1
REMARK  0 active torsions:
REMARK  status: ('A' for Active; 'I' for Inactive)
ROOT
ATOM      1  C   UNL d   1      -0.269   0.941  -0.266  0.00  0.00     0.020 A 
ATOM      2  C1  UNL d   1       0.974   0.412  -0.611  0.00  0.00     0.020 A 
ATOM      3  C2  UNL d   1       1.371  -0.827  -0.104  0.00  0.00     0.034 A 
ATOM      4  C3  UNL d   1       0.525  -1.541   0.751  0.00  0.00     0.017 A 
ATOM      5  C4  UNL d   1      -0.723  -1.010   1.097  0.00  0.00     0.017 A 
ATOM      6  C5  UNL d   1      -1.115   0.231   0.587  0.00  0.00     0.034 A 
ATOM      7 Cl   UNL d   1      -1.822  -1.832   2.148  0.00  0.00    -0.070 Cl
ATOM      8 Cl1  UNL d   1       1.080  -3.068   1.341  0.00  0.00    -0.070 Cl
ENDROOT
TORSDOF 0
ENDMDL
