MODEL 1
REMARK minimizedAffinity 0.177605063
REMARK minimizedRMSD -1
REMARK  0 active torsions:
REMARK  status: ('A' for Active; 'I' for Inactive)
ROOT
ATOM      1  C   UNL d   1       0.486   1.004  -1.343  0.00  0.00     0.020 A 
ATOM      2  C1  UNL d   1      -0.739   1.292  -0.744  0.00  0.00     0.020 A 
ATOM      3  C2  UNL d   1      -1.114   0.634   0.429  0.00  0.00     0.034 A 
ATOM      4  C3  UNL d   1      -0.263  -0.315   1.007  0.00  0.00     0.017 A 
ATOM      5  C4  UNL d   1       0.967  -0.603   0.405  0.00  0.00     0.017 A 
ATOM      6  C5  UNL d   1       1.337   0.059  -0.770  0.00  0.00     0.034 A 
ATOM      7 Cl   UNL d   1       2.070  -1.762   1.059  0.00  0.00    -0.070 Cl
ATOM      8 Cl1  UNL d   1      -0.791  -1.089   2.459  0.00  0.00    -0.070 Cl
ENDROOT
TORSDOF 0
ENDMDL
