MODEL 1
REMARK minimizedAffinity -4.60786486
REMARK minimizedRMSD -1
REMARK  0 active torsions:
REMARK  status: ('A' for Active; 'I' for Inactive)
ROOT
ATOM      1  C   UNL d   1       1.180   0.935  -0.758  0.00  0.00     0.020 A 
ATOM      2  C1  UNL d   1       0.000   1.500  -0.277  0.00  0.00     0.020 A 
ATOM      3  C2  UNL d   1      -0.853   0.749   0.535  0.00  0.00     0.034 A 
ATOM      4  C3  UNL d   1      -0.528  -0.571   0.867  0.00  0.00     0.017 A 
ATOM      5  C4  UNL d   1       0.656  -1.137   0.383  0.00  0.00     0.017 A 
ATOM      6  C5  UNL d   1       1.507  -0.381  -0.429  0.00  0.00     0.034 A 
ATOM      7 Cl   UNL d   1       1.125  -2.760   0.750  0.00  0.00    -0.070 Cl
ATOM      8 Cl1  UNL d   1      -1.630  -1.440   1.875  0.00  0.00    -0.070 Cl
ENDROOT
TORSDOF 0
ENDMDL
