MODEL 1
REMARK minimizedAffinity -2.11537862
REMARK minimizedRMSD -1
REMARK  0 active torsions:
REMARK  status: ('A' for Active; 'I' for Inactive)
ROOT
ATOM      1  C   UNL d   1       1.900   0.292  -0.498  0.00  0.00     0.020 A 
ATOM      2  C1  UNL d   1       0.696   0.993  -0.423  0.00  0.00     0.020 A 
ATOM      3  C2  UNL d   1      -0.439   0.375   0.106  0.00  0.00     0.034 A 
ATOM      4  C3  UNL d   1      -0.374  -0.947   0.561  0.00  0.00     0.017 A 
ATOM      5  C4  UNL d   1       0.835  -1.649   0.485  0.00  0.00     0.017 A 
ATOM      6  C5  UNL d   1       1.969  -1.026  -0.045  0.00  0.00     0.034 A 
ATOM      7 Cl   UNL d   1       0.993  -3.283   1.026  0.00  0.00    -0.070 Cl
ATOM      8 Cl1  UNL d   1      -1.817  -1.648   1.203  0.00  0.00    -0.070 Cl
ENDROOT
TORSDOF 0
ENDMDL
