MODEL 1
REMARK minimizedAffinity -4.256598
REMARK minimizedRMSD -1
REMARK  0 active torsions:
REMARK  status: ('A' for Active; 'I' for Inactive)
ROOT
ATOM      1  C   UNL d   1       1.419  -2.631   0.608  0.00  0.00     0.020 A 
ATOM      2  C1  UNL d   1       0.061  -2.769   0.896  0.00  0.00     0.020 A 
ATOM      3  C2  UNL d   1      -0.790  -1.667   0.789  0.00  0.00     0.034 A 
ATOM      4  C3  UNL d   1      -0.286  -0.423   0.393  0.00  0.00     0.017 A 
ATOM      5  C4  UNL d   1       1.077  -0.286   0.103  0.00  0.00     0.017 A 
ATOM      6  C5  UNL d   1       1.925  -1.392   0.212  0.00  0.00     0.034 A 
ATOM      7 Cl   UNL d   1       1.772   1.216  -0.392  0.00  0.00    -0.070 Cl
ATOM      8 Cl1  UNL d   1      -1.396   0.896   0.281  0.00  0.00    -0.070 Cl
ENDROOT
TORSDOF 0
ENDMDL
