MODEL 1
REMARK minimizedAffinity -3.41867042
REMARK minimizedRMSD -1
REMARK  0 active torsions:
REMARK  status: ('A' for Active; 'I' for Inactive)
ROOT
ATOM      1  C   UNL d   1      -0.018   1.069  -0.410  0.00  0.00     0.020 A 
ATOM      2  C1  UNL d   1       1.282   0.649  -0.690  0.00  0.00     0.020 A 
ATOM      3  C2  UNL d   1       1.726  -0.597  -0.239  0.00  0.00     0.034 A 
ATOM      4  C3  UNL d   1       0.869  -1.426   0.494  0.00  0.00     0.017 A 
ATOM      5  C4  UNL d   1      -0.436  -1.003   0.774  0.00  0.00     0.017 A 
ATOM      6  C5  UNL d   1      -0.875   0.244   0.320  0.00  0.00     0.034 A 
ATOM      7 Cl   UNL d   1      -1.551  -1.971   1.672  0.00  0.00    -0.070 Cl
ATOM      8 Cl1  UNL d   1       1.484  -2.953   1.019  0.00  0.00    -0.070 Cl
ENDROOT
TORSDOF 0
ENDMDL
