MODEL 1
REMARK minimizedAffinity -4.39139843
REMARK minimizedRMSD -1
REMARK  0 active torsions:
REMARK  status: ('A' for Active; 'I' for Inactive)
ROOT
ATOM      1  C   UNL d   1       0.816  -2.620   1.776  0.00  0.00     0.020 A 
ATOM      2  C1  UNL d   1      -0.353  -1.973   2.174  0.00  0.00     0.020 A 
ATOM      3  C2  UNL d   1      -0.710  -0.754   1.592  0.00  0.00     0.034 A 
ATOM      4  C3  UNL d   1       0.103  -0.179   0.609  0.00  0.00     0.017 A 
ATOM      5  C4  UNL d   1       1.277  -0.829   0.210  0.00  0.00     0.017 A 
ATOM      6  C5  UNL d   1       1.629  -2.049   0.796  0.00  0.00     0.034 A 
ATOM      7 Cl   UNL d   1       2.330  -0.182  -0.997  0.00  0.00    -0.070 Cl
ATOM      8 Cl1  UNL d   1      -0.399   1.329  -0.068  0.00  0.00    -0.070 Cl
ENDROOT
TORSDOF 0
ENDMDL
