MODEL 1
REMARK minimizedAffinity -4.6933589
REMARK minimizedRMSD -1
REMARK  0 active torsions:
REMARK  status: ('A' for Active; 'I' for Inactive)
ROOT
ATOM      1  C   UNL d   1       1.435  -2.689   1.323  0.00  0.00     0.020 A 
ATOM      2  C1  UNL d   1       0.097  -2.524   1.680  0.00  0.00     0.020 A 
ATOM      3  C2  UNL d   1      -0.612  -1.408   1.232  0.00  0.00     0.034 A 
ATOM      4  C3  UNL d   1       0.015  -0.453   0.423  0.00  0.00     0.017 A 
ATOM      5  C4  UNL d   1       1.358  -0.620   0.065  0.00  0.00     0.017 A 
ATOM      6  C5  UNL d   1       2.064  -1.739   0.517  0.00  0.00     0.034 A 
ATOM      7 Cl   UNL d   1       2.200   0.516  -0.929  0.00  0.00    -0.070 Cl
ATOM      8 Cl1  UNL d   1      -0.923   0.902  -0.096  0.00  0.00    -0.070 Cl
ENDROOT
TORSDOF 0
ENDMDL
