MODEL 1
REMARK minimizedAffinity -4.31953812
REMARK minimizedRMSD -1
REMARK  0 active torsions:
REMARK  status: ('A' for Active; 'I' for Inactive)
ROOT
ATOM      1  C   UNL d   1      -0.182  -2.465   2.122  0.00  0.00     0.020 A 
ATOM      2  C1  UNL d   1       1.088  -2.816   1.666  0.00  0.00     0.020 A 
ATOM      3  C2  UNL d   1       1.733  -2.022   0.715  0.00  0.00     0.034 A 
ATOM      4  C3  UNL d   1       1.108  -0.872   0.218  0.00  0.00     0.017 A 
ATOM      5  C4  UNL d   1      -0.166  -0.520   0.677  0.00  0.00     0.017 A 
ATOM      6  C5  UNL d   1      -0.807  -1.319   1.629  0.00  0.00     0.034 A 
ATOM      7 Cl   UNL d   1      -1.000   0.883   0.111  0.00  0.00    -0.070 Cl
ATOM      8 Cl1  UNL d   1       1.964   0.063  -0.955  0.00  0.00    -0.070 Cl
ENDROOT
TORSDOF 0
ENDMDL
