MODEL 1
REMARK minimizedAffinity -3.68708825
REMARK minimizedRMSD -1
REMARK  0 active torsions:
REMARK  status: ('A' for Active; 'I' for Inactive)
ROOT
ATOM      1  C   UNL d   1      -0.717   0.798  -0.275  0.00  0.00     0.020 A 
ATOM      2  C1  UNL d   1       0.536   0.470  -0.792  0.00  0.00     0.020 A 
ATOM      3  C2  UNL d   1       1.235  -0.628  -0.284  0.00  0.00     0.034 A 
ATOM      4  C3  UNL d   1       0.681  -1.401   0.742  0.00  0.00     0.017 A 
ATOM      5  C4  UNL d   1      -0.577  -1.071   1.260  0.00  0.00     0.017 A 
ATOM      6  C5  UNL d   1      -1.272   0.029   0.748  0.00  0.00     0.034 A 
ATOM      7 Cl   UNL d   1      -1.325  -1.978   2.527  0.00  0.00    -0.070 Cl
ATOM      8 Cl1  UNL d   1       1.600  -2.745   1.321  0.00  0.00    -0.070 Cl
ENDROOT
TORSDOF 0
ENDMDL
