MODEL 1
REMARK minimizedAffinity -4.83976173
REMARK minimizedRMSD -1
REMARK  0 active torsions:
REMARK  status: ('A' for Active; 'I' for Inactive)
ROOT
ATOM      1  C   UNL d   1       1.322  -2.744   1.764  0.00  0.00     0.020 A 
ATOM      2  C1  UNL d   1       0.007  -2.599   2.203  0.00  0.00     0.020 A 
ATOM      3  C2  UNL d   1      -0.755  -1.508   1.780  0.00  0.00     0.034 A 
ATOM      4  C3  UNL d   1      -0.202  -0.557   0.915  0.00  0.00     0.017 A 
ATOM      5  C4  UNL d   1       1.118  -0.703   0.474  0.00  0.00     0.017 A 
ATOM      6  C5  UNL d   1       1.876  -1.798   0.901  0.00  0.00     0.034 A 
ATOM      7 Cl   UNL d   1       1.870   0.430  -0.594  0.00  0.00    -0.070 Cl
ATOM      8 Cl1  UNL d   1      -1.201   0.767   0.432  0.00  0.00    -0.070 Cl
ENDROOT
TORSDOF 0
ENDMDL
