MODEL 1
REMARK minimizedAffinity -3.70773602
REMARK minimizedRMSD -1
REMARK  0 active torsions:
REMARK  status: ('A' for Active; 'I' for Inactive)
ROOT
ATOM      1  C   UNL d   1      -0.605   0.737  -0.127  0.00  0.00     0.020 A 
ATOM      2  C1  UNL d   1       0.665   0.465  -0.636  0.00  0.00     0.020 A 
ATOM      3  C2  UNL d   1       1.382  -0.639  -0.172  0.00  0.00     0.034 A 
ATOM      4  C3  UNL d   1       0.831  -1.476   0.805  0.00  0.00     0.017 A 
ATOM      5  C4  UNL d   1      -0.443  -1.203   1.316  0.00  0.00     0.017 A 
ATOM      6  C5  UNL d   1      -1.157  -0.096   0.847  0.00  0.00     0.034 A 
ATOM      7 Cl   UNL d   1      -1.189  -2.190   2.523  0.00  0.00    -0.070 Cl
ATOM      8 Cl1  UNL d   1       1.774  -2.824   1.334  0.00  0.00    -0.070 Cl
ENDROOT
TORSDOF 0
ENDMDL
