MODEL 1
REMARK minimizedAffinity 7.12995243
REMARK minimizedRMSD -1
REMARK  0 active torsions:
REMARK  status: ('A' for Active; 'I' for Inactive)
ROOT
ATOM      1  C   UNL d   1       4.640   2.459  -4.524  0.00  0.00     0.077 C 
ATOM      2  C1  UNL d   1       3.940   3.700  -4.992  0.00  0.00    -0.074 A 
ATOM      3  C2  UNL d   1       4.657   4.758  -5.560  0.00  0.00    -0.005 A 
ATOM      4  C3  UNL d   1       3.991   5.902  -6.000  0.00  0.00     0.006 A 
ATOM      5  C4  UNL d   1       2.604   6.000  -5.875  0.00  0.00    -0.005 A 
ATOM      6  C5  UNL d   1       1.871   4.951  -5.310  0.00  0.00    -0.074 A 
ATOM      7  C6  UNL d   1       0.380   5.036  -5.179  0.00  0.00     0.077 C 
ATOM      8  C7  UNL d   1       2.547   3.802  -4.878  0.00  0.00    -0.001 A 
ENDROOT
TORSDOF 0
ENDMDL
