MODEL 1
REMARK minimizedAffinity 7.27048492
REMARK minimizedRMSD -1
REMARK  0 active torsions:
REMARK  status: ('A' for Active; 'I' for Inactive)
ROOT
ATOM      1  C   UNL d   1      -5.997   3.436  -5.775  0.00  0.00     0.077 C 
ATOM      2  C1  UNL d   1      -5.277   2.520  -4.831  0.00  0.00    -0.074 A 
ATOM      3  C2  UNL d   1      -5.721   1.210  -4.621  0.00  0.00    -0.005 A 
ATOM      4  C3  UNL d   1      -5.035   0.367  -3.747  0.00  0.00     0.006 A 
ATOM      5  C4  UNL d   1      -3.901   0.824  -3.074  0.00  0.00    -0.005 A 
ATOM      6  C5  UNL d   1      -3.443   2.130  -3.272  0.00  0.00    -0.074 A 
ATOM      7  C6  UNL d   1      -2.220   2.634  -2.564  0.00  0.00     0.077 C 
ATOM      8  C7  UNL d   1      -4.133   2.969  -4.157  0.00  0.00    -0.001 A 
ENDROOT
TORSDOF 0
ENDMDL
