MODEL 1
REMARK minimizedAffinity 16.313076
REMARK minimizedRMSD -1
REMARK  0 active torsions:
REMARK  status: ('A' for Active; 'I' for Inactive)
ROOT
ATOM      1  C   UNL d   1      -5.571   0.698  -5.622  0.00  0.00     0.077 C 
ATOM      2  C1  UNL d   1      -5.098   2.030  -5.121  0.00  0.00    -0.074 A 
ATOM      3  C2  UNL d   1      -5.789   3.204  -5.436  0.00  0.00    -0.005 A 
ATOM      4  C3  UNL d   1      -5.342   4.434  -4.954  0.00  0.00     0.006 A 
ATOM      5  C4  UNL d   1      -4.200   4.503  -4.155  0.00  0.00    -0.005 A 
ATOM      6  C5  UNL d   1      -3.496   3.339  -3.829  0.00  0.00    -0.074 A 
ATOM      7  C6  UNL d   1      -2.273   3.394  -2.963  0.00  0.00     0.077 C 
ATOM      8  C7  UNL d   1      -3.956   2.106  -4.311  0.00  0.00    -0.001 A 
ENDROOT
TORSDOF 0
ENDMDL
