MODEL 1
REMARK minimizedAffinity -0.27485019
REMARK minimizedRMSD -1
REMARK  0 active torsions:
REMARK  status: ('A' for Active; 'I' for Inactive)
ROOT
ATOM      1  C   UNL d   1       2.199   5.969  -5.667  0.00  0.00     0.077 C 
ATOM      2  C1  UNL d   1       3.526   5.274  -5.745  0.00  0.00    -0.074 A 
ATOM      3  C2  UNL d   1       4.706   5.999  -5.938  0.00  0.00    -0.005 A 
ATOM      4  C3  UNL d   1       5.934   5.339  -6.000  0.00  0.00     0.006 A 
ATOM      5  C4  UNL d   1       5.993   3.951  -5.869  0.00  0.00    -0.005 A 
ATOM      6  C5  UNL d   1       4.823   3.211  -5.674  0.00  0.00    -0.074 A 
ATOM      7  C6  UNL d   1       4.871   1.719  -5.521  0.00  0.00     0.077 C 
ATOM      8  C7  UNL d   1       3.594   3.881  -5.607  0.00  0.00    -0.001 A 
ENDROOT
TORSDOF 0
ENDMDL
