MODEL 1
REMARK minimizedAffinity 9.76475906
REMARK minimizedRMSD -1
REMARK  0 active torsions:
REMARK  status: ('A' for Active; 'I' for Inactive)
ROOT
ATOM      1  C   UNL d   1       5.198   2.010  -5.125  0.00  0.00     0.077 C 
ATOM      2  C1  UNL d   1       4.668   3.406  -5.274  0.00  0.00    -0.074 A 
ATOM      3  C2  UNL d   1       5.445   4.411  -5.859  0.00  0.00    -0.005 A 
ATOM      4  C3  UNL d   1       4.936   5.701  -6.000  0.00  0.00     0.006 A 
ATOM      5  C4  UNL d   1       3.646   6.000  -5.558  0.00  0.00    -0.005 A 
ATOM      6  C5  UNL d   1       2.854   5.008  -4.972  0.00  0.00    -0.074 A 
ATOM      7  C6  UNL d   1       1.463   5.309  -4.501  0.00  0.00     0.077 C 
ATOM      8  C7  UNL d   1       3.371   3.712  -4.840  0.00  0.00    -0.001 A 
ENDROOT
TORSDOF 0
ENDMDL
