MODEL 1
REMARK minimizedAffinity 11.2195282
REMARK minimizedRMSD -1
REMARK  0 active torsions:
REMARK  status: ('A' for Active; 'I' for Inactive)
ROOT
ATOM      1  C   UNL d   1       5.218  -5.672  -1.893  0.00  0.00     0.077 C 
ATOM      2  C1  UNL d   1       4.711  -5.073  -0.614  0.00  0.00    -0.074 A 
ATOM      3  C2  UNL d   1       5.280  -5.417   0.616  0.00  0.00    -0.005 A 
ATOM      4  C3  UNL d   1       4.805  -4.844   1.796  0.00  0.00     0.006 A 
ATOM      5  C4  UNL d   1       3.756  -3.924   1.757  0.00  0.00    -0.005 A 
ATOM      6  C5  UNL d   1       3.175  -3.568   0.536  0.00  0.00    -0.074 A 
ATOM      7  C6  UNL d   1       2.054  -2.573   0.476  0.00  0.00     0.077 C 
ATOM      8  C7  UNL d   1       3.663  -4.142  -0.646  0.00  0.00    -0.001 A 
ENDROOT
TORSDOF 0
ENDMDL
