MODEL 1
REMARK minimizedAffinity 9.62761402
REMARK minimizedRMSD -1
REMARK  0 active torsions:
REMARK  status: ('A' for Active; 'I' for Inactive)
ROOT
ATOM      1  C   UNL d   1      -1.473   3.639  -3.381  0.00  0.00     0.077 C 
ATOM      2  C1  UNL d   1      -2.388   2.461  -3.226  0.00  0.00    -0.074 A 
ATOM      3  C2  UNL d   1      -3.548   2.345  -3.999  0.00  0.00    -0.005 A 
ATOM      4  C3  UNL d   1      -4.384   1.239  -3.850  0.00  0.00     0.006 A 
ATOM      5  C4  UNL d   1      -4.070   0.238  -2.929  0.00  0.00    -0.005 A 
ATOM      6  C5  UNL d   1      -2.914   0.336  -2.149  0.00  0.00    -0.074 A 
ATOM      7  C6  UNL d   1      -2.556  -0.734  -1.161  0.00  0.00     0.077 C 
ATOM      8  C7  UNL d   1      -2.075   1.448  -2.309  0.00  0.00    -0.001 A 
ENDROOT
TORSDOF 0
ENDMDL
