MODEL 1
REMARK minimizedAffinity 5.18514204
REMARK minimizedRMSD -1
REMARK  0 active torsions:
REMARK  status: ('A' for Active; 'I' for Inactive)
ROOT
ATOM      1  C   UNL d   1       1.133   5.674  -5.259  0.00  0.00     0.077 C 
ATOM      2  C1  UNL d   1       2.531   5.158  -5.426  0.00  0.00    -0.074 A 
ATOM      3  C2  UNL d   1       3.561   6.000  -5.857  0.00  0.00    -0.005 A 
ATOM      4  C3  UNL d   1       4.859   5.508  -5.999  0.00  0.00     0.006 A 
ATOM      5  C4  UNL d   1       5.139   4.172  -5.712  0.00  0.00    -0.005 A 
ATOM      6  C5  UNL d   1       4.122   3.315  -5.279  0.00  0.00    -0.074 A 
ATOM      7  C6  UNL d   1       4.408   1.878  -4.957  0.00  0.00     0.077 C 
ATOM      8  C7  UNL d   1       2.822   3.818  -5.132  0.00  0.00    -0.001 A 
ENDROOT
TORSDOF 0
ENDMDL
