MODEL 1
REMARK minimizedAffinity 11.3552675
REMARK minimizedRMSD -1
REMARK  2 active torsions:
REMARK  status: ('A' for Active; 'I' for Inactive)
REMARK    1  A    between atoms: C2'_3  and  C1'_4 
REMARK    2  A    between atoms: C1'_4  and  C1_5 
ROOT
ATOM      1  C1  I4B d   1       1.007  -2.478   0.066  0.00  0.00    -0.075 A 
ATOM      2  C2  I4B d   1       1.200  -3.836   0.129  0.00  0.00     0.003 A 
ATOM      3  C3  I4B d   1       1.641  -4.546  -1.014  0.00  0.00     0.002 A 
ATOM      4  C4  I4B d   1       1.827  -3.873  -2.204  0.00  0.00    -0.004 A 
ATOM      5  C5  I4B d   1       1.653  -2.493  -2.260  0.00  0.00     0.002 A 
ATOM      6  C6  I4B d   1       1.252  -1.789  -1.115  0.00  0.00     0.003 A 
ENDROOT
BRANCH   1   7
ATOM      7  C1' I4B d   1       0.509  -1.764   1.282  0.00  0.00     0.060 C 
BRANCH   7   8
ATOM      8  C2' I4B d   1       1.710  -1.371   2.118  0.00  0.00    -0.013 C 
ATOM      9  C4' I4B d   1       2.041   0.088   1.945  0.00  0.00     0.013 C 
ATOM     10  C3' I4B d   1       1.402  -1.691   3.550  0.00  0.00     0.013 C 
ENDBRANCH   7   8
ENDBRANCH   1   7
TORSDOF 2
ENDMDL
