MODEL 1
REMARK minimizedAffinity 0.901912987
REMARK minimizedRMSD -1
REMARK  2 active torsions:
REMARK  status: ('A' for Active; 'I' for Inactive)
REMARK    1  A    between atoms: C2'_3  and  C1'_4 
REMARK    2  A    between atoms: C1'_4  and  C1_5 
ROOT
ATOM      1  C1  I4B d   1      -5.439  -4.284  -2.424  0.00  0.00    -0.075 A 
ATOM      2  C2  I4B d   1      -4.472  -5.258  -2.404  0.00  0.00     0.003 A 
ATOM      3  C3  I4B d   1      -4.030  -5.799  -1.172  0.00  0.00     0.002 A 
ATOM      4  C4  I4B d   1      -4.543  -5.304   0.010  0.00  0.00    -0.004 A 
ATOM      5  C5  I4B d   1      -5.540  -4.333  -0.013  0.00  0.00     0.002 A 
ATOM      6  C6  I4B d   1      -6.000  -3.829  -1.238  0.00  0.00     0.003 A 
ENDROOT
BRANCH   1   7
ATOM      7  C1' I4B d   1      -5.859  -3.712  -3.741  0.00  0.00     0.060 C 
BRANCH   7   8
ATOM      8  C2' I4B d   1      -4.963  -4.300  -4.812  0.00  0.00    -0.013 C 
ATOM      9  C4' I4B d   1      -5.570  -5.543  -5.409  0.00  0.00     0.013 C 
ATOM     10  C3' I4B d   1      -4.741  -3.250  -5.859  0.00  0.00     0.013 C 
ENDBRANCH   7   8
ENDBRANCH   1   7
TORSDOF 2
ENDMDL
