MODEL 1
REMARK minimizedAffinity 9.33790302
REMARK minimizedRMSD -1
REMARK  2 active torsions:
REMARK  status: ('A' for Active; 'I' for Inactive)
REMARK    1  A    between atoms: C2'_3  and  C1'_4 
REMARK    2  A    between atoms: C1'_4  and  C1_5 
ROOT
ATOM      1  C1  I4B d   1       4.262  -0.663  -3.760  0.00  0.00    -0.075 A 
ATOM      2  C2  I4B d   1       4.137   0.461  -4.539  0.00  0.00     0.003 A 
ATOM      3  C3  I4B d   1       4.942   0.623  -5.692  0.00  0.00     0.002 A 
ATOM      4  C4  I4B d   1       5.889  -0.332  -5.999  0.00  0.00    -0.004 A 
ATOM      5  C5  I4B d   1       6.000  -1.482  -5.222  0.00  0.00     0.002 A 
ATOM      6  C6  I4B d   1       5.173  -1.654  -4.102  0.00  0.00     0.003 A 
ENDROOT
BRANCH   1   7
ATOM      7  C1' I4B d   1       3.419  -0.786  -2.531  0.00  0.00     0.060 C 
BRANCH   7   8
ATOM      8  C2' I4B d   1       4.145  -0.096  -1.395  0.00  0.00    -0.013 C 
ATOM      9  C4' I4B d   1       3.791   1.367  -1.331  0.00  0.00     0.013 C 
ATOM     10  C3' I4B d   1       3.783  -0.797  -0.120  0.00  0.00     0.013 C 
ENDBRANCH   7   8
ENDBRANCH   1   7
TORSDOF 2
ENDMDL
