MODEL 1
REMARK minimizedAffinity 6.94531059
REMARK minimizedRMSD -1
REMARK  2 active torsions:
REMARK  status: ('A' for Active; 'I' for Inactive)
REMARK    1  A    between atoms: C2'_3  and  C1'_4 
REMARK    2  A    between atoms: C1'_4  and  C1_5 
ROOT
ATOM      1  C1  I4B d   1       0.136  -0.616   0.684  0.00  0.00    -0.075 A 
ATOM      2  C2  I4B d   1      -0.602  -1.733   0.987  0.00  0.00     0.003 A 
ATOM      3  C3  I4B d   1      -0.020  -3.020   0.890  0.00  0.00     0.002 A 
ATOM      4  C4  I4B d   1       1.279  -3.147   0.441  0.00  0.00    -0.004 A 
ATOM      5  C5  I4B d   1       2.033  -2.012   0.157  0.00  0.00     0.002 A 
ATOM      6  C6  I4B d   1       1.463  -0.738   0.291  0.00  0.00     0.003 A 
ENDROOT
BRANCH   1   7
ATOM      7  C1' I4B d   1      -0.520   0.725   0.766  0.00  0.00     0.060 C 
BRANCH   7   8
ATOM      8  C2' I4B d   1      -1.822   0.656  -0.005  0.00  0.00    -0.013 C 
ATOM      9  C4' I4B d   1      -1.575   0.421  -1.472  0.00  0.00     0.013 C 
ATOM     10  C3' I4B d   1      -2.652  -0.444   0.586  0.00  0.00     0.013 C 
ENDBRANCH   7   8
ENDBRANCH   1   7
TORSDOF 2
ENDMDL
