MODEL 1
REMARK minimizedAffinity 5.16114807
REMARK minimizedRMSD -1
REMARK  2 active torsions:
REMARK  status: ('A' for Active; 'I' for Inactive)
REMARK    1  A    between atoms: C2'_3  and  C1'_4 
REMARK    2  A    between atoms: C1'_4  and  C1_5 
ROOT
ATOM      1  C1  I4B d   1      -0.216  -1.767   0.118  0.00  0.00    -0.075 A 
ATOM      2  C2  I4B d   1      -0.785  -0.528  -0.039  0.00  0.00     0.003 A 
ATOM      3  C3  I4B d   1      -2.101  -0.284   0.423  0.00  0.00     0.002 A 
ATOM      4  C4  I4B d   1      -2.825  -1.314   0.987  0.00  0.00    -0.004 A 
ATOM      5  C5  I4B d   1      -2.239  -2.564   1.166  0.00  0.00     0.002 A 
ATOM      6  C6  I4B d   1      -0.922  -2.789   0.740  0.00  0.00     0.003 A 
ENDROOT
BRANCH   1   7
ATOM      7  C1' I4B d   1       1.163  -2.000  -0.412  0.00  0.00     0.060 C 
BRANCH   7   8
ATOM      8  C2' I4B d   1       1.100  -3.158  -1.386  0.00  0.00    -0.013 C 
ATOM      9  C4' I4B d   1       1.975  -2.910  -2.586  0.00  0.00     0.013 C 
ATOM     10  C3' I4B d   1       1.521  -4.399  -0.657  0.00  0.00     0.013 C 
ENDBRANCH   7   8
ENDBRANCH   1   7
TORSDOF 2
ENDMDL
