MODEL 1
REMARK minimizedAffinity 4.79309511
REMARK minimizedRMSD -1
REMARK  2 active torsions:
REMARK  status: ('A' for Active; 'I' for Inactive)
REMARK    1  A    between atoms: C2'_3  and  C1'_4 
REMARK    2  A    between atoms: C1'_4  and  C1_5 
ROOT
ATOM      1  C1  I4B d   1      -5.012  -4.774  -3.595  0.00  0.00    -0.075 A 
ATOM      2  C2  I4B d   1      -5.093  -5.476  -4.772  0.00  0.00     0.003 A 
ATOM      3  C3  I4B d   1      -5.263  -4.792  -6.000  0.00  0.00     0.002 A 
ATOM      4  C4  I4B d   1      -5.396  -3.418  -6.000  0.00  0.00    -0.004 A 
ATOM      5  C5  I4B d   1      -5.291  -2.706  -4.809  0.00  0.00     0.002 A 
ATOM      6  C6  I4B d   1      -5.085  -3.387  -3.600  0.00  0.00     0.003 A 
ENDROOT
BRANCH   1   7
ATOM      7  C1' I4B d   1      -4.866  -5.530  -2.313  0.00  0.00     0.060 C 
BRANCH   7   8
ATOM      8  C2' I4B d   1      -3.819  -4.827  -1.473  0.00  0.00    -0.013 C 
ATOM      9  C4' I4B d   1      -4.453  -3.854  -0.514  0.00  0.00     0.013 C 
ATOM     10  C3' I4B d   1      -3.032  -5.874  -0.742  0.00  0.00     0.013 C 
ENDBRANCH   7   8
ENDBRANCH   1   7
TORSDOF 2
ENDMDL
