MODEL 1
REMARK minimizedAffinity -0.461494833
REMARK minimizedRMSD -1
REMARK  2 active torsions:
REMARK  status: ('A' for Active; 'I' for Inactive)
REMARK    1  A    between atoms: C2'_3  and  C1'_4 
REMARK    2  A    between atoms: C1'_4  and  C1_5 
ROOT
ATOM      1  C1  I4B d   1       2.629  -1.772   2.739  0.00  0.00    -0.075 A 
ATOM      2  C2  I4B d   1       2.347  -0.489   2.344  0.00  0.00     0.003 A 
ATOM      3  C3  I4B d   1       1.535   0.344   3.153  0.00  0.00     0.002 A 
ATOM      4  C4  I4B d   1       0.989  -0.162   4.315  0.00  0.00    -0.004 A 
ATOM      5  C5  I4B d   1       1.296  -1.456   4.725  0.00  0.00     0.002 A 
ATOM      6  C6  I4B d   1       2.131  -2.263   3.939  0.00  0.00     0.003 A 
ENDROOT
BRANCH   1   7
ATOM      7  C1' I4B d   1       3.463  -2.635   1.845  0.00  0.00     0.060 C 
BRANCH   7   8
ATOM      8  C2' I4B d   1       4.873  -2.081   1.844  0.00  0.00    -0.013 C 
ATOM      9  C4' I4B d   1       5.677  -2.636   2.990  0.00  0.00     0.013 C 
ATOM     10  C3' I4B d   1       5.503  -2.419   0.526  0.00  0.00     0.013 C 
ENDBRANCH   7   8
ENDBRANCH   1   7
TORSDOF 2
ENDMDL
