MODEL 1
REMARK minimizedAffinity 4.21646643
REMARK minimizedRMSD -1
REMARK  2 active torsions:
REMARK  status: ('A' for Active; 'I' for Inactive)
REMARK    1  A    between atoms: C2'_3  and  C1'_4 
REMARK    2  A    between atoms: C1'_4  and  C1_5 
ROOT
ATOM      1  C1  I4B d   1       2.678  -1.672   2.497  0.00  0.00    -0.075 A 
ATOM      2  C2  I4B d   1       2.518  -2.410   3.643  0.00  0.00     0.003 A 
ATOM      3  C3  I4B d   1       1.791  -1.880   4.736  0.00  0.00     0.002 A 
ATOM      4  C4  I4B d   1       1.289  -0.597   4.661  0.00  0.00    -0.004 A 
ATOM      5  C5  I4B d   1       1.433   0.142   3.489  0.00  0.00     0.002 A 
ATOM      6  C6  I4B d   1       2.121  -0.404   2.396  0.00  0.00     0.003 A 
ENDROOT
BRANCH   1   7
ATOM      7  C1' I4B d   1       3.478  -2.250   1.373  0.00  0.00     0.060 C 
BRANCH   7   8
ATOM      8  C2' I4B d   1       4.904  -2.422   1.856  0.00  0.00    -0.013 C 
ATOM      9  C4' I4B d   1       5.588  -3.558   1.143  0.00  0.00     0.013 C 
ATOM     10  C3' I4B d   1       5.628  -1.128   1.631  0.00  0.00     0.013 C 
ENDBRANCH   7   8
ENDBRANCH   1   7
TORSDOF 2
ENDMDL
