MODEL 1
REMARK minimizedAffinity -2.88366461
REMARK minimizedRMSD -1
REMARK  2 active torsions:
REMARK  status: ('A' for Active; 'I' for Inactive)
REMARK    1  A    between atoms: C2'_3  and  C1'_4 
REMARK    2  A    between atoms: C1'_4  and  C1_5 
ROOT
ATOM      1  C1  I4B d   1       0.632   0.668   1.548  0.00  0.00    -0.075 A 
ATOM      2  C2  I4B d   1       1.882   0.153   1.784  0.00  0.00     0.003 A 
ATOM      3  C3  I4B d   1       3.024   0.987   1.699  0.00  0.00     0.002 A 
ATOM      4  C4  I4B d   1       2.875   2.307   1.327  0.00  0.00    -0.004 A 
ATOM      5  C5  I4B d   1       1.605   2.833   1.111  0.00  0.00     0.002 A 
ATOM      6  C6  I4B d   1       0.474   2.012   1.233  0.00  0.00     0.003 A 
ENDROOT
BRANCH   1   7
ATOM      7  C1' I4B d   1      -0.549  -0.248   1.614  0.00  0.00     0.060 C 
BRANCH   7   8
ATOM      8  C2' I4B d   1      -0.069  -1.651   1.306  0.00  0.00    -0.013 C 
ATOM      9  C4' I4B d   1      -0.994  -2.685   1.894  0.00  0.00     0.013 C 
ATOM     10  C3' I4B d   1       0.024  -1.792  -0.184  0.00  0.00     0.013 C 
ENDBRANCH   7   8
ENDBRANCH   1   7
TORSDOF 2
ENDMDL
