MODEL 1
REMARK minimizedAffinity 4.20588589
REMARK minimizedRMSD -1
REMARK  0 active torsions:
REMARK  status: ('A' for Active; 'I' for Inactive)
ROOT
ATOM      1  C   UNL d   1      -3.984   4.658  -5.390  0.00  0.00     0.172 C 
ATOM      2  N   UNL d   1      -3.350   3.365  -5.283  0.00  0.00    -0.070 N 
ATOM      3  C1  UNL d   1      -2.248   2.955  -5.984  0.00  0.00    -0.004 A 
ATOM      4  C2  UNL d   1      -1.957   1.665  -5.598  0.00  0.00    -0.047 A 
ATOM      5  C3  UNL d   1      -2.918   1.285  -4.631  0.00  0.00    -0.047 A 
ATOM      6  C4  UNL d   1      -3.769   2.357  -4.455  0.00  0.00    -0.004 A 
ENDROOT
TORSDOF 0
ENDMDL
