MODEL 1
REMARK minimizedAffinity 3.28759885
REMARK minimizedRMSD -1
REMARK  0 active torsions:
REMARK  status: ('A' for Active; 'I' for Inactive)
ROOT
ATOM      1  C   UNL d   1       1.504   6.000  -1.515  0.00  0.00     0.172 C 
ATOM      2  N   UNL d   1       0.787   4.994  -0.767  0.00  0.00    -0.070 N 
ATOM      3  C1  UNL d   1      -0.566   4.783  -0.808  0.00  0.00    -0.004 A 
ATOM      4  C2  UNL d   1      -0.855   3.738   0.044  0.00  0.00    -0.047 A 
ATOM      5  C3  UNL d   1       0.365   3.308   0.617  0.00  0.00    -0.047 A 
ATOM      6  C4  UNL d   1       1.365   4.103   0.098  0.00  0.00    -0.004 A 
ENDROOT
TORSDOF 0
ENDMDL
