MODEL 1
REMARK minimizedAffinity 1.88519275
REMARK minimizedRMSD -1
REMARK  0 active torsions:
REMARK  status: ('A' for Active; 'I' for Inactive)
ROOT
ATOM      1  C   UNL d   1       2.524   4.843  -0.458  0.00  0.00     0.172 C 
ATOM      2  N   UNL d   1       1.472   3.936  -0.065  0.00  0.00    -0.070 N 
ATOM      3  C1  UNL d   1       1.643   2.765   0.623  0.00  0.00    -0.004 A 
ATOM      4  C2  UNL d   1       0.401   2.195   0.802  0.00  0.00    -0.047 A 
ATOM      5  C3  UNL d   1      -0.549   3.053   0.200  0.00  0.00    -0.047 A 
ATOM      6  C4  UNL d   1       0.141   4.124  -0.329  0.00  0.00    -0.004 A 
ENDROOT
TORSDOF 0
ENDMDL
