MODEL 1
REMARK minimizedAffinity 2.31403589
REMARK minimizedRMSD -1
REMARK  0 active torsions:
REMARK  status: ('A' for Active; 'I' for Inactive)
ROOT
ATOM      1  C   UNL d   1      -4.504   5.456  -5.640  0.00  0.00     0.172 C 
ATOM      2  N   UNL d   1      -3.711   4.257  -5.505  0.00  0.00    -0.070 N 
ATOM      3  C1  UNL d   1      -2.447   4.077  -6.000  0.00  0.00    -0.004 A 
ATOM      4  C2  UNL d   1      -2.038   2.805  -5.661  0.00  0.00    -0.047 A 
ATOM      5  C3  UNL d   1      -3.094   2.200  -4.938  0.00  0.00    -0.047 A 
ATOM      6  C4  UNL d   1      -4.117   3.121  -4.856  0.00  0.00    -0.004 A 
ENDROOT
TORSDOF 0
ENDMDL
