MODEL 1
REMARK minimizedAffinity 6.4975071
REMARK minimizedRMSD -1
REMARK  0 active torsions:
REMARK  status: ('A' for Active; 'I' for Inactive)
ROOT
ATOM      1  C   UNL d   1       3.819  -4.839   0.497  0.00  0.00     0.172 C 
ATOM      2  N   UNL d   1       2.403  -4.945   0.236  0.00  0.00    -0.070 N 
ATOM      3  C1  UNL d   1       1.644  -4.025  -0.437  0.00  0.00    -0.004 A 
ATOM      4  C2  UNL d   1       0.348  -4.493  -0.474  0.00  0.00    -0.047 A 
ATOM      5  C3  UNL d   1       0.327  -5.736   0.201  0.00  0.00    -0.047 A 
ATOM      6  C4  UNL d   1       1.612  -5.992   0.630  0.00  0.00    -0.004 A 
ENDROOT
TORSDOF 0
ENDMDL
