MODEL 1
REMARK minimizedAffinity 4.91456127
REMARK minimizedRMSD -1
REMARK  0 active torsions:
REMARK  status: ('A' for Active; 'I' for Inactive)
ROOT
ATOM      1  C   UNL d   1       2.245  -5.999   1.215  0.00  0.00     0.172 C 
ATOM      2  N   UNL d   1       1.517  -5.204   0.254  0.00  0.00    -0.070 N 
ATOM      3  C1  UNL d   1       1.337  -3.848   0.313  0.00  0.00    -0.004 A 
ATOM      4  C2  UNL d   1       0.592  -3.473  -0.784  0.00  0.00    -0.047 A 
ATOM      5  C3  UNL d   1       0.314  -4.644  -1.527  0.00  0.00    -0.047 A 
ATOM      6  C4  UNL d   1       0.898  -5.701  -0.862  0.00  0.00    -0.004 A 
ENDROOT
TORSDOF 0
ENDMDL
