MODEL 1
REMARK minimizedAffinity 4.63493967
REMARK minimizedRMSD -1
REMARK  0 active torsions:
REMARK  status: ('A' for Active; 'I' for Inactive)
ROOT
ATOM      1  C   UNL d   1       1.420  -5.998   0.471  0.00  0.00     0.172 C 
ATOM      2  N   UNL d   1       1.014  -4.765  -0.161  0.00  0.00    -0.070 N 
ATOM      3  C1  UNL d   1       0.651  -4.623  -1.474  0.00  0.00    -0.004 A 
ATOM      4  C2  UNL d   1       0.334  -3.298  -1.684  0.00  0.00    -0.047 A 
ATOM      5  C3  UNL d   1       0.513  -2.621  -0.454  0.00  0.00    -0.047 A 
ATOM      6  C4  UNL d   1       0.934  -3.552   0.471  0.00  0.00    -0.004 A 
ENDROOT
TORSDOF 0
ENDMDL
