MODEL 1
REMARK minimizedAffinity 3.08586311
REMARK minimizedRMSD -1
REMARK  0 active torsions:
REMARK  status: ('A' for Active; 'I' for Inactive)
ROOT
ATOM      1  C   UNL d   1      -1.110   2.438  -0.338  0.00  0.00     0.172 C 
ATOM      2  N   UNL d   1      -0.259   1.272  -0.310  0.00  0.00    -0.070 N 
ATOM      3  C1  UNL d   1       0.467   0.788  -1.365  0.00  0.00    -0.004 A 
ATOM      4  C2  UNL d   1       1.144  -0.332  -0.932  0.00  0.00    -0.047 A 
ATOM      5  C3  UNL d   1       0.813  -0.528   0.430  0.00  0.00    -0.047 A 
ATOM      6  C4  UNL d   1      -0.057   0.480   0.790  0.00  0.00    -0.004 A 
ENDROOT
TORSDOF 0
ENDMDL
