MODEL 1
REMARK minimizedAffinity 7.36179352
REMARK minimizedRMSD -1
REMARK  0 active torsions:
REMARK  status: ('A' for Active; 'I' for Inactive)
ROOT
ATOM      1  O1  BZF d   1       1.755  -5.768  -4.591  0.00  0.00    -0.204 OA
ATOM      2  C2  BZF d   1       2.156  -5.895  -5.907  0.00  0.00     0.174 A 
ATOM      3  C3  BZF d   1       3.501  -5.937  -5.995  0.00  0.00    -0.012 A 
ATOM      4  C3A BZF d   1       3.968  -5.922  -4.642  0.00  0.00    -0.107 A 
ATOM      5  C4  BZF d   1       5.210  -5.961  -4.077  0.00  0.00     0.055 A 
ATOM      6  C5  BZF d   1       5.325  -5.856  -2.727  0.00  0.00    -0.016 A 
ATOM      7  C6  BZF d   1       4.221  -5.705  -1.913  0.00  0.00     0.022 A 
ATOM      8  C7  BZF d   1       2.968  -5.666  -2.428  0.00  0.00     0.029 A 
ATOM      9  C7A BZF d   1       2.846  -5.805  -3.789  0.00  0.00     0.058 A 
ENDROOT
TORSDOF 0
ENDMDL
