MODEL 1
REMARK minimizedAffinity 4.64909649
REMARK minimizedRMSD -1
REMARK  0 active torsions:
REMARK  status: ('A' for Active; 'I' for Inactive)
ROOT
ATOM      1  O1  BZF d   1       3.570  -5.970  -5.242  0.00  0.00    -0.204 OA
ATOM      2  C2  BZF d   1       2.212  -5.954  -5.494  0.00  0.00     0.174 A 
ATOM      3  C3  BZF d   1       1.512  -5.998  -4.342  0.00  0.00    -0.012 A 
ATOM      4  C3A BZF d   1       2.493  -5.951  -3.302  0.00  0.00    -0.107 A 
ATOM      5  C4  BZF d   1       2.417  -5.948  -1.939  0.00  0.00     0.055 A 
ATOM      6  C5  BZF d   1       3.566  -5.970  -1.213  0.00  0.00    -0.016 A 
ATOM      7  C6  BZF d   1       4.806  -6.000  -1.817  0.00  0.00     0.022 A 
ATOM      8  C7  BZF d   1       4.932  -5.999  -3.167  0.00  0.00     0.029 A 
ATOM      9  C7A BZF d   1       3.773  -5.944  -3.903  0.00  0.00     0.058 A 
ENDROOT
TORSDOF 0
ENDMDL
