MODEL 1
REMARK minimizedAffinity 6.92233515
REMARK minimizedRMSD -1
REMARK  0 active torsions:
REMARK  status: ('A' for Active; 'I' for Inactive)
ROOT
ATOM      1  O1  BZF d   1       0.740  -3.159   3.293  0.00  0.00    -0.204 OA
ATOM      2  C2  BZF d   1       1.928  -2.503   3.034  0.00  0.00     0.174 A 
ATOM      3  C3  BZF d   1       2.936  -3.037   3.754  0.00  0.00    -0.012 A 
ATOM      4  C3A BZF d   1       2.358  -4.152   4.440  0.00  0.00    -0.107 A 
ATOM      5  C4  BZF d   1       2.860  -5.089   5.298  0.00  0.00     0.055 A 
ATOM      6  C5  BZF d   1       2.015  -6.000   5.849  0.00  0.00    -0.016 A 
ATOM      7  C6  BZF d   1       0.664  -6.000   5.568  0.00  0.00     0.022 A 
ATOM      8  C7  BZF d   1       0.121  -5.094   4.719  0.00  0.00     0.029 A 
ATOM      9  C7A BZF d   1       0.978  -4.192   4.136  0.00  0.00     0.058 A 
ENDROOT
TORSDOF 0
ENDMDL
