MODEL 1
REMARK minimizedAffinity 7.05658245
REMARK minimizedRMSD -1
REMARK  0 active torsions:
REMARK  status: ('A' for Active; 'I' for Inactive)
ROOT
ATOM      1  O1  BZF d   1      -3.263   1.840   1.387  0.00  0.00    -0.204 OA
ATOM      2  C2  BZF d   1      -2.626   1.499   0.209  0.00  0.00     0.174 A 
ATOM      3  C3  BZF d   1      -3.192   2.128  -0.841  0.00  0.00    -0.012 A 
ATOM      4  C3A BZF d   1      -4.191   2.982  -0.274  0.00  0.00    -0.107 A 
ATOM      5  C4  BZF d   1      -5.079   3.871  -0.809  0.00  0.00     0.055 A 
ATOM      6  C5  BZF d   1      -5.968   4.490   0.012  0.00  0.00    -0.016 A 
ATOM      7  C6  BZF d   1      -6.000   4.241   1.368  0.00  0.00     0.022 A 
ATOM      8  C7  BZF d   1      -5.135   3.371   1.945  0.00  0.00     0.029 A 
ATOM      9  C7A BZF d   1      -4.214   2.768   1.123  0.00  0.00     0.058 A 
ENDROOT
TORSDOF 0
ENDMDL
