MODEL 1
REMARK minimizedAffinity 14.1528025
REMARK minimizedRMSD -1
REMARK  0 active torsions:
REMARK  status: ('A' for Active; 'I' for Inactive)
ROOT
ATOM      1  O1  BZF d   1      -2.501   0.255  -3.215  0.00  0.00    -0.204 OA
ATOM      2  C2  BZF d   1      -3.110   1.440  -2.852  0.00  0.00     0.174 A 
ATOM      3  C3  BZF d   1      -4.405   1.235  -2.535  0.00  0.00    -0.012 A 
ATOM      4  C3A BZF d   1      -4.594  -0.180  -2.622  0.00  0.00    -0.107 A 
ATOM      5  C4  BZF d   1      -5.665  -0.999  -2.407  0.00  0.00     0.055 A 
ATOM      6  C5  BZF d   1      -5.538  -2.330  -2.650  0.00  0.00    -0.016 A 
ATOM      7  C6  BZF d   1      -4.358  -2.875  -3.113  0.00  0.00     0.022 A 
ATOM      8  C7  BZF d   1      -3.267  -2.103  -3.337  0.00  0.00     0.029 A 
ATOM      9  C7A BZF d   1      -3.382  -0.762  -3.060  0.00  0.00     0.058 A 
ENDROOT
TORSDOF 0
ENDMDL
