MODEL 1
REMARK minimizedAffinity 11.0427389
REMARK minimizedRMSD -1
REMARK  0 active torsions:
REMARK  status: ('A' for Active; 'I' for Inactive)
ROOT
ATOM      1  O1  BZF d   1      -2.248   3.202   1.892  0.00  0.00    -0.204 OA
ATOM      2  C2  BZF d   1      -1.485   2.820   0.805  0.00  0.00     0.174 A 
ATOM      3  C3  BZF d   1      -2.207   2.881  -0.332  0.00  0.00    -0.012 A 
ATOM      4  C3A BZF d   1      -3.475   3.417   0.056  0.00  0.00    -0.107 A 
ATOM      5  C4  BZF d   1      -4.614   3.727  -0.632  0.00  0.00     0.055 A 
ATOM      6  C5  BZF d   1      -5.702   4.164   0.055  0.00  0.00    -0.016 A 
ATOM      7  C6  BZF d   1      -5.688   4.298   1.428  0.00  0.00     0.022 A 
ATOM      8  C7  BZF d   1      -4.581   4.007   2.153  0.00  0.00     0.029 A 
ATOM      9  C7A BZF d   1      -3.469   3.596   1.458  0.00  0.00     0.058 A 
ENDROOT
TORSDOF 0
ENDMDL
