MODEL 1
REMARK minimizedAffinity 9.25534725
REMARK minimizedRMSD -1
REMARK  0 active torsions:
REMARK  status: ('A' for Active; 'I' for Inactive)
ROOT
ATOM      1  C   UNL d   1      -4.204  -0.077   1.536  0.00  0.00     0.020 A 
ATOM      2  C1  UNL d   1      -2.848  -0.401   1.544  0.00  0.00     0.020 A 
ATOM      3  C2  UNL d   1      -2.211  -0.769   0.357  0.00  0.00     0.034 A 
ATOM      4  C3  UNL d   1      -2.929  -0.815  -0.843  0.00  0.00     0.017 A 
ATOM      5  C4  UNL d   1      -4.291  -0.490  -0.850  0.00  0.00     0.017 A 
ATOM      6  C5  UNL d   1      -4.924  -0.122   0.341  0.00  0.00     0.034 A 
ATOM      7 Cl   UNL d   1      -5.244  -0.523  -2.292  0.00  0.00    -0.070 Cl
ATOM      8 Cl1  UNL d   1      -2.077  -1.278  -2.273  0.00  0.00    -0.070 Cl
ENDROOT
TORSDOF 0
ENDMDL
