MODEL 1
REMARK minimizedAffinity -0.329633802
REMARK minimizedRMSD -1
REMARK  0 active torsions:
REMARK  status: ('A' for Active; 'I' for Inactive)
ROOT
ATOM      1  C   UNL d   1      -1.178   1.372   3.145  0.00  0.00     0.020 A 
ATOM      2  C1  UNL d   1      -2.283   0.583   2.828  0.00  0.00     0.020 A 
ATOM      3  C2  UNL d   1      -2.285  -0.178   1.657  0.00  0.00     0.034 A 
ATOM      4  C3  UNL d   1      -1.180  -0.151   0.799  0.00  0.00     0.017 A 
ATOM      5  C4  UNL d   1      -0.072   0.642   1.117  0.00  0.00     0.017 A 
ATOM      6  C5  UNL d   1      -0.075   1.402   2.291  0.00  0.00     0.034 A 
ATOM      7 Cl   UNL d   1       1.328   0.727   0.107  0.00  0.00    -0.070 Cl
ATOM      8 Cl1  UNL d   1      -1.251  -1.117  -0.632  0.00  0.00    -0.070 Cl
ENDROOT
TORSDOF 0
ENDMDL
