MODEL 1
REMARK minimizedAffinity 2.40933609
REMARK minimizedRMSD -1
REMARK  0 active torsions:
REMARK  status: ('A' for Active; 'I' for Inactive)
ROOT
ATOM      1  C   UNL d   1      -5.043   0.262   0.511  0.00  0.00     0.020 A 
ATOM      2  C1  UNL d   1      -4.758  -0.358  -0.704  0.00  0.00     0.020 A 
ATOM      3  C2  UNL d   1      -3.570  -1.075  -0.861  0.00  0.00     0.034 A 
ATOM      4  C3  UNL d   1      -2.662  -1.173   0.199  0.00  0.00     0.017 A 
ATOM      5  C4  UNL d   1      -2.948  -0.550   1.419  0.00  0.00     0.017 A 
ATOM      6  C5  UNL d   1      -4.139   0.167   1.571  0.00  0.00     0.034 A 
ATOM      7 Cl   UNL d   1      -1.877  -0.626   2.773  0.00  0.00    -0.070 Cl
ATOM      8 Cl1  UNL d   1      -1.213  -2.076  -0.065  0.00  0.00    -0.070 Cl
ENDROOT
TORSDOF 0
ENDMDL
