MODEL 1
REMARK minimizedAffinity 4.13856173
REMARK minimizedRMSD -1
REMARK  0 active torsions:
REMARK  status: ('A' for Active; 'I' for Inactive)
ROOT
ATOM      1  C   UNL d   1      -1.079  -5.103  -1.547  0.00  0.00     0.020 A 
ATOM      2  C1  UNL d   1      -1.258  -5.268  -0.174  0.00  0.00     0.020 A 
ATOM      3  C2  UNL d   1      -1.498  -4.157   0.637  0.00  0.00     0.034 A 
ATOM      4  C3  UNL d   1      -1.559  -2.876   0.076  0.00  0.00     0.017 A 
ATOM      5  C4  UNL d   1      -1.379  -2.712  -1.302  0.00  0.00     0.017 A 
ATOM      6  C5  UNL d   1      -1.139  -3.828  -2.110  0.00  0.00     0.034 A 
ATOM      7 Cl   UNL d   1      -1.440  -1.163  -2.067  0.00  0.00    -0.070 Cl
ATOM      8 Cl1  UNL d   1      -1.859  -1.547   1.138  0.00  0.00    -0.070 Cl
ENDROOT
TORSDOF 0
ENDMDL
