MODEL 1
REMARK minimizedAffinity -2.30010486
REMARK minimizedRMSD -1
REMARK  0 active torsions:
REMARK  status: ('A' for Active; 'I' for Inactive)
ROOT
ATOM      1  C   UNL d   1      -2.650   5.994   1.722  0.00  0.00     0.020 A 
ATOM      2  C1  UNL d   1      -3.970   5.831   1.301  0.00  0.00     0.020 A 
ATOM      3  C2  UNL d   1      -4.989   5.674   2.243  0.00  0.00     0.034 A 
ATOM      4  C3  UNL d   1      -4.690   5.679   3.610  0.00  0.00     0.017 A 
ATOM      5  C4  UNL d   1      -3.366   5.843   4.031  0.00  0.00     0.017 A 
ATOM      6  C5  UNL d   1      -2.349   6.000   3.084  0.00  0.00     0.034 A 
ATOM      7 Cl   UNL d   1      -2.920   5.860   5.701  0.00  0.00    -0.070 Cl
ATOM      8 Cl1  UNL d   1      -6.000   5.479   4.719  0.00  0.00    -0.070 Cl
ENDROOT
TORSDOF 0
ENDMDL
