MODEL 1
REMARK minimizedAffinity 6.63528872
REMARK minimizedRMSD -1
REMARK  0 active torsions:
REMARK  status: ('A' for Active; 'I' for Inactive)
ROOT
ATOM      1  C   UNL d   1      -2.191  -5.271   5.999  0.00  0.00     0.020 A 
ATOM      2  C1  UNL d   1      -2.483  -3.907   5.997  0.00  0.00     0.020 A 
ATOM      3  C2  UNL d   1      -1.448  -2.972   5.918  0.00  0.00     0.034 A 
ATOM      4  C3  UNL d   1      -0.118  -3.400   5.841  0.00  0.00     0.017 A 
ATOM      5  C4  UNL d   1       0.174  -4.768   5.844  0.00  0.00     0.017 A 
ATOM      6  C5  UNL d   1      -0.866  -5.700   5.923  0.00  0.00     0.034 A 
ATOM      7 Cl   UNL d   1       1.791  -5.372   5.752  0.00  0.00    -0.070 Cl
ATOM      8 Cl1  UNL d   1       1.111  -2.188   5.746  0.00  0.00    -0.070 Cl
ENDROOT
TORSDOF 0
ENDMDL
