MODEL 1
REMARK minimizedAffinity 8.26409912
REMARK minimizedRMSD -1
REMARK  0 active torsions:
REMARK  status: ('A' for Active; 'I' for Inactive)
ROOT
ATOM      1  C   UNL d   1       1.087   1.048   0.329  0.00  0.00     0.020 A 
ATOM      2  C1  UNL d   1       2.450   0.866   0.101  0.00  0.00     0.020 A 
ATOM      3  C2  UNL d   1       2.913  -0.335  -0.442  0.00  0.00     0.034 A 
ATOM      4  C3  UNL d   1       2.011  -1.358  -0.758  0.00  0.00     0.017 A 
ATOM      5  C4  UNL d   1       0.643  -1.174  -0.528  0.00  0.00     0.017 A 
ATOM      6  C5  UNL d   1       0.185   0.031   0.015  0.00  0.00     0.034 A 
ATOM      7 Cl   UNL d   1      -0.530  -2.390  -0.893  0.00  0.00    -0.070 Cl
ATOM      8 Cl1  UNL d   1       2.653  -2.816  -1.427  0.00  0.00    -0.070 Cl
ENDROOT
TORSDOF 0
ENDMDL
