MODEL 1
REMARK minimizedAffinity 2.43892288
REMARK minimizedRMSD -1
REMARK  1 active torsions:
REMARK  status: ('A' for Active; 'I' for Inactive)
REMARK    1  A    between atoms: C1_2  and  C2_3 
ROOT
ATOM      1  C2  UNL d   1      -0.432  -1.713  -0.229  0.00  0.00    -0.073 A 
ATOM      2  C3  UNL d   1      -0.199  -0.736  -1.204  0.00  0.00    -0.002 A 
ATOM      3  C4  UNL d   1       1.099  -0.288  -1.456  0.00  0.00     0.004 A 
ATOM      4  C5  UNL d   1       2.175  -0.816  -0.743  0.00  0.00    -0.004 A 
ATOM      5  C6  UNL d   1       1.963  -1.802   0.226  0.00  0.00    -0.075 A 
ATOM      6  C7  UNL d   1       3.110  -2.379   1.004  0.00  0.00     0.076 C 
ATOM      7  C8  UNL d   1       0.657  -2.244   0.476  0.00  0.00     0.001 A 
ENDROOT
BRANCH   1   8
ATOM      8  C1  UNL d   1      -1.831  -2.204   0.042  0.00  0.00     0.053 C 
ATOM      9  C   UNL d   1      -2.127  -2.285   1.532  0.00  0.00     0.018 C 
ENDBRANCH   1   8
TORSDOF 1
ENDMDL
