MODEL 1
REMARK minimizedAffinity 5.59166574
REMARK minimizedRMSD -1
REMARK  1 active torsions:
REMARK  status: ('A' for Active; 'I' for Inactive)
REMARK    1  A    between atoms: C1_2  and  C2_3 
ROOT
ATOM      1  C2  UNL d   1       0.428   0.166  -2.266  0.00  0.00    -0.073 A 
ATOM      2  C3  UNL d   1       1.678   0.211  -1.639  0.00  0.00    -0.002 A 
ATOM      3  C4  UNL d   1       1.942  -0.599  -0.533  0.00  0.00     0.004 A 
ATOM      4  C5  UNL d   1       0.962  -1.466  -0.049  0.00  0.00    -0.004 A 
ATOM      5  C6  UNL d   1      -0.289  -1.534  -0.670  0.00  0.00    -0.075 A 
ATOM      6  C7  UNL d   1      -1.354  -2.460  -0.160  0.00  0.00     0.076 C 
ATOM      7  C8  UNL d   1      -0.547  -0.715  -1.777  0.00  0.00     0.001 A 
ENDROOT
BRANCH   1   8
ATOM      8  C1  UNL d   1       0.140   1.034  -3.463  0.00  0.00     0.053 C 
ATOM      9  C   UNL d   1       0.272   0.266  -4.769  0.00  0.00     0.018 C 
ENDBRANCH   1   8
TORSDOF 1
ENDMDL
