MODEL 1
REMARK minimizedAffinity 0.53433013
REMARK minimizedRMSD -1
REMARK  1 active torsions:
REMARK  status: ('A' for Active; 'I' for Inactive)
REMARK    1  A    between atoms: C1_2  and  C2_3 
ROOT
ATOM      1  C2  UNL d   1      -3.972   3.407   5.174  0.00  0.00    -0.073 A 
ATOM      2  C3  UNL d   1      -4.480   4.566   5.772  0.00  0.00    -0.002 A 
ATOM      3  C4  UNL d   1      -4.744   5.700   5.002  0.00  0.00     0.004 A 
ATOM      4  C5  UNL d   1      -4.509   5.684   3.627  0.00  0.00    -0.004 A 
ATOM      5  C6  UNL d   1      -4.013   4.532   3.009  0.00  0.00    -0.075 A 
ATOM      6  C7  UNL d   1      -3.752   4.500   1.531  0.00  0.00     0.076 C 
ATOM      7  C8  UNL d   1      -3.748   3.399   3.789  0.00  0.00     0.001 A 
ENDROOT
BRANCH   1   8
ATOM      8  C1  UNL d   1      -3.692   2.179   6.000  0.00  0.00     0.053 C 
ATOM      9  C   UNL d   1      -2.992   1.097   5.194  0.00  0.00     0.018 C 
ENDBRANCH   1   8
TORSDOF 1
ENDMDL
