MODEL 1
REMARK minimizedAffinity 1.16341197
REMARK minimizedRMSD -1
REMARK  1 active torsions:
REMARK  status: ('A' for Active; 'I' for Inactive)
REMARK    1  A    between atoms: C1_2  and  C2_3 
ROOT
ATOM      1  C2  UNL d   1       1.191  -3.071   0.486  0.00  0.00    -0.073 A 
ATOM      2  C3  UNL d   1       2.116  -2.155  -0.027  0.00  0.00    -0.002 A 
ATOM      3  C4  UNL d   1       1.689  -1.093  -0.826  0.00  0.00     0.004 A 
ATOM      4  C5  UNL d   1       0.333  -0.933  -1.113  0.00  0.00    -0.004 A 
ATOM      5  C6  UNL d   1      -0.608  -1.831  -0.600  0.00  0.00    -0.075 A 
ATOM      6  C7  UNL d   1      -2.069  -1.673  -0.902  0.00  0.00     0.076 C 
ATOM      7  C8  UNL d   1      -0.170  -2.896   0.199  0.00  0.00     0.001 A 
ENDROOT
BRANCH   1   8
ATOM      8  C1  UNL d   1       1.647  -4.215   1.354  0.00  0.00     0.053 C 
ATOM      9  C   UNL d   1       0.641  -5.354   1.370  0.00  0.00     0.018 C 
ENDBRANCH   1   8
TORSDOF 1
ENDMDL
