MODEL 1
REMARK minimizedAffinity 1.96003664
REMARK minimizedRMSD -1
REMARK  1 active torsions:
REMARK  status: ('A' for Active; 'I' for Inactive)
REMARK    1  A    between atoms: C1_2  and  C2_3 
ROOT
ATOM      1  C2  UNL d   1       0.954  -0.985  -1.521  0.00  0.00    -0.073 A 
ATOM      2  C3  UNL d   1       1.107  -2.347  -1.800  0.00  0.00    -0.002 A 
ATOM      3  C4  UNL d   1       1.439  -2.770  -3.088  0.00  0.00     0.004 A 
ATOM      4  C5  UNL d   1       1.628  -1.836  -4.107  0.00  0.00    -0.004 A 
ATOM      5  C6  UNL d   1       1.492  -0.469  -3.844  0.00  0.00    -0.075 A 
ATOM      6  C7  UNL d   1       1.690   0.549  -4.929  0.00  0.00     0.076 C 
ATOM      7  C8  UNL d   1       1.156  -0.052  -2.549  0.00  0.00     0.001 A 
ENDROOT
BRANCH   1   8
ATOM      8  C1  UNL d   1       0.602  -0.523  -0.130  0.00  0.00     0.053 C 
ATOM      9  C   UNL d   1      -0.466  -1.398   0.507  0.00  0.00     0.018 C 
ENDBRANCH   1   8
TORSDOF 1
ENDMDL
