MODEL 1
REMARK minimizedAffinity 12.0467634
REMARK minimizedRMSD -1
REMARK  1 active torsions:
REMARK  status: ('A' for Active; 'I' for Inactive)
REMARK    1  A    between atoms: C1_2  and  C2_3 
ROOT
ATOM      1  C2  UNL d   1       1.264   1.197  -2.946  0.00  0.00    -0.073 A 
ATOM      2  C3  UNL d   1       0.895   1.671  -1.682  0.00  0.00    -0.002 A 
ATOM      3  C4  UNL d   1       0.535   0.777  -0.672  0.00  0.00     0.004 A 
ATOM      4  C5  UNL d   1       0.547  -0.596  -0.913  0.00  0.00    -0.004 A 
ATOM      5  C6  UNL d   1       0.924  -1.090  -2.166  0.00  0.00    -0.075 A 
ATOM      6  C7  UNL d   1       0.939  -2.565  -2.442  0.00  0.00     0.076 C 
ATOM      7  C8  UNL d   1       1.281  -0.187  -3.176  0.00  0.00     0.001 A 
ENDROOT
BRANCH   1   8
ATOM      8  C1  UNL d   1       1.660   2.157  -4.038  0.00  0.00     0.053 C 
ATOM      9  C   UNL d   1       2.570   1.506  -5.067  0.00  0.00     0.018 C 
ENDBRANCH   1   8
TORSDOF 1
ENDMDL
