MODEL 1
REMARK minimizedAffinity 5.89055109
REMARK minimizedRMSD -1
REMARK  1 active torsions:
REMARK  status: ('A' for Active; 'I' for Inactive)
REMARK    1  A    between atoms: C1_2  and  C2_3 
ROOT
ATOM      1  C2  UNL d   1       1.183  -0.498  -1.364  0.00  0.00    -0.073 A 
ATOM      2  C3  UNL d   1       1.101  -1.555  -2.277  0.00  0.00    -0.002 A 
ATOM      3  C4  UNL d   1       0.973  -1.299  -3.643  0.00  0.00     0.004 A 
ATOM      4  C5  UNL d   1       0.933   0.015  -4.110  0.00  0.00    -0.004 A 
ATOM      5  C6  UNL d   1       1.026   1.085  -3.214  0.00  0.00    -0.075 A 
ATOM      6  C7  UNL d   1       0.982   2.504  -3.700  0.00  0.00     0.076 C 
ATOM      7  C8  UNL d   1       1.151   0.819  -1.844  0.00  0.00     0.001 A 
ENDROOT
BRANCH   1   8
ATOM      8  C1  UNL d   1       1.328  -0.770   0.111  0.00  0.00     0.053 C 
ATOM      9  C   UNL d   1       0.280  -1.748   0.616  0.00  0.00     0.018 C 
ENDBRANCH   1   8
TORSDOF 1
ENDMDL
