MODEL 1
REMARK minimizedAffinity 1.40489256
REMARK minimizedRMSD -1
REMARK  1 active torsions:
REMARK  status: ('A' for Active; 'I' for Inactive)
REMARK    1  A    between atoms: C1_2  and  C2_3 
ROOT
ATOM      1  C2  UNL d   1       0.685   0.470  -1.911  0.00  0.00    -0.073 A 
ATOM      2  C3  UNL d   1       0.940   0.277  -0.549  0.00  0.00    -0.002 A 
ATOM      3  C4  UNL d   1       0.969  -1.011  -0.013  0.00  0.00     0.004 A 
ATOM      4  C5  UNL d   1       0.750  -2.118  -0.832  0.00  0.00    -0.004 A 
ATOM      5  C6  UNL d   1       0.505  -1.946  -2.199  0.00  0.00    -0.075 A 
ATOM      6  C7  UNL d   1       0.265  -3.126  -3.094  0.00  0.00     0.076 C 
ATOM      7  C8  UNL d   1       0.475  -0.650  -2.729  0.00  0.00     0.001 A 
ENDROOT
BRANCH   1   8
ATOM      8  C1  UNL d   1       0.660   1.858  -2.496  0.00  0.00     0.053 C 
ATOM      9  C   UNL d   1       1.076   1.868  -3.959  0.00  0.00     0.018 C 
ENDBRANCH   1   8
TORSDOF 1
ENDMDL
