MODEL 1
REMARK minimizedAffinity 10.775629
REMARK minimizedRMSD -1
REMARK  1 active torsions:
REMARK  status: ('A' for Active; 'I' for Inactive)
REMARK    1  A    between atoms: C1_2  and  C2_3 
ROOT
ATOM      1  C2  UNL d   1       0.824  -0.405  -1.227  0.00  0.00    -0.073 A 
ATOM      2  C3  UNL d   1       1.148  -1.471  -2.074  0.00  0.00    -0.002 A 
ATOM      3  C4  UNL d   1       1.419  -1.242  -3.424  0.00  0.00     0.004 A 
ATOM      4  C5  UNL d   1       1.375   0.053  -3.939  0.00  0.00    -0.004 A 
ATOM      5  C6  UNL d   1       1.064   1.133  -3.106  0.00  0.00    -0.075 A 
ATOM      6  C7  UNL d   1       1.011   2.533  -3.644  0.00  0.00     0.076 C 
ATOM      7  C8  UNL d   1       0.792   0.895  -1.752  0.00  0.00     0.001 A 
ENDROOT
BRANCH   1   8
ATOM      8  C1  UNL d   1       0.538  -0.647   0.232  0.00  0.00     0.053 C 
ATOM      9  C   UNL d   1      -0.375  -1.844   0.443  0.00  0.00     0.018 C 
ENDBRANCH   1   8
TORSDOF 1
ENDMDL
