MODEL 1
REMARK minimizedAffinity 0.24923034
REMARK minimizedRMSD -1
REMARK  1 active torsions:
REMARK  status: ('A' for Active; 'I' for Inactive)
REMARK    1  A    between atoms: C1_2  and  C2_3 
ROOT
ATOM      1  C2  UNL d   1       1.939   0.696  -3.108  0.00  0.00    -0.073 A 
ATOM      2  C3  UNL d   1       1.159   1.154  -4.177  0.00  0.00    -0.002 A 
ATOM      3  C4  UNL d   1       1.766   1.593  -5.354  0.00  0.00     0.004 A 
ATOM      4  C5  UNL d   1       3.155   1.573  -5.478  0.00  0.00    -0.004 A 
ATOM      5  C6  UNL d   1       3.950   1.108  -4.426  0.00  0.00    -0.075 A 
ATOM      6  C7  UNL d   1       5.446   1.083  -4.542  0.00  0.00     0.076 C 
ATOM      7  C8  UNL d   1       3.334   0.671  -3.245  0.00  0.00     0.001 A 
ENDROOT
BRANCH   1   8
ATOM      8  C1  UNL d   1       1.288   0.214  -1.837  0.00  0.00     0.053 C 
ATOM      9  C   UNL d   1       0.443   1.297  -1.184  0.00  0.00     0.018 C 
ENDBRANCH   1   8
TORSDOF 1
ENDMDL
