MODEL 1
REMARK minimizedAffinity 10.9091206
REMARK minimizedRMSD -1
REMARK  1 active torsions:
REMARK  status: ('A' for Active; 'I' for Inactive)
REMARK    1  A    between atoms: C1_2  and  C2_3 
ROOT
ATOM      1  C2  UNL d   1      -3.886   5.323   2.319  0.00  0.00    -0.073 A 
ATOM      2  C3  UNL d   1      -5.276   5.488   2.287  0.00  0.00    -0.002 A 
ATOM      3  C4  UNL d   1      -5.975   5.805   3.452  0.00  0.00     0.004 A 
ATOM      4  C5  UNL d   1      -5.293   5.968   4.658  0.00  0.00    -0.004 A 
ATOM      5  C6  UNL d   1      -3.903   5.820   4.707  0.00  0.00    -0.075 A 
ATOM      6  C7  UNL d   1      -3.155   5.989   5.997  0.00  0.00     0.076 C 
ATOM      7  C8  UNL d   1      -3.208   5.498   3.534  0.00  0.00     0.001 A 
ENDROOT
BRANCH   1   8
ATOM      8  C1  UNL d   1      -3.126   4.986   1.062  0.00  0.00     0.053 C 
ATOM      9  C   UNL d   1      -3.421   5.966  -0.062  0.00  0.00     0.018 C 
ENDBRANCH   1   8
TORSDOF 1
ENDMDL
