MODEL 1
REMARK minimizedAffinity 3.40603185
REMARK minimizedRMSD -1
REMARK  1 active torsions:
REMARK  status: ('A' for Active; 'I' for Inactive)
REMARK    1  A    between atoms: C1_2  and  C2_3 
ROOT
ATOM      1  C2  UNL d   1       0.970   0.820  -1.936  0.00  0.00    -0.073 A 
ATOM      2  C3  UNL d   1       0.759   0.324  -0.644  0.00  0.00    -0.002 A 
ATOM      3  C4  UNL d   1       0.800  -1.049  -0.401  0.00  0.00     0.004 A 
ATOM      4  C5  UNL d   1       1.060  -1.939  -1.443  0.00  0.00    -0.004 A 
ATOM      5  C6  UNL d   1       1.286  -1.462  -2.739  0.00  0.00    -0.075 A 
ATOM      6  C7  UNL d   1       1.564  -2.406  -3.871  0.00  0.00     0.076 C 
ATOM      7  C8  UNL d   1       1.239  -0.081  -2.975  0.00  0.00     0.001 A 
ENDROOT
BRANCH   1   8
ATOM      8  C1  UNL d   1       0.932   2.303  -2.202  0.00  0.00     0.053 C 
ATOM      9  C   UNL d   1       1.602   3.099  -1.093  0.00  0.00     0.018 C 
ENDBRANCH   1   8
TORSDOF 1
ENDMDL
