MODEL 1
REMARK minimizedAffinity 3.12329888
REMARK minimizedRMSD -1
REMARK  1 active torsions:
REMARK  status: ('A' for Active; 'I' for Inactive)
REMARK    1  A    between atoms: C1_2  and  C2_3 
ROOT
ATOM      1  C2  UNL d   1       0.761  -0.284  -0.549  0.00  0.00    -0.073 A 
ATOM      2  C3  UNL d   1       0.674   1.087  -0.816  0.00  0.00    -0.002 A 
ATOM      3  C4  UNL d   1       0.757   1.557  -2.127  0.00  0.00     0.004 A 
ATOM      4  C5  UNL d   1       0.919   0.662  -3.184  0.00  0.00    -0.004 A 
ATOM      5  C6  UNL d   1       0.997  -0.713  -2.939  0.00  0.00    -0.075 A 
ATOM      6  C7  UNL d   1       1.174  -1.688  -4.066  0.00  0.00     0.076 C 
ATOM      7  C8  UNL d   1       0.916  -1.177  -1.619  0.00  0.00     0.001 A 
ENDROOT
BRANCH   1   8
ATOM      8  C1  UNL d   1       0.667  -0.796   0.865  0.00  0.00     0.053 C 
ATOM      9  C   UNL d   1      -0.494  -1.763   1.044  0.00  0.00     0.018 C 
ENDBRANCH   1   8
TORSDOF 1
ENDMDL
