MODEL 1
REMARK minimizedAffinity 4.51837063
REMARK minimizedRMSD -1
REMARK  1 active torsions:
REMARK  status: ('A' for Active; 'I' for Inactive)
REMARK    1  A    between atoms: C1_2  and  C2_3 
ROOT
ATOM      1  C2  UNL d   1       0.839  -0.100  -2.222  0.00  0.00    -0.073 A 
ATOM      2  C3  UNL d   1       1.307   0.498  -3.397  0.00  0.00    -0.002 A 
ATOM      3  C4  UNL d   1       1.757  -0.289  -4.458  0.00  0.00     0.004 A 
ATOM      4  C5  UNL d   1       1.738  -1.680  -4.358  0.00  0.00    -0.004 A 
ATOM      5  C6  UNL d   1       1.263  -2.297  -3.196  0.00  0.00    -0.075 A 
ATOM      6  C7  UNL d   1       1.238  -3.792  -3.072  0.00  0.00     0.076 C 
ATOM      7  C8  UNL d   1       0.815  -1.500  -2.134  0.00  0.00     0.001 A 
ENDROOT
BRANCH   1   8
ATOM      8  C1  UNL d   1       0.346   0.745  -1.076  0.00  0.00     0.053 C 
ATOM      9  C   UNL d   1       1.423   1.683  -0.555  0.00  0.00     0.018 C 
ENDBRANCH   1   8
TORSDOF 1
ENDMDL
