MODEL 1
REMARK minimizedAffinity 11.3632326
REMARK minimizedRMSD -1
REMARK  0 active torsions:
REMARK  status: ('A' for Active; 'I' for Inactive)
ROOT
ATOM      1  C   UNL d   1      -2.770   2.345  -1.361  0.00  0.00     0.077 C 
ATOM      2  C1  UNL d   1      -1.355   2.740  -1.055  0.00  0.00    -0.074 A 
ATOM      3  C2  UNL d   1      -0.559   3.366  -2.019  0.00  0.00    -0.005 A 
ATOM      4  C3  UNL d   1       0.751   3.735  -1.717  0.00  0.00     0.006 A 
ATOM      5  C4  UNL d   1       1.278   3.483  -0.450  0.00  0.00    -0.005 A 
ATOM      6  C5  UNL d   1       0.497   2.859   0.528  0.00  0.00    -0.074 A 
ATOM      7  C6  UNL d   1       1.044   2.589   1.898  0.00  0.00     0.077 C 
ATOM      8  C7  UNL d   1      -0.822   2.497   0.219  0.00  0.00    -0.001 A 
ENDROOT
TORSDOF 0
ENDMDL
