MODEL 1
REMARK minimizedAffinity 9.03624535
REMARK minimizedRMSD -1
REMARK  0 active torsions:
REMARK  status: ('A' for Active; 'I' for Inactive)
ROOT
ATOM      1  C   UNL d   1       1.171   5.999  -2.224  0.00  0.00     0.077 C 
ATOM      2  C1  UNL d   1       0.287   4.984  -1.561  0.00  0.00    -0.074 A 
ATOM      3  C2  UNL d   1      -1.103   5.037  -1.708  0.00  0.00    -0.005 A 
ATOM      4  C3  UNL d   1      -1.912   4.081  -1.093  0.00  0.00     0.006 A 
ATOM      5  C4  UNL d   1      -1.340   3.064  -0.327  0.00  0.00    -0.005 A 
ATOM      6  C5  UNL d   1       0.048   2.995  -0.170  0.00  0.00    -0.074 A 
ATOM      7  C6  UNL d   1       0.679   1.903   0.642  0.00  0.00     0.077 C 
ATOM      8  C7  UNL d   1       0.854   3.955  -0.796  0.00  0.00    -0.001 A 
ENDROOT
TORSDOF 0
ENDMDL
