MODEL 1
REMARK minimizedAffinity 13.9860487
REMARK minimizedRMSD -1
REMARK  0 active torsions:
REMARK  status: ('A' for Active; 'I' for Inactive)
ROOT
ATOM      1  C   UNL d   1      -2.523   5.756   1.387  0.00  0.00     0.077 C 
ATOM      2  C1  UNL d   1      -1.775   4.818   0.487  0.00  0.00    -0.074 A 
ATOM      3  C2  UNL d   1      -1.946   4.865  -0.901  0.00  0.00    -0.005 A 
ATOM      4  C3  UNL d   1      -1.237   3.992  -1.726  0.00  0.00     0.006 A 
ATOM      5  C4  UNL d   1      -0.352   3.066  -1.174  0.00  0.00    -0.005 A 
ATOM      6  C5  UNL d   1      -0.167   3.005   0.211  0.00  0.00    -0.074 A 
ATOM      7  C6  UNL d   1       0.788   2.022   0.820  0.00  0.00     0.077 C 
ATOM      8  C7  UNL d   1      -0.878   3.890   1.033  0.00  0.00    -0.001 A 
ENDROOT
TORSDOF 0
ENDMDL
