MODEL 1
REMARK minimizedAffinity 20.1541672
REMARK minimizedRMSD -1
REMARK  0 active torsions:
REMARK  status: ('A' for Active; 'I' for Inactive)
ROOT
ATOM      1  C   UNL d   1       1.326   5.108  -2.412  0.00  0.00     0.077 C 
ATOM      2  C1  UNL d   1       0.670   4.128  -1.485  0.00  0.00    -0.074 A 
ATOM      3  C2  UNL d   1      -0.419   4.505  -0.693  0.00  0.00    -0.005 A 
ATOM      4  C3  UNL d   1      -1.024   3.580   0.157  0.00  0.00     0.006 A 
ATOM      5  C4  UNL d   1      -0.547   2.270   0.224  0.00  0.00    -0.005 A 
ATOM      6  C5  UNL d   1       0.540   1.874  -0.561  0.00  0.00    -0.074 A 
ATOM      7  C6  UNL d   1       1.058   0.468  -0.509  0.00  0.00     0.077 C 
ATOM      8  C7  UNL d   1       1.138   2.808  -1.418  0.00  0.00    -0.001 A 
ENDROOT
TORSDOF 0
ENDMDL
