MODEL 1
REMARK minimizedAffinity 3.76356697
REMARK minimizedRMSD -1
REMARK  0 active torsions:
REMARK  status: ('A' for Active; 'I' for Inactive)
ROOT
ATOM      1  C   UNL d   1       1.495   3.748  -1.133  0.00  0.00     0.077 C 
ATOM      2  C1  UNL d   1       0.561   2.574  -1.122  0.00  0.00    -0.074 A 
ATOM      3  C2  UNL d   1      -0.825   2.758  -1.125  0.00  0.00    -0.005 A 
ATOM      4  C3  UNL d   1      -1.681   1.657  -1.125  0.00  0.00     0.006 A 
ATOM      5  C4  UNL d   1      -1.160   0.362  -1.122  0.00  0.00    -0.005 A 
ATOM      6  C5  UNL d   1       0.224   0.159  -1.120  0.00  0.00    -0.074 A 
ATOM      7  C6  UNL d   1       0.801  -1.226  -1.127  0.00  0.00     0.077 C 
ATOM      8  C7  UNL d   1       1.077   1.271  -1.127  0.00  0.00    -0.001 A 
ENDROOT
TORSDOF 0
ENDMDL
