MODEL 1
REMARK minimizedAffinity 11.7326956
REMARK minimizedRMSD -1
REMARK  0 active torsions:
REMARK  status: ('A' for Active; 'I' for Inactive)
ROOT
ATOM      1  C   UNL d   1      -0.088   2.614   0.260  0.00  0.00     0.077 C 
ATOM      2  C1  UNL d   1      -1.345   1.952  -0.217  0.00  0.00    -0.074 A 
ATOM      3  C2  UNL d   1      -1.503   0.564  -0.135  0.00  0.00    -0.005 A 
ATOM      4  C3  UNL d   1      -2.682  -0.037  -0.574  0.00  0.00     0.006 A 
ATOM      5  C4  UNL d   1      -3.715   0.742  -1.100  0.00  0.00    -0.005 A 
ATOM      6  C5  UNL d   1      -3.575   2.130  -1.189  0.00  0.00    -0.074 A 
ATOM      7  C6  UNL d   1      -4.679   2.983  -1.742  0.00  0.00     0.077 C 
ATOM      8  C7  UNL d   1      -2.390   2.728  -0.739  0.00  0.00    -0.001 A 
ENDROOT
TORSDOF 0
ENDMDL
