MODEL 1
REMARK minimizedAffinity 4.71704435
REMARK minimizedRMSD -1
REMARK  0 active torsions:
REMARK  status: ('A' for Active; 'I' for Inactive)
ROOT
ATOM      1  C   UNL d   1       0.417   3.225  -1.699  0.00  0.00     0.077 C 
ATOM      2  C1  UNL d   1       0.302   3.013  -0.218  0.00  0.00    -0.074 A 
ATOM      3  C2  UNL d   1       1.438   2.997   0.597  0.00  0.00    -0.005 A 
ATOM      4  C3  UNL d   1       1.314   2.808   1.973  0.00  0.00     0.006 A 
ATOM      5  C4  UNL d   1       0.054   2.634   2.547  0.00  0.00    -0.005 A 
ATOM      6  C5  UNL d   1      -1.094   2.648   1.749  0.00  0.00    -0.074 A 
ATOM      7  C6  UNL d   1      -2.456   2.472   2.351  0.00  0.00     0.077 C 
ATOM      8  C7  UNL d   1      -0.961   2.845   0.367  0.00  0.00    -0.001 A 
ENDROOT
TORSDOF 0
ENDMDL
