MODEL 1
REMARK minimizedAffinity 4.73033524
REMARK minimizedRMSD -1
REMARK  0 active torsions:
REMARK  status: ('A' for Active; 'I' for Inactive)
ROOT
ATOM      1  C   UNL d   1       0.721  -5.181  -1.481  0.00  0.00     0.172 C 
ATOM      2  N   UNL d   1       0.008  -4.122  -2.155  0.00  0.00    -0.070 N 
ATOM      3  C1  UNL d   1      -0.474  -2.983  -1.566  0.00  0.00    -0.004 A 
ATOM      4  C2  UNL d   1      -1.088  -2.230  -2.543  0.00  0.00    -0.047 A 
ATOM      5  C3  UNL d   1      -0.973  -2.941  -3.761  0.00  0.00    -0.047 A 
ATOM      6  C4  UNL d   1      -0.291  -4.108  -3.492  0.00  0.00    -0.004 A 
ENDROOT
TORSDOF 0
ENDMDL
