MODEL 1
REMARK minimizedAffinity -0.731225133
REMARK minimizedRMSD -1
REMARK  0 active torsions:
REMARK  status: ('A' for Active; 'I' for Inactive)
ROOT
ATOM      1  C   UNL d   1      -4.222   5.617  -4.499  0.00  0.00     0.172 C 
ATOM      2  N   UNL d   1      -4.861   4.503  -3.838  0.00  0.00    -0.070 N 
ATOM      3  C1  UNL d   1      -5.545   3.492  -4.458  0.00  0.00    -0.004 A 
ATOM      4  C2  UNL d   1      -6.000   2.630  -3.483  0.00  0.00    -0.047 A 
ATOM      5  C3  UNL d   1      -5.575   3.142  -2.234  0.00  0.00    -0.047 A 
ATOM      6  C4  UNL d   1      -4.872   4.302  -2.483  0.00  0.00    -0.004 A 
ENDROOT
TORSDOF 0
ENDMDL
