MODEL 1
REMARK minimizedAffinity 7.23834658
REMARK minimizedRMSD -1
REMARK  0 active torsions:
REMARK  status: ('A' for Active; 'I' for Inactive)
ROOT
ATOM      1  C   UNL d   1      -1.168  -3.231  -3.348  0.00  0.00     0.172 C 
ATOM      2  N   UNL d   1      -0.291  -3.503  -2.233  0.00  0.00    -0.070 N 
ATOM      3  C1  UNL d   1       0.066  -2.606  -1.261  0.00  0.00    -0.004 A 
ATOM      4  C2  UNL d   1       0.910  -3.250  -0.383  0.00  0.00    -0.047 A 
ATOM      5  C3  UNL d   1       1.066  -4.579  -0.843  0.00  0.00    -0.047 A 
ATOM      6  C4  UNL d   1       0.312  -4.708  -1.990  0.00  0.00    -0.004 A 
ENDROOT
TORSDOF 0
ENDMDL
