MODEL 1
REMARK minimizedAffinity 4.4419179
REMARK minimizedRMSD -1
REMARK  0 active torsions:
REMARK  status: ('A' for Active; 'I' for Inactive)
ROOT
ATOM      1  C   UNL d   1       1.331   2.515   2.622  0.00  0.00     0.172 C 
ATOM      2  N   UNL d   1       0.587   2.976   1.473  0.00  0.00    -0.070 N 
ATOM      3  C1  UNL d   1       1.123   3.314   0.259  0.00  0.00    -0.004 A 
ATOM      4  C2  UNL d   1       0.089   3.701  -0.565  0.00  0.00    -0.047 A 
ATOM      5  C3  UNL d   1      -1.110   3.593   0.179  0.00  0.00    -0.047 A 
ATOM      6  C4  UNL d   1      -0.772   3.142   1.438  0.00  0.00    -0.004 A 
ENDROOT
TORSDOF 0
ENDMDL
