MODEL 1
REMARK minimizedAffinity 0.958164036
REMARK minimizedRMSD -1
REMARK  0 active torsions:
REMARK  status: ('A' for Active; 'I' for Inactive)
ROOT
ATOM      1  C   UNL d   1      -4.495  -0.433   3.480  0.00  0.00     0.172 C 
ATOM      2  N   UNL d   1      -4.770  -1.413   4.504  0.00  0.00    -0.070 N 
ATOM      3  C1  UNL d   1      -3.854  -2.267   5.059  0.00  0.00    -0.004 A 
ATOM      4  C2  UNL d   1      -4.509  -3.039   5.993  0.00  0.00    -0.047 A 
ATOM      5  C3  UNL d   1      -5.866  -2.636   6.000  0.00  0.00    -0.047 A 
ATOM      6  C4  UNL d   1      -6.000  -1.629   5.068  0.00  0.00    -0.004 A 
ENDROOT
TORSDOF 0
ENDMDL
