MODEL 1
REMARK minimizedAffinity -0.676586628
REMARK minimizedRMSD -1
REMARK  0 active torsions:
REMARK  status: ('A' for Active; 'I' for Inactive)
ROOT
ATOM      1  C   UNL d   1      -5.995   1.839  -4.864  0.00  0.00     0.172 C 
ATOM      2  N   UNL d   1      -5.748   2.795  -3.810  0.00  0.00    -0.070 N 
ATOM      3  C1  UNL d   1      -6.000   2.597  -2.478  0.00  0.00    -0.004 A 
ATOM      4  C2  UNL d   1      -5.628   3.740  -1.804  0.00  0.00    -0.047 A 
ATOM      5  C3  UNL d   1      -5.136   4.656  -2.763  0.00  0.00    -0.047 A 
ATOM      6  C4  UNL d   1      -5.222   4.045  -3.997  0.00  0.00    -0.004 A 
ENDROOT
TORSDOF 0
ENDMDL
