MODEL 1
REMARK minimizedAffinity 0.0818225965
REMARK minimizedRMSD -1
REMARK  0 active torsions:
REMARK  status: ('A' for Active; 'I' for Inactive)
ROOT
ATOM      1  C   UNL d   1       0.484   3.908   0.273  0.00  0.00     0.172 C 
ATOM      2  N   UNL d   1       0.820   3.272   1.525  0.00  0.00    -0.070 N 
ATOM      3  C1  UNL d   1       0.010   2.425   2.233  0.00  0.00    -0.004 A 
ATOM      4  C2  UNL d   1       0.693   2.035   3.365  0.00  0.00    -0.047 A 
ATOM      5  C3  UNL d   1       1.958   2.669   3.336  0.00  0.00    -0.047 A 
ATOM      6  C4  UNL d   1       2.010   3.428   2.186  0.00  0.00    -0.004 A 
ENDROOT
TORSDOF 0
ENDMDL
