MODEL 1
REMARK minimizedAffinity -0.125238419
REMARK minimizedRMSD -1
REMARK  0 active torsions:
REMARK  status: ('A' for Active; 'I' for Inactive)
ROOT
ATOM      1  C   UNL d   1      -0.011   3.358   1.101  0.00  0.00     0.172 C 
ATOM      2  N   UNL d   1      -0.403   4.202  -0.004  0.00  0.00    -0.070 N 
ATOM      3  C1  UNL d   1      -0.424   5.571   0.006  0.00  0.00    -0.004 A 
ATOM      4  C2  UNL d   1      -0.854   5.995  -1.233  0.00  0.00    -0.047 A 
ATOM      5  C3  UNL d   1      -1.100   4.841  -2.014  0.00  0.00    -0.047 A 
ATOM      6  C4  UNL d   1      -0.813   3.745  -1.228  0.00  0.00    -0.004 A 
ENDROOT
TORSDOF 0
ENDMDL
