MODEL 1
REMARK minimizedAffinity 0.652437449
REMARK minimizedRMSD -1
REMARK  0 active torsions:
REMARK  status: ('A' for Active; 'I' for Inactive)
ROOT
ATOM      1  C   UNL d   1      -5.996   2.629  -2.007  0.00  0.00     0.172 C 
ATOM      2  N   UNL d   1      -5.997   2.224  -3.393  0.00  0.00    -0.070 N 
ATOM      3  C1  UNL d   1      -5.998   0.933  -3.848  0.00  0.00    -0.004 A 
ATOM      4  C2  UNL d   1      -6.000   0.970  -5.226  0.00  0.00    -0.047 A 
ATOM      5  C3  UNL d   1      -5.999   2.332  -5.612  0.00  0.00    -0.047 A 
ATOM      6  C4  UNL d   1      -5.997   3.086  -4.458  0.00  0.00    -0.004 A 
ENDROOT
TORSDOF 0
ENDMDL
