MODEL 1
REMARK minimizedAffinity -0.957547128
REMARK minimizedRMSD -1
REMARK  0 active torsions:
REMARK  status: ('A' for Active; 'I' for Inactive)
ROOT
ATOM      1  C   UNL d   1       0.056  -0.482   2.286  0.00  0.00     0.124 A 
ATOM      2  C1  UNL d   1       1.169  -0.966   1.612  0.00  0.00     0.062 A 
ATOM      3  C2  UNL d   1       1.181  -1.008   0.220  0.00  0.00     0.162 A 
ATOM      4  C3  UNL d   1       0.076  -0.565  -0.507  0.00  0.00    -0.034 A 
ATOM      5  C4  UNL d   1      -1.040  -0.081   0.179  0.00  0.00     0.162 A 
ATOM      6  C5  UNL d   1      -1.047  -0.040   1.569  0.00  0.00     0.062 A 
ATOM      7  F   UNL d   1      -2.123   0.427   2.219  0.00  0.00    -0.097 F 
ATOM      8  F1  UNL d   1      -2.119   0.353  -0.489  0.00  0.00    -0.096 F 
ATOM      9  I   UNL d   1       0.089  -0.627  -2.587  0.00  0.00    -0.060 I 
ATOM     10  F2  UNL d   1       2.269  -1.480  -0.405  0.00  0.00    -0.096 F 
ATOM     11  F3  UNL d   1       2.236  -1.394   2.302  0.00  0.00    -0.097 F 
ATOM     12  F4  UNL d   1       0.047  -0.443   3.624  0.00  0.00    -0.092 F 
ENDROOT
TORSDOF 0
ENDMDL
