MODEL 1
REMARK minimizedAffinity -2.74184251
REMARK minimizedRMSD -1
REMARK  0 active torsions:
REMARK  status: ('A' for Active; 'I' for Inactive)
ROOT
ATOM      1  C   UNL d   1       1.378  -0.813   2.523  0.00  0.00     0.124 A 
ATOM      2  C1  UNL d   1       1.480  -1.303   1.228  0.00  0.00     0.062 A 
ATOM      3  C2  UNL d   1       0.444  -1.102   0.320  0.00  0.00     0.162 A 
ATOM      4  C3  UNL d   1      -0.703  -0.406   0.703  0.00  0.00    -0.034 A 
ATOM      5  C4  UNL d   1      -0.798   0.083   2.007  0.00  0.00     0.162 A 
ATOM      6  C5  UNL d   1       0.240  -0.120   2.911  0.00  0.00     0.062 A 
ATOM      7  F   UNL d   1       0.140   0.354   4.161  0.00  0.00    -0.097 F 
ATOM      8  F1  UNL d   1      -1.886   0.756   2.409  0.00  0.00    -0.096 F 
ATOM      9  I   UNL d   1      -2.253  -0.104  -0.651  0.00  0.00    -0.060 I 
ATOM     10  F2  UNL d   1       0.569  -1.587  -0.924  0.00  0.00    -0.096 F 
ATOM     11  F3  UNL d   1       2.578  -1.973   0.851  0.00  0.00    -0.097 F 
ATOM     12  F4  UNL d   1       2.375  -1.008   3.395  0.00  0.00    -0.092 F 
ENDROOT
TORSDOF 0
ENDMDL
