MODEL 1
REMARK minimizedAffinity 2.11184168
REMARK minimizedRMSD -1
REMARK  0 active torsions:
REMARK  status: ('A' for Active; 'I' for Inactive)
ROOT
ATOM      1  C   UNL d   1      -0.364   0.132   2.314  0.00  0.00     0.124 A 
ATOM      2  C1  UNL d   1       0.802  -0.392   1.772  0.00  0.00     0.062 A 
ATOM      3  C2  UNL d   1       0.925  -0.549   0.395  0.00  0.00     0.162 A 
ATOM      4  C3  UNL d   1      -0.121  -0.181  -0.452  0.00  0.00    -0.034 A 
ATOM      5  C4  UNL d   1      -1.291   0.344   0.100  0.00  0.00     0.162 A 
ATOM      6  C5  UNL d   1      -1.409   0.499   1.477  0.00  0.00     0.062 A 
ATOM      7  F   UNL d   1      -2.536   1.005   1.999  0.00  0.00    -0.097 F 
ATOM      8  F1  UNL d   1      -2.315   0.709  -0.685  0.00  0.00    -0.096 F 
ATOM      9  I   UNL d   1       0.060  -0.414  -2.512  0.00  0.00    -0.060 I 
ATOM     10  F2  UNL d   1       2.063  -1.058  -0.101  0.00  0.00    -0.096 F 
ATOM     11  F3  UNL d   1       1.812  -0.749   2.578  0.00  0.00    -0.097 F 
ATOM     12  F4  UNL d   1      -0.480   0.281   3.639  0.00  0.00    -0.092 F 
ENDROOT
TORSDOF 0
ENDMDL
