MODEL 1
REMARK minimizedAffinity -1.67634296
REMARK minimizedRMSD -1
REMARK  0 active torsions:
REMARK  status: ('A' for Active; 'I' for Inactive)
ROOT
ATOM      1  C   UNL d   1      -0.426   0.018   2.606  0.00  0.00     0.124 A 
ATOM      2  C1  UNL d   1      -1.303   0.338   1.579  0.00  0.00     0.062 A 
ATOM      3  C2  UNL d   1      -0.942   0.114   0.254  0.00  0.00     0.162 A 
ATOM      4  C3  UNL d   1       0.304  -0.434  -0.053  0.00  0.00    -0.034 A 
ATOM      5  C4  UNL d   1       1.182  -0.752   0.985  0.00  0.00     0.162 A 
ATOM      6  C5  UNL d   1       0.816  -0.526   2.308  0.00  0.00     0.062 A 
ATOM      7  F   UNL d   1       1.665  -0.836   3.299  0.00  0.00    -0.097 F 
ATOM      8  F1  UNL d   1       2.387  -1.280   0.726  0.00  0.00    -0.096 F 
ATOM      9  I   UNL d   1       0.848  -0.770  -2.033  0.00  0.00    -0.060 I 
ATOM     10  F2  UNL d   1      -1.810   0.433  -0.718  0.00  0.00    -0.096 F 
ATOM     11  F3  UNL d   1      -2.503   0.865   1.865  0.00  0.00    -0.097 F 
ATOM     12  F4  UNL d   1      -0.776   0.235   3.880  0.00  0.00    -0.092 F 
ENDROOT
TORSDOF 0
ENDMDL
