MODEL 1
REMARK minimizedAffinity -1.98097885
REMARK minimizedRMSD -1
REMARK  0 active torsions:
REMARK  status: ('A' for Active; 'I' for Inactive)
ROOT
ATOM      1  C   UNL d   1      -0.403   0.204   2.010  0.00  0.00     0.124 A 
ATOM      2  C1  UNL d   1       0.740  -0.359   1.459  0.00  0.00     0.062 A 
ATOM      3  C2  UNL d   1       0.848  -0.519   0.081  0.00  0.00     0.162 A 
ATOM      4  C3  UNL d   1      -0.191  -0.114  -0.758  0.00  0.00    -0.034 A 
ATOM      5  C4  UNL d   1      -1.338   0.450  -0.197  0.00  0.00     0.162 A 
ATOM      6  C5  UNL d   1      -1.441   0.608   1.181  0.00  0.00     0.062 A 
ATOM      7  F   UNL d   1      -2.546   1.152   1.711  0.00  0.00    -0.097 F 
ATOM      8  F1  UNL d   1      -2.355   0.850  -0.974  0.00  0.00    -0.096 F 
ATOM      9  I   UNL d   1      -0.033  -0.352  -2.819  0.00  0.00    -0.060 I 
ATOM     10  F2  UNL d   1       1.964  -1.066  -0.423  0.00  0.00    -0.096 F 
ATOM     11  F3  UNL d   1       1.744  -0.751   2.258  0.00  0.00    -0.097 F 
ATOM     12  F4  UNL d   1      -0.505   0.356   3.336  0.00  0.00    -0.092 F 
ENDROOT
TORSDOF 0
ENDMDL
