MODEL 1
REMARK minimizedAffinity -4.67670536
REMARK minimizedRMSD -1
REMARK  1 active torsions:
REMARK  status: ('A' for Active; 'I' for Inactive)
REMARK    1  A    between atoms: C1_2  and  C2_3 
ROOT
ATOM      1  C2  UNL d   1      -0.137  -0.250  -0.582  0.00  0.00    -0.081 A 
ATOM      2  C3  UNL d   1       1.180  -0.722  -0.513  0.00  0.00     0.006 A 
ATOM      3  C4  UNL d   1       1.771  -0.992   0.723  0.00  0.00     0.002 A 
ATOM      4  C5  UNL d   1       1.055  -0.802   1.910  0.00  0.00    -0.080 A 
ATOM      5  C6  UNL d   1       1.668  -1.117   3.242  0.00  0.00     0.076 C 
ATOM      6  C7  UNL d   1      -0.255  -0.314   1.842  0.00  0.00     0.002 A 
ATOM      7  C8  UNL d   1      -0.846  -0.043   0.606  0.00  0.00     0.006 A 
ENDROOT
BRANCH   1   8
ATOM      8  C1  UNL d   1      -0.799  -0.019  -1.916  0.00  0.00     0.054 C 
ATOM      9  C   UNL d   1      -1.093   1.458  -2.140  0.00  0.00     0.018 C 
ENDBRANCH   1   8
TORSDOF 1
ENDMDL
