MODEL 1
REMARK minimizedAffinity -5.24184036
REMARK minimizedRMSD -1
REMARK  1 active torsions:
REMARK  status: ('A' for Active; 'I' for Inactive)
REMARK    1  A    between atoms: C1_2  and  C2_3 
ROOT
ATOM      1  C2  UNL d   1      -0.512   0.533  -0.533  0.00  0.00    -0.081 A 
ATOM      2  C3  UNL d   1      -1.266   0.539   0.647  0.00  0.00     0.006 A 
ATOM      3  C4  UNL d   1      -0.739   0.006   1.826  0.00  0.00     0.002 A 
ATOM      4  C5  UNL d   1       0.551  -0.534   1.847  0.00  0.00    -0.080 A 
ATOM      5  C6  UNL d   1       1.140  -1.082   3.113  0.00  0.00     0.076 C 
ATOM      6  C7  UNL d   1       1.297  -0.556   0.664  0.00  0.00     0.002 A 
ATOM      7  C8  UNL d   1       0.771  -0.024  -0.515  0.00  0.00     0.006 A 
ENDROOT
BRANCH   1   8
ATOM      8  C1  UNL d   1      -1.052   1.165  -1.790  0.00  0.00     0.054 C 
ATOM      9  C   UNL d   1      -0.828   2.670  -1.793  0.00  0.00     0.018 C 
ENDBRANCH   1   8
TORSDOF 1
ENDMDL
