MODEL 1
REMARK minimizedAffinity -5.04796267
REMARK minimizedRMSD -1
REMARK  1 active torsions:
REMARK  status: ('A' for Active; 'I' for Inactive)
REMARK    1  A    between atoms: C1_2  and  C2_3 
ROOT
ATOM      1  C2  UNL d   1      -0.495   0.470  -0.732  0.00  0.00    -0.081 A 
ATOM      2  C3  UNL d   1      -1.151   0.719   0.480  0.00  0.00     0.006 A 
ATOM      3  C4  UNL d   1      -0.738   0.083   1.653  0.00  0.00     0.002 A 
ATOM      4  C5  UNL d   1       0.344  -0.804   1.636  0.00  0.00    -0.080 A 
ATOM      5  C6  UNL d   1       0.817  -1.470   2.894  0.00  0.00     0.076 C 
ATOM      6  C7  UNL d   1       0.989  -1.066   0.422  0.00  0.00     0.002 A 
ATOM      7  C8  UNL d   1       0.575  -0.432  -0.751  0.00  0.00     0.006 A 
ENDROOT
BRANCH   1   8
ATOM      8  C1  UNL d   1      -0.898   1.203  -1.986  0.00  0.00     0.054 C 
ATOM      9  C   UNL d   1      -0.259   2.583  -2.050  0.00  0.00     0.018 C 
ENDBRANCH   1   8
TORSDOF 1
ENDMDL
