MODEL 1
REMARK minimizedAffinity -5.04184294
REMARK minimizedRMSD -1
REMARK  1 active torsions:
REMARK  status: ('A' for Active; 'I' for Inactive)
REMARK    1  A    between atoms: C1_2  and  C2_3 
ROOT
ATOM      1  C2  UNL d   1      -1.203   0.779  -0.972  0.00  0.00    -0.081 A 
ATOM      2  C3  UNL d   1      -1.954   0.774   0.210  0.00  0.00     0.006 A 
ATOM      3  C4  UNL d   1      -1.485   0.108   1.344  0.00  0.00     0.002 A 
ATOM      4  C5  UNL d   1      -0.254  -0.557   1.318  0.00  0.00    -0.080 A 
ATOM      5  C6  UNL d   1       0.275  -1.250   2.538  0.00  0.00     0.076 C 
ATOM      6  C7  UNL d   1       0.488  -0.567   0.132  0.00  0.00     0.002 A 
ATOM      7  C8  UNL d   1       0.019   0.098  -1.002  0.00  0.00     0.006 A 
ENDROOT
BRANCH   1   8
ATOM      8  C1  UNL d   1      -1.676   1.551  -2.178  0.00  0.00     0.054 C 
ATOM      9  C   UNL d   1      -0.845   2.808  -2.391  0.00  0.00     0.018 C 
ENDBRANCH   1   8
TORSDOF 1
ENDMDL
