MODEL 1
REMARK minimizedAffinity -5.26721668
REMARK minimizedRMSD -1
REMARK  1 active torsions:
REMARK  status: ('A' for Active; 'I' for Inactive)
REMARK    1  A    between atoms: C1_2  and  C2_3 
ROOT
ATOM      1  C2  UNL d   1      -0.370   0.350  -0.410  0.00  0.00    -0.081 A 
ATOM      2  C3  UNL d   1      -0.947   0.288   0.865  0.00  0.00     0.006 A 
ATOM      3  C4  UNL d   1      -0.259  -0.308   1.925  0.00  0.00     0.002 A 
ATOM      4  C5  UNL d   1       1.019  -0.843   1.731  0.00  0.00    -0.080 A 
ATOM      5  C6  UNL d   1       1.780  -1.458   2.867  0.00  0.00     0.076 C 
ATOM      6  C7  UNL d   1       1.588  -0.796   0.454  0.00  0.00     0.002 A 
ATOM      7  C8  UNL d   1       0.901  -0.202  -0.607  0.00  0.00     0.006 A 
ENDROOT
BRANCH   1   8
ATOM      8  C1  UNL d   1      -1.082   1.049  -1.540  0.00  0.00     0.054 C 
ATOM      9  C   UNL d   1      -0.416   2.376  -1.876  0.00  0.00     0.018 C 
ENDBRANCH   1   8
TORSDOF 1
ENDMDL
