MODEL 1
REMARK minimizedAffinity -2.93687987
REMARK minimizedRMSD -1
REMARK  1 active torsions:
REMARK  status: ('A' for Active; 'I' for Inactive)
REMARK    1  A    between atoms: C1_2  and  C2_3 
ROOT
ATOM      1  C2  UNL d   1      -1.784   0.108   2.324  0.00  0.00    -0.081 A 
ATOM      2  C3  UNL d   1      -1.346  -0.828   1.379  0.00  0.00     0.006 A 
ATOM      3  C4  UNL d   1      -0.063  -1.373   1.463  0.00  0.00     0.002 A 
ATOM      4  C5  UNL d   1       0.800  -0.998   2.498  0.00  0.00    -0.080 A 
ATOM      5  C6  UNL d   1       2.169  -1.599   2.618  0.00  0.00     0.076 C 
ATOM      6  C7  UNL d   1       0.370  -0.050   3.432  0.00  0.00     0.002 A 
ATOM      7  C8  UNL d   1      -0.913   0.496   3.348  0.00  0.00     0.006 A 
ENDROOT
BRANCH   1   8
ATOM      8  C1  UNL d   1      -3.190   0.650   2.272  0.00  0.00     0.054 C 
ATOM      9  C   UNL d   1      -3.683   0.773   0.838  0.00  0.00     0.018 C 
ENDBRANCH   1   8
TORSDOF 1
ENDMDL
