MODEL 1
REMARK minimizedAffinity 3.63519382
REMARK minimizedRMSD -1
REMARK  1 active torsions:
REMARK  status: ('A' for Active; 'I' for Inactive)
REMARK    1  A    between atoms: C1_2  and  C2_3 
ROOT
ATOM      1  C2  UNL d   1       0.205   0.060   3.389  0.00  0.00    -0.081 A 
ATOM      2  C3  UNL d   1      -1.126   0.419   3.147  0.00  0.00     0.006 A 
ATOM      3  C4  UNL d   1      -1.513   0.900   1.893  0.00  0.00     0.002 A 
ATOM      4  C5  UNL d   1      -0.578   1.022   0.860  0.00  0.00    -0.080 A 
ATOM      5  C6  UNL d   1      -0.986   1.509  -0.499  0.00  0.00     0.076 C 
ATOM      6  C7  UNL d   1       0.756   0.680   1.107  0.00  0.00     0.002 A 
ATOM      7  C8  UNL d   1       1.144   0.200   2.360  0.00  0.00     0.006 A 
ENDROOT
BRANCH   1   8
ATOM      8  C1  UNL d   1       0.613  -0.520   4.719  0.00  0.00     0.054 C 
ATOM      9  C   UNL d   1       1.096  -1.956   4.573  0.00  0.00     0.018 C 
ENDBRANCH   1   8
TORSDOF 1
ENDMDL
