MODEL 1
REMARK minimizedAffinity 5.80962372
REMARK minimizedRMSD -1
REMARK  1 active torsions:
REMARK  status: ('A' for Active; 'I' for Inactive)
REMARK    1  A    between atoms: C1_2  and  C2_3 
ROOT
ATOM      1  C2  UNL d   1       1.753  -2.462  -0.128  0.00  0.00    -0.081 A 
ATOM      2  C3  UNL d   1       1.847  -1.586   0.961  0.00  0.00     0.006 A 
ATOM      3  C4  UNL d   1       2.679  -0.466   0.899  0.00  0.00     0.002 A 
ATOM      4  C5  UNL d   1       3.425  -0.199  -0.254  0.00  0.00    -0.080 A 
ATOM      5  C6  UNL d   1       4.299   1.017  -0.345  0.00  0.00     0.076 C 
ATOM      6  C7  UNL d   1       3.344  -1.083  -1.335  0.00  0.00     0.002 A 
ATOM      7  C8  UNL d   1       2.513  -2.204  -1.274  0.00  0.00     0.006 A 
ENDROOT
BRANCH   1   8
ATOM      8  C1  UNL d   1       0.807  -3.635  -0.088  0.00  0.00     0.054 C 
ATOM      9  C   UNL d   1      -0.419  -3.387  -0.955  0.00  0.00     0.018 C 
ENDBRANCH   1   8
TORSDOF 1
ENDMDL
