MODEL 1
REMARK minimizedAffinity 7.00835371
REMARK minimizedRMSD -1
REMARK  1 active torsions:
REMARK  status: ('A' for Active; 'I' for Inactive)
REMARK    1  A    between atoms: C1_2  and  C2_3 
ROOT
ATOM      1  C2  UNL d   1       1.826   0.672   0.338  0.00  0.00    -0.081 A 
ATOM      2  C3  UNL d   1       0.659   1.006  -0.360  0.00  0.00     0.006 A 
ATOM      3  C4  UNL d   1      -0.493   1.391   0.330  0.00  0.00     0.002 A 
ATOM      4  C5  UNL d   1      -0.495   1.457   1.728  0.00  0.00    -0.080 A 
ATOM      5  C6  UNL d   1      -1.716   1.898   2.479  0.00  0.00     0.076 C 
ATOM      6  C7  UNL d   1       0.665   1.106   2.426  0.00  0.00     0.002 A 
ATOM      7  C8  UNL d   1       1.817   0.720   1.736  0.00  0.00     0.006 A 
ENDROOT
BRANCH   1   8
ATOM      8  C1  UNL d   1       3.088   0.319  -0.405  0.00  0.00     0.054 C 
ATOM      9  C   UNL d   1       4.189   1.336  -0.140  0.00  0.00     0.018 C 
ENDBRANCH   1   8
TORSDOF 1
ENDMDL
