MODEL 1
REMARK minimizedAffinity 6.91183758
REMARK minimizedRMSD -1
REMARK  0 active torsions:
REMARK  status: ('A' for Active; 'I' for Inactive)
ROOT
ATOM      1  C   UNL d   1       0.200   1.490   0.374  0.00  0.00    -0.002 A 
ATOM      2  C1  UNL d   1       0.028   0.371   1.177  0.00  0.00     0.010 A 
ATOM      3  C2  UNL d   1      -1.252  -0.113   1.456  0.00  0.00     0.041 A 
ATOM      4  C3  UNL d   1      -2.366   0.552   0.908  0.00  0.00    -0.075 A 
ATOM      5  S   UNL d   1      -4.028   0.139   1.113  0.00  0.00     0.015 SA
ATOM      6  C4  UNL d   1      -4.548   1.438   0.139  0.00  0.00     0.022 A 
ATOM      7  C5  UNL d   1      -3.493   2.179  -0.339  0.00  0.00     0.026 A 
ATOM      8  C6  UNL d   1      -2.218   1.680   0.096  0.00  0.00    -0.082 A 
ATOM      9  C7  UNL d   1      -0.908   2.147  -0.168  0.00  0.00     0.045 A 
ENDROOT
TORSDOF 0
ENDMDL
