MODEL 1
REMARK minimizedAffinity 12.3976345
REMARK minimizedRMSD -1
REMARK  0 active torsions:
REMARK  status: ('A' for Active; 'I' for Inactive)
ROOT
ATOM      1  C   UNL d   1      -1.592   2.665   0.727  0.00  0.00    -0.002 A 
ATOM      2  C1  UNL d   1      -2.091   2.437   2.002  0.00  0.00     0.010 A 
ATOM      3  C2  UNL d   1      -1.243   2.466   3.111  0.00  0.00     0.041 A 
ATOM      4  C3  UNL d   1       0.126   2.732   2.916  0.00  0.00    -0.075 A 
ATOM      5  S   UNL d   1       1.351   2.818   4.126  0.00  0.00     0.015 SA
ATOM      6  C4  UNL d   1       2.565   3.160   2.980  0.00  0.00     0.022 A 
ATOM      7  C5  UNL d   1       2.065   3.210   1.700  0.00  0.00     0.026 A 
ATOM      8  C6  UNL d   1       0.651   2.965   1.642  0.00  0.00    -0.082 A 
ATOM      9  C7  UNL d   1      -0.233   2.928   0.537  0.00  0.00     0.045 A 
ENDROOT
TORSDOF 0
ENDMDL
