MODEL 1
REMARK minimizedAffinity 7.62902975
REMARK minimizedRMSD -1
REMARK  0 active torsions:
REMARK  status: ('A' for Active; 'I' for Inactive)
ROOT
ATOM      1  C   UNL d   1       3.010   1.095   0.623  0.00  0.00    -0.002 A 
ATOM      2  C1  UNL d   1       2.910   1.921   1.733  0.00  0.00     0.010 A 
ATOM      3  C2  UNL d   1       1.664   2.372   2.174  0.00  0.00     0.041 A 
ATOM      4  C3  UNL d   1       0.508   1.973   1.474  0.00  0.00    -0.075 A 
ATOM      5  S   UNL d   1      -1.123   2.400   1.831  0.00  0.00     0.015 SA
ATOM      6  C4  UNL d   1      -1.726   1.496   0.518  0.00  0.00     0.022 A 
ATOM      7  C5  UNL d   1      -0.721   0.877  -0.186  0.00  0.00     0.026 A 
ATOM      8  C6  UNL d   1       0.583   1.141   0.353  0.00  0.00    -0.082 A 
ATOM      9  C7  UNL d   1       1.861   0.702  -0.069  0.00  0.00     0.045 A 
ENDROOT
TORSDOF 0
ENDMDL
