MODEL 1
REMARK minimizedAffinity 1.55080485
REMARK minimizedRMSD -1
REMARK  0 active torsions:
REMARK  status: ('A' for Active; 'I' for Inactive)
ROOT
ATOM      1  C   UNL d   1       3.764   5.825   2.814  0.00  0.00    -0.002 A 
ATOM      2  C1  UNL d   1       3.237   5.998   1.542  0.00  0.00     0.010 A 
ATOM      3  C2  UNL d   1       2.220   5.164   1.074  0.00  0.00     0.041 A 
ATOM      4  C3  UNL d   1       1.735   4.144   1.916  0.00  0.00    -0.075 A 
ATOM      5  S   UNL d   1       0.493   3.003   1.557  0.00  0.00     0.015 SA
ATOM      6  C4  UNL d   1       0.632   2.259   3.085  0.00  0.00     0.022 A 
ATOM      7  C5  UNL d   1       1.597   2.854   3.862  0.00  0.00     0.026 A 
ATOM      8  C6  UNL d   1       2.249   3.950   3.201  0.00  0.00    -0.082 A 
ATOM      9  C7  UNL d   1       3.280   4.812   3.646  0.00  0.00     0.045 A 
ENDROOT
TORSDOF 0
ENDMDL
