MODEL 1
REMARK minimizedAffinity 11.5977211
REMARK minimizedRMSD -1
REMARK  0 active torsions:
REMARK  status: ('A' for Active; 'I' for Inactive)
ROOT
ATOM      1  C   UNL d   1       1.283   0.694   0.305  0.00  0.00    -0.002 A 
ATOM      2  C1  UNL d   1      -0.080   0.467   0.183  0.00  0.00     0.010 A 
ATOM      3  C2  UNL d   1      -0.978   1.032   1.091  0.00  0.00     0.041 A 
ATOM      4  C3  UNL d   1      -0.478   1.837   2.133  0.00  0.00    -0.075 A 
ATOM      5  S   UNL d   1      -1.389   2.633   3.361  0.00  0.00     0.015 SA
ATOM      6  C4  UNL d   1       0.010   3.294   4.076  0.00  0.00     0.022 A 
ATOM      7  C5  UNL d   1       1.154   2.926   3.407  0.00  0.00     0.026 A 
ATOM      8  C6  UNL d   1       0.891   2.081   2.276  0.00  0.00    -0.082 A 
ATOM      9  C7  UNL d   1       1.776   1.494   1.339  0.00  0.00     0.045 A 
ENDROOT
TORSDOF 0
ENDMDL
