MODEL 1
REMARK minimizedAffinity 6.49819756
REMARK minimizedRMSD -1
REMARK  0 active torsions:
REMARK  status: ('A' for Active; 'I' for Inactive)
ROOT
ATOM      1  C   UNL d   1       3.893   5.723   0.292  0.00  0.00    -0.002 A 
ATOM      2  C1  UNL d   1       5.280   5.768   0.314  0.00  0.00     0.010 A 
ATOM      3  C2  UNL d   1       5.969   5.855   1.526  0.00  0.00     0.041 A 
ATOM      4  C3  UNL d   1       5.233   5.895   2.726  0.00  0.00    -0.075 A 
ATOM      5  S   UNL d   1       5.862   6.000   4.328  0.00  0.00     0.015 SA
ATOM      6  C4  UNL d   1       4.305   5.986   5.021  0.00  0.00     0.022 A 
ATOM      7  C5  UNL d   1       3.317   5.904   4.068  0.00  0.00     0.026 A 
ATOM      8  C6  UNL d   1       3.836   5.850   2.730  0.00  0.00    -0.082 A 
ATOM      9  C7  UNL d   1       3.167   5.762   1.485  0.00  0.00     0.045 A 
ENDROOT
TORSDOF 0
ENDMDL
