MODEL 1
REMARK minimizedAffinity 5.16340065
REMARK minimizedRMSD -1
REMARK  0 active torsions:
REMARK  status: ('A' for Active; 'I' for Inactive)
ROOT
ATOM      1  C   UNL d   1      -4.482   0.663  -1.163  0.00  0.00    -0.002 A 
ATOM      2  C1  UNL d   1      -5.247   1.793  -0.910  0.00  0.00     0.010 A 
ATOM      3  C2  UNL d   1      -5.328   2.821  -1.852  0.00  0.00     0.041 A 
ATOM      4  C3  UNL d   1      -4.622   2.692  -3.064  0.00  0.00    -0.075 A 
ATOM      5  S   UNL d   1      -4.574   3.823  -4.364  0.00  0.00     0.015 SA
ATOM      6  C4  UNL d   1      -3.538   2.832  -5.286  0.00  0.00     0.022 A 
ATOM      7  C5  UNL d   1      -3.226   1.664  -4.633  0.00  0.00     0.026 A 
ATOM      8  C6  UNL d   1      -3.846   1.563  -3.342  0.00  0.00    -0.082 A 
ATOM      9  C7  UNL d   1      -3.783   0.539  -2.366  0.00  0.00     0.045 A 
ENDROOT
TORSDOF 0
ENDMDL
