MODEL 1
REMARK minimizedAffinity 8.36344242
REMARK minimizedRMSD -1
REMARK  0 active torsions:
REMARK  status: ('A' for Active; 'I' for Inactive)
ROOT
ATOM      1  C   UNL d   1       2.966   1.486   0.836  0.00  0.00    -0.002 A 
ATOM      2  C1  UNL d   1       1.979   0.776   0.167  0.00  0.00     0.010 A 
ATOM      3  C2  UNL d   1       0.644   0.871   0.563  0.00  0.00     0.041 A 
ATOM      4  C3  UNL d   1       0.314   1.701   1.652  0.00  0.00    -0.075 A 
ATOM      5  S   UNL d   1      -1.255   1.973   2.313  0.00  0.00     0.015 SA
ATOM      6  C4  UNL d   1      -0.652   3.039   3.499  0.00  0.00     0.022 A 
ATOM      7  C5  UNL d   1       0.711   3.194   3.407  0.00  0.00     0.026 A 
ATOM      8  C6  UNL d   1       1.290   2.426   2.341  0.00  0.00    -0.082 A 
ATOM      9  C7  UNL d   1       2.635   2.308   1.916  0.00  0.00     0.045 A 
ENDROOT
TORSDOF 0
ENDMDL
