MODEL 1
REMARK minimizedAffinity 7.98509121
REMARK minimizedRMSD -1
REMARK  0 active torsions:
REMARK  status: ('A' for Active; 'I' for Inactive)
ROOT
ATOM      1  C   UNL d   1       2.525   0.655   0.210  0.00  0.00    -0.002 A 
ATOM      2  C1  UNL d   1       1.235   0.275  -0.134  0.00  0.00     0.010 A 
ATOM      3  C2  UNL d   1       0.134   0.812   0.535  0.00  0.00     0.041 A 
ATOM      4  C3  UNL d   1       0.352   1.748   1.565  0.00  0.00    -0.075 A 
ATOM      5  S   UNL d   1      -0.844   2.539   2.522  0.00  0.00     0.015 SA
ATOM      6  C4  UNL d   1       0.328   3.399   3.411  0.00  0.00     0.022 A 
ATOM      7  C5  UNL d   1       1.606   3.103   3.001  0.00  0.00     0.026 A 
ATOM      8  C6  UNL d   1       1.641   2.146   1.930  0.00  0.00    -0.082 A 
ATOM      9  C7  UNL d   1       2.737   1.583   1.233  0.00  0.00     0.045 A 
ENDROOT
TORSDOF 0
ENDMDL
