MODEL 1
REMARK minimizedAffinity 5.32814312
REMARK minimizedRMSD -1
REMARK  0 active torsions:
REMARK  status: ('A' for Active; 'I' for Inactive)
ROOT
ATOM      1  C   UNL d   1       0.913   3.735   3.435  0.00  0.00    -0.002 A 
ATOM      2  C1  UNL d   1      -0.439   3.479   3.256  0.00  0.00     0.010 A 
ATOM      3  C2  UNL d   1      -0.866   2.539   2.317  0.00  0.00     0.041 A 
ATOM      4  C3  UNL d   1       0.098   1.851   1.554  0.00  0.00    -0.075 A 
ATOM      5  S   UNL d   1      -0.192   0.656   0.345  0.00  0.00     0.015 SA
ATOM      6  C4  UNL d   1       1.473   0.456   0.038  0.00  0.00     0.022 A 
ATOM      7  C5  UNL d   1       2.245   1.273   0.829  0.00  0.00     0.026 A 
ATOM      8  C6  UNL d   1       1.465   2.091   1.716  0.00  0.00    -0.082 A 
ATOM      9  C7  UNL d   1       1.866   3.051   2.676  0.00  0.00     0.045 A 
ENDROOT
TORSDOF 0
ENDMDL
