MODEL 1
REMARK minimizedAffinity 12.6131697
REMARK minimizedRMSD -1
REMARK  0 active torsions:
REMARK  status: ('A' for Active; 'I' for Inactive)
ROOT
ATOM      1  C   UNL d   1       2.840   1.444   1.498  0.00  0.00    -0.002 A 
ATOM      2  C1  UNL d   1       2.643   2.389   2.494  0.00  0.00     0.010 A 
ATOM      3  C2  UNL d   1       1.355   2.811   2.830  0.00  0.00     0.041 A 
ATOM      4  C3  UNL d   1       0.257   2.258   2.142  0.00  0.00    -0.075 A 
ATOM      5  S   UNL d   1      -1.411   2.622   2.384  0.00  0.00     0.015 SA
ATOM      6  C4  UNL d   1      -1.902   1.530   1.171  0.00  0.00     0.022 A 
ATOM      7  C5  UNL d   1      -0.833   0.895   0.585  0.00  0.00     0.026 A 
ATOM      8  C6  UNL d   1       0.429   1.304   1.135  0.00  0.00    -0.082 A 
ATOM      9  C7  UNL d   1       1.748   0.898   0.818  0.00  0.00     0.045 A 
ENDROOT
TORSDOF 0
ENDMDL
