MODEL 1
REMARK minimizedAffinity 6.43857718
REMARK minimizedRMSD -1
REMARK  3 active torsions:
REMARK  status: ('A' for Active; 'I' for Inactive)
REMARK    1  A    between atoms: C3'_2  and  C2'_3 
REMARK    2  A    between atoms: C2'_3  and  C1'_4 
REMARK    3  A    between atoms: C1'_4  and  C1_5 
ROOT
ATOM      1  C1  N4B d   1       4.824  -4.669   3.579  0.00  0.00    -0.075 A 
ATOM      2  C2  N4B d   1       4.843  -5.481   4.735  0.00  0.00     0.002 A 
ATOM      3  C3  N4B d   1       5.257  -4.957   5.935  0.00  0.00     0.002 A 
ATOM      4  C4  N4B d   1       5.672  -3.636   6.000  0.00  0.00    -0.004 A 
ATOM      5  C5  N4B d   1       5.627  -2.851   4.885  0.00  0.00     0.002 A 
ATOM      6  C6  N4B d   1       5.210  -3.363   3.673  0.00  0.00     0.002 A 
ENDROOT
BRANCH   1   7
ATOM      7  C1' N4B d   1       4.461  -5.220   2.227  0.00  0.00     0.057 C 
BRANCH   7   8
ATOM      8  C2' N4B d   1       4.402  -4.076   1.220  0.00  0.00     0.009 C 
BRANCH   8   9
ATOM      9  C3' N4B d   1       3.105  -4.083   0.428  0.00  0.00     0.004 C 
ATOM     10  C4' N4B d   1       2.439  -2.740   0.393  0.00  0.00     0.003 C 
ENDBRANCH   8   9
ENDBRANCH   7   8
ENDBRANCH   1   7
TORSDOF 3
ENDMDL
