MODEL 1
REMARK minimizedAffinity 1.38691366
REMARK minimizedRMSD -1
REMARK  3 active torsions:
REMARK  status: ('A' for Active; 'I' for Inactive)
REMARK    1  A    between atoms: C3'_2  and  C2'_3 
REMARK    2  A    between atoms: C2'_3  and  C1'_4 
REMARK    3  A    between atoms: C1'_4  and  C1_5 
ROOT
ATOM      1  C1  N4B d   1       4.720  -4.602   3.362  0.00  0.00    -0.075 A 
ATOM      2  C2  N4B d   1       4.903  -5.739   4.179  0.00  0.00     0.002 A 
ATOM      3  C3  N4B d   1       5.280  -5.588   5.491  0.00  0.00     0.002 A 
ATOM      4  C4  N4B d   1       5.499  -4.316   6.000  0.00  0.00    -0.004 A 
ATOM      5  C5  N4B d   1       5.296  -3.222   5.211  0.00  0.00     0.002 A 
ATOM      6  C6  N4B d   1       4.912  -3.359   3.892  0.00  0.00     0.002 A 
ENDROOT
BRANCH   1   7
ATOM      7  C1' N4B d   1       4.391  -4.720   1.899  0.00  0.00     0.057 C 
BRANCH   7   8
ATOM      8  C2' N4B d   1       3.824  -3.393   1.404  0.00  0.00     0.009 C 
BRANCH   8   9
ATOM      9  C3' N4B d   1       2.432  -3.553   0.819  0.00  0.00     0.004 C 
ATOM     10  C4' N4B d   1       1.791  -2.241   0.476  0.00  0.00     0.003 C 
ENDBRANCH   8   9
ENDBRANCH   7   8
ENDBRANCH   1   7
TORSDOF 3
ENDMDL
