MODEL 1
REMARK minimizedAffinity 0.0243488736
REMARK minimizedRMSD -1
REMARK  3 active torsions:
REMARK  status: ('A' for Active; 'I' for Inactive)
REMARK    1  A    between atoms: C3'_2  and  C2'_3 
REMARK    2  A    between atoms: C2'_3  and  C1'_4 
REMARK    3  A    between atoms: C1'_4  and  C1_5 
ROOT
ATOM      1  C1  N4B d   1       4.586  -4.282   3.469  0.00  0.00    -0.075 A 
ATOM      2  C2  N4B d   1       4.786  -5.336   4.388  0.00  0.00     0.002 A 
ATOM      3  C3  N4B d   1       5.267  -5.067   5.646  0.00  0.00     0.002 A 
ATOM      4  C4  N4B d   1       5.572  -3.761   5.999  0.00  0.00    -0.004 A 
ATOM      5  C5  N4B d   1       5.352  -2.746   5.114  0.00  0.00     0.002 A 
ATOM      6  C6  N4B d   1       4.865  -3.001   3.848  0.00  0.00     0.002 A 
ENDROOT
BRANCH   1   7
ATOM      7  C1' N4B d   1       4.143  -4.537   2.054  0.00  0.00     0.057 C 
BRANCH   7   8
ATOM      8  C2' N4B d   1       4.509  -3.333   1.190  0.00  0.00     0.009 C 
BRANCH   8   9
ATOM      9  C3' N4B d   1       3.482  -3.083   0.100  0.00  0.00     0.004 C 
ATOM     10  C4' N4B d   1       2.251  -2.393   0.608  0.00  0.00     0.003 C 
ENDBRANCH   8   9
ENDBRANCH   7   8
ENDBRANCH   1   7
TORSDOF 3
ENDMDL
