MODEL 1
REMARK minimizedAffinity 4.80394697
REMARK minimizedRMSD -1
REMARK  0 active torsions:
REMARK  status: ('A' for Active; 'I' for Inactive)
ROOT
ATOM      1  C1  BNZ d   1      -5.367   3.386   1.541  0.00  0.00     0.000 A 
ATOM      2  C2  BNZ d   1      -4.097   2.872   1.529  0.00  0.00     0.000 A 
ATOM      3  C3  BNZ d   1      -3.445   2.647   0.349  0.00  0.00     0.000 A 
ATOM      4  C4  BNZ d   1      -4.076   2.898  -0.816  0.00  0.00     0.000 A 
ATOM      5  C5  BNZ d   1      -5.359   3.407  -0.821  0.00  0.00     0.000 A 
ATOM      6  C6  BNZ d   1      -5.998   3.669   0.369  0.00  0.00     0.000 A 
ENDROOT
TORSDOF 0
ENDMDL
