MODEL 1
REMARK minimizedAffinity 1.63168883
REMARK minimizedRMSD -1
REMARK  0 active torsions:
REMARK  status: ('A' for Active; 'I' for Inactive)
ROOT
ATOM      1  C1  BNZ d   1       4.100  -5.980  -2.408  0.00  0.00     0.000 A 
ATOM      2  C2  BNZ d   1       5.049  -5.990  -3.396  0.00  0.00     0.000 A 
ATOM      3  C3  BNZ d   1       4.687  -5.979  -4.714  0.00  0.00     0.000 A 
ATOM      4  C4  BNZ d   1       3.379  -5.999  -5.043  0.00  0.00     0.000 A 
ATOM      5  C5  BNZ d   1       2.411  -5.999  -4.058  0.00  0.00     0.000 A 
ATOM      6  C6  BNZ d   1       2.779  -5.971  -2.733  0.00  0.00     0.000 A 
ENDROOT
TORSDOF 0
ENDMDL
