MODEL 1
REMARK minimizedAffinity -3.32367992
REMARK minimizedRMSD -1
REMARK  0 active torsions:
REMARK  status: ('A' for Active; 'I' for Inactive)
ROOT
ATOM      1  C1  BNZ d   1       1.795  -2.217   4.625  0.00  0.00     0.000 A 
ATOM      2  C2  BNZ d   1       2.337  -3.429   4.961  0.00  0.00     0.000 A 
ATOM      3  C3  BNZ d   1       2.599  -4.368   4.002  0.00  0.00     0.000 A 
ATOM      4  C4  BNZ d   1       2.283  -4.110   2.717  0.00  0.00     0.000 A 
ATOM      5  C5  BNZ d   1       1.727  -2.896   2.364  0.00  0.00     0.000 A 
ATOM      6  C6  BNZ d   1       1.500  -1.939   3.326  0.00  0.00     0.000 A 
ENDROOT
TORSDOF 0
ENDMDL
