MODEL 1
REMARK minimizedAffinity -3.06551075
REMARK minimizedRMSD -1
REMARK  0 active torsions:
REMARK  status: ('A' for Active; 'I' for Inactive)
ROOT
ATOM      1  C1  BNZ d   1       1.456  -3.044   2.068  0.00  0.00     0.000 A 
ATOM      2  C2  BNZ d   1       1.736  -1.756   1.695  0.00  0.00     0.000 A 
ATOM      3  C3  BNZ d   1       2.104  -0.823   2.623  0.00  0.00     0.000 A 
ATOM      4  C4  BNZ d   1       2.153  -1.167   3.926  0.00  0.00     0.000 A 
ATOM      5  C5  BNZ d   1       1.864  -2.458   4.320  0.00  0.00     0.000 A 
ATOM      6  C6  BNZ d   1       1.531  -3.405   3.378  0.00  0.00     0.000 A 
ENDROOT
TORSDOF 0
ENDMDL
