MODEL 1
REMARK minimizedAffinity 2.14342403
REMARK minimizedRMSD -1
REMARK  0 active torsions:
REMARK  status: ('A' for Active; 'I' for Inactive)
ROOT
ATOM      1  C1  BNZ d   1       4.294  -2.723   3.295  0.00  0.00     0.000 A 
ATOM      2  C2  BNZ d   1       3.221  -2.402   2.507  0.00  0.00     0.000 A 
ATOM      3  C3  BNZ d   1       1.944  -2.562   2.965  0.00  0.00     0.000 A 
ATOM      4  C4  BNZ d   1       1.740  -3.080   4.193  0.00  0.00     0.000 A 
ATOM      5  C5  BNZ d   1       2.811  -3.418   4.996  0.00  0.00     0.000 A 
ATOM      6  C6  BNZ d   1       4.097  -3.218   4.546  0.00  0.00     0.000 A 
ENDROOT
TORSDOF 0
ENDMDL
