MODEL 1
REMARK minimizedAffinity 1.83480775
REMARK minimizedRMSD -1
REMARK  0 active torsions:
REMARK  status: ('A' for Active; 'I' for Inactive)
ROOT
ATOM      1  C1  BNZ d   1      -3.553   2.602   1.136  0.00  0.00     0.000 A 
ATOM      2  C2  BNZ d   1      -4.758   2.706   1.778  0.00  0.00     0.000 A 
ATOM      3  C3  BNZ d   1      -5.878   3.104   1.103  0.00  0.00     0.000 A 
ATOM      4  C4  BNZ d   1      -5.784   3.436  -0.201  0.00  0.00     0.000 A 
ATOM      5  C5  BNZ d   1      -4.574   3.345  -0.859  0.00  0.00     0.000 A 
ATOM      6  C6  BNZ d   1      -3.456   2.907  -0.187  0.00  0.00     0.000 A 
ENDROOT
TORSDOF 0
ENDMDL
