MODEL 1
REMARK minimizedAffinity 0.264644295
REMARK minimizedRMSD -1
REMARK  0 active torsions:
REMARK  status: ('A' for Active; 'I' for Inactive)
ROOT
ATOM      1  C1  BNZ d   1       2.207  -5.999  -2.260  0.00  0.00     0.000 A 
ATOM      2  C2  BNZ d   1       2.905  -6.000  -1.082  0.00  0.00     0.000 A 
ATOM      3  C3  BNZ d   1       4.271  -5.970  -1.078  0.00  0.00     0.000 A 
ATOM      4  C4  BNZ d   1       4.939  -5.980  -2.250  0.00  0.00     0.000 A 
ATOM      5  C5  BNZ d   1       4.250  -5.990  -3.446  0.00  0.00     0.000 A 
ATOM      6  C6  BNZ d   1       2.874  -5.980  -3.447  0.00  0.00     0.000 A 
ENDROOT
TORSDOF 0
ENDMDL
