MODEL 1
REMARK minimizedAffinity 3.80443215
REMARK minimizedRMSD -1
REMARK  0 active torsions:
REMARK  status: ('A' for Active; 'I' for Inactive)
ROOT
ATOM      1  C1  BNZ d   1      -2.698   2.571  -1.475  0.00  0.00     0.000 A 
ATOM      2  C2  BNZ d   1      -3.114   2.080  -2.684  0.00  0.00     0.000 A 
ATOM      3  C3  BNZ d   1      -3.062   0.740  -2.950  0.00  0.00     0.000 A 
ATOM      4  C4  BNZ d   1      -2.558  -0.101  -2.024  0.00  0.00     0.000 A 
ATOM      5  C5  BNZ d   1      -2.126   0.380  -0.804  0.00  0.00     0.000 A 
ATOM      6  C6  BNZ d   1      -2.216   1.725  -0.525  0.00  0.00     0.000 A 
ENDROOT
TORSDOF 0
ENDMDL
