MODEL 1
REMARK minimizedAffinity -0.850568593
REMARK minimizedRMSD -1
REMARK  0 active torsions:
REMARK  status: ('A' for Active; 'I' for Inactive)
ROOT
ATOM      1  C1  BNZ d   1       2.636  -1.888   2.934  0.00  0.00     0.000 A 
ATOM      2  C2  BNZ d   1       3.266  -3.102   2.871  0.00  0.00     0.000 A 
ATOM      3  C3  BNZ d   1       2.682  -4.222   3.393  0.00  0.00     0.000 A 
ATOM      4  C4  BNZ d   1       1.488  -4.119   4.013  0.00  0.00     0.000 A 
ATOM      5  C5  BNZ d   1       0.845  -2.900   4.093  0.00  0.00     0.000 A 
ATOM      6  C6  BNZ d   1       1.418  -1.782   3.532  0.00  0.00     0.000 A 
ENDROOT
TORSDOF 0
ENDMDL
