MODEL 1
REMARK minimizedAffinity -0.0179407559
REMARK minimizedRMSD -1
REMARK  0 active torsions:
REMARK  status: ('A' for Active; 'I' for Inactive)
ROOT
ATOM      1  C1  BNZ d   1       2.714  -5.999  -1.653  0.00  0.00     0.000 A 
ATOM      2  C2  BNZ d   1       1.914  -6.000  -2.764  0.00  0.00     0.000 A 
ATOM      3  C3  BNZ d   1       2.457  -5.997  -4.018  0.00  0.00     0.000 A 
ATOM      4  C4  BNZ d   1       3.797  -5.953  -4.160  0.00  0.00     0.000 A 
ATOM      5  C5  BNZ d   1       4.618  -5.943  -3.050  0.00  0.00     0.000 A 
ATOM      6  C6  BNZ d   1       4.068  -5.985  -1.789  0.00  0.00     0.000 A 
ENDROOT
TORSDOF 0
ENDMDL
