MODEL 1
REMARK minimizedAffinity 1.80002201
REMARK minimizedRMSD -1
REMARK  0 active torsions:
REMARK  status: ('A' for Active; 'I' for Inactive)
ROOT
ATOM      1  C1  BNZ d   1      -4.349   3.471  -0.969  0.00  0.00     0.000 A 
ATOM      2  C2  BNZ d   1      -5.196   3.628   0.095  0.00  0.00     0.000 A 
ATOM      3  C3  BNZ d   1      -4.813   3.262   1.355  0.00  0.00     0.000 A 
ATOM      4  C4  BNZ d   1      -3.600   2.703   1.543  0.00  0.00     0.000 A 
ATOM      5  C5  BNZ d   1      -2.738   2.530   0.478  0.00  0.00     0.000 A 
ATOM      6  C6  BNZ d   1      -3.112   2.935  -0.782  0.00  0.00     0.000 A 
ENDROOT
TORSDOF 0
ENDMDL
