MODEL 1
REMARK minimizedAffinity 1.80310392
REMARK minimizedRMSD -1
REMARK  0 active torsions:
REMARK  status: ('A' for Active; 'I' for Inactive)
ROOT
ATOM      1  C1  BNZ d   1       2.304  -6.000  -4.311  0.00  0.00     0.000 A 
ATOM      2  C2  BNZ d   1       3.648  -5.996  -4.572  0.00  0.00     0.000 A 
ATOM      3  C3  BNZ d   1       4.559  -6.000  -3.554  0.00  0.00     0.000 A 
ATOM      4  C4  BNZ d   1       4.126  -5.967  -2.277  0.00  0.00     0.000 A 
ATOM      5  C5  BNZ d   1       2.774  -5.961  -1.997  0.00  0.00     0.000 A 
ATOM      6  C6  BNZ d   1       1.860  -5.997  -3.024  0.00  0.00     0.000 A 
ENDROOT
TORSDOF 0
ENDMDL
