MODEL 1
REMARK minimizedAffinity 4.73455429
REMARK minimizedRMSD -1
REMARK  0 active torsions:
REMARK  status: ('A' for Active; 'I' for Inactive)
ROOT
ATOM      1  C1  BNZ d   1      -5.992   4.008  -3.873  0.00  0.00     0.000 A 
ATOM      2  C2  BNZ d   1      -5.037   3.405  -4.648  0.00  0.00     0.000 A 
ATOM      3  C3  BNZ d   1      -4.077   2.612  -4.084  0.00  0.00     0.000 A 
ATOM      4  C4  BNZ d   1      -4.049   2.456  -2.744  0.00  0.00     0.000 A 
ATOM      5  C5  BNZ d   1      -4.999   3.065  -1.949  0.00  0.00     0.000 A 
ATOM      6  C6  BNZ d   1      -5.987   3.831  -2.524  0.00  0.00     0.000 A 
ENDROOT
TORSDOF 0
ENDMDL
