MODEL 1
REMARK minimizedAffinity 5.19079971
REMARK minimizedRMSD -1
REMARK  1 active torsions:
REMARK  status: ('A' for Active; 'I' for Inactive)
REMARK    1  A    between atoms: C1_2  and  C2_3 
ROOT
ATOM      1  C2  UNL d   1       1.716  -1.626   2.443  0.00  0.00    -0.076 A 
ATOM      2  C3  UNL d   1       0.852  -0.830   1.672  0.00  0.00     0.004 A 
ATOM      3  C4  UNL d   1       0.471  -1.219   0.389  0.00  0.00    -0.003 A 
ATOM      4  C5  UNL d   1       0.947  -2.413  -0.143  0.00  0.00     0.000 A 
ATOM      5  C6  UNL d   1       1.791  -3.224   0.615  0.00  0.00     0.000 A 
ATOM      6  C7  UNL d   1       2.172  -2.853   1.916  0.00  0.00    -0.073 A 
ATOM      7  C8  UNL d   1       3.089  -3.763   2.686  0.00  0.00     0.078 C 
ENDROOT
BRANCH   1   8
ATOM      8  C1  UNL d   1       2.117  -1.138   3.817  0.00  0.00     0.053 C 
ATOM      9  C   UNL d   1       1.708  -2.103   4.920  0.00  0.00     0.018 C 
ENDBRANCH   1   8
TORSDOF 1
ENDMDL
