MODEL 1
REMARK minimizedAffinity 9.25022602
REMARK minimizedRMSD -1
REMARK  1 active torsions:
REMARK  status: ('A' for Active; 'I' for Inactive)
REMARK    1  A    between atoms: C1_2  and  C2_3 
ROOT
ATOM      1  C2  UNL d   1       0.377  -1.468   0.566  0.00  0.00    -0.076 A 
ATOM      2  C3  UNL d   1      -0.728  -0.765   1.078  0.00  0.00     0.004 A 
ATOM      3  C4  UNL d   1      -1.843  -0.505   0.283  0.00  0.00    -0.003 A 
ATOM      4  C5  UNL d   1      -1.872  -0.943  -1.036  0.00  0.00     0.000 A 
ATOM      5  C6  UNL d   1      -0.792  -1.657  -1.555  0.00  0.00     0.000 A 
ATOM      6  C7  UNL d   1       0.333  -1.942  -0.762  0.00  0.00    -0.073 A 
ATOM      7  C8  UNL d   1       1.471  -2.711  -1.375  0.00  0.00     0.078 C 
ENDROOT
BRANCH   1   8
ATOM      8  C1  UNL d   1       1.569  -1.697   1.467  0.00  0.00     0.053 C 
ATOM      9  C   UNL d   1       1.433  -0.989   2.806  0.00  0.00     0.018 C 
ENDBRANCH   1   8
TORSDOF 1
ENDMDL
