MODEL 1
REMARK minimizedAffinity 6.69674444
REMARK minimizedRMSD -1
REMARK  1 active torsions:
REMARK  status: ('A' for Active; 'I' for Inactive)
REMARK    1  A    between atoms: C1_2  and  C2_3 
ROOT
ATOM      1  C2  UNL d   1      -5.807   0.157  -4.235  0.00  0.00    -0.076 A 
ATOM      2  C3  UNL d   1      -6.000  -0.309  -2.923  0.00  0.00     0.004 A 
ATOM      3  C4  UNL d   1      -5.893   0.553  -1.833  0.00  0.00    -0.003 A 
ATOM      4  C5  UNL d   1      -5.593   1.895  -2.037  0.00  0.00     0.000 A 
ATOM      5  C6  UNL d   1      -5.416   2.378  -3.334  0.00  0.00     0.000 A 
ATOM      6  C7  UNL d   1      -5.536   1.526  -4.445  0.00  0.00    -0.073 A 
ATOM      7  C8  UNL d   1      -5.330   2.099  -5.820  0.00  0.00     0.078 C 
ENDROOT
BRANCH   1   8
ATOM      8  C1  UNL d   1      -5.909  -0.830  -5.376  0.00  0.00     0.053 C 
ATOM      9  C   UNL d   1      -5.982  -2.271  -4.895  0.00  0.00     0.018 C 
ENDBRANCH   1   8
TORSDOF 1
ENDMDL
