MODEL 1
REMARK minimizedAffinity 10.2856407
REMARK minimizedRMSD -1
REMARK  1 active torsions:
REMARK  status: ('A' for Active; 'I' for Inactive)
REMARK    1  A    between atoms: C1_2  and  C2_3 
ROOT
ATOM      1  C2  UNL d   1       2.157  -0.758   2.912  0.00  0.00    -0.076 A 
ATOM      2  C3  UNL d   1       2.558  -1.942   2.270  0.00  0.00     0.004 A 
ATOM      3  C4  UNL d   1       2.869  -3.086   3.002  0.00  0.00    -0.003 A 
ATOM      4  C5  UNL d   1       2.784  -3.065   4.390  0.00  0.00     0.000 A 
ATOM      5  C6  UNL d   1       2.371  -1.905   5.043  0.00  0.00     0.000 A 
ATOM      6  C7  UNL d   1       2.038  -0.747   4.319  0.00  0.00    -0.073 A 
ATOM      7  C8  UNL d   1       1.605   0.478   5.075  0.00  0.00     0.078 C 
ENDROOT
BRANCH   1   8
ATOM      8  C1  UNL d   1       1.859   0.460   2.067  0.00  0.00     0.053 C 
ATOM      9  C   UNL d   1       3.119   1.110   1.517  0.00  0.00     0.018 C 
ENDBRANCH   1   8
TORSDOF 1
ENDMDL
