MODEL 1
REMARK minimizedAffinity 14.9563437
REMARK minimizedRMSD -1
REMARK  1 active torsions:
REMARK  status: ('A' for Active; 'I' for Inactive)
REMARK    1  A    between atoms: C1_2  and  C2_3 
ROOT
ATOM      1  C2  UNL d   1       0.744  -1.016   0.443  0.00  0.00    -0.076 A 
ATOM      2  C3  UNL d   1      -0.475  -0.604   1.008  0.00  0.00     0.004 A 
ATOM      3  C4  UNL d   1      -1.660  -0.657   0.275  0.00  0.00    -0.003 A 
ATOM      4  C5  UNL d   1      -1.644  -1.125  -1.034  0.00  0.00     0.000 A 
ATOM      5  C6  UNL d   1      -0.446  -1.555  -1.605  0.00  0.00     0.000 A 
ATOM      6  C7  UNL d   1       0.754  -1.523  -0.874  0.00  0.00    -0.073 A 
ATOM      7  C8  UNL d   1       2.018  -1.993  -1.541  0.00  0.00     0.078 C 
ENDROOT
BRANCH   1   8
ATOM      8  C1  UNL d   1       2.001  -0.910   1.276  0.00  0.00     0.053 C 
ATOM      9  C   UNL d   1       1.737  -1.123   2.759  0.00  0.00     0.018 C 
ENDBRANCH   1   8
TORSDOF 1
ENDMDL
