MODEL 1
REMARK minimizedAffinity -2.11361551
REMARK minimizedRMSD -1
REMARK  0 active torsions:
REMARK  status: ('A' for Active; 'I' for Inactive)
ROOT
ATOM      1  C1  BNZ d   1      -3.513  -5.180  -5.964  0.00  0.00     0.000 A 
ATOM      2  C2  BNZ d   1      -3.684  -3.822  -5.985  0.00  0.00     0.000 A 
ATOM      3  C3  BNZ d   1      -4.926  -3.270  -5.844  0.00  0.00     0.000 A 
ATOM      4  C4  BNZ d   1      -6.000  -4.077  -5.722  0.00  0.00     0.000 A 
ATOM      5  C5  BNZ d   1      -5.845  -5.449  -5.708  0.00  0.00     0.000 A 
ATOM      6  C6  BNZ d   1      -4.589  -6.000  -5.812  0.00  0.00     0.000 A 
ENDROOT
TORSDOF 0
ENDMDL
