MODEL 1
REMARK minimizedAffinity 0.985984981
REMARK minimizedRMSD -1
REMARK  0 active torsions:
REMARK  status: ('A' for Active; 'I' for Inactive)
ROOT
ATOM      1  C1  BNZ d   1      -5.952  -4.586  -5.998  0.00  0.00     0.000 A 
ATOM      2  C2  BNZ d   1      -5.865  -5.821  -5.414  0.00  0.00     0.000 A 
ATOM      3  C3  BNZ d   1      -5.167  -5.999  -4.252  0.00  0.00     0.000 A 
ATOM      4  C4  BNZ d   1      -4.525  -4.950  -3.698  0.00  0.00     0.000 A 
ATOM      5  C5  BNZ d   1      -4.596  -3.700  -4.279  0.00  0.00     0.000 A 
ATOM      6  C6  BNZ d   1      -5.332  -3.517  -5.428  0.00  0.00     0.000 A 
ENDROOT
TORSDOF 0
ENDMDL
