MODEL 1
REMARK minimizedAffinity 2.28891635
REMARK minimizedRMSD -1
REMARK  0 active torsions:
REMARK  status: ('A' for Active; 'I' for Inactive)
ROOT
ATOM      1  C1  BNZ d   1       5.183   5.307  -3.317  0.00  0.00     0.000 A 
ATOM      2  C2  BNZ d   1       5.983   5.983  -4.200  0.00  0.00     0.000 A 
ATOM      3  C3  BNZ d   1       5.716   5.967  -5.540  0.00  0.00     0.000 A 
ATOM      4  C4  BNZ d   1       4.674   5.244  -6.000  0.00  0.00     0.000 A 
ATOM      5  C5  BNZ d   1       3.864   4.550  -5.123  0.00  0.00     0.000 A 
ATOM      6  C6  BNZ d   1       4.113   4.600  -3.771  0.00  0.00     0.000 A 
ENDROOT
TORSDOF 0
ENDMDL
