MODEL 1
REMARK minimizedAffinity 3.1766808
REMARK minimizedRMSD -1
REMARK  0 active torsions:
REMARK  status: ('A' for Active; 'I' for Inactive)
ROOT
ATOM      1  C1  BNZ d   1       3.546  -2.008   3.058  0.00  0.00     0.000 A 
ATOM      2  C2  BNZ d   1       3.806  -2.988   3.979  0.00  0.00     0.000 A 
ATOM      3  C3  BNZ d   1       2.799  -3.529   4.729  0.00  0.00     0.000 A 
ATOM      4  C4  BNZ d   1       1.542  -3.064   4.585  0.00  0.00     0.000 A 
ATOM      5  C5  BNZ d   1       1.265  -2.070   3.667  0.00  0.00     0.000 A 
ATOM      6  C6  BNZ d   1       2.274  -1.555   2.887  0.00  0.00     0.000 A 
ENDROOT
TORSDOF 0
ENDMDL
