MODEL 1
REMARK minimizedAffinity 0.927887499
REMARK minimizedRMSD -1
REMARK  0 active torsions:
REMARK  status: ('A' for Active; 'I' for Inactive)
ROOT
ATOM      1  C1  BNZ d   1       4.450  -5.995  -3.315  0.00  0.00     0.000 A 
ATOM      2  C2  BNZ d   1       5.252  -6.000  -4.425  0.00  0.00     0.000 A 
ATOM      3  C3  BNZ d   1       4.711  -5.980  -5.680  0.00  0.00     0.000 A 
ATOM      4  C4  BNZ d   1       3.370  -5.995  -5.823  0.00  0.00     0.000 A 
ATOM      5  C5  BNZ d   1       2.548  -6.000  -4.714  0.00  0.00     0.000 A 
ATOM      6  C6  BNZ d   1       3.096  -5.980  -3.452  0.00  0.00     0.000 A 
ENDROOT
TORSDOF 0
ENDMDL
