MODEL 1
REMARK minimizedAffinity 0.512354493
REMARK minimizedRMSD -1
REMARK  0 active torsions:
REMARK  status: ('A' for Active; 'I' for Inactive)
ROOT
ATOM      1  C1  BNZ d   1      -1.581   0.407  -1.121  0.00  0.00     0.000 A 
ATOM      2  C2  BNZ d   1      -1.600   1.099   0.061  0.00  0.00     0.000 A 
ATOM      3  C3  BNZ d   1      -2.358   2.228   0.199  0.00  0.00     0.000 A 
ATOM      4  C4  BNZ d   1      -3.063   2.686  -0.856  0.00  0.00     0.000 A 
ATOM      5  C5  BNZ d   1      -3.047   2.006  -2.057  0.00  0.00     0.000 A 
ATOM      6  C6  BNZ d   1      -2.314   0.848  -2.180  0.00  0.00     0.000 A 
ENDROOT
TORSDOF 0
ENDMDL
