MODEL 1
REMARK minimizedAffinity -0.592036724
REMARK minimizedRMSD -1
REMARK  0 active torsions:
REMARK  status: ('A' for Active; 'I' for Inactive)
ROOT
ATOM      1  C1  BNZ d   1       2.821  -4.857   3.983  0.00  0.00     0.000 A 
ATOM      2  C2  BNZ d   1       1.640  -4.168   3.910  0.00  0.00     0.000 A 
ATOM      3  C3  BNZ d   1       1.572  -2.961   3.272  0.00  0.00     0.000 A 
ATOM      4  C4  BNZ d   1       2.692  -2.427   2.742  0.00  0.00     0.000 A 
ATOM      5  C5  BNZ d   1       3.892  -3.106   2.815  0.00  0.00     0.000 A 
ATOM      6  C6  BNZ d   1       3.948  -4.338   3.425  0.00  0.00     0.000 A 
ENDROOT
TORSDOF 0
ENDMDL
