MODEL 1
REMARK minimizedAffinity 1.12502599
REMARK minimizedRMSD -1
REMARK  0 active torsions:
REMARK  status: ('A' for Active; 'I' for Inactive)
ROOT
ATOM      1  C1  BNZ d   1       1.120  -1.176   3.132  0.00  0.00     0.000 A 
ATOM      2  C2  BNZ d   1       2.074  -1.181   2.150  0.00  0.00     0.000 A 
ATOM      3  C3  BNZ d   1       3.344  -1.616   2.410  0.00  0.00     0.000 A 
ATOM      4  C4  BNZ d   1       3.668  -2.007   3.659  0.00  0.00     0.000 A 
ATOM      5  C5  BNZ d   1       2.719  -1.999   4.662  0.00  0.00     0.000 A 
ATOM      6  C6  BNZ d   1       1.432  -1.597   4.388  0.00  0.00     0.000 A 
ENDROOT
TORSDOF 0
ENDMDL
