MODEL 1
REMARK minimizedAffinity 0.589567542
REMARK minimizedRMSD -1
REMARK  0 active torsions:
REMARK  status: ('A' for Active; 'I' for Inactive)
ROOT
ATOM      1  C   UNL d   1      -2.478  -3.399  -0.944  0.00  0.00     0.023 A 
ATOM      2  C1  UNL d   1      -1.326  -3.985  -1.470  0.00  0.00     0.003 A 
ATOM      3  C2  UNL d   1      -0.069  -3.480  -1.133  0.00  0.00     0.048 A 
ATOM      4  C3  UNL d   1       0.030  -2.391  -0.268  0.00  0.00     0.023 A 
ATOM      5  C4  UNL d   1      -1.119  -1.803   0.262  0.00  0.00     0.048 A 
ATOM      6  C5  UNL d   1      -2.374  -2.310  -0.079  0.00  0.00     0.003 A 
ATOM      7  I   UNL d   1       1.901  -1.639   0.235  0.00  0.00    -0.146 I 
ENDROOT
TORSDOF 0
ENDMDL
