MODEL 1
REMARK minimizedAffinity 8.73619652
REMARK minimizedRMSD -1
REMARK  0 active torsions:
REMARK  status: ('A' for Active; 'I' for Inactive)
ROOT
ATOM      1  C   UNL d   1       4.440   3.872   2.863  0.00  0.00     0.023 A 
ATOM      2  C1  UNL d   1       3.107   4.132   2.545  0.00  0.00     0.003 A 
ATOM      3  C2  UNL d   1       2.337   3.157   1.908  0.00  0.00     0.048 A 
ATOM      4  C3  UNL d   1       2.906   1.923   1.593  0.00  0.00     0.023 A 
ATOM      5  C4  UNL d   1       4.239   1.659   1.911  0.00  0.00     0.048 A 
ATOM      6  C5  UNL d   1       5.005   2.637   2.547  0.00  0.00     0.003 A 
ATOM      7  I   UNL d   1       1.762   0.470   0.645  0.00  0.00    -0.146 I 
ENDROOT
TORSDOF 0
ENDMDL
