MODEL 1
REMARK minimizedAffinity 10.7838831
REMARK minimizedRMSD -1
REMARK  0 active torsions:
REMARK  status: ('A' for Active; 'I' for Inactive)
ROOT
ATOM      1  C   UNL d   1      -3.905  -0.836  -0.817  0.00  0.00     0.023 A 
ATOM      2  C1  UNL d   1      -3.863  -1.839  -1.786  0.00  0.00     0.003 A 
ATOM      3  C2  UNL d   1      -2.919  -2.863  -1.692  0.00  0.00     0.048 A 
ATOM      4  C3  UNL d   1      -2.018  -2.878  -0.627  0.00  0.00     0.023 A 
ATOM      5  C4  UNL d   1      -2.056  -1.876   0.344  0.00  0.00     0.048 A 
ATOM      6  C5  UNL d   1      -3.002  -0.854   0.246  0.00  0.00     0.003 A 
ATOM      7  I   UNL d   1      -0.611  -4.401  -0.486  0.00  0.00    -0.146 I 
ENDROOT
TORSDOF 0
ENDMDL
