MODEL 1
REMARK minimizedAffinity 4.21653843
REMARK minimizedRMSD -1
REMARK  0 active torsions:
REMARK  status: ('A' for Active; 'I' for Inactive)
ROOT
ATOM      1  C   UNL d   1      -1.106  -1.657   0.784  0.00  0.00     0.023 A 
ATOM      2  C1  UNL d   1      -0.614  -2.747   0.066  0.00  0.00     0.003 A 
ATOM      3  C2  UNL d   1      -1.442  -3.839  -0.203  0.00  0.00     0.048 A 
ATOM      4  C3  UNL d   1      -2.762  -3.833   0.247  0.00  0.00     0.023 A 
ATOM      5  C4  UNL d   1      -3.259  -2.744   0.964  0.00  0.00     0.048 A 
ATOM      6  C5  UNL d   1      -2.427  -1.655   1.232  0.00  0.00     0.003 A 
ATOM      7  I   UNL d   1      -3.997  -5.456  -0.153  0.00  0.00    -0.146 I 
ENDROOT
TORSDOF 0
ENDMDL
