MODEL 1
REMARK minimizedAffinity 6.65393305
REMARK minimizedRMSD -1
REMARK  0 active torsions:
REMARK  status: ('A' for Active; 'I' for Inactive)
ROOT
ATOM      1  C   UNL d   1       0.776   1.855   2.573  0.00  0.00     0.023 A 
ATOM      2  C1  UNL d   1       2.150   1.916   2.338  0.00  0.00     0.003 A 
ATOM      3  C2  UNL d   1       2.732   1.089   1.375  0.00  0.00     0.048 A 
ATOM      4  C3  UNL d   1       1.935   0.203   0.652  0.00  0.00     0.023 A 
ATOM      5  C4  UNL d   1       0.560   0.138   0.883  0.00  0.00     0.048 A 
ATOM      6  C5  UNL d   1      -0.017   0.967   1.847  0.00  0.00     0.003 A 
ATOM      7  I   UNL d   1       2.800  -1.030  -0.781  0.00  0.00    -0.146 I 
ENDROOT
TORSDOF 0
ENDMDL
