MODEL 1
REMARK minimizedAffinity 10.446723
REMARK minimizedRMSD -1
REMARK  0 active torsions:
REMARK  status: ('A' for Active; 'I' for Inactive)
ROOT
ATOM      1  C   UNL d   1      -5.587   1.105  -0.742  0.00  0.00     0.023 A 
ATOM      2  C1  UNL d   1      -6.000   0.715  -2.017  0.00  0.00     0.003 A 
ATOM      3  C2  UNL d   1      -5.981   1.632  -3.069  0.00  0.00     0.048 A 
ATOM      4  C3  UNL d   1      -5.549   2.938  -2.841  0.00  0.00     0.023 A 
ATOM      5  C4  UNL d   1      -5.134   3.333  -1.567  0.00  0.00     0.048 A 
ATOM      6  C5  UNL d   1      -5.155   2.412  -0.518  0.00  0.00     0.003 A 
ATOM      7  I   UNL d   1      -5.520   4.306  -4.405  0.00  0.00    -0.146 I 
ENDROOT
TORSDOF 0
ENDMDL
