MODEL 1
REMARK minimizedAffinity 8.54844666
REMARK minimizedRMSD -1
REMARK  0 active torsions:
REMARK  status: ('A' for Active; 'I' for Inactive)
ROOT
ATOM      1  C   UNL d   1       3.194   1.873   1.876  0.00  0.00     0.023 A 
ATOM      2  C1  UNL d   1       4.539   2.132   2.140  0.00  0.00     0.003 A 
ATOM      3  C2  UNL d   1       4.911   3.316   2.780  0.00  0.00     0.048 A 
ATOM      4  C3  UNL d   1       3.932   4.237   3.154  0.00  0.00     0.023 A 
ATOM      5  C4  UNL d   1       2.585   3.982   2.893  0.00  0.00     0.048 A 
ATOM      6  C5  UNL d   1       2.218   2.797   2.252  0.00  0.00     0.003 A 
ATOM      7  I   UNL d   1       4.483   6.000   4.107  0.00  0.00    -0.146 I 
ENDROOT
TORSDOF 0
ENDMDL
