MODEL 1
REMARK minimizedAffinity 10.5895853
REMARK minimizedRMSD -1
REMARK  0 active torsions:
REMARK  status: ('A' for Active; 'I' for Inactive)
ROOT
ATOM      1  C   UNL d   1      -5.708   2.469  -1.368  0.00  0.00     0.023 A 
ATOM      2  C1  UNL d   1      -4.620   2.909  -0.613  0.00  0.00     0.003 A 
ATOM      3  C2  UNL d   1      -3.823   1.987   0.068  0.00  0.00     0.048 A 
ATOM      4  C3  UNL d   1      -4.118   0.627  -0.011  0.00  0.00     0.023 A 
ATOM      5  C4  UNL d   1      -5.204   0.181  -0.765  0.00  0.00     0.048 A 
ATOM      6  C5  UNL d   1      -5.999   1.107  -1.444  0.00  0.00     0.003 A 
ATOM      7  I   UNL d   1      -2.932  -0.748   1.003  0.00  0.00    -0.146 I 
ENDROOT
TORSDOF 0
ENDMDL
