MODEL 1
REMARK minimizedAffinity 8.397089
REMARK minimizedRMSD -1
REMARK  0 active torsions:
REMARK  status: ('A' for Active; 'I' for Inactive)
ROOT
ATOM      1  C   UNL d   1      -1.717  -0.649   1.728  0.00  0.00     0.023 A 
ATOM      2  C1  UNL d   1      -2.101  -1.816   1.068  0.00  0.00     0.003 A 
ATOM      3  C2  UNL d   1      -3.252  -2.499   1.468  0.00  0.00     0.048 A 
ATOM      4  C3  UNL d   1      -4.013  -2.009   2.528  0.00  0.00     0.023 A 
ATOM      5  C4  UNL d   1      -3.633  -0.841   3.191  0.00  0.00     0.048 A 
ATOM      6  C5  UNL d   1      -2.481  -0.162   2.789  0.00  0.00     0.003 A 
ATOM      7  I   UNL d   1      -5.726  -3.024   3.125  0.00  0.00    -0.146 I 
ENDROOT
TORSDOF 0
ENDMDL
