MODEL 1
REMARK minimizedAffinity 10.272007
REMARK minimizedRMSD -1
REMARK  0 active torsions:
REMARK  status: ('A' for Active; 'I' for Inactive)
ROOT
ATOM      1  C   UNL d   1      -1.667  -5.375  -2.301  0.00  0.00     0.023 A 
ATOM      2  C1  UNL d   1      -0.392  -5.799  -1.926  0.00  0.00     0.003 A 
ATOM      3  C2  UNL d   1       0.387  -5.010  -1.077  0.00  0.00     0.048 A 
ATOM      4  C3  UNL d   1      -0.116  -3.798  -0.604  0.00  0.00     0.023 A 
ATOM      5  C4  UNL d   1      -1.392  -3.370  -0.975  0.00  0.00     0.048 A 
ATOM      6  C5  UNL d   1      -2.167  -4.162  -1.826  0.00  0.00     0.003 A 
ATOM      7  I   UNL d   1       1.040  -2.623   0.660  0.00  0.00    -0.146 I 
ENDROOT
TORSDOF 0
ENDMDL
