MODEL 1
REMARK minimizedAffinity 10.4227467
REMARK minimizedRMSD -1
REMARK  0 active torsions:
REMARK  status: ('A' for Active; 'I' for Inactive)
ROOT
ATOM      1  C   UNL d   1      -0.656  -4.051  -1.146  0.00  0.00     0.023 A 
ATOM      2  C1  UNL d   1      -0.812  -5.437  -1.122  0.00  0.00     0.003 A 
ATOM      3  C2  UNL d   1      -2.015  -5.998  -0.690  0.00  0.00     0.048 A 
ATOM      4  C3  UNL d   1      -3.060  -5.167  -0.285  0.00  0.00     0.023 A 
ATOM      5  C4  UNL d   1      -2.909  -3.779  -0.309  0.00  0.00     0.048 A 
ATOM      6  C5  UNL d   1      -1.703  -3.223  -0.740  0.00  0.00     0.003 A 
ATOM      7  I   UNL d   1      -4.852  -5.999   0.357  0.00  0.00    -0.146 I 
ENDROOT
TORSDOF 0
ENDMDL
