MODEL 1
REMARK minimizedAffinity 2.71220779
REMARK minimizedRMSD -1
REMARK  0 active torsions:
REMARK  status: ('A' for Active; 'I' for Inactive)
ROOT
ATOM      1  C   UNL d   1      -0.595  -5.965  -1.875  0.00  0.00     0.023 A 
ATOM      2  C1  UNL d   1      -1.270  -4.849  -1.380  0.00  0.00     0.003 A 
ATOM      3  C2  UNL d   1      -0.552  -3.767  -0.869  0.00  0.00     0.048 A 
ATOM      4  C3  UNL d   1       0.842  -3.806  -0.857  0.00  0.00     0.023 A 
ATOM      5  C4  UNL d   1       1.522  -4.919  -1.353  0.00  0.00     0.048 A 
ATOM      6  C5  UNL d   1       0.799  -6.000  -1.862  0.00  0.00     0.003 A 
ATOM      7  I   UNL d   1       1.914  -2.195  -0.097  0.00  0.00    -0.146 I 
ENDROOT
TORSDOF 0
ENDMDL
