MODEL 1
REMARK minimizedAffinity 9.57582569
REMARK minimizedRMSD -1
REMARK  0 active torsions:
REMARK  status: ('A' for Active; 'I' for Inactive)
ROOT
ATOM      1  C   UNL d   1       0.428   1.831  -5.961  0.00  0.00     0.023 A 
ATOM      2  C1  UNL d   1      -0.025   0.802  -5.136  0.00  0.00     0.003 A 
ATOM      3  C2  UNL d   1       0.828   0.242  -4.184  0.00  0.00     0.048 A 
ATOM      4  C3  UNL d   1       2.134   0.715  -4.062  0.00  0.00     0.023 A 
ATOM      5  C4  UNL d   1       2.592   1.745  -4.885  0.00  0.00     0.048 A 
ATOM      6  C5  UNL d   1       1.735   2.302  -5.836  0.00  0.00     0.003 A 
ATOM      7  I   UNL d   1       3.407  -0.117  -2.645  0.00  0.00    -0.146 I 
ENDROOT
TORSDOF 0
ENDMDL
