MODEL 1
REMARK minimizedAffinity 4.10229111
REMARK minimizedRMSD -1
REMARK  0 active torsions:
REMARK  status: ('A' for Active; 'I' for Inactive)
ROOT
ATOM      1  C   UNL d   1       0.355   2.241  -5.997  0.00  0.00     0.023 A 
ATOM      2  C1  UNL d   1       0.084   1.153  -5.167  0.00  0.00     0.003 A 
ATOM      3  C2  UNL d   1       1.026   0.744  -4.221  0.00  0.00     0.048 A 
ATOM      4  C3  UNL d   1       2.236   1.427  -4.110  0.00  0.00     0.023 A 
ATOM      5  C4  UNL d   1       2.512   2.516  -4.938  0.00  0.00     0.048 A 
ATOM      6  C5  UNL d   1       1.567   2.922  -5.883  0.00  0.00     0.003 A 
ATOM      7  I   UNL d   1       3.640   0.819  -2.703  0.00  0.00    -0.146 I 
ENDROOT
TORSDOF 0
ENDMDL
