MODEL 1
REMARK minimizedAffinity 4.41599464
REMARK minimizedRMSD -1
REMARK  0 active torsions:
REMARK  status: ('A' for Active; 'I' for Inactive)
ROOT
ATOM      1  C   UNL d   1      -2.566  -3.393  -0.770  0.00  0.00     0.023 A 
ATOM      2  C1  UNL d   1      -2.368  -2.225  -0.033  0.00  0.00     0.003 A 
ATOM      3  C2  UNL d   1      -1.073  -1.808   0.282  0.00  0.00     0.048 A 
ATOM      4  C3  UNL d   1       0.019  -2.564  -0.143  0.00  0.00     0.023 A 
ATOM      5  C4  UNL d   1      -0.174  -3.733  -0.881  0.00  0.00     0.048 A 
ATOM      6  C5  UNL d   1      -1.471  -4.146  -1.193  0.00  0.00     0.003 A 
ATOM      7  I   UNL d   1       1.947  -1.945   0.325  0.00  0.00    -0.146 I 
ENDROOT
TORSDOF 0
ENDMDL
