MODEL 1
REMARK minimizedAffinity 9.13333797
REMARK minimizedRMSD -1
REMARK  0 active torsions:
REMARK  status: ('A' for Active; 'I' for Inactive)
ROOT
ATOM      1  C   UNL d   1       0.016  -5.356  -0.669  0.00  0.00     0.023 A 
ATOM      2  C1  UNL d   1      -1.063  -5.630  -1.510  0.00  0.00     0.003 A 
ATOM      3  C2  UNL d   1      -2.114  -4.717  -1.619  0.00  0.00     0.048 A 
ATOM      4  C3  UNL d   1      -2.080  -3.532  -0.885  0.00  0.00     0.023 A 
ATOM      5  C4  UNL d   1      -1.002  -3.253  -0.043  0.00  0.00     0.048 A 
ATOM      6  C5  UNL d   1       0.046  -4.169   0.063  0.00  0.00     0.003 A 
ATOM      7  I   UNL d   1      -3.643  -2.172  -1.046  0.00  0.00    -0.146 I 
ENDROOT
TORSDOF 0
ENDMDL
