MODEL 1
REMARK minimizedAffinity 9.65690899
REMARK minimizedRMSD -1
REMARK  0 active torsions:
REMARK  status: ('A' for Active; 'I' for Inactive)
ROOT
ATOM      1  C   UNL d   1       3.834   3.322   2.857  0.00  0.00     0.023 A 
ATOM      2  C1  UNL d   1       2.509   3.001   2.561  0.00  0.00     0.003 A 
ATOM      3  C2  UNL d   1       2.220   1.906   1.745  0.00  0.00     0.048 A 
ATOM      4  C3  UNL d   1       3.260   1.134   1.229  0.00  0.00     0.023 A 
ATOM      5  C4  UNL d   1       4.587   1.450   1.523  0.00  0.00     0.048 A 
ATOM      6  C5  UNL d   1       4.872   2.547   2.339  0.00  0.00     0.003 A 
ATOM      7  I   UNL d   1       2.831  -0.497   0.015  0.00  0.00    -0.146 I 
ENDROOT
TORSDOF 0
ENDMDL
