MODEL 1
REMARK minimizedAffinity 7.53592682
REMARK minimizedRMSD -1
REMARK  0 active torsions:
REMARK  status: ('A' for Active; 'I' for Inactive)
ROOT
ATOM      1  C4' PXY d   1      -0.644  -4.057  -1.532  0.00  0.00     0.077 C 
ATOM      2  C1' PXY d   1       4.591  -5.998  -0.038  0.00  0.00     0.077 C 
ATOM      3  C1  PXY d   1       3.213  -5.500  -0.425  0.00  0.00    -0.082 A 
ATOM      4  C2  PXY d   1       3.092  -4.573  -1.361  0.00  0.00     0.003 A 
ATOM      5  C3  PXY d   1       1.855  -4.088  -1.701  0.00  0.00     0.003 A 
ATOM      6  C4  PXY d   1       0.727  -4.596  -1.115  0.00  0.00    -0.082 A 
ATOM      7  C5  PXY d   1       0.841  -5.550  -0.167  0.00  0.00     0.003 A 
ATOM      8  C6  PXY d   1       2.108  -5.999   0.193  0.00  0.00     0.003 A 
ENDROOT
TORSDOF 0
ENDMDL
