MODEL 1
REMARK minimizedAffinity 7.03033733
REMARK minimizedRMSD -1
REMARK  0 active torsions:
REMARK  status: ('A' for Active; 'I' for Inactive)
ROOT
ATOM      1  C4' PXY d   1       3.429  -1.650   3.369  0.00  0.00     0.077 C 
ATOM      2  C1' PXY d   1      -0.587   0.717  -0.050  0.00  0.00     0.077 C 
ATOM      3  C1  PXY d   1       0.467   0.086   0.838  0.00  0.00    -0.082 A 
ATOM      4  C2  PXY d   1       0.559   0.454   2.106  0.00  0.00     0.003 A 
ATOM      5  C3  PXY d   1       1.527  -0.083   2.915  0.00  0.00     0.003 A 
ATOM      6  C4  PXY d   1       2.374  -1.046   2.437  0.00  0.00    -0.082 A 
ATOM      7  C5  PXY d   1       2.279  -1.435   1.148  0.00  0.00     0.003 A 
ATOM      8  C6  PXY d   1       1.317  -0.848   0.331  0.00  0.00     0.003 A 
ENDROOT
TORSDOF 0
ENDMDL
