MODEL 1
REMARK minimizedAffinity 2.90700746
REMARK minimizedRMSD -1
REMARK  0 active torsions:
REMARK  status: ('A' for Active; 'I' for Inactive)
ROOT
ATOM      1  C4' PXY d   1       2.291  -1.043   2.472  0.00  0.00     0.077 C 
ATOM      2  C1' PXY d   1      -0.841   1.321  -1.773  0.00  0.00     0.077 C 
ATOM      3  C1  PXY d   1      -0.022   0.711  -0.652  0.00  0.00    -0.082 A 
ATOM      4  C2  PXY d   1       0.892  -0.204  -0.933  0.00  0.00     0.003 A 
ATOM      5  C3  PXY d   1       1.619  -0.788   0.072  0.00  0.00     0.003 A 
ATOM      6  C4  PXY d   1       1.447  -0.394   1.372  0.00  0.00    -0.082 A 
ATOM      7  C5  PXY d   1       0.525   0.547   1.665  0.00  0.00     0.003 A 
ATOM      8  C6  PXY d   1      -0.232   1.098   0.635  0.00  0.00     0.003 A 
ENDROOT
TORSDOF 0
ENDMDL
