MODEL 1
REMARK minimizedAffinity 0.855202258
REMARK minimizedRMSD -1
REMARK  0 active torsions:
REMARK  status: ('A' for Active; 'I' for Inactive)
ROOT
ATOM      1  C4' PXY d   1       2.011  -0.908   2.243  0.00  0.00     0.077 C 
ATOM      2  C1' PXY d   1      -1.305   2.485  -1.059  0.00  0.00     0.077 C 
ATOM      3  C1  PXY d   1      -0.435   1.605  -0.184  0.00  0.00    -0.082 A 
ATOM      4  C2  PXY d   1       0.303   0.657  -0.738  0.00  0.00     0.003 A 
ATOM      5  C3  PXY d   1       1.071  -0.169   0.041  0.00  0.00     0.003 A 
ATOM      6  C4  PXY d   1       1.125   0.011   1.398  0.00  0.00    -0.082 A 
ATOM      7  C5  PXY d   1       0.383   0.983   1.970  0.00  0.00     0.003 A 
ATOM      8  C6  PXY d   1      -0.422   1.784   1.165  0.00  0.00     0.003 A 
ENDROOT
TORSDOF 0
ENDMDL
