MODEL 1
REMARK minimizedAffinity 0.504839361
REMARK minimizedRMSD -1
REMARK  0 active torsions:
REMARK  status: ('A' for Active; 'I' for Inactive)
ROOT
ATOM      1  C4' PXY d   1       0.886   2.353   2.815  0.00  0.00     0.077 C 
ATOM      2  C1' PXY d   1      -0.707  -0.113  -2.165  0.00  0.00     0.077 C 
ATOM      3  C1  PXY d   1      -0.286   0.544  -0.865  0.00  0.00    -0.082 A 
ATOM      4  C2  PXY d   1       0.043  -0.209   0.172  0.00  0.00     0.003 A 
ATOM      5  C3  PXY d   1       0.395   0.369   1.364  0.00  0.00     0.003 A 
ATOM      6  C4  PXY d   1       0.464   1.732   1.480  0.00  0.00    -0.082 A 
ATOM      7  C5  PXY d   1       0.141   2.507   0.423  0.00  0.00     0.003 A 
ATOM      8  C6  PXY d   1      -0.255   1.901  -0.766  0.00  0.00     0.003 A 
ENDROOT
TORSDOF 0
ENDMDL
