MODEL 1
REMARK minimizedAffinity 10.7788181
REMARK minimizedRMSD -1
REMARK  0 active torsions:
REMARK  status: ('A' for Active; 'I' for Inactive)
ROOT
ATOM      1  C4' PXY d   1      -5.967  -2.771   5.999  0.00  0.00     0.077 C 
ATOM      2  C1' PXY d   1      -5.902   0.278   1.088  0.00  0.00     0.077 C 
ATOM      3  C1  PXY d   1      -5.913  -0.512   2.382  0.00  0.00    -0.082 A 
ATOM      4  C2  PXY d   1      -5.956  -1.834   2.342  0.00  0.00     0.003 A 
ATOM      5  C3  PXY d   1      -5.999  -2.562   3.502  0.00  0.00     0.003 A 
ATOM      6  C4  PXY d   1      -5.944  -1.933   4.717  0.00  0.00    -0.082 A 
ATOM      7  C5  PXY d   1      -5.890  -0.585   4.767  0.00  0.00     0.003 A 
ATOM      8  C6  PXY d   1      -5.889   0.138   3.577  0.00  0.00     0.003 A 
ENDROOT
TORSDOF 0
ENDMDL
