MODEL 1
REMARK minimizedAffinity 7.68311024
REMARK minimizedRMSD -1
REMARK  0 active torsions:
REMARK  status: ('A' for Active; 'I' for Inactive)
ROOT
ATOM      1  C4' PXY d   1       1.461   1.406   3.298  0.00  0.00     0.077 C 
ATOM      2  C1' PXY d   1      -0.875   0.714  -1.944  0.00  0.00     0.077 C 
ATOM      3  C1  PXY d   1      -0.259   0.883  -0.569  0.00  0.00    -0.082 A 
ATOM      4  C2  PXY d   1      -0.612   1.912   0.184  0.00  0.00     0.003 A 
ATOM      5  C3  PXY d   1      -0.042   2.098   1.417  0.00  0.00     0.003 A 
ATOM      6  C4  PXY d   1       0.859   1.191   1.907  0.00  0.00    -0.082 A 
ATOM      7  C5  PXY d   1       1.216   0.132   1.150  0.00  0.00     0.003 A 
ATOM      8  C6  PXY d   1       0.657  -0.016  -0.116  0.00  0.00     0.003 A 
ENDROOT
TORSDOF 0
ENDMDL
