MODEL 1
REMARK minimizedAffinity -0.976714015
REMARK minimizedRMSD -1
REMARK  0 active torsions:
REMARK  status: ('A' for Active; 'I' for Inactive)
ROOT
ATOM      1  C4' PXY d   1      -0.012   0.843   1.867  0.00  0.00     0.077 C 
ATOM      2  C1' PXY d   1      -0.118   4.790  -2.355  0.00  0.00     0.077 C 
ATOM      3  C1  PXY d   1      -0.082   3.763  -1.241  0.00  0.00    -0.082 A 
ATOM      4  C2  PXY d   1      -0.396   2.504  -1.502  0.00  0.00     0.003 A 
ATOM      5  C3  PXY d   1      -0.400   1.568  -0.500  0.00  0.00     0.003 A 
ATOM      6  C4  PXY d   1      -0.026   1.913   0.771  0.00  0.00    -0.082 A 
ATOM      7  C5  PXY d   1       0.306   3.193   1.043  0.00  0.00     0.003 A 
ATOM      8  C6  PXY d   1       0.263   4.136   0.021  0.00  0.00     0.003 A 
ENDROOT
TORSDOF 0
ENDMDL
