MODEL 1
REMARK minimizedAffinity 3.01795387
REMARK minimizedRMSD -1
REMARK  0 active torsions:
REMARK  status: ('A' for Active; 'I' for Inactive)
ROOT
ATOM      1  C4' PXY d   1      -1.322   2.335   2.368  0.00  0.00     0.077 C 
ATOM      2  C1' PXY d   1       2.174  -1.297  -0.460  0.00  0.00     0.077 C 
ATOM      3  C1  PXY d   1       1.258  -0.352   0.292  0.00  0.00    -0.082 A 
ATOM      4  C2  PXY d   1       0.412   0.412  -0.380  0.00  0.00     0.003 A 
ATOM      5  C3  PXY d   1      -0.401   1.296   0.283  0.00  0.00     0.003 A 
ATOM      6  C4  PXY d   1      -0.385   1.359   1.650  0.00  0.00    -0.082 A 
ATOM      7  C5  PXY d   1       0.467   0.575   2.344  0.00  0.00     0.003 A 
ATOM      8  C6  PXY d   1       1.313  -0.285   1.650  0.00  0.00     0.003 A 
ENDROOT
TORSDOF 0
ENDMDL
