MODEL 1
REMARK minimizedAffinity 5.88803864
REMARK minimizedRMSD -1
REMARK  0 active torsions:
REMARK  status: ('A' for Active; 'I' for Inactive)
ROOT
ATOM      1  C4' PXY d   1      -2.723   0.742  -2.847  0.00  0.00     0.077 C 
ATOM      2  C1' PXY d   1       1.053   0.008   1.467  0.00  0.00     0.077 C 
ATOM      3  C1  PXY d   1       0.065   0.213   0.335  0.00  0.00    -0.082 A 
ATOM      4  C2  PXY d   1      -0.930  -0.643   0.172  0.00  0.00     0.003 A 
ATOM      5  C3  PXY d   1      -1.813  -0.491  -0.865  0.00  0.00     0.003 A 
ATOM      6  C4  PXY d   1      -1.708   0.580  -1.713  0.00  0.00    -0.082 A 
ATOM      7  C5  PXY d   1      -0.702   1.464  -1.546  0.00  0.00     0.003 A 
ATOM      8  C6  PXY d   1       0.209   1.268  -0.512  0.00  0.00     0.003 A 
ENDROOT
TORSDOF 0
ENDMDL
