MODEL 1
REMARK minimizedAffinity 2.12573814
REMARK minimizedRMSD -1
REMARK  0 active torsions:
REMARK  status: ('A' for Active; 'I' for Inactive)
ROOT
ATOM      1  C4' PXY d   1      -0.499   1.430  -0.911  0.00  0.00     0.077 C 
ATOM      2  C1' PXY d   1       2.491  -1.204   3.277  0.00  0.00     0.077 C 
ATOM      3  C1  PXY d   1       1.697  -0.512   2.187  0.00  0.00    -0.082 A 
ATOM      4  C2  PXY d   1       1.968  -0.768   0.917  0.00  0.00     0.003 A 
ATOM      5  C3  PXY d   1       1.281  -0.126  -0.081  0.00  0.00     0.003 A 
ATOM      6  C4  PXY d   1       0.271   0.747   0.223  0.00  0.00    -0.082 A 
ATOM      7  C5  PXY d   1      -0.018   1.005   1.516  0.00  0.00     0.003 A 
ATOM      8  C6  PXY d   1       0.718   0.375   2.514  0.00  0.00     0.003 A 
ENDROOT
TORSDOF 0
ENDMDL
