MODEL 1
REMARK minimizedAffinity 0.595491409
REMARK minimizedRMSD -1
REMARK  0 active torsions:
REMARK  status: ('A' for Active; 'I' for Inactive)
ROOT
ATOM      1  C   UNL d   1      -0.341   2.022   2.775  0.00  0.00     0.023 A 
ATOM      2  C1  UNL d   1       0.540   1.065   2.271  0.00  0.00     0.003 A 
ATOM      3  C2  UNL d   1       0.209   0.347   1.120  0.00  0.00     0.048 A 
ATOM      4  C3  UNL d   1      -1.005   0.591   0.478  0.00  0.00     0.023 A 
ATOM      5  C4  UNL d   1      -1.889   1.548   0.978  0.00  0.00     0.048 A 
ATOM      6  C5  UNL d   1      -1.554   2.263   2.130  0.00  0.00     0.003 A 
ATOM      7  I   UNL d   1      -1.500  -0.476  -1.235  0.00  0.00    -0.146 I 
ENDROOT
TORSDOF 0
ENDMDL
