MODEL 1
REMARK minimizedAffinity -2.19824314
REMARK minimizedRMSD -1
REMARK  0 active torsions:
REMARK  status: ('A' for Active; 'I' for Inactive)
ROOT
ATOM      1  C   UNL d   1       0.250   0.354   0.594  0.00  0.00     0.023 A 
ATOM      2  C1  UNL d   1       0.486   0.189  -0.771  0.00  0.00     0.003 A 
ATOM      3  C2  UNL d   1       0.204  -1.031  -1.387  0.00  0.00     0.048 A 
ATOM      4  C3  UNL d   1      -0.316  -2.083  -0.633  0.00  0.00     0.023 A 
ATOM      5  C4  UNL d   1      -0.554  -1.923   0.733  0.00  0.00     0.048 A 
ATOM      6  C5  UNL d   1      -0.270  -0.700   1.345  0.00  0.00     0.003 A 
ATOM      7  I   UNL d   1      -0.737  -3.901  -1.548  0.00  0.00    -0.146 I 
ENDROOT
TORSDOF 0
ENDMDL
