MODEL 1
REMARK minimizedAffinity 1.41151607
REMARK minimizedRMSD -1
REMARK  0 active torsions:
REMARK  status: ('A' for Active; 'I' for Inactive)
ROOT
ATOM      1  C   UNL d   1      -0.487   1.124   1.928  0.00  0.00     0.023 A 
ATOM      2  C1  UNL d   1       0.229   1.178   0.731  0.00  0.00     0.003 A 
ATOM      3  C2  UNL d   1       0.117   0.141  -0.198  0.00  0.00     0.048 A 
ATOM      4  C3  UNL d   1      -0.712  -0.946   0.075  0.00  0.00     0.023 A 
ATOM      5  C4  UNL d   1      -1.431  -1.004   1.271  0.00  0.00     0.048 A 
ATOM      6  C5  UNL d   1      -1.315   0.034   2.197  0.00  0.00     0.003 A 
ATOM      7  I   UNL d   1      -0.880  -2.489  -1.306  0.00  0.00    -0.146 I 
ENDROOT
TORSDOF 0
ENDMDL
