MODEL 1
REMARK minimizedAffinity -1.75119901
REMARK minimizedRMSD -1
REMARK  0 active torsions:
REMARK  status: ('A' for Active; 'I' for Inactive)
ROOT
ATOM      1  C   UNL d   1      -0.447   2.052   1.847  0.00  0.00     0.023 A 
ATOM      2  C1  UNL d   1       0.561   1.092   1.929  0.00  0.00     0.003 A 
ATOM      3  C2  UNL d   1       0.503  -0.054   1.134  0.00  0.00     0.048 A 
ATOM      4  C3  UNL d   1      -0.567  -0.233   0.257  0.00  0.00     0.023 A 
ATOM      5  C4  UNL d   1      -1.578   0.725   0.171  0.00  0.00     0.048 A 
ATOM      6  C5  UNL d   1      -1.516   1.869   0.969  0.00  0.00     0.003 A 
ATOM      7  I   UNL d   1      -0.656  -1.938  -0.928  0.00  0.00    -0.146 I 
ENDROOT
TORSDOF 0
ENDMDL
