MODEL 1
REMARK minimizedAffinity 0.443328679
REMARK minimizedRMSD -1
REMARK  0 active torsions:
REMARK  status: ('A' for Active; 'I' for Inactive)
ROOT
ATOM      1  C   UNL d   1       2.506  -0.248   0.018  0.00  0.00     0.124 A 
ATOM      2  C1  UNL d   1       1.688  -1.366  -0.073  0.00  0.00     0.062 A 
ATOM      3  C2  UNL d   1       0.307  -1.218  -0.157  0.00  0.00     0.162 A 
ATOM      4  C3  UNL d   1      -0.267   0.053  -0.151  0.00  0.00    -0.034 A 
ATOM      5  C4  UNL d   1       0.562   1.173  -0.058  0.00  0.00     0.162 A 
ATOM      6  C5  UNL d   1       1.942   1.020   0.026  0.00  0.00     0.062 A 
ATOM      7  F   UNL d   1       2.730   2.102   0.114  0.00  0.00    -0.097 F 
ATOM      8  F1  UNL d   1       0.044   2.410  -0.050  0.00  0.00    -0.096 F 
ATOM      9  I   UNL d   1      -2.332   0.279  -0.277  0.00  0.00    -0.060 I 
ATOM     10  F2  UNL d   1      -0.459  -2.316  -0.245  0.00  0.00    -0.096 F 
ATOM     11  F3  UNL d   1       2.231  -2.592  -0.080  0.00  0.00    -0.097 F 
ATOM     12  F4  UNL d   1       3.835  -0.393   0.100  0.00  0.00    -0.092 F 
ENDROOT
TORSDOF 0
ENDMDL
