MODEL 1
REMARK minimizedAffinity -1.91578877
REMARK minimizedRMSD -1
REMARK  0 active torsions:
REMARK  status: ('A' for Active; 'I' for Inactive)
ROOT
ATOM      1  C   UNL d   1      -1.517   1.285  -0.538  0.00  0.00     0.124 A 
ATOM      2  C1  UNL d   1      -1.705  -0.081  -0.379  0.00  0.00     0.062 A 
ATOM      3  C2  UNL d   1      -0.626  -0.905  -0.072  0.00  0.00     0.162 A 
ATOM      4  C3  UNL d   1       0.651  -0.365   0.079  0.00  0.00    -0.034 A 
ATOM      5  C4  UNL d   1       0.832   1.010  -0.084  0.00  0.00     0.162 A 
ATOM      6  C5  UNL d   1      -0.249   1.829  -0.391  0.00  0.00     0.062 A 
ATOM      7  F   UNL d   1      -0.066   3.148  -0.544  0.00  0.00    -0.097 F 
ATOM      8  F1  UNL d   1       2.047   1.562   0.054  0.00  0.00    -0.096 F 
ATOM      9  I   UNL d   1       2.267  -1.594   0.537  0.00  0.00    -0.060 I 
ATOM     10  F2  UNL d   1      -0.837  -2.221   0.076  0.00  0.00    -0.096 F 
ATOM     11  F3  UNL d   1      -2.929  -0.609  -0.522  0.00  0.00    -0.097 F 
ATOM     12  F4  UNL d   1      -2.557   2.075  -0.834  0.00  0.00    -0.092 F 
ENDROOT
TORSDOF 0
ENDMDL
