MODEL 1
REMARK minimizedAffinity -3.94717026
REMARK minimizedRMSD -1
REMARK  0 active torsions:
REMARK  status: ('A' for Active; 'I' for Inactive)
ROOT
ATOM      1  C   UNL d   1      -2.683   1.724   0.193  0.00  0.00     0.124 A 
ATOM      2  C1  UNL d   1      -2.143   1.190   1.355  0.00  0.00     0.062 A 
ATOM      3  C2  UNL d   1      -1.065   0.312   1.286  0.00  0.00     0.162 A 
ATOM      4  C3  UNL d   1      -0.519  -0.037   0.051  0.00  0.00    -0.034 A 
ATOM      5  C4  UNL d   1      -1.068   0.503  -1.113  0.00  0.00     0.162 A 
ATOM      6  C5  UNL d   1      -2.146   1.380  -1.039  0.00  0.00     0.062 A 
ATOM      7  F   UNL d   1      -2.666   1.895  -2.163  0.00  0.00    -0.097 F 
ATOM      8  F1  UNL d   1      -0.568   0.189  -2.317  0.00  0.00    -0.096 F 
ATOM      9  I   UNL d   1       1.093  -1.349  -0.055  0.00  0.00    -0.060 I 
ATOM     10  F2  UNL d   1      -0.563  -0.189   2.425  0.00  0.00    -0.096 F 
ATOM     11  F3  UNL d   1      -2.662   1.519   2.547  0.00  0.00    -0.097 F 
ATOM     12  F4  UNL d   1      -3.721   2.567   0.262  0.00  0.00    -0.092 F 
ENDROOT
TORSDOF 0
ENDMDL
