MODEL 1
REMARK minimizedAffinity -2.47119045
REMARK minimizedRMSD -1
REMARK  0 active torsions:
REMARK  status: ('A' for Active; 'I' for Inactive)
ROOT
ATOM      1  C   UNL d   1      -0.818   1.405  -0.944  0.00  0.00     0.124 A 
ATOM      2  C1  UNL d   1      -0.949   0.027  -1.047  0.00  0.00     0.062 A 
ATOM      3  C2  UNL d   1       0.031  -0.810  -0.523  0.00  0.00     0.162 A 
ATOM      4  C3  UNL d   1       1.151  -0.273   0.110  0.00  0.00    -0.034 A 
ATOM      5  C4  UNL d   1       1.277   1.114   0.209  0.00  0.00     0.162 A 
ATOM      6  C5  UNL d   1       0.295   1.947  -0.317  0.00  0.00     0.062 A 
ATOM      7  F   UNL d   1       0.424   3.278  -0.217  0.00  0.00    -0.097 F 
ATOM      8  F1  UNL d   1       2.342   1.665   0.811  0.00  0.00    -0.096 F 
ATOM      9  I   UNL d   1       2.619  -1.522   0.895  0.00  0.00    -0.060 I 
ATOM     10  F2  UNL d   1      -0.122  -2.138  -0.637  0.00  0.00    -0.096 F 
ATOM     11  F3  UNL d   1      -2.023  -0.499  -1.654  0.00  0.00    -0.097 F 
ATOM     12  F4  UNL d   1      -1.762   2.209  -1.450  0.00  0.00    -0.092 F 
ENDROOT
TORSDOF 0
ENDMDL
