MODEL 1
REMARK minimizedAffinity 2.279217
REMARK minimizedRMSD -1
REMARK  0 active torsions:
REMARK  status: ('A' for Active; 'I' for Inactive)
ROOT
ATOM      1  C   UNL d   1       1.908  -0.916   0.468  0.00  0.00     0.124 A 
ATOM      2  C1  UNL d   1       1.044  -1.885  -0.022  0.00  0.00     0.062 A 
ATOM      3  C2  UNL d   1      -0.274  -1.558  -0.328  0.00  0.00     0.162 A 
ATOM      4  C3  UNL d   1      -0.736  -0.255  -0.146  0.00  0.00    -0.034 A 
ATOM      5  C4  UNL d   1       0.139   0.714   0.348  0.00  0.00     0.162 A 
ATOM      6  C5  UNL d   1       1.455   0.383   0.653  0.00  0.00     0.062 A 
ATOM      7  F   UNL d   1       2.288   1.320   1.126  0.00  0.00    -0.097 F 
ATOM      8  F1  UNL d   1      -0.272   1.977   0.536  0.00  0.00    -0.096 F 
ATOM      9  I   UNL d   1      -2.706   0.238  -0.602  0.00  0.00    -0.060 I 
ATOM     10  F2  UNL d   1      -1.086  -2.515  -0.800  0.00  0.00    -0.096 F 
ATOM     11  F3  UNL d   1       1.479  -3.141  -0.200  0.00  0.00    -0.097 F 
ATOM     12  F4  UNL d   1       3.176  -1.234   0.762  0.00  0.00    -0.092 F 
ENDROOT
TORSDOF 0
ENDMDL
