MODEL 1
REMARK minimizedAffinity 0.839232564
REMARK minimizedRMSD -1
REMARK  0 active torsions:
REMARK  status: ('A' for Active; 'I' for Inactive)
ROOT
ATOM      1  C   UNL d   1      -0.638   1.705  -0.235  0.00  0.00     0.124 A 
ATOM      2  C1  UNL d   1      -0.825   0.331  -0.161  0.00  0.00     0.062 A 
ATOM      3  C2  UNL d   1       0.271  -0.521  -0.073  0.00  0.00     0.162 A 
ATOM      4  C3  UNL d   1       1.566  -0.003  -0.058  0.00  0.00    -0.034 A 
ATOM      5  C4  UNL d   1       1.747   1.379  -0.134  0.00  0.00     0.162 A 
ATOM      6  C5  UNL d   1       0.648   2.227  -0.221  0.00  0.00     0.062 A 
ATOM      7  F   UNL d   1       0.831   3.554  -0.292  0.00  0.00    -0.097 F 
ATOM      8  F1  UNL d   1       2.978   1.911  -0.121  0.00  0.00    -0.096 F 
ATOM      9  I   UNL d   1       3.209  -1.274   0.073  0.00  0.00    -0.060 I 
ATOM     10  F2  UNL d   1       0.060  -1.844  -0.003  0.00  0.00    -0.096 F 
ATOM     11  F3  UNL d   1      -2.066  -0.176  -0.175  0.00  0.00    -0.097 F 
ATOM     12  F4  UNL d   1      -1.695   2.522  -0.320  0.00  0.00    -0.092 F 
ENDROOT
TORSDOF 0
ENDMDL
