MODEL 1
REMARK minimizedAffinity -2.70692873
REMARK minimizedRMSD -1
REMARK  0 active torsions:
REMARK  status: ('A' for Active; 'I' for Inactive)
ROOT
ATOM      1  C   UNL d   1       2.742   1.463  -0.055  0.00  0.00     0.124 A 
ATOM      2  C1  UNL d   1       3.050   0.111  -0.106  0.00  0.00     0.062 A 
ATOM      3  C2  UNL d   1       2.067  -0.821  -0.425  0.00  0.00     0.162 A 
ATOM      4  C3  UNL d   1       0.764  -0.403  -0.697  0.00  0.00    -0.034 A 
ATOM      5  C4  UNL d   1       0.460   0.959  -0.643  0.00  0.00     0.162 A 
ATOM      6  C5  UNL d   1       1.447   1.885  -0.324  0.00  0.00     0.062 A 
ATOM      7  F   UNL d   1       1.147   3.191  -0.275  0.00  0.00    -0.097 F 
ATOM      8  F1  UNL d   1      -0.782   1.395  -0.899  0.00  0.00    -0.096 F 
ATOM      9  I   UNL d   1      -0.710  -1.793  -1.174  0.00  0.00    -0.060 I 
ATOM     10  F2  UNL d   1       2.393  -2.121  -0.466  0.00  0.00    -0.096 F 
ATOM     11  F3  UNL d   1       4.300  -0.300   0.154  0.00  0.00    -0.097 F 
ATOM     12  F4  UNL d   1       3.690   2.357   0.252  0.00  0.00    -0.092 F 
ENDROOT
TORSDOF 0
ENDMDL
