MODEL 1
REMARK minimizedAffinity -3.73383236
REMARK minimizedRMSD -1
REMARK  0 active torsions:
REMARK  status: ('A' for Active; 'I' for Inactive)
ROOT
ATOM      1  C   UNL d   1       2.651  -0.267   0.077  0.00  0.00     0.124 A 
ATOM      2  C1  UNL d   1       1.676  -1.255   0.094  0.00  0.00     0.062 A 
ATOM      3  C2  UNL d   1       0.335  -0.917  -0.062  0.00  0.00     0.162 A 
ATOM      4  C3  UNL d   1      -0.040   0.415  -0.237  0.00  0.00    -0.034 A 
ATOM      5  C4  UNL d   1       0.946   1.403  -0.252  0.00  0.00     0.162 A 
ATOM      6  C5  UNL d   1       2.285   1.061  -0.096  0.00  0.00     0.062 A 
ATOM      7  F   UNL d   1       3.226   2.016  -0.112  0.00  0.00    -0.097 F 
ATOM      8  F1  UNL d   1       0.621   2.694  -0.418  0.00  0.00    -0.096 F 
ATOM      9  I   UNL d   1      -2.045   0.924  -0.471  0.00  0.00    -0.060 I 
ATOM     10  F2  UNL d   1      -0.586  -1.892  -0.041  0.00  0.00    -0.096 F 
ATOM     11  F3  UNL d   1       2.027  -2.538   0.262  0.00  0.00    -0.097 F 
ATOM     12  F4  UNL d   1       3.941  -0.594   0.228  0.00  0.00    -0.092 F 
ENDROOT
TORSDOF 0
ENDMDL
