MODEL 1
REMARK minimizedAffinity -0.815021396
REMARK minimizedRMSD -1
REMARK  0 active torsions:
REMARK  status: ('A' for Active; 'I' for Inactive)
ROOT
ATOM      1  C   UNL d   1      -1.412   1.780  -0.469  0.00  0.00     0.124 A 
ATOM      2  C1  UNL d   1      -1.670   0.428  -0.289  0.00  0.00     0.062 A 
ATOM      3  C2  UNL d   1      -0.620  -0.468  -0.110  0.00  0.00     0.162 A 
ATOM      4  C3  UNL d   1       0.699  -0.015  -0.110  0.00  0.00    -0.034 A 
ATOM      5  C4  UNL d   1       0.951   1.346  -0.293  0.00  0.00     0.162 A 
ATOM      6  C5  UNL d   1      -0.102   2.237  -0.471  0.00  0.00     0.062 A 
ATOM      7  F   UNL d   1       0.150   3.543  -0.645  0.00  0.00    -0.097 F 
ATOM      8  F1  UNL d   1       2.208   1.816  -0.298  0.00  0.00    -0.096 F 
ATOM      9  I   UNL d   1       2.272  -1.351   0.157  0.00  0.00    -0.060 I 
ATOM     10  F2  UNL d   1      -0.899  -1.768   0.062  0.00  0.00    -0.096 F 
ATOM     11  F3  UNL d   1      -2.935  -0.017  -0.288  0.00  0.00    -0.097 F 
ATOM     12  F4  UNL d   1      -2.424   2.639  -0.642  0.00  0.00    -0.092 F 
ENDROOT
TORSDOF 0
ENDMDL
