MODEL 1
REMARK minimizedAffinity 3.60494018
REMARK minimizedRMSD -1
REMARK  0 active torsions:
REMARK  status: ('A' for Active; 'I' for Inactive)
ROOT
ATOM      1  C   UNL d   1       1.660  -1.032  -0.445  0.00  0.00     0.124 A 
ATOM      2  C1  UNL d   1       1.490  -1.003   0.933  0.00  0.00     0.062 A 
ATOM      3  C2  UNL d   1       0.368  -0.394   1.487  0.00  0.00     0.162 A 
ATOM      4  C3  UNL d   1      -0.594   0.191   0.663  0.00  0.00    -0.034 A 
ATOM      5  C4  UNL d   1      -0.416   0.158  -0.721  0.00  0.00     0.162 A 
ATOM      6  C5  UNL d   1       0.707  -0.452  -1.270  0.00  0.00     0.062 A 
ATOM      7  F   UNL d   1       0.869  -0.479  -2.601  0.00  0.00    -0.097 F 
ATOM      8  F1  UNL d   1      -1.322   0.711  -1.541  0.00  0.00    -0.096 F 
ATOM      9  I   UNL d   1      -2.274   1.102   1.488  0.00  0.00    -0.060 I 
ATOM     10  F2  UNL d   1       0.230  -0.381   2.821  0.00  0.00    -0.096 F 
ATOM     11  F3  UNL d   1       2.410  -1.562   1.732  0.00  0.00    -0.097 F 
ATOM     12  F4  UNL d   1       2.741  -1.618  -0.975  0.00  0.00    -0.092 F 
ENDROOT
TORSDOF 0
ENDMDL
