MODEL 1
REMARK minimizedAffinity -1.68736279
REMARK minimizedRMSD -1
REMARK  0 active torsions:
REMARK  status: ('A' for Active; 'I' for Inactive)
ROOT
ATOM      1  C   UNL d   1      -0.773   1.488  -0.700  0.00  0.00     0.124 A 
ATOM      2  C1  UNL d   1       0.412   2.020  -0.210  0.00  0.00     0.062 A 
ATOM      3  C2  UNL d   1       1.483   1.185   0.090  0.00  0.00     0.162 A 
ATOM      4  C3  UNL d   1       1.376  -0.193  -0.099  0.00  0.00    -0.034 A 
ATOM      5  C4  UNL d   1       0.181  -0.721  -0.591  0.00  0.00     0.162 A 
ATOM      6  C5  UNL d   1      -0.887   0.118  -0.890  0.00  0.00     0.062 A 
ATOM      7  F   UNL d   1      -2.030  -0.398  -1.364  0.00  0.00    -0.097 F 
ATOM      8  F1  UNL d   1       0.044  -2.041  -0.786  0.00  0.00    -0.096 F 
ATOM      9  I   UNL d   1       2.976  -1.446   0.349  0.00  0.00    -0.060 I 
ATOM     10  F2  UNL d   1       2.616   1.727   0.562  0.00  0.00    -0.096 F 
ATOM     11  F3  UNL d   1       0.524   3.344  -0.025  0.00  0.00    -0.097 F 
ATOM     12  F4  UNL d   1      -1.803   2.294  -0.988  0.00  0.00    -0.092 F 
ENDROOT
TORSDOF 0
ENDMDL
