MODEL 1
REMARK minimizedAffinity -2.75085545
REMARK minimizedRMSD -1
REMARK  0 active torsions:
REMARK  status: ('A' for Active; 'I' for Inactive)
ROOT
ATOM      1  C   UNL d   1       1.831  -2.201   1.876  0.00  0.00     0.023 A 
ATOM      2  C1  UNL d   1       0.610  -1.788   1.341  0.00  0.00     0.003 A 
ATOM      3  C2  UNL d   1       0.470  -0.495   0.834  0.00  0.00     0.048 A 
ATOM      4  C3  UNL d   1       1.555   0.381   0.865  0.00  0.00     0.023 A 
ATOM      5  C4  UNL d   1       2.778  -0.027   1.399  0.00  0.00     0.048 A 
ATOM      6  C5  UNL d   1       2.913  -1.321   1.906  0.00  0.00     0.003 A 
ATOM      7  I   UNL d   1       1.349   2.307   0.112  0.00  0.00    -0.146 I 
ENDROOT
TORSDOF 0
ENDMDL
