MODEL 1
REMARK minimizedAffinity -0.645528853
REMARK minimizedRMSD -1
REMARK  0 active torsions:
REMARK  status: ('A' for Active; 'I' for Inactive)
ROOT
ATOM      1  C   UNL d   1       0.946   1.470   0.792  0.00  0.00     0.023 A 
ATOM      2  C1  UNL d   1       2.259   1.585   0.336  0.00  0.00     0.003 A 
ATOM      3  C2  UNL d   1       2.665   2.733  -0.347  0.00  0.00     0.048 A 
ATOM      4  C3  UNL d   1       1.752   3.764  -0.568  0.00  0.00     0.023 A 
ATOM      5  C4  UNL d   1       0.437   3.654  -0.113  0.00  0.00     0.048 A 
ATOM      6  C5  UNL d   1       0.036   2.503   0.568  0.00  0.00     0.003 A 
ATOM      7  I   UNL d   1       2.354   5.475  -1.584  0.00  0.00    -0.146 I 
ENDROOT
TORSDOF 0
ENDMDL
