MODEL 1
REMARK minimizedAffinity 10.0322266
REMARK minimizedRMSD -1
REMARK  0 active torsions:
REMARK  status: ('A' for Active; 'I' for Inactive)
ROOT
ATOM      1  C   UNL d   1       0.377  -3.353   2.204  0.00  0.00     0.023 A 
ATOM      2  C1  UNL d   1       0.330  -2.237   1.368  0.00  0.00     0.003 A 
ATOM      3  C2  UNL d   1       1.102  -1.111   1.660  0.00  0.00     0.048 A 
ATOM      4  C3  UNL d   1       1.921  -1.108   2.788  0.00  0.00     0.023 A 
ATOM      5  C4  UNL d   1       1.972  -2.223   3.627  0.00  0.00     0.048 A 
ATOM      6  C5  UNL d   1       1.198  -3.346   3.332  0.00  0.00     0.003 A 
ATOM      7  I   UNL d   1       3.072   0.567   3.225  0.00  0.00    -0.146 I 
ENDROOT
TORSDOF 0
ENDMDL
