MODEL 1
REMARK minimizedAffinity 7.50891113
REMARK minimizedRMSD -1
REMARK  0 active torsions:
REMARK  status: ('A' for Active; 'I' for Inactive)
ROOT
ATOM      1  C   UNL d   1       3.257   0.322   2.354  0.00  0.00     0.023 A 
ATOM      2  C1  UNL d   1       2.593   0.942   1.295  0.00  0.00     0.003 A 
ATOM      3  C2  UNL d   1       1.341   0.478   0.886  0.00  0.00     0.048 A 
ATOM      4  C3  UNL d   1       0.758  -0.606   1.542  0.00  0.00     0.023 A 
ATOM      5  C4  UNL d   1       1.417  -1.228   2.603  0.00  0.00     0.048 A 
ATOM      6  C5  UNL d   1       2.669  -0.762   3.007  0.00  0.00     0.003 A 
ATOM      7  I   UNL d   1      -1.106  -1.298   0.936  0.00  0.00    -0.146 I 
ENDROOT
TORSDOF 0
ENDMDL
