MODEL 1
REMARK minimizedAffinity 1.97564268
REMARK minimizedRMSD -1
REMARK  0 active torsions:
REMARK  status: ('A' for Active; 'I' for Inactive)
ROOT
ATOM      1  C   UNL d   1       1.185   1.355   0.051  0.00  0.00     0.023 A 
ATOM      2  C1  UNL d   1       2.287   1.531   0.887  0.00  0.00     0.003 A 
ATOM      3  C2  UNL d   1       2.524   0.634   1.930  0.00  0.00     0.048 A 
ATOM      4  C3  UNL d   1       1.655  -0.438   2.131  0.00  0.00     0.023 A 
ATOM      5  C4  UNL d   1       0.551  -0.619   1.296  0.00  0.00     0.048 A 
ATOM      6  C5  UNL d   1       0.318   0.281   0.255  0.00  0.00     0.003 A 
ATOM      7  I   UNL d   1       2.006  -1.775   3.683  0.00  0.00    -0.146 I 
ENDROOT
TORSDOF 0
ENDMDL
