MODEL 1
REMARK minimizedAffinity 1.09382236
REMARK minimizedRMSD -1
REMARK  0 active torsions:
REMARK  status: ('A' for Active; 'I' for Inactive)
ROOT
ATOM      1  C   UNL d   1       5.976   4.667  -3.995  0.00  0.00     0.023 A 
ATOM      2  C1  UNL d   1       4.767   4.101  -4.399  0.00  0.00     0.003 A 
ATOM      3  C2  UNL d   1       3.576   4.476  -3.773  0.00  0.00     0.048 A 
ATOM      4  C3  UNL d   1       3.602   5.418  -2.745  0.00  0.00     0.023 A 
ATOM      5  C4  UNL d   1       4.810   5.988  -2.339  0.00  0.00     0.048 A 
ATOM      6  C5  UNL d   1       5.998   5.609  -2.967  0.00  0.00     0.003 A 
ATOM      7  I   UNL d   1       1.831   5.978  -1.812  0.00  0.00    -0.146 I 
ENDROOT
TORSDOF 0
ENDMDL
