MODEL 1
REMARK minimizedAffinity 2.43694472
REMARK minimizedRMSD -1
REMARK  0 active torsions:
REMARK  status: ('A' for Active; 'I' for Inactive)
ROOT
ATOM      1  C   UNL d   1       2.119  -4.141   4.353  0.00  0.00     0.023 A 
ATOM      2  C1  UNL d   1       3.238  -3.337   4.133  0.00  0.00     0.003 A 
ATOM      3  C2  UNL d   1       3.108  -2.133   3.437  0.00  0.00     0.048 A 
ATOM      4  C3  UNL d   1       1.857  -1.739   2.964  0.00  0.00     0.023 A 
ATOM      5  C4  UNL d   1       0.735  -2.540   3.182  0.00  0.00     0.048 A 
ATOM      6  C5  UNL d   1       0.869  -3.743   3.878  0.00  0.00     0.003 A 
ATOM      7  I   UNL d   1       1.662   0.052   1.928  0.00  0.00    -0.146 I 
ENDROOT
TORSDOF 0
ENDMDL
