MODEL 1
REMARK minimizedAffinity 1.99237835
REMARK minimizedRMSD -1
REMARK  0 active torsions:
REMARK  status: ('A' for Active; 'I' for Inactive)
ROOT
ATOM      1  C2' OXE d   1      -0.797  -1.017   3.979  0.00  0.00     0.078 C 
ATOM      2  C1' OXE d   1      -1.087  -1.182   1.191  0.00  0.00     0.078 C 
ATOM      3  C1  OXE d   1       0.251  -0.747   1.735  0.00  0.00    -0.078 A 
ATOM      4  C2  OXE d   1       0.370  -0.624   3.098  0.00  0.00    -0.078 A 
ATOM      5  C3  OXE d   1       1.598  -0.279   3.655  0.00  0.00     0.003 A 
ATOM      6  C4  OXE d   1       2.670   0.093   2.833  0.00  0.00    -0.002 A 
ATOM      7  C5  OXE d   1       2.557   0.013   1.441  0.00  0.00    -0.002 A 
ATOM      8  C6  OXE d   1       1.371  -0.445   0.878  0.00  0.00     0.003 A 
ENDROOT
TORSDOF 0
ENDMDL
