MODEL 1
REMARK minimizedAffinity 7.35537243
REMARK minimizedRMSD -1
REMARK  0 active torsions:
REMARK  status: ('A' for Active; 'I' for Inactive)
ROOT
ATOM      1  C2' OXE d   1       5.507  -0.044  -2.707  0.00  0.00     0.078 C 
ATOM      2  C1' OXE d   1       4.900   2.578  -1.909  0.00  0.00     0.078 C 
ATOM      3  C1  OXE d   1       3.948   1.481  -1.503  0.00  0.00    -0.078 A 
ATOM      4  C2  OXE d   1       4.228   0.208  -1.937  0.00  0.00    -0.078 A 
ATOM      5  C3  OXE d   1       3.413  -0.850  -1.545  0.00  0.00     0.003 A 
ATOM      6  C4  OXE d   1       2.226  -0.607  -0.842  0.00  0.00    -0.002 A 
ATOM      7  C5  OXE d   1       1.901   0.688  -0.424  0.00  0.00    -0.002 A 
ATOM      8  C6  OXE d   1       2.771   1.734  -0.709  0.00  0.00     0.003 A 
ENDROOT
TORSDOF 0
ENDMDL
