MODEL 1
REMARK minimizedAffinity 3.65950274
REMARK minimizedRMSD -1
REMARK  0 active torsions:
REMARK  status: ('A' for Active; 'I' for Inactive)
ROOT
ATOM      1  C2' OXE d   1      -0.021  -1.557   4.784  0.00  0.00     0.078 C 
ATOM      2  C1' OXE d   1       2.217  -0.377   3.569  0.00  0.00     0.078 C 
ATOM      3  C1  OXE d   1       1.006  -0.638   2.709  0.00  0.00    -0.078 A 
ATOM      4  C2  OXE d   1      -0.068  -1.258   3.300  0.00  0.00    -0.078 A 
ATOM      5  C3  OXE d   1      -1.231  -1.473   2.566  0.00  0.00     0.003 A 
ATOM      6  C4  OXE d   1      -1.262  -1.203   1.193  0.00  0.00    -0.002 A 
ATOM      7  C5  OXE d   1      -0.164  -0.608   0.561  0.00  0.00    -0.002 A 
ATOM      8  C6  OXE d   1       0.959  -0.281   1.312  0.00  0.00     0.003 A 
ENDROOT
TORSDOF 0
ENDMDL
