MODEL 1
REMARK minimizedAffinity 6.75106335
REMARK minimizedRMSD -1
REMARK  0 active torsions:
REMARK  status: ('A' for Active; 'I' for Inactive)
ROOT
ATOM      1  C2' OXE d   1      -0.872  -1.573   1.086  0.00  0.00     0.078 C 
ATOM      2  C1' OXE d   1      -0.540  -1.174   3.845  0.00  0.00     0.078 C 
ATOM      3  C1  OXE d   1       0.631  -0.872   2.945  0.00  0.00    -0.078 A 
ATOM      4  C2  OXE d   1       0.476  -1.114   1.601  0.00  0.00    -0.078 A 
ATOM      5  C3  OXE d   1       1.507  -0.801   0.720  0.00  0.00     0.003 A 
ATOM      6  C4  OXE d   1       2.753  -0.387   1.206  0.00  0.00    -0.002 A 
ATOM      7  C5  OXE d   1       2.946  -0.172   2.575  0.00  0.00    -0.002 A 
ATOM      8  C6  OXE d   1       1.884  -0.369   3.451  0.00  0.00     0.003 A 
ENDROOT
TORSDOF 0
ENDMDL
