MODEL 1
REMARK minimizedAffinity 16.3708496
REMARK minimizedRMSD -1
REMARK  0 active torsions:
REMARK  status: ('A' for Active; 'I' for Inactive)
ROOT
ATOM      1  C2' OXE d   1       4.704  -1.730   4.931  0.00  0.00     0.078 C 
ATOM      2  C1' OXE d   1       2.395  -2.935   5.976  0.00  0.00     0.078 C 
ATOM      3  C1  OXE d   1       3.589  -3.816   5.711  0.00  0.00    -0.078 A 
ATOM      4  C2  OXE d   1       4.699  -3.227   5.156  0.00  0.00    -0.078 A 
ATOM      5  C3  OXE d   1       5.848  -3.983   4.942  0.00  0.00     0.003 A 
ATOM      6  C4  OXE d   1       5.832  -5.369   5.143  0.00  0.00    -0.002 A 
ATOM      7  C5  OXE d   1       4.698  -5.996   5.671  0.00  0.00    -0.002 A 
ATOM      8  C6  OXE d   1       3.586  -5.229   6.000  0.00  0.00     0.003 A 
ENDROOT
TORSDOF 0
ENDMDL
