MODEL 1
REMARK minimizedAffinity 7.06716633
REMARK minimizedRMSD -1
REMARK  0 active torsions:
REMARK  status: ('A' for Active; 'I' for Inactive)
ROOT
ATOM      1  C2' OXE d   1       2.190  -0.088   0.241  0.00  0.00     0.078 C 
ATOM      2  C1' OXE d   1       2.528   0.196   3.013  0.00  0.00     0.078 C 
ATOM      3  C1  OXE d   1       1.223  -0.377   2.518  0.00  0.00    -0.078 A 
ATOM      4  C2  OXE d   1       1.049  -0.469   1.159  0.00  0.00    -0.078 A 
ATOM      5  C3  OXE d   1      -0.114  -1.040   0.650  0.00  0.00     0.003 A 
ATOM      6  C4  OXE d   1      -1.169  -1.381   1.505  0.00  0.00    -0.002 A 
ATOM      7  C5  OXE d   1      -1.028  -1.258   2.891  0.00  0.00    -0.002 A 
ATOM      8  C6  OXE d   1       0.176  -0.799   3.415  0.00  0.00     0.003 A 
ENDROOT
TORSDOF 0
ENDMDL
