MODEL 1
REMARK minimizedAffinity 9.11956787
REMARK minimizedRMSD -1
REMARK  0 active torsions:
REMARK  status: ('A' for Active; 'I' for Inactive)
ROOT
ATOM      1  C2' OXE d   1       2.252  -0.533   0.139  0.00  0.00     0.078 C 
ATOM      2  C1' OXE d   1       2.382   0.331   2.807  0.00  0.00     0.078 C 
ATOM      3  C1  OXE d   1       1.122  -0.363   2.353  0.00  0.00    -0.078 A 
ATOM      4  C2  OXE d   1       1.049  -0.740   1.033  0.00  0.00    -0.078 A 
ATOM      5  C3  OXE d   1      -0.069  -1.432   0.575  0.00  0.00     0.003 A 
ATOM      6  C4  OXE d   1      -1.181  -1.611   1.406  0.00  0.00    -0.002 A 
ATOM      7  C5  OXE d   1      -1.143  -1.199   2.742  0.00  0.00    -0.002 A 
ATOM      8  C6  OXE d   1       0.015  -0.613   3.242  0.00  0.00     0.003 A 
ENDROOT
TORSDOF 0
ENDMDL
