MODEL 1
REMARK minimizedAffinity 11.7976418
REMARK minimizedRMSD -1
REMARK  0 active torsions:
REMARK  status: ('A' for Active; 'I' for Inactive)
ROOT
ATOM      1  C2' OXE d   1       2.473  -0.599   0.203  0.00  0.00     0.078 C 
ATOM      2  C1' OXE d   1       2.504   0.241   2.881  0.00  0.00     0.078 C 
ATOM      3  C1  OXE d   1       1.237  -0.383   2.354  0.00  0.00    -0.078 A 
ATOM      4  C2  OXE d   1       1.215  -0.749   1.030  0.00  0.00    -0.078 A 
ATOM      5  C3  OXE d   1       0.089  -1.379   0.507  0.00  0.00     0.003 A 
ATOM      6  C4  OXE d   1      -1.074  -1.505   1.276  0.00  0.00    -0.002 A 
ATOM      7  C5  OXE d   1      -1.086  -1.103   2.616  0.00  0.00    -0.002 A 
ATOM      8  C6  OXE d   1       0.072  -0.581   3.181  0.00  0.00     0.003 A 
ENDROOT
TORSDOF 0
ENDMDL
