MODEL 1
REMARK minimizedAffinity 5.53183794
REMARK minimizedRMSD -1
REMARK  0 active torsions:
REMARK  status: ('A' for Active; 'I' for Inactive)
ROOT
ATOM      1  C2' OXE d   1       0.394   0.159  -3.591  0.00  0.00     0.078 C 
ATOM      2  C1' OXE d   1       2.018   1.963  -2.181  0.00  0.00     0.078 C 
ATOM      3  C1  OXE d   1       0.837   2.521  -2.935  0.00  0.00    -0.078 A 
ATOM      4  C2  OXE d   1       0.075   1.637  -3.660  0.00  0.00    -0.078 A 
ATOM      5  C3  OXE d   1      -1.058   2.091  -4.329  0.00  0.00     0.003 A 
ATOM      6  C4  OXE d   1      -1.340   3.460  -4.396  0.00  0.00    -0.002 A 
ATOM      7  C5  OXE d   1      -0.554   4.382  -3.697  0.00  0.00    -0.002 A 
ATOM      8  C6  OXE d   1       0.511   3.926  -2.929  0.00  0.00     0.003 A 
ENDROOT
TORSDOF 0
ENDMDL
