MODEL 1
REMARK minimizedAffinity 2.61890388
REMARK minimizedRMSD -1
REMARK  0 active torsions:
REMARK  status: ('A' for Active; 'I' for Inactive)
ROOT
ATOM      1  C2' OXE d   1       5.602   0.026  -2.837  0.00  0.00     0.078 C 
ATOM      2  C1' OXE d   1       4.397   2.542  -2.527  0.00  0.00     0.078 C 
ATOM      3  C1  OXE d   1       3.778   1.372  -1.803  0.00  0.00    -0.078 A 
ATOM      4  C2  OXE d   1       4.347   0.136  -1.998  0.00  0.00    -0.078 A 
ATOM      5  C3  OXE d   1       3.850  -0.968  -1.312  0.00  0.00     0.003 A 
ATOM      6  C4  OXE d   1       2.682  -0.859  -0.546  0.00  0.00    -0.002 A 
ATOM      7  C5  OXE d   1       2.064   0.382  -0.367  0.00  0.00    -0.002 A 
ATOM      8  C6  OXE d   1       2.623   1.513  -0.953  0.00  0.00     0.003 A 
ENDROOT
TORSDOF 0
ENDMDL
