MODEL 1
REMARK minimizedAffinity 8.40139866
REMARK minimizedRMSD -1
REMARK  0 active torsions:
REMARK  status: ('A' for Active; 'I' for Inactive)
ROOT
ATOM      1  C2' OXE d   1      -1.065  -1.290   4.017  0.00  0.00     0.078 C 
ATOM      2  C1' OXE d   1      -1.623  -1.656   1.290  0.00  0.00     0.078 C 
ATOM      3  C1  OXE d   1      -0.258  -1.135   1.665  0.00  0.00    -0.078 A 
ATOM      4  C2  OXE d   1      -0.010  -0.915   2.999  0.00  0.00    -0.078 A 
ATOM      5  C3  OXE d   1       1.251  -0.487   3.403  0.00  0.00     0.003 A 
ATOM      6  C4  OXE d   1       2.218  -0.132   2.455  0.00  0.00    -0.002 A 
ATOM      7  C5  OXE d   1       1.971  -0.311   1.089  0.00  0.00    -0.002 A 
ATOM      8  C6  OXE d   1       0.757  -0.850   0.681  0.00  0.00     0.003 A 
ENDROOT
TORSDOF 0
ENDMDL
