MODEL 1
REMARK minimizedAffinity 15.6905813
REMARK minimizedRMSD -1
REMARK  0 active torsions:
REMARK  status: ('A' for Active; 'I' for Inactive)
ROOT
ATOM      1  C2' OXE d   1       1.824   0.129   0.317  0.00  0.00     0.078 C 
ATOM      2  C1' OXE d   1       2.688   0.067   2.987  0.00  0.00     0.078 C 
ATOM      3  C1  OXE d   1       1.276  -0.374   2.694  0.00  0.00    -0.078 A 
ATOM      4  C2  OXE d   1       0.847  -0.296   1.391  0.00  0.00    -0.078 A 
ATOM      5  C3  OXE d   1      -0.429  -0.741   1.058  0.00  0.00     0.003 A 
ATOM      6  C4  OXE d   1      -1.330  -1.123   2.059  0.00  0.00    -0.002 A 
ATOM      7  C5  OXE d   1      -0.926  -1.172   3.398  0.00  0.00    -0.002 A 
ATOM      8  C6  OXE d   1       0.384  -0.842   3.726  0.00  0.00     0.003 A 
ENDROOT
TORSDOF 0
ENDMDL
