MODEL 1
REMARK minimizedAffinity 1.0545634
REMARK minimizedRMSD -1
REMARK  0 active torsions:
REMARK  status: ('A' for Active; 'I' for Inactive)
ROOT
ATOM      1  C2' OXE d   1      -3.694   2.640  -3.447  0.00  0.00     0.078 C 
ATOM      2  C1' OXE d   1      -1.140   1.809  -4.263  0.00  0.00     0.078 C 
ATOM      3  C1  OXE d   1      -1.243   3.087  -3.470  0.00  0.00    -0.078 A 
ATOM      4  C2  OXE d   1      -2.501   3.511  -3.115  0.00  0.00    -0.078 A 
ATOM      5  C3  OXE d   1      -2.649   4.655  -2.336  0.00  0.00     0.003 A 
ATOM      6  C4  OXE d   1      -1.542   5.460  -2.041  0.00  0.00    -0.002 A 
ATOM      7  C5  OXE d   1      -0.256   5.067  -2.427  0.00  0.00    -0.002 A 
ATOM      8  C6  OXE d   1      -0.085   3.864  -3.104  0.00  0.00     0.003 A 
ENDROOT
TORSDOF 0
ENDMDL
