MODEL 1
REMARK minimizedAffinity 12.4266768
REMARK minimizedRMSD -1
REMARK  0 active torsions:
REMARK  status: ('A' for Active; 'I' for Inactive)
ROOT
ATOM      1  C2' OXE d   1       2.843  -5.391   5.999  0.00  0.00     0.078 C 
ATOM      2  C1' OXE d   1       1.735  -5.920   3.475  0.00  0.00     0.078 C 
ATOM      3  C1  OXE d   1       3.236  -5.805   3.574  0.00  0.00    -0.078 A 
ATOM      4  C2  OXE d   1       3.766  -5.500   4.805  0.00  0.00    -0.078 A 
ATOM      5  C3  OXE d   1       5.147  -5.436   4.963  0.00  0.00     0.003 A 
ATOM      6  C4  OXE d   1       5.993  -5.528   3.852  0.00  0.00    -0.002 A 
ATOM      7  C5  OXE d   1       5.471  -5.799   2.582  0.00  0.00    -0.002 A 
ATOM      8  C6  OXE d   1       4.101  -5.982   2.434  0.00  0.00     0.003 A 
ENDROOT
TORSDOF 0
ENDMDL
