MODEL 1
REMARK minimizedAffinity 12.7592134
REMARK minimizedRMSD -1
REMARK  0 active torsions:
REMARK  status: ('A' for Active; 'I' for Inactive)
ROOT
ATOM      1  C2' OXE d   1      -3.732  -2.287   1.146  0.00  0.00     0.078 C 
ATOM      2  C1' OXE d   1      -2.019  -3.227  -0.869  0.00  0.00     0.078 C 
ATOM      3  C1  OXE d   1      -1.497  -2.155   0.055  0.00  0.00    -0.078 A 
ATOM      4  C2  OXE d   1      -2.358  -1.668   1.008  0.00  0.00    -0.078 A 
ATOM      5  C3  OXE d   1      -1.910  -0.718   1.921  0.00  0.00     0.003 A 
ATOM      6  C4  OXE d   1      -0.641  -0.143   1.780  0.00  0.00    -0.002 A 
ATOM      7  C5  OXE d   1       0.238  -0.596   0.791  0.00  0.00    -0.002 A 
ATOM      8  C6  OXE d   1      -0.158  -1.629  -0.051  0.00  0.00     0.003 A 
ENDROOT
TORSDOF 0
ENDMDL
