MODEL 1
REMARK minimizedAffinity 8.55256462
REMARK minimizedRMSD -1
REMARK  0 active torsions:
REMARK  status: ('A' for Active; 'I' for Inactive)
ROOT
ATOM      1  C2' OXE d   1       1.504   3.913  -3.551  0.00  0.00     0.078 C 
ATOM      2  C1' OXE d   1      -0.560   5.378  -2.338  0.00  0.00     0.078 C 
ATOM      3  C1  OXE d   1      -0.944   4.187  -3.180  0.00  0.00    -0.078 A 
ATOM      4  C2  OXE d   1       0.070   3.504  -3.808  0.00  0.00    -0.078 A 
ATOM      5  C3  OXE d   1      -0.224   2.365  -4.552  0.00  0.00     0.003 A 
ATOM      6  C4  OXE d   1      -1.554   2.000  -4.793  0.00  0.00    -0.002 A 
ATOM      7  C5  OXE d   1      -2.604   2.706  -4.196  0.00  0.00    -0.002 A 
ATOM      8  C6  OXE d   1      -2.314   3.774  -3.354  0.00  0.00     0.003 A 
ENDROOT
TORSDOF 0
ENDMDL
