MODEL 1
REMARK minimizedAffinity 13.4676437
REMARK minimizedRMSD -1
REMARK  0 active torsions:
REMARK  status: ('A' for Active; 'I' for Inactive)
ROOT
ATOM      1  C2' OXE d   1      -0.185   2.439  -4.879  0.00  0.00     0.078 C 
ATOM      2  C1' OXE d   1      -2.866   2.601  -4.066  0.00  0.00     0.078 C 
ATOM      3  C1  OXE d   1      -1.911   3.648  -3.551  0.00  0.00    -0.078 A 
ATOM      4  C2  OXE d   1      -0.591   3.534  -3.917  0.00  0.00    -0.078 A 
ATOM      5  C3  OXE d   1       0.322   4.504  -3.514  0.00  0.00     0.003 A 
ATOM      6  C4  OXE d   1      -0.060   5.507  -2.615  0.00  0.00    -0.002 A 
ATOM      7  C5  OXE d   1      -1.390   5.618  -2.199  0.00  0.00    -0.002 A 
ATOM      8  C6  OXE d   1      -2.335   4.724  -2.690  0.00  0.00     0.003 A 
ENDROOT
TORSDOF 0
ENDMDL
