MODEL 1
REMARK minimizedAffinity -3.03072262
REMARK minimizedRMSD -1
REMARK  0 active torsions:
REMARK  status: ('A' for Active; 'I' for Inactive)
ROOT
ATOM      1  C1  DEN d   1       0.115   0.814  -0.117  0.00  0.00     0.130 A 
ATOM      2  C2  DEN d   1      -0.690  -0.054   0.739  0.00  0.00    -0.031 A 
ATOM      3  C3  DEN d   1      -0.239  -1.445   0.532  0.00  0.00     0.027 A 
ATOM      4  C4  DEN d   1       1.621  -2.333  -1.018  0.00  0.00     0.027 A 
ATOM      5  C5  DEN d   1       2.574  -1.977  -1.948  0.00  0.00    -0.003 A 
ATOM      6  C6  DEN d   1       2.748  -0.681  -2.354  0.00  0.00     0.001 A 
ATOM      7  C7  DEN d   1       1.990   0.314  -1.795  0.00  0.00     0.017 A 
ATOM      8  C8  DEN d   1       1.023  -0.039  -0.863  0.00  0.00    -0.094 A 
ATOM      9  C9  DEN d   1       0.869  -1.353  -0.457  0.00  0.00    -0.072 A 
ENDROOT
TORSDOF 0
ENDMDL
