MODEL 1
REMARK minimizedAffinity -1.52901947
REMARK minimizedRMSD -1
REMARK  0 active torsions:
REMARK  status: ('A' for Active; 'I' for Inactive)
ROOT
ATOM      1  C1  DEN d   1       0.902  -2.553  -0.439  0.00  0.00     0.130 A 
ATOM      2  C2  DEN d   1       2.070  -2.925  -1.233  0.00  0.00    -0.031 A 
ATOM      3  C3  DEN d   1       2.703  -1.684  -1.722  0.00  0.00     0.027 A 
ATOM      4  C4  DEN d   1       1.996   0.764  -1.327  0.00  0.00     0.027 A 
ATOM      5  C5  DEN d   1       1.062   1.580  -0.726  0.00  0.00    -0.003 A 
ATOM      6  C6  DEN d   1      -0.001   1.079  -0.023  0.00  0.00     0.001 A 
ATOM      7  C7  DEN d   1      -0.131  -0.275   0.137  0.00  0.00     0.017 A 
ATOM      8  C8  DEN d   1       0.802  -1.104  -0.472  0.00  0.00    -0.094 A 
ATOM      9  C9  DEN d   1       1.877  -0.578  -1.169  0.00  0.00    -0.072 A 
ENDROOT
TORSDOF 0
ENDMDL
