MODEL 1
REMARK minimizedAffinity -0.048699785
REMARK minimizedRMSD -1
REMARK  0 active torsions:
REMARK  status: ('A' for Active; 'I' for Inactive)
ROOT
ATOM      1  C1  DEN d   1       0.706   1.177  -0.300  0.00  0.00     0.130 A 
ATOM      2  C2  DEN d   1      -0.492   1.005   0.517  0.00  0.00    -0.031 A 
ATOM      3  C3  DEN d   1      -0.700  -0.442   0.724  0.00  0.00     0.027 A 
ATOM      4  C4  DEN d   1       0.711  -2.423  -0.134  0.00  0.00     0.027 A 
ATOM      5  C5  DEN d   1       1.816  -2.776  -0.877  0.00  0.00    -0.003 A 
ATOM      6  C6  DEN d   1       2.602  -1.845  -1.504  0.00  0.00     0.001 A 
ATOM      7  C7  DEN d   1       2.320  -0.512  -1.360  0.00  0.00     0.017 A 
ATOM      8  C8  DEN d   1       1.204  -0.149  -0.619  0.00  0.00    -0.094 A 
ATOM      9  C9  DEN d   1       0.429  -1.104   0.017  0.00  0.00    -0.072 A 
ENDROOT
TORSDOF 0
ENDMDL
