MODEL 1
REMARK minimizedAffinity -4.89030743
REMARK minimizedRMSD -1
REMARK  0 active torsions:
REMARK  status: ('A' for Active; 'I' for Inactive)
ROOT
ATOM      1  C1  DEN d   1      -2.820   0.377   0.686  0.00  0.00     0.130 A 
ATOM      2  C2  DEN d   1      -2.945   0.081   2.111  0.00  0.00    -0.031 A 
ATOM      3  C3  DEN d   1      -1.640   0.345   2.748  0.00  0.00     0.027 A 
ATOM      4  C4  DEN d   1       0.550   1.184   1.674  0.00  0.00     0.027 A 
ATOM      5  C5  DEN d   1       1.148   1.562   0.492  0.00  0.00    -0.003 A 
ATOM      6  C6  DEN d   1       0.480   1.539  -0.704  0.00  0.00     0.001 A 
ATOM      7  C7  DEN d   1      -0.840   1.172  -0.737  0.00  0.00     0.017 A 
ATOM      8  C8  DEN d   1      -1.447   0.783   0.449  0.00  0.00    -0.094 A 
ATOM      9  C9  DEN d   1      -0.758   0.825   1.650  0.00  0.00    -0.072 A 
ENDROOT
TORSDOF 0
ENDMDL
