MODEL 1
REMARK minimizedAffinity -3.52630734
REMARK minimizedRMSD -1
REMARK  0 active torsions:
REMARK  status: ('A' for Active; 'I' for Inactive)
ROOT
ATOM      1  C1  DEN d   1      -2.173   0.574   0.850  0.00  0.00     0.130 A 
ATOM      2  C2  DEN d   1      -1.853  -0.359   1.927  0.00  0.00    -0.031 A 
ATOM      3  C3  DEN d   1      -0.414  -0.676   1.845  0.00  0.00     0.027 A 
ATOM      4  C4  DEN d   1       1.344   0.184   0.165  0.00  0.00     0.027 A 
ATOM      5  C5  DEN d   1       1.545   0.984  -0.938  0.00  0.00    -0.003 A 
ATOM      6  C6  DEN d   1       0.523   1.670  -1.538  0.00  0.00     0.001 A 
ATOM      7  C7  DEN d   1      -0.739   1.606  -1.011  0.00  0.00     0.017 A 
ATOM      8  C8  DEN d   1      -0.951   0.796   0.097  0.00  0.00    -0.094 A 
ATOM      9  C9  DEN d   1       0.097   0.119   0.696  0.00  0.00    -0.072 A 
ENDROOT
TORSDOF 0
ENDMDL
