MODEL 1
REMARK minimizedAffinity -0.696199954
REMARK minimizedRMSD -1
REMARK  0 active torsions:
REMARK  status: ('A' for Active; 'I' for Inactive)
ROOT
ATOM      1  C1  DEN d   1      -0.837   0.011   1.853  0.00  0.00     0.130 A 
ATOM      2  C2  DEN d   1      -1.344   1.318   1.445  0.00  0.00    -0.031 A 
ATOM      3  C3  DEN d   1      -1.326   1.375  -0.030  0.00  0.00     0.027 A 
ATOM      4  C4  DEN d   1      -0.569  -0.426  -1.714  0.00  0.00     0.027 A 
ATOM      5  C5  DEN d   1      -0.049  -1.695  -1.843  0.00  0.00    -0.003 A 
ATOM      6  C6  DEN d   1       0.273  -2.465  -0.757  0.00  0.00     0.001 A 
ATOM      7  C7  DEN d   1       0.037  -1.991   0.506  0.00  0.00     0.017 A 
ATOM      8  C8  DEN d   1      -0.479  -0.709   0.644  0.00  0.00    -0.094 A 
ATOM      9  C9  DEN d   1      -0.810   0.050  -0.466  0.00  0.00    -0.072 A 
ENDROOT
TORSDOF 0
ENDMDL
