MODEL 1
REMARK minimizedAffinity -1.7318536
REMARK minimizedRMSD -1
REMARK  0 active torsions:
REMARK  status: ('A' for Active; 'I' for Inactive)
ROOT
ATOM      1  C1  DEN d   1       0.997  -2.612  -0.679  0.00  0.00     0.130 A 
ATOM      2  C2  DEN d   1       2.161  -3.004  -1.468  0.00  0.00    -0.031 A 
ATOM      3  C3  DEN d   1       2.825  -1.773  -1.943  0.00  0.00     0.027 A 
ATOM      4  C4  DEN d   1       2.170   0.687  -1.531  0.00  0.00     0.027 A 
ATOM      5  C5  DEN d   1       1.250   1.518  -0.930  0.00  0.00    -0.003 A 
ATOM      6  C6  DEN d   1       0.172   1.035  -0.237  0.00  0.00     0.001 A 
ATOM      7  C7  DEN d   1       0.011  -0.318  -0.090  0.00  0.00     0.017 A 
ATOM      8  C8  DEN d   1       0.929  -1.162  -0.700  0.00  0.00    -0.094 A 
ATOM      9  C9  DEN d   1       2.019  -0.654  -1.385  0.00  0.00    -0.072 A 
ENDROOT
TORSDOF 0
ENDMDL
