MODEL 1
REMARK minimizedAffinity -5.75591135
REMARK minimizedRMSD -1
REMARK  0 active torsions:
REMARK  status: ('A' for Active; 'I' for Inactive)
ROOT
ATOM      1  C1  DEN d   1       2.475  -1.836  -2.021  0.00  0.00     0.130 A 
ATOM      2  C2  DEN d   1       2.169  -3.061  -1.288  0.00  0.00    -0.031 A 
ATOM      3  C3  DEN d   1       1.257  -2.715  -0.180  0.00  0.00     0.027 A 
ATOM      4  C4  DEN d   1       0.292  -0.412   0.467  0.00  0.00     0.027 A 
ATOM      5  C5  DEN d   1       0.275   0.928   0.149  0.00  0.00    -0.003 A 
ATOM      6  C6  DEN d   1       1.011   1.442  -0.886  0.00  0.00     0.001 A 
ATOM      7  C7  DEN d   1       1.760   0.603  -1.668  0.00  0.00     0.017 A 
ATOM      8  C8  DEN d   1       1.788  -0.748  -1.348  0.00  0.00    -0.094 A 
ATOM      9  C9  DEN d   1       1.028  -1.250  -0.306  0.00  0.00    -0.072 A 
ENDROOT
TORSDOF 0
ENDMDL
