MODEL 1
REMARK minimizedAffinity -0.658530176
REMARK minimizedRMSD -1
REMARK  0 active torsions:
REMARK  status: ('A' for Active; 'I' for Inactive)
ROOT
ATOM      1  C1  DEN d   1       1.934  -1.233  -0.864  0.00  0.00     0.130 A 
ATOM      2  C2  DEN d   1       2.650  -0.226  -1.642  0.00  0.00    -0.031 A 
ATOM      3  C3  DEN d   1       1.952   1.064  -1.472  0.00  0.00     0.027 A 
ATOM      4  C4  DEN d   1      -0.153   1.598  -0.081  0.00  0.00     0.027 A 
ATOM      5  C5  DEN d   1      -1.120   1.065   0.743  0.00  0.00    -0.003 A 
ATOM      6  C6  DEN d   1      -1.156  -0.268   1.058  0.00  0.00     0.001 A 
ATOM      7  C7  DEN d   1      -0.181  -1.104   0.584  0.00  0.00     0.017 A 
ATOM      8  C8  DEN d   1       0.793  -0.575  -0.253  0.00  0.00    -0.094 A 
ATOM      9  C9  DEN d   1       0.819   0.777  -0.551  0.00  0.00    -0.072 A 
ENDROOT
TORSDOF 0
ENDMDL
