MODEL 1
REMARK minimizedAffinity -1.43053865
REMARK minimizedRMSD -1
REMARK  0 active torsions:
REMARK  status: ('A' for Active; 'I' for Inactive)
ROOT
ATOM      1  C1  DEN d   1      -0.158   0.793   0.097  0.00  0.00     0.130 A 
ATOM      2  C2  DEN d   1      -0.867  -0.286   0.782  0.00  0.00    -0.031 A 
ATOM      3  C3  DEN d   1      -0.228  -1.563   0.405  0.00  0.00     0.027 A 
ATOM      4  C4  DEN d   1       1.781  -1.973  -1.159  0.00  0.00     0.027 A 
ATOM      5  C5  DEN d   1       2.706  -1.367  -1.981  0.00  0.00    -0.003 A 
ATOM      6  C6  DEN d   1       2.719  -0.014  -2.192  0.00  0.00     0.001 A 
ATOM      7  C7  DEN d   1       1.818   0.784  -1.539  0.00  0.00     0.017 A 
ATOM      8  C8  DEN d   1       0.878   0.180  -0.715  0.00  0.00    -0.094 A 
ATOM      9  C9  DEN d   1       0.888  -1.188  -0.504  0.00  0.00    -0.072 A 
ENDROOT
TORSDOF 0
ENDMDL
