MODEL 1
REMARK minimizedAffinity -1.1525203
REMARK minimizedRMSD -1
REMARK  0 active torsions:
REMARK  status: ('A' for Active; 'I' for Inactive)
ROOT
ATOM      1  C1  DEN d   1      -3.694   0.910   0.618  0.00  0.00     0.130 A 
ATOM      2  C2  DEN d   1      -3.988   0.463   1.977  0.00  0.00    -0.031 A 
ATOM      3  C3  DEN d   1      -2.729  -0.015   2.583  0.00  0.00     0.027 A 
ATOM      4  C4  DEN d   1      -0.365  -0.102   1.555  0.00  0.00     0.027 A 
ATOM      5  C5  DEN d   1       0.378   0.158   0.425  0.00  0.00    -0.003 A 
ATOM      6  C6  DEN d   1      -0.185   0.651  -0.722  0.00  0.00     0.001 A 
ATOM      7  C7  DEN d   1      -1.524   0.942  -0.750  0.00  0.00     0.017 A 
ATOM      8  C8  DEN d   1      -2.281   0.676   0.383  0.00  0.00    -0.094 A 
ATOM      9  C9  DEN d   1      -1.690   0.189   1.537  0.00  0.00    -0.072 A 
ENDROOT
TORSDOF 0
ENDMDL
