MODEL 1
REMARK minimizedAffinity -0.670445323
REMARK minimizedRMSD -1
REMARK  0 active torsions:
REMARK  status: ('A' for Active; 'I' for Inactive)
ROOT
ATOM      1  C1  DEN d   1       1.509   1.826  -1.047  0.00  0.00     0.130 A 
ATOM      2  C2  DEN d   1       2.467   1.313  -2.023  0.00  0.00    -0.031 A 
ATOM      3  C3  DEN d   1       2.326  -0.156  -2.072  0.00  0.00     0.027 A 
ATOM      4  C4  DEN d   1       0.723  -1.678  -0.743  0.00  0.00     0.027 A 
ATOM      5  C5  DEN d   1      -0.269  -1.701   0.212  0.00  0.00    -0.003 A 
ATOM      6  C6  DEN d   1      -0.711  -0.563   0.834  0.00  0.00     0.001 A 
ATOM      7  C7  DEN d   1      -0.190   0.652   0.475  0.00  0.00     0.017 A 
ATOM      8  C8  DEN d   1       0.815   0.683  -0.482  0.00  0.00    -0.094 A 
ATOM      9  C9  DEN d   1       1.239  -0.477  -1.108  0.00  0.00    -0.072 A 
ENDROOT
TORSDOF 0
ENDMDL
