MODEL 1
REMARK minimizedAffinity -4.25270081
REMARK minimizedRMSD -1
REMARK  0 active torsions:
REMARK  status: ('A' for Active; 'I' for Inactive)
ROOT
ATOM      1  C1  DEN d   1      -0.615   1.920  -1.462  0.00  0.00     0.130 A 
ATOM      2  C2  DEN d   1       0.720   1.337  -1.567  0.00  0.00    -0.031 A 
ATOM      3  C3  DEN d   1       0.866   0.333  -0.494  0.00  0.00     0.027 A 
ATOM      4  C4  DEN d   1      -0.839  -0.375   1.308  0.00  0.00     0.027 A 
ATOM      5  C5  DEN d   1      -2.104  -0.152   1.805  0.00  0.00    -0.003 A 
ATOM      6  C6  DEN d   1      -2.941   0.793   1.275  0.00  0.00     0.001 A 
ATOM      7  C7  DEN d   1      -2.541   1.520   0.185  0.00  0.00     0.017 A 
ATOM      8  C8  DEN d   1      -1.264   1.306  -0.318  0.00  0.00    -0.094 A 
ATOM      9  C9  DEN d   1      -0.437   0.338   0.225  0.00  0.00    -0.072 A 
ENDROOT
TORSDOF 0
ENDMDL
