MODEL 1
REMARK minimizedAffinity -2.2322917
REMARK minimizedRMSD -1
REMARK  0 active torsions:
REMARK  status: ('A' for Active; 'I' for Inactive)
ROOT
ATOM      1  C4' PXY d   1      -5.254   2.255  -4.501  0.00  0.00     0.077 C 
ATOM      2  C1' PXY d   1      -4.274   1.337   1.121  0.00  0.00     0.077 C 
ATOM      3  C1  PXY d   1      -4.519   1.583  -0.355  0.00  0.00    -0.082 A 
ATOM      4  C2  PXY d   1      -5.758   1.721  -0.798  0.00  0.00     0.003 A 
ATOM      5  C3  PXY d   1      -5.999   1.911  -2.134  0.00  0.00     0.003 A 
ATOM      6  C4  PXY d   1      -4.959   2.015  -3.018  0.00  0.00    -0.082 A 
ATOM      7  C5  PXY d   1      -3.691   1.886  -2.572  0.00  0.00     0.003 A 
ATOM      8  C6  PXY d   1      -3.470   1.652  -1.218  0.00  0.00     0.003 A 
ENDROOT
TORSDOF 0
ENDMDL
