MODEL 1
REMARK minimizedAffinity 4.13876724
REMARK minimizedRMSD -1
REMARK  0 active torsions:
REMARK  status: ('A' for Active; 'I' for Inactive)
ROOT
ATOM      1  C4' PXY d   1       2.276  -5.924  -5.868  0.00  0.00     0.077 C 
ATOM      2  C1' PXY d   1       2.611  -5.998  -0.098  0.00  0.00     0.077 C 
ATOM      3  C1  PXY d   1       2.535  -5.974  -1.612  0.00  0.00    -0.082 A 
ATOM      4  C2  PXY d   1       1.354  -5.938  -2.207  0.00  0.00     0.003 A 
ATOM      5  C3  PXY d   1       1.267  -5.947  -3.576  0.00  0.00     0.003 A 
ATOM      6  C4  PXY d   1       2.401  -5.940  -4.342  0.00  0.00    -0.082 A 
ATOM      7  C5  PXY d   1       3.610  -5.966  -3.742  0.00  0.00     0.003 A 
ATOM      8  C6  PXY d   1       3.676  -5.997  -2.352  0.00  0.00     0.003 A 
ENDROOT
TORSDOF 0
ENDMDL
