MODEL 1
REMARK minimizedAffinity 2.45357323
REMARK minimizedRMSD -1
REMARK  0 active torsions:
REMARK  status: ('A' for Active; 'I' for Inactive)
ROOT
ATOM      1  C4' PXY d   1       5.682  -5.996  -5.786  0.00  0.00     0.077 C 
ATOM      2  C1' PXY d   1       3.419  -5.984  -0.467  0.00  0.00     0.077 C 
ATOM      3  C1  PXY d   1       4.002  -5.992  -1.866  0.00  0.00    -0.082 A 
ATOM      4  C2  PXY d   1       5.315  -5.999  -2.028  0.00  0.00     0.003 A 
ATOM      5  C3  PXY d   1       5.859  -5.975  -3.287  0.00  0.00     0.003 A 
ATOM      6  C4  PXY d   1       5.050  -5.997  -4.391  0.00  0.00    -0.082 A 
ATOM      7  C5  PXY d   1       3.709  -6.000  -4.234  0.00  0.00     0.003 A 
ATOM      8  C6  PXY d   1       3.177  -5.983  -2.948  0.00  0.00     0.003 A 
ENDROOT
TORSDOF 0
ENDMDL
