MODEL 1
REMARK minimizedAffinity 3.84105968
REMARK minimizedRMSD -1
REMARK  0 active torsions:
REMARK  status: ('A' for Active; 'I' for Inactive)
ROOT
ATOM      1  C4' PXY d   1       4.254  -3.018   4.121  0.00  0.00     0.077 C 
ATOM      2  C1' PXY d   1      -0.522  -5.999   5.434  0.00  0.00     0.077 C 
ATOM      3  C1  PXY d   1       0.727  -5.217   5.077  0.00  0.00    -0.082 A 
ATOM      4  C2  PXY d   1       1.794  -5.297   5.856  0.00  0.00     0.003 A 
ATOM      5  C3  PXY d   1       2.920  -4.572   5.566  0.00  0.00     0.003 A 
ATOM      6  C4  PXY d   1       2.974  -3.797   4.438  0.00  0.00    -0.082 A 
ATOM      7  C5  PXY d   1       1.894  -3.719   3.632  0.00  0.00     0.003 A 
ATOM      8  C6  PXY d   1       0.745  -4.431   3.967  0.00  0.00     0.003 A 
ENDROOT
TORSDOF 0
ENDMDL
