MODEL 1
REMARK minimizedAffinity 9.03339958
REMARK minimizedRMSD -1
REMARK  0 active torsions:
REMARK  status: ('A' for Active; 'I' for Inactive)
ROOT
ATOM      1  C4' PXY d   1      -2.798  -0.911  -4.026  0.00  0.00     0.077 C 
ATOM      2  C1' PXY d   1      -1.984   2.628   0.472  0.00  0.00     0.077 C 
ATOM      3  C1  PXY d   1      -2.209   1.705  -0.710  0.00  0.00    -0.082 A 
ATOM      4  C2  PXY d   1      -1.516   0.582  -0.804  0.00  0.00     0.003 A 
ATOM      5  C3  PXY d   1      -1.684  -0.249  -1.882  0.00  0.00     0.003 A 
ATOM      6  C4  PXY d   1      -2.610   0.047  -2.846  0.00  0.00    -0.082 A 
ATOM      7  C5  PXY d   1      -3.329   1.186  -2.752  0.00  0.00     0.003 A 
ATOM      8  C6  PXY d   1      -3.114   2.036  -1.671  0.00  0.00     0.003 A 
ENDROOT
TORSDOF 0
ENDMDL
