MODEL 1
REMARK minimizedAffinity 7.34385586
REMARK minimizedRMSD -1
REMARK  0 active torsions:
REMARK  status: ('A' for Active; 'I' for Inactive)
ROOT
ATOM      1  C4' PXY d   1       0.789  -5.249   5.479  0.00  0.00     0.077 C 
ATOM      2  C1' PXY d   1       2.410  -0.819   2.138  0.00  0.00     0.077 C 
ATOM      3  C1  PXY d   1       1.988  -1.989   3.004  0.00  0.00    -0.082 A 
ATOM      4  C2  PXY d   1       1.115  -1.799   3.980  0.00  0.00     0.003 A 
ATOM      5  C3  PXY d   1       0.746  -2.840   4.794  0.00  0.00     0.003 A 
ATOM      6  C4  PXY d   1       1.236  -4.099   4.573  0.00  0.00    -0.082 A 
ATOM      7  C5  PXY d   1       2.119  -4.303   3.573  0.00  0.00     0.003 A 
ATOM      8  C6  PXY d   1       2.512  -3.226   2.784  0.00  0.00     0.003 A 
ENDROOT
TORSDOF 0
ENDMDL
