MODEL 1
REMARK minimizedAffinity 4.7266655
REMARK minimizedRMSD -1
REMARK  0 active torsions:
REMARK  status: ('A' for Active; 'I' for Inactive)
ROOT
ATOM      1  C4' PXY d   1       2.926  -4.735   5.195  0.00  0.00     0.077 C 
ATOM      2  C1' PXY d   1       2.097  -0.374   1.492  0.00  0.00     0.077 C 
ATOM      3  C1  PXY d   1       2.327  -1.514   2.464  0.00  0.00    -0.082 A 
ATOM      4  C2  PXY d   1       1.527  -2.568   2.438  0.00  0.00     0.003 A 
ATOM      5  C3  PXY d   1       1.701  -3.593   3.331  0.00  0.00     0.003 A 
ATOM      6  C4  PXY d   1       2.737  -3.565   4.225  0.00  0.00    -0.082 A 
ATOM      7  C5  PXY d   1       3.564  -2.498   4.252  0.00  0.00     0.003 A 
ATOM      8  C6  PXY d   1       3.346  -1.448   3.364  0.00  0.00     0.003 A 
ENDROOT
TORSDOF 0
ENDMDL
