MODEL 1
REMARK minimizedAffinity 3.93739533
REMARK minimizedRMSD -1
REMARK  0 active torsions:
REMARK  status: ('A' for Active; 'I' for Inactive)
ROOT
ATOM      1  C4' PXY d   1       2.137  -5.635   5.399  0.00  0.00     0.077 C 
ATOM      2  C1' PXY d   1       1.719  -0.675   2.458  0.00  0.00     0.077 C 
ATOM      3  C1  PXY d   1       1.817  -1.979   3.225  0.00  0.00    -0.082 A 
ATOM      4  C2  PXY d   1       2.642  -2.072   4.256  0.00  0.00     0.003 A 
ATOM      5  C3  PXY d   1       2.766  -3.253   4.941  0.00  0.00     0.003 A 
ATOM      6  C4  PXY d   1       1.999  -4.335   4.601  0.00  0.00    -0.082 A 
ATOM      7  C5  PXY d   1       1.147  -4.245   3.558  0.00  0.00     0.003 A 
ATOM      8  C6  PXY d   1       1.066  -3.050   2.850  0.00  0.00     0.003 A 
ENDROOT
TORSDOF 0
ENDMDL
