MODEL 1
REMARK minimizedAffinity 5.2563386
REMARK minimizedRMSD -1
REMARK  0 active torsions:
REMARK  status: ('A' for Active; 'I' for Inactive)
ROOT
ATOM      1  C4' PXY d   1       5.993  -2.340   4.361  0.00  0.00     0.077 C 
ATOM      2  C1' PXY d   1       0.391  -3.355   3.361  0.00  0.00     0.077 C 
ATOM      3  C1  PXY d   1       1.859  -3.094   3.635  0.00  0.00    -0.082 A 
ATOM      4  C2  PXY d   1       2.481  -2.119   2.993  0.00  0.00     0.003 A 
ATOM      5  C3  PXY d   1       3.816  -1.890   3.205  0.00  0.00     0.003 A 
ATOM      6  C4  PXY d   1       4.509  -2.633   4.123  0.00  0.00    -0.082 A 
ATOM      7  C5  PXY d   1       3.879  -3.623   4.790  0.00  0.00     0.003 A 
ATOM      8  C6  PXY d   1       2.533  -3.866   4.530  0.00  0.00     0.003 A 
ENDROOT
TORSDOF 0
ENDMDL
