MODEL 1
REMARK minimizedAffinity 7.6005578
REMARK minimizedRMSD -1
REMARK  0 active torsions:
REMARK  status: ('A' for Active; 'I' for Inactive)
ROOT
ATOM      1  C4' PXY d   1      -5.425   0.384   1.858  0.00  0.00     0.077 C 
ATOM      2  C1' PXY d   1      -5.965   5.632  -0.503  0.00  0.00     0.077 C 
ATOM      3  C1  PXY d   1      -5.815   4.261   0.126  0.00  0.00    -0.082 A 
ATOM      4  C2  PXY d   1      -5.997   3.179  -0.614  0.00  0.00     0.003 A 
ATOM      5  C3  PXY d   1      -5.897   1.931  -0.055  0.00  0.00     0.003 A 
ATOM      6  C4  PXY d   1      -5.556   1.788   1.264  0.00  0.00    -0.082 A 
ATOM      7  C5  PXY d   1      -5.359   2.887   2.023  0.00  0.00     0.003 A 
ATOM      8  C6  PXY d   1      -5.505   4.145   1.445  0.00  0.00     0.003 A 
ENDROOT
TORSDOF 0
ENDMDL
