MODEL 1
REMARK minimizedAffinity 6.8767066
REMARK minimizedRMSD -1
REMARK  0 active torsions:
REMARK  status: ('A' for Active; 'I' for Inactive)
ROOT
ATOM      1  C4' PXY d   1       2.141  -1.027   2.355  0.00  0.00     0.077 C 
ATOM      2  C1' PXY d   1       2.850   3.729  -0.853  0.00  0.00     0.077 C 
ATOM      3  C1  PXY d   1       2.668   2.474  -0.021  0.00  0.00    -0.082 A 
ATOM      4  C2  PXY d   1       1.848   2.491   1.017  0.00  0.00     0.003 A 
ATOM      5  C3  PXY d   1       1.695   1.375   1.798  0.00  0.00     0.003 A 
ATOM      6  C4  PXY d   1       2.349   0.214   1.482  0.00  0.00    -0.082 A 
ATOM      7  C5  PXY d   1       3.179   0.185   0.418  0.00  0.00     0.003 A 
ATOM      8  C6  PXY d   1       3.351   1.341  -0.338  0.00  0.00     0.003 A 
ENDROOT
TORSDOF 0
ENDMDL
