MODEL 1
REMARK minimizedAffinity 5.69761753
REMARK minimizedRMSD -1
REMARK  0 active torsions:
REMARK  status: ('A' for Active; 'I' for Inactive)
ROOT
ATOM      1  C4' PXY d   1      -3.801   1.982   1.246  0.00  0.00     0.077 C 
ATOM      2  C1' PXY d   1      -5.501   1.973  -4.278  0.00  0.00     0.077 C 
ATOM      3  C1  PXY d   1      -5.067   1.981  -2.826  0.00  0.00    -0.082 A 
ATOM      4  C2  PXY d   1      -3.777   1.979  -2.529  0.00  0.00     0.003 A 
ATOM      5  C3  PXY d   1      -3.367   1.954  -1.221  0.00  0.00     0.003 A 
ATOM      6  C4  PXY d   1      -4.286   1.984  -0.206  0.00  0.00    -0.082 A 
ATOM      7  C5  PXY d   1      -5.603   1.997  -0.501  0.00  0.00     0.003 A 
ATOM      8  C6  PXY d   1      -5.999   1.981  -1.835  0.00  0.00     0.003 A 
ENDROOT
TORSDOF 0
ENDMDL
