MODEL 1
REMARK minimizedAffinity 9.8750391
REMARK minimizedRMSD -1
REMARK  0 active torsions:
REMARK  status: ('A' for Active; 'I' for Inactive)
ROOT
ATOM      1  C   UNL d   1      -3.182  -0.004   1.867  0.00  0.00     0.023 A 
ATOM      2  C1  UNL d   1      -3.790   1.016   1.135  0.00  0.00     0.003 A 
ATOM      3  C2  UNL d   1      -4.599   0.704   0.040  0.00  0.00     0.048 A 
ATOM      4  C3  UNL d   1      -4.796  -0.630  -0.317  0.00  0.00     0.023 A 
ATOM      5  C4  UNL d   1      -4.191  -1.653   0.414  0.00  0.00     0.048 A 
ATOM      6  C5  UNL d   1      -3.382  -1.337   1.507  0.00  0.00     0.003 A 
ATOM      7  I   UNL d   1      -6.000  -1.096  -1.946  0.00  0.00    -0.146 I 
ENDROOT
TORSDOF 0
ENDMDL
