MODEL 1
REMARK minimizedAffinity 13.1939297
REMARK minimizedRMSD -1
REMARK  0 active torsions:
REMARK  status: ('A' for Active; 'I' for Inactive)
ROOT
ATOM      1  C   UNL d   1      -4.271   0.755   0.558  0.00  0.00     0.023 A 
ATOM      2  C1  UNL d   1      -4.934  -0.389   0.113  0.00  0.00     0.003 A 
ATOM      3  C2  UNL d   1      -4.386  -1.651   0.350  0.00  0.00     0.048 A 
ATOM      4  C3  UNL d   1      -3.175  -1.763   1.032  0.00  0.00     0.023 A 
ATOM      5  C4  UNL d   1      -2.509  -0.621   1.480  0.00  0.00     0.048 A 
ATOM      6  C5  UNL d   1      -3.060   0.639   1.240  0.00  0.00     0.003 A 
ATOM      7  I   UNL d   1      -2.358  -3.640   1.386  0.00  0.00    -0.146 I 
ENDROOT
TORSDOF 0
ENDMDL
