MODEL 1
REMARK minimizedAffinity 4.84817076
REMARK minimizedRMSD -1
REMARK  0 active torsions:
REMARK  status: ('A' for Active; 'I' for Inactive)
ROOT
ATOM      1  C   UNL d   1      -4.389  -0.470  -1.190  0.00  0.00     0.023 A 
ATOM      2  C1  UNL d   1      -3.850  -0.952   0.003  0.00  0.00     0.003 A 
ATOM      3  C2  UNL d   1      -2.465  -0.984   0.183  0.00  0.00     0.048 A 
ATOM      4  C3  UNL d   1      -1.626  -0.531  -0.835  0.00  0.00     0.023 A 
ATOM      5  C4  UNL d   1      -2.161  -0.048  -2.030  0.00  0.00     0.048 A 
ATOM      6  C5  UNL d   1      -3.546  -0.018  -2.205  0.00  0.00     0.003 A 
ATOM      7  I   UNL d   1       0.435  -0.578  -0.570  0.00  0.00    -0.146 I 
ENDROOT
TORSDOF 0
ENDMDL
