MODEL 1
REMARK minimizedAffinity 0.698384464
REMARK minimizedRMSD -1
REMARK  0 active torsions:
REMARK  status: ('A' for Active; 'I' for Inactive)
ROOT
ATOM      1  C   UNL d   1      -1.255  -3.227   5.890  0.00  0.00     0.023 A 
ATOM      2  C1  UNL d   1       0.006  -2.632   5.937  0.00  0.00     0.003 A 
ATOM      3  C2  UNL d   1       1.154  -3.426   5.969  0.00  0.00     0.048 A 
ATOM      4  C3  UNL d   1       1.034  -4.815   5.952  0.00  0.00     0.023 A 
ATOM      5  C4  UNL d   1      -0.225  -5.415   5.904  0.00  0.00     0.048 A 
ATOM      6  C5  UNL d   1      -1.370  -4.617   5.873  0.00  0.00     0.003 A 
ATOM      7  I   UNL d   1       2.741  -5.999   6.000  0.00  0.00    -0.146 I 
ENDROOT
TORSDOF 0
ENDMDL
