MODEL 1
REMARK minimizedAffinity 2.32151794
REMARK minimizedRMSD -1
REMARK  0 active torsions:
REMARK  status: ('A' for Active; 'I' for Inactive)
ROOT
ATOM      1  C   UNL d   1      -1.084  -4.907   5.990  0.00  0.00     0.023 A 
ATOM      2  C1  UNL d   1      -1.764  -3.689   5.993  0.00  0.00     0.003 A 
ATOM      3  C2  UNL d   1      -1.049  -2.490   5.996  0.00  0.00     0.048 A 
ATOM      4  C3  UNL d   1       0.346  -2.516   5.994  0.00  0.00     0.023 A 
ATOM      5  C4  UNL d   1       1.030  -3.732   5.989  0.00  0.00     0.048 A 
ATOM      6  C5  UNL d   1       0.310  -4.929   5.988  0.00  0.00     0.003 A 
ATOM      7  I   UNL d   1       1.412  -0.732   5.997  0.00  0.00    -0.146 I 
ENDROOT
TORSDOF 0
ENDMDL
