MODEL 1
REMARK minimizedAffinity -4.03633499
REMARK minimizedRMSD -1
REMARK  0 active torsions:
REMARK  status: ('A' for Active; 'I' for Inactive)
ROOT
ATOM      1  C   UNL d   1      -1.178  -4.844  -0.168  0.00  0.00     0.023 A 
ATOM      2  C1  UNL d   1      -1.411  -3.662   0.535  0.00  0.00     0.003 A 
ATOM      3  C2  UNL d   1      -1.269  -3.634   1.924  0.00  0.00     0.048 A 
ATOM      4  C3  UNL d   1      -0.892  -4.792   2.603  0.00  0.00     0.023 A 
ATOM      5  C4  UNL d   1      -0.657  -5.977   1.904  0.00  0.00     0.048 A 
ATOM      6  C5  UNL d   1      -0.801  -6.000   0.515  0.00  0.00     0.003 A 
ATOM      7  I   UNL d   1      -0.679  -4.754   4.670  0.00  0.00    -0.146 I 
ENDROOT
TORSDOF 0
ENDMDL
