MODEL 1
REMARK minimizedAffinity 1.36105204
REMARK minimizedRMSD -1
REMARK  0 active torsions:
REMARK  status: ('A' for Active; 'I' for Inactive)
ROOT
ATOM      1  C   UNL d   1      -4.146   2.584   2.261  0.00  0.00     0.023 A 
ATOM      2  C1  UNL d   1      -3.367   1.971   1.280  0.00  0.00     0.003 A 
ATOM      3  C2  UNL d   1      -3.897   0.930   0.514  0.00  0.00     0.048 A 
ATOM      4  C3  UNL d   1      -5.208   0.508   0.735  0.00  0.00     0.023 A 
ATOM      5  C4  UNL d   1      -5.991   1.119   1.716  0.00  0.00     0.048 A 
ATOM      6  C5  UNL d   1      -5.457   2.158   2.479  0.00  0.00     0.003 A 
ATOM      7  I   UNL d   1      -5.999  -1.040  -0.403  0.00  0.00    -0.146 I 
ENDROOT
TORSDOF 0
ENDMDL
