MODEL 1
REMARK minimizedAffinity 0.41178754
REMARK minimizedRMSD -1
REMARK  0 active torsions:
REMARK  status: ('A' for Active; 'I' for Inactive)
ROOT
ATOM      1  C   UNL d   1       0.033  -5.387   5.992  0.00  0.00     0.023 A 
ATOM      2  C1  UNL d   1       1.358  -4.952   5.994  0.00  0.00     0.003 A 
ATOM      3  C2  UNL d   1       1.646  -3.586   5.996  0.00  0.00     0.048 A 
ATOM      4  C3  UNL d   1       0.604  -2.659   5.997  0.00  0.00     0.023 A 
ATOM      5  C4  UNL d   1      -0.724  -3.090   5.995  0.00  0.00     0.048 A 
ATOM      6  C5  UNL d   1      -1.007  -4.457   5.992  0.00  0.00     0.003 A 
ATOM      7  I   UNL d   1       1.030  -0.625   6.000  0.00  0.00    -0.146 I 
ENDROOT
TORSDOF 0
ENDMDL
