MODEL 1
REMARK minimizedAffinity -3.53504419
REMARK minimizedRMSD -1
REMARK  1 active torsions:
REMARK  status: ('A' for Active; 'I' for Inactive)
REMARK    1  A    between atoms: C3_4  and  O_7 
ROOT
ATOM      1  C   UNL d   1       0.937   1.178  -4.263  0.00  0.00    -0.033 A 
ATOM      2  C1  UNL d   1      -0.383   0.747  -4.120  0.00  0.00     0.039 A 
ATOM      3  C2  UNL d   1      -0.729  -0.117  -3.080  0.00  0.00    -0.080 A 
ATOM      4  C3  UNL d   1       0.253  -0.542  -2.190  0.00  0.00     0.150 A 
ATOM      5  C4  UNL d   1       1.569  -0.115  -2.323  0.00  0.00    -0.007 A 
ATOM      6  C5  UNL d   1       1.913   0.748  -3.363  0.00  0.00     0.039 A 
ENDROOT
BRANCH   4   7
ATOM      7  O   UNL d   1      -0.036  -1.390  -1.161  0.00  0.00    -0.526 OA
ATOM      8  H5  UNL d   1      -0.978  -1.624  -1.211  0.00  0.00     0.418 HD
ENDBRANCH   4   7
TORSDOF 1
ENDMDL
