MODEL 1
REMARK minimizedAffinity -4.36924219
REMARK minimizedRMSD -1
REMARK  1 active torsions:
REMARK  status: ('A' for Active; 'I' for Inactive)
REMARK    1  A    between atoms: C3_4  and  O_7 
ROOT
ATOM      1  C   UNL d   1       0.813   1.707   0.556  0.00  0.00    -0.033 A 
ATOM      2  C1  UNL d   1       0.278   2.169   1.759  0.00  0.00     0.039 A 
ATOM      3  C2  UNL d   1      -0.796   1.502   2.350  0.00  0.00    -0.080 A 
ATOM      4  C3  UNL d   1      -1.325   0.374   1.728  0.00  0.00     0.150 A 
ATOM      5  C4  UNL d   1      -0.794  -0.095   0.531  0.00  0.00    -0.007 A 
ATOM      6  C5  UNL d   1       0.278   0.574  -0.058  0.00  0.00     0.039 A 
ENDROOT
BRANCH   4   7
ATOM      7  O   UNL d   1      -2.376  -0.308   2.264  0.00  0.00    -0.526 OA
ATOM      8  H5  UNL d   1      -2.657   0.147   3.076  0.00  0.00     0.418 HD
ENDBRANCH   4   7
TORSDOF 1
ENDMDL
