MODEL 1
REMARK minimizedAffinity -4.7923522
REMARK minimizedRMSD -1
REMARK  1 active torsions:
REMARK  status: ('A' for Active; 'I' for Inactive)
REMARK    1  A    between atoms: C3_4  and  O_7 
ROOT
ATOM      1  C   UNL d   1       1.151  -0.369   0.617  0.00  0.00    -0.033 A 
ATOM      2  C1  UNL d   1      -0.165  -0.031   0.297  0.00  0.00     0.039 A 
ATOM      3  C2  UNL d   1      -0.926   0.735   1.182  0.00  0.00    -0.080 A 
ATOM      4  C3  UNL d   1      -0.359   1.157   2.382  0.00  0.00     0.150 A 
ATOM      5  C4  UNL d   1       0.953   0.828   2.705  0.00  0.00    -0.007 A 
ATOM      6  C5  UNL d   1       1.711   0.062   1.820  0.00  0.00     0.039 A 
ENDROOT
BRANCH   4   7
ATOM      7  O   UNL d   1      -1.064   1.903   3.279  0.00  0.00    -0.526 OA
ATOM      8  H5  UNL d   1      -1.964   2.029   2.935  0.00  0.00     0.418 HD
ENDBRANCH   4   7
TORSDOF 1
ENDMDL
