MODEL 1
REMARK minimizedAffinity -3.19313145
REMARK minimizedRMSD -1
REMARK  1 active torsions:
REMARK  status: ('A' for Active; 'I' for Inactive)
REMARK    1  A    between atoms: C3_4  and  O_7 
ROOT
ATOM      1  C   UNL d   1       1.044  -0.336   0.033  0.00  0.00    -0.033 A 
ATOM      2  C1  UNL d   1      -0.110   0.365  -0.320  0.00  0.00     0.039 A 
ATOM      3  C2  UNL d   1      -0.759   1.165   0.623  0.00  0.00    -0.080 A 
ATOM      4  C3  UNL d   1      -0.243   1.255   1.913  0.00  0.00     0.150 A 
ATOM      5  C4  UNL d   1       0.909   0.563   2.270  0.00  0.00    -0.007 A 
ATOM      6  C5  UNL d   1       1.555  -0.236   1.327  0.00  0.00     0.039 A 
ENDROOT
BRANCH   4   7
ATOM      7  O   UNL d   1      -0.844   2.019   2.868  0.00  0.00    -0.526 OA
ATOM      8  H5  UNL d   1      -1.645   2.416   2.487  0.00  0.00     0.418 HD
ENDBRANCH   4   7
TORSDOF 1
ENDMDL
