MODEL 1
REMARK minimizedAffinity -4.01059294
REMARK minimizedRMSD -1
REMARK  1 active torsions:
REMARK  status: ('A' for Active; 'I' for Inactive)
REMARK    1  A    between atoms: C3_4  and  O_7 
ROOT
ATOM      1  C   UNL d   1       0.694  -0.572   0.018  0.00  0.00    -0.033 A 
ATOM      2  C1  UNL d   1      -0.644  -0.183  -0.072  0.00  0.00     0.039 A 
ATOM      3  C2  UNL d   1      -1.239   0.522   0.976  0.00  0.00    -0.080 A 
ATOM      4  C3  UNL d   1      -0.487   0.832   2.105  0.00  0.00     0.150 A 
ATOM      5  C4  UNL d   1       0.848   0.451   2.200  0.00  0.00    -0.007 A 
ATOM      6  C5  UNL d   1       1.440  -0.254   1.153  0.00  0.00     0.039 A 
ENDROOT
BRANCH   4   7
ATOM      7  O   UNL d   1      -1.026   1.515   3.155  0.00  0.00    -0.526 OA
ATOM      8  H5  UNL d   1      -1.963   1.687   2.962  0.00  0.00     0.418 HD
ENDBRANCH   4   7
TORSDOF 1
ENDMDL
