MODEL 1
REMARK minimizedAffinity -3.3273356
REMARK minimizedRMSD -1
REMARK  1 active torsions:
REMARK  status: ('A' for Active; 'I' for Inactive)
REMARK    1  A    between atoms: C3_4  and  O_7 
ROOT
ATOM      1  C   UNL d   1       0.665  -0.126   0.176  0.00  0.00    -0.033 A 
ATOM      2  C1  UNL d   1      -0.722  -0.250   0.281  0.00  0.00     0.039 A 
ATOM      3  C2  UNL d   1      -1.398   0.340   1.350  0.00  0.00    -0.080 A 
ATOM      4  C3  UNL d   1      -0.678   1.050   2.306  0.00  0.00     0.150 A 
ATOM      5  C4  UNL d   1       0.703   1.181   2.206  0.00  0.00    -0.007 A 
ATOM      6  C5  UNL d   1       1.377   0.590   1.138  0.00  0.00     0.039 A 
ENDROOT
BRANCH   4   7
ATOM      7  O   UNL d   1      -1.294   1.639   3.370  0.00  0.00    -0.526 OA
ATOM      8  H5  UNL d   1      -2.244   1.441   3.324  0.00  0.00     0.418 HD
ENDBRANCH   4   7
TORSDOF 1
ENDMDL
