MODEL 1
REMARK minimizedAffinity -2.91560459
REMARK minimizedRMSD -1
REMARK  1 active torsions:
REMARK  status: ('A' for Active; 'I' for Inactive)
REMARK    1  A    between atoms: C3_4  and  O_7 
ROOT
ATOM      1  C   UNL d   1       0.622  -0.355   0.064  0.00  0.00    -0.033 A 
ATOM      2  C1  UNL d   1      -0.722   0.023   0.024  0.00  0.00     0.039 A 
ATOM      3  C2  UNL d   1      -1.279   0.740   1.085  0.00  0.00    -0.080 A 
ATOM      4  C3  UNL d   1      -0.482   1.073   2.177  0.00  0.00     0.150 A 
ATOM      5  C4  UNL d   1       0.858   0.703   2.222  0.00  0.00    -0.007 A 
ATOM      6  C5  UNL d   1       1.412  -0.013   1.162  0.00  0.00     0.039 A 
ENDROOT
BRANCH   4   7
ATOM      7  O   UNL d   1      -0.983   1.767   3.239  0.00  0.00    -0.526 OA
ATOM      8  H5  UNL d   1      -1.928   1.929   3.082  0.00  0.00     0.418 HD
ENDBRANCH   4   7
TORSDOF 1
ENDMDL
