MODEL 1
REMARK minimizedAffinity -1.07873535
REMARK minimizedRMSD -1
REMARK  0 active torsions:
REMARK  status: ('A' for Active; 'I' for Inactive)
ROOT
ATOM      1  C   UNL d   1      -1.697  -0.672  -0.059  0.00  0.00     0.172 C 
ATOM      2  N   UNL d   1      -1.204   0.138   1.030  0.00  0.00    -0.070 N 
ATOM      3  C1  UNL d   1      -1.682   0.128   2.313  0.00  0.00    -0.004 A 
ATOM      4  C2  UNL d   1      -0.949   1.038   3.044  0.00  0.00    -0.047 A 
ATOM      5  C3  UNL d   1       0.002   1.615   2.170  0.00  0.00    -0.047 A 
ATOM      6  C4  UNL d   1      -0.177   1.040   0.930  0.00  0.00    -0.004 A 
ENDROOT
TORSDOF 0
ENDMDL
