MODEL 1
REMARK minimizedAffinity -3.50743532
REMARK minimizedRMSD -1
REMARK  0 active torsions:
REMARK  status: ('A' for Active; 'I' for Inactive)
ROOT
ATOM      1  C   UNL d   1      -1.639   0.283   2.004  0.00  0.00     0.172 C 
ATOM      2  N   UNL d   1      -0.303   0.830   2.004  0.00  0.00    -0.070 N 
ATOM      3  C1  UNL d   1       0.015   2.159   2.097  0.00  0.00    -0.004 A 
ATOM      4  C2  UNL d   1       1.389   2.267   2.063  0.00  0.00    -0.047 A 
ATOM      5  C3  UNL d   1       1.914   0.959   1.944  0.00  0.00    -0.047 A 
ATOM      6  C4  UNL d   1       0.845   0.089   1.909  0.00  0.00    -0.004 A 
ENDROOT
TORSDOF 0
ENDMDL
