MODEL 1
REMARK minimizedAffinity -2.35373569
REMARK minimizedRMSD -1
REMARK  0 active torsions:
REMARK  status: ('A' for Active; 'I' for Inactive)
ROOT
ATOM      1  C   UNL d   1      -0.958  -1.991   4.762  0.00  0.00     0.172 C 
ATOM      2  N   UNL d   1      -0.375  -0.762   4.277  0.00  0.00    -0.070 N 
ATOM      3  C1  UNL d   1      -0.872   0.496   4.491  0.00  0.00    -0.004 A 
ATOM      4  C2  UNL d   1      -0.032   1.394   3.868  0.00  0.00    -0.047 A 
ATOM      5  C3  UNL d   1       1.006   0.649   3.258  0.00  0.00    -0.047 A 
ATOM      6  C4  UNL d   1       0.768  -0.683   3.527  0.00  0.00    -0.004 A 
ENDROOT
TORSDOF 0
ENDMDL
