MODEL 1
REMARK minimizedAffinity -2.54455662
REMARK minimizedRMSD -1
REMARK  0 active torsions:
REMARK  status: ('A' for Active; 'I' for Inactive)
ROOT
ATOM      1  C   UNL d   1      -1.472  -0.370  -0.413  0.00  0.00     0.172 C 
ATOM      2  N   UNL d   1      -0.699  -0.089   0.774  0.00  0.00    -0.070 N 
ATOM      3  C1  UNL d   1      -1.195   0.407   1.950  0.00  0.00    -0.004 A 
ATOM      4  C2  UNL d   1      -0.143   0.533   2.832  0.00  0.00    -0.047 A 
ATOM      5  C3  UNL d   1       1.026   0.099   2.161  0.00  0.00    -0.047 A 
ATOM      6  C4  UNL d   1       0.653  -0.281   0.889  0.00  0.00    -0.004 A 
ENDROOT
TORSDOF 0
ENDMDL
