MODEL 1
REMARK minimizedAffinity 0.378610045
REMARK minimizedRMSD -1
REMARK  0 active torsions:
REMARK  status: ('A' for Active; 'I' for Inactive)
ROOT
ATOM      1  C   UNL d   1       1.611   5.761   0.316  0.00  0.00     0.172 C 
ATOM      2  N   UNL d   1       2.988   5.818   0.745  0.00  0.00    -0.070 N 
ATOM      3  C1  UNL d   1       3.428   5.703   2.037  0.00  0.00    -0.004 A 
ATOM      4  C2  UNL d   1       4.802   5.809   2.027  0.00  0.00    -0.047 A 
ATOM      5  C3  UNL d   1       5.202   5.996   0.682  0.00  0.00    -0.047 A 
ATOM      6  C4  UNL d   1       4.059   5.997  -0.090  0.00  0.00    -0.004 A 
ENDROOT
TORSDOF 0
ENDMDL
