MODEL 1
REMARK minimizedAffinity -3.98668694
REMARK minimizedRMSD -1
REMARK  0 active torsions:
REMARK  status: ('A' for Active; 'I' for Inactive)
ROOT
ATOM      1  C   UNL d   1       2.474  -0.553   0.523  0.00  0.00     0.172 C 
ATOM      2  N   UNL d   1       1.548   0.080   1.432  0.00  0.00    -0.070 N 
ATOM      3  C1  UNL d   1       0.330   0.608   1.093  0.00  0.00    -0.004 A 
ATOM      4  C2  UNL d   1      -0.244   1.115   2.239  0.00  0.00    -0.047 A 
ATOM      5  C3  UNL d   1       0.660   0.885   3.303  0.00  0.00    -0.047 A 
ATOM      6  C4  UNL d   1       1.761   0.243   2.776  0.00  0.00    -0.004 A 
ENDROOT
TORSDOF 0
ENDMDL
