MODEL 1
REMARK minimizedAffinity -2.89993477
REMARK minimizedRMSD -1
REMARK  0 active torsions:
REMARK  status: ('A' for Active; 'I' for Inactive)
ROOT
ATOM      1  C   UNL d   1       1.046  -0.052   0.464  0.00  0.00     0.172 C 
ATOM      2  N   UNL d   1      -0.382   0.023   0.669  0.00  0.00    -0.070 N 
ATOM      3  C1  UNL d   1      -1.019   0.853   1.552  0.00  0.00    -0.004 A 
ATOM      4  C2  UNL d   1      -2.374   0.623   1.446  0.00  0.00    -0.047 A 
ATOM      5  C3  UNL d   1      -2.557  -0.381   0.465  0.00  0.00    -0.047 A 
ATOM      6  C4  UNL d   1      -1.307  -0.734   0.001  0.00  0.00    -0.004 A 
ENDROOT
TORSDOF 0
ENDMDL
