MODEL 1
REMARK minimizedAffinity -3.05170226
REMARK minimizedRMSD -1
REMARK  0 active torsions:
REMARK  status: ('A' for Active; 'I' for Inactive)
ROOT
ATOM      1  C   UNL d   1      -1.494   0.390   2.249  0.00  0.00     0.172 C 
ATOM      2  N   UNL d   1      -0.592   0.041   1.177  0.00  0.00    -0.070 N 
ATOM      3  C1  UNL d   1       0.775   0.034   1.254  0.00  0.00    -0.004 A 
ATOM      4  C2  UNL d   1       1.265  -0.354   0.026  0.00  0.00    -0.047 A 
ATOM      5  C3  UNL d   1       0.154  -0.586  -0.819  0.00  0.00    -0.047 A 
ATOM      6  C4  UNL d   1      -0.983  -0.334  -0.081  0.00  0.00    -0.004 A 
ENDROOT
TORSDOF 0
ENDMDL
