MODEL 1
REMARK minimizedAffinity -3.05330658
REMARK minimizedRMSD -1
REMARK  0 active torsions:
REMARK  status: ('A' for Active; 'I' for Inactive)
ROOT
ATOM      1  C   UNL d   1      -1.485   0.454   1.818  0.00  0.00     0.172 C 
ATOM      2  N   UNL d   1      -0.535  -0.067   0.862  0.00  0.00    -0.070 N 
ATOM      3  C1  UNL d   1       0.812  -0.201   1.068  0.00  0.00    -0.004 A 
ATOM      4  C2  UNL d   1       1.363  -0.733  -0.078  0.00  0.00    -0.047 A 
ATOM      5  C3  UNL d   1       0.310  -0.923  -1.005  0.00  0.00    -0.047 A 
ATOM      6  C4  UNL d   1      -0.854  -0.503  -0.397  0.00  0.00    -0.004 A 
ENDROOT
TORSDOF 0
ENDMDL
