MODEL 1
REMARK minimizedAffinity 27.8594017
REMARK minimizedRMSD -1
REMARK  0 active torsions:
REMARK  status: ('A' for Active; 'I' for Inactive)
ROOT
ATOM      1  C   UNL d   1       0.964  -4.259  -2.444  0.00  0.00     0.124 A 
ATOM      2  C1  UNL d   1      -0.339  -4.224  -1.965  0.00  0.00     0.062 A 
ATOM      3  C2  UNL d   1      -1.383  -4.719  -2.740  0.00  0.00     0.162 A 
ATOM      4  C3  UNL d   1      -1.130  -5.256  -4.002  0.00  0.00    -0.034 A 
ATOM      5  C4  UNL d   1       0.182  -5.287  -4.478  0.00  0.00     0.162 A 
ATOM      6  C5  UNL d   1       1.223  -4.791  -3.699  0.00  0.00     0.062 A 
ATOM      7  F   UNL d   1       2.480  -4.826  -4.163  0.00  0.00    -0.097 F 
ATOM      8  F1  UNL d   1       0.461  -5.797  -5.687  0.00  0.00    -0.096 F 
ATOM      9  I   UNL d   1      -2.689  -5.998  -5.164  0.00  0.00    -0.060 I 
ATOM     10  F2  UNL d   1      -2.632  -4.672  -2.252  0.00  0.00    -0.096 F 
ATOM     11  F3  UNL d   1      -0.592  -3.709  -0.753  0.00  0.00    -0.097 F 
ATOM     12  F4  UNL d   1       1.967  -3.781  -1.696  0.00  0.00    -0.092 F 
ENDROOT
TORSDOF 0
ENDMDL
