MODEL 1
REMARK minimizedAffinity 19.7506752
REMARK minimizedRMSD -1
REMARK  0 active torsions:
REMARK  status: ('A' for Active; 'I' for Inactive)
ROOT
ATOM      1  C   UNL d   1      -1.117   3.653  -0.853  0.00  0.00     0.124 A 
ATOM      2  C1  UNL d   1       0.262   3.564  -0.723  0.00  0.00     0.062 A 
ATOM      3  C2  UNL d   1       1.094   4.233  -1.616  0.00  0.00     0.162 A 
ATOM      4  C3  UNL d   1       0.550   4.998  -2.647  0.00  0.00    -0.034 A 
ATOM      5  C4  UNL d   1      -0.838   5.082  -2.773  0.00  0.00     0.162 A 
ATOM      6  C5  UNL d   1      -1.665   4.412  -1.877  0.00  0.00     0.062 A 
ATOM      7  F   UNL d   1      -2.997   4.499  -2.005  0.00  0.00    -0.097 F 
ATOM      8  F1  UNL d   1      -1.395   5.809  -3.753  0.00  0.00    -0.096 F 
ATOM      9  I   UNL d   1       1.791   6.000  -3.985  0.00  0.00    -0.060 I 
ATOM     10  F2  UNL d   1       2.423   4.129  -1.466  0.00  0.00    -0.096 F 
ATOM     11  F3  UNL d   1       0.795   2.831   0.265  0.00  0.00    -0.097 F 
ATOM     12  F4  UNL d   1      -1.915   3.008   0.007  0.00  0.00    -0.092 F 
ENDROOT
TORSDOF 0
ENDMDL
