MODEL 1
REMARK minimizedAffinity 14.3121214
REMARK minimizedRMSD -1
REMARK  0 active torsions:
REMARK  status: ('A' for Active; 'I' for Inactive)
ROOT
ATOM      1  C   UNL d   1      -0.843   3.717  -0.687  0.00  0.00     0.124 A 
ATOM      2  C1  UNL d   1      -1.599   3.831   0.471  0.00  0.00     0.062 A 
ATOM      3  C2  UNL d   1      -1.288   3.063   1.589  0.00  0.00     0.162 A 
ATOM      4  C3  UNL d   1      -0.214   2.174   1.555  0.00  0.00    -0.034 A 
ATOM      5  C4  UNL d   1       0.541   2.063   0.386  0.00  0.00     0.162 A 
ATOM      6  C5  UNL d   1       0.226   2.833  -0.729  0.00  0.00     0.062 A 
ATOM      7  F   UNL d   1       0.957   2.721  -1.847  0.00  0.00    -0.097 F 
ATOM      8  F1  UNL d   1       1.581   1.218   0.319  0.00  0.00    -0.096 F 
ATOM      9  I   UNL d   1       0.255   1.023   3.225  0.00  0.00    -0.060 I 
ATOM     10  F2  UNL d   1      -2.036   3.194   2.695  0.00  0.00    -0.096 F 
ATOM     11  F3  UNL d   1      -2.634   4.684   0.514  0.00  0.00    -0.097 F 
ATOM     12  F4  UNL d   1      -1.146   4.457  -1.762  0.00  0.00    -0.092 F 
ENDROOT
TORSDOF 0
ENDMDL
