MODEL 1
REMARK minimizedAffinity 26.1639099
REMARK minimizedRMSD -1
REMARK  0 active torsions:
REMARK  status: ('A' for Active; 'I' for Inactive)
ROOT
ATOM      1  C   UNL d   1      -4.488   5.636  -0.168  0.00  0.00     0.124 A 
ATOM      2  C1  UNL d   1      -4.334   5.424  -1.531  0.00  0.00     0.062 A 
ATOM      3  C2  UNL d   1      -3.062   5.275  -2.077  0.00  0.00     0.162 A 
ATOM      4  C3  UNL d   1      -1.933   5.336  -1.259  0.00  0.00    -0.034 A 
ATOM      5  C4  UNL d   1      -2.096   5.551   0.111  0.00  0.00     0.162 A 
ATOM      6  C5  UNL d   1      -3.369   5.699   0.652  0.00  0.00     0.062 A 
ATOM      7  F   UNL d   1      -3.516   5.904   1.969  0.00  0.00    -0.097 F 
ATOM      8  F1  UNL d   1      -1.033   5.615   0.926  0.00  0.00    -0.096 F 
ATOM      9  I   UNL d   1      -0.030   5.114  -2.071  0.00  0.00    -0.060 I 
ATOM     10  F2  UNL d   1      -2.943   5.071  -3.397  0.00  0.00    -0.096 F 
ATOM     11  F3  UNL d   1      -5.412   5.364  -2.325  0.00  0.00    -0.097 F 
ATOM     12  F4  UNL d   1      -5.712   5.781   0.355  0.00  0.00    -0.092 F 
ENDROOT
TORSDOF 0
ENDMDL
