MODEL 1
REMARK minimizedAffinity 21.0191097
REMARK minimizedRMSD -1
REMARK  0 active torsions:
REMARK  status: ('A' for Active; 'I' for Inactive)
ROOT
ATOM      1  C   UNL d   1      -4.595   5.621   0.257  0.00  0.00     0.124 A 
ATOM      2  C1  UNL d   1      -3.446   5.813   1.012  0.00  0.00     0.062 A 
ATOM      3  C2  UNL d   1      -2.197   5.811   0.398  0.00  0.00     0.162 A 
ATOM      4  C3  UNL d   1      -2.090   5.617  -0.979  0.00  0.00    -0.034 A 
ATOM      5  C4  UNL d   1      -3.250   5.423  -1.732  0.00  0.00     0.162 A 
ATOM      6  C5  UNL d   1      -4.496   5.426  -1.113  0.00  0.00     0.062 A 
ATOM      7  F   UNL d   1      -5.605   5.240  -1.844  0.00  0.00    -0.097 F 
ATOM      8  F1  UNL d   1      -3.183   5.234  -3.058  0.00  0.00    -0.096 F 
ATOM      9  I   UNL d   1      -0.224   5.613  -1.901  0.00  0.00    -0.060 I 
ATOM     10  F2  UNL d   1      -1.104   5.999   1.152  0.00  0.00    -0.096 F 
ATOM     11  F3  UNL d   1      -3.539   6.000   2.336  0.00  0.00    -0.097 F 
ATOM     12  F4  UNL d   1      -5.796   5.622   0.850  0.00  0.00    -0.092 F 
ENDROOT
TORSDOF 0
ENDMDL
