MODEL 1
REMARK minimizedAffinity 19.956562
REMARK minimizedRMSD -1
REMARK  0 active torsions:
REMARK  status: ('A' for Active; 'I' for Inactive)
ROOT
ATOM      1  C   UNL d   1      -0.797   2.722   1.055  0.00  0.00     0.124 A 
ATOM      2  C1  UNL d   1      -1.621   3.833   1.162  0.00  0.00     0.062 A 
ATOM      3  C2  UNL d   1      -1.672   4.769   0.133  0.00  0.00     0.162 A 
ATOM      4  C3  UNL d   1      -0.897   4.597  -1.014  0.00  0.00    -0.034 A 
ATOM      5  C4  UNL d   1      -0.069   3.477  -1.114  0.00  0.00     0.162 A 
ATOM      6  C5  UNL d   1      -0.022   2.545  -0.083  0.00  0.00     0.062 A 
ATOM      7  F   UNL d   1       0.776   1.472  -0.188  0.00  0.00    -0.097 F 
ATOM      8  F1  UNL d   1       0.690   3.281  -2.202  0.00  0.00    -0.096 F 
ATOM      9  I   UNL d   1      -0.970   5.994  -2.555  0.00  0.00    -0.060 I 
ATOM     10  F2  UNL d   1      -2.478   5.833   0.263  0.00  0.00    -0.096 F 
ATOM     11  F3  UNL d   1      -2.371   4.006   2.260  0.00  0.00    -0.097 F 
ATOM     12  F4  UNL d   1      -0.749   1.823   2.047  0.00  0.00    -0.092 F 
ENDROOT
TORSDOF 0
ENDMDL
