MODEL 1
REMARK minimizedAffinity 14.2307367
REMARK minimizedRMSD -1
REMARK  0 active torsions:
REMARK  status: ('A' for Active; 'I' for Inactive)
ROOT
ATOM      1  C   UNL d   1      -0.594   0.914  -0.044  0.00  0.00     0.124 A 
ATOM      2  C1  UNL d   1      -1.472  -0.151  -0.193  0.00  0.00     0.062 A 
ATOM      3  C2  UNL d   1      -0.986  -1.428  -0.457  0.00  0.00     0.162 A 
ATOM      4  C3  UNL d   1       0.387  -1.648  -0.572  0.00  0.00    -0.034 A 
ATOM      5  C4  UNL d   1       1.264  -0.573  -0.422  0.00  0.00     0.162 A 
ATOM      6  C5  UNL d   1       0.773   0.702  -0.159  0.00  0.00     0.062 A 
ATOM      7  F   UNL d   1       1.623   1.729  -0.015  0.00  0.00    -0.097 F 
ATOM      8  F1  UNL d   1       2.589  -0.749  -0.526  0.00  0.00    -0.096 F 
ATOM      9  I   UNL d   1       1.118  -3.557  -0.965  0.00  0.00    -0.060 I 
ATOM     10  F2  UNL d   1      -1.857  -2.438  -0.596  0.00  0.00    -0.096 F 
ATOM     11  F3  UNL d   1      -2.793   0.052  -0.085  0.00  0.00    -0.097 F 
ATOM     12  F4  UNL d   1      -1.065   2.142   0.208  0.00  0.00    -0.092 F 
ENDROOT
TORSDOF 0
ENDMDL
