MODEL 1
REMARK minimizedAffinity 23.5045071
REMARK minimizedRMSD -1
REMARK  0 active torsions:
REMARK  status: ('A' for Active; 'I' for Inactive)
ROOT
ATOM      1  C   UNL d   1       4.736  -5.306  -1.044  0.00  0.00     0.124 A 
ATOM      2  C1  UNL d   1       4.238  -5.180  -2.334  0.00  0.00     0.062 A 
ATOM      3  C2  UNL d   1       2.924  -4.770  -2.540  0.00  0.00     0.162 A 
ATOM      4  C3  UNL d   1       2.098  -4.481  -1.454  0.00  0.00    -0.034 A 
ATOM      5  C4  UNL d   1       2.605  -4.610  -0.160  0.00  0.00     0.162 A 
ATOM      6  C5  UNL d   1       3.919  -5.021   0.041  0.00  0.00     0.062 A 
ATOM      7  F   UNL d   1       4.399  -5.141   1.288  0.00  0.00    -0.097 F 
ATOM      8  F1  UNL d   1       1.839  -4.341   0.907  0.00  0.00    -0.096 F 
ATOM      9  I   UNL d   1       0.133  -3.867  -1.758  0.00  0.00    -0.060 I 
ATOM     10  F2  UNL d   1       2.469  -4.657  -3.797  0.00  0.00    -0.096 F 
ATOM     11  F3  UNL d   1       5.024  -5.456  -3.384  0.00  0.00    -0.097 F 
ATOM     12  F4  UNL d   1       6.000  -5.702  -0.849  0.00  0.00    -0.092 F 
ENDROOT
TORSDOF 0
ENDMDL
