MODEL 1
REMARK minimizedAffinity 4.31653452
REMARK minimizedRMSD -1
REMARK  0 active torsions:
REMARK  status: ('A' for Active; 'I' for Inactive)
ROOT
ATOM      1  C4' PXY d   1       0.940  -1.729  -0.827  0.00  0.00     0.077 C 
ATOM      2  C1' PXY d   1       2.469  -1.088   4.711  0.00  0.00     0.077 C 
ATOM      3  C1  PXY d   1       2.076  -1.266   3.258  0.00  0.00    -0.082 A 
ATOM      4  C2  PXY d   1       1.590  -0.239   2.581  0.00  0.00     0.003 A 
ATOM      5  C3  PXY d   1       1.200  -0.390   1.275  0.00  0.00     0.003 A 
ATOM      6  C4  PXY d   1       1.358  -1.593   0.640  0.00  0.00    -0.082 A 
ATOM      7  C5  PXY d   1       1.864  -2.643   1.320  0.00  0.00     0.003 A 
ATOM      8  C6  PXY d   1       2.215  -2.479   2.657  0.00  0.00     0.003 A 
ENDROOT
TORSDOF 0
ENDMDL
