MODEL 1
REMARK minimizedAffinity 3.95533538
REMARK minimizedRMSD -1
REMARK  0 active torsions:
REMARK  status: ('A' for Active; 'I' for Inactive)
ROOT
ATOM      1  C4' PXY d   1       1.458  -1.106   2.332  0.00  0.00     0.077 C 
ATOM      2  C1' PXY d   1       5.635  -2.692   6.000  0.00  0.00     0.077 C 
ATOM      3  C1  PXY d   1       4.531  -2.283   5.045  0.00  0.00    -0.082 A 
ATOM      4  C2  PXY d   1       4.834  -1.938   3.804  0.00  0.00     0.003 A 
ATOM      5  C3  PXY d   1       3.851  -1.535   2.937  0.00  0.00     0.003 A 
ATOM      6  C4  PXY d   1       2.539  -1.535   3.328  0.00  0.00    -0.082 A 
ATOM      7  C5  PXY d   1       2.221  -1.895   4.589  0.00  0.00     0.003 A 
ATOM      8  C6  PXY d   1       3.237  -2.262   5.467  0.00  0.00     0.003 A 
ENDROOT
TORSDOF 0
ENDMDL
