MODEL 1
REMARK minimizedAffinity 11.3973513
REMARK minimizedRMSD -1
REMARK  0 active torsions:
REMARK  status: ('A' for Active; 'I' for Inactive)
ROOT
ATOM      1  C4' PXY d   1       2.084  -0.625   2.336  0.00  0.00     0.077 C 
ATOM      2  C1' PXY d   1      -2.161  -1.027  -1.566  0.00  0.00     0.077 C 
ATOM      3  C1  PXY d   1      -1.042  -0.932  -0.548  0.00  0.00    -0.082 A 
ATOM      4  C2  PXY d   1      -1.251  -0.303   0.597  0.00  0.00     0.003 A 
ATOM      5  C3  PXY d   1      -0.241  -0.180   1.515  0.00  0.00     0.003 A 
ATOM      6  C4  PXY d   1       0.981  -0.754   1.282  0.00  0.00    -0.082 A 
ATOM      7  C5  PXY d   1       1.198  -1.407   0.121  0.00  0.00     0.003 A 
ATOM      8  C6  PXY d   1       0.172  -1.484  -0.816  0.00  0.00     0.003 A 
ENDROOT
TORSDOF 0
ENDMDL
