MODEL 1
REMARK minimizedAffinity 19.2295055
REMARK minimizedRMSD -1
REMARK  0 active torsions:
REMARK  status: ('A' for Active; 'I' for Inactive)
ROOT
ATOM      1  C4' PXY d   1      -0.008  -6.000   6.000  0.00  0.00     0.077 C 
ATOM      2  C1' PXY d   1       2.137  -1.382   3.263  0.00  0.00     0.077 C 
ATOM      3  C1  PXY d   1       1.576  -2.600   3.970  0.00  0.00    -0.082 A 
ATOM      4  C2  PXY d   1       0.777  -2.441   5.013  0.00  0.00     0.003 A 
ATOM      5  C3  PXY d   1       0.287  -3.532   5.683  0.00  0.00     0.003 A 
ATOM      6  C4  PXY d   1       0.574  -4.799   5.250  0.00  0.00    -0.082 A 
ATOM      7  C5  PXY d   1       1.380  -4.969   4.180  0.00  0.00     0.003 A 
ATOM      8  C6  PXY d   1       1.900  -3.849   3.538  0.00  0.00     0.003 A 
ENDROOT
TORSDOF 0
ENDMDL
