MODEL 1
REMARK minimizedAffinity 3.94406176
REMARK minimizedRMSD -1
REMARK  0 active torsions:
REMARK  status: ('A' for Active; 'I' for Inactive)
ROOT
ATOM      1  C4' PXY d   1       4.142  -2.618   6.000  0.00  0.00     0.077 C 
ATOM      2  C1' PXY d   1       0.890  -0.551   1.691  0.00  0.00     0.077 C 
ATOM      3  C1  PXY d   1       1.733  -1.092   2.829  0.00  0.00    -0.082 A 
ATOM      4  C2  PXY d   1       3.048  -0.952   2.794  0.00  0.00     0.003 A 
ATOM      5  C3  PXY d   1       3.828  -1.463   3.799  0.00  0.00     0.003 A 
ATOM      6  C4  PXY d   1       3.251  -2.079   4.878  0.00  0.00    -0.082 A 
ATOM      7  C5  PXY d   1       1.909  -2.217   4.926  0.00  0.00     0.003 A 
ATOM      8  C6  PXY d   1       1.139  -1.727   3.876  0.00  0.00     0.003 A 
ENDROOT
TORSDOF 0
ENDMDL
