MODEL 1
REMARK minimizedAffinity 3.07771993
REMARK minimizedRMSD -1
REMARK  0 active torsions:
REMARK  status: ('A' for Active; 'I' for Inactive)
ROOT
ATOM      1  C4' PXY d   1       1.480  -0.925   2.423  0.00  0.00     0.077 C 
ATOM      2  C1' PXY d   1       5.546  -2.948   6.000  0.00  0.00     0.077 C 
ATOM      3  C1  PXY d   1       4.471  -2.426   5.067  0.00  0.00    -0.082 A 
ATOM      4  C2  PXY d   1       4.818  -1.825   3.941  0.00  0.00     0.003 A 
ATOM      5  C3  PXY d   1       3.860  -1.318   3.101  0.00  0.00     0.003 A 
ATOM      6  C4  PXY d   1       2.531  -1.476   3.391  0.00  0.00    -0.082 A 
ATOM      7  C5  PXY d   1       2.169  -2.098   4.533  0.00  0.00     0.003 A 
ATOM      8  C6  PXY d   1       3.157  -2.568   5.392  0.00  0.00     0.003 A 
ENDROOT
TORSDOF 0
ENDMDL
