MODEL 1
REMARK minimizedAffinity 8.46282482
REMARK minimizedRMSD -1
REMARK  0 active torsions:
REMARK  status: ('A' for Active; 'I' for Inactive)
ROOT
ATOM      1  C4' PXY d   1       3.103  -5.928   0.717  0.00  0.00     0.077 C 
ATOM      2  C1' PXY d   1       1.726  -0.855   3.123  0.00  0.00     0.077 C 
ATOM      3  C1  PXY d   1       2.078  -2.184   2.483  0.00  0.00    -0.082 A 
ATOM      4  C2  PXY d   1       2.620  -3.141   3.218  0.00  0.00     0.003 A 
ATOM      5  C3  PXY d   1       2.974  -4.337   2.648  0.00  0.00     0.003 A 
ATOM      6  C4  PXY d   1       2.722  -4.574   1.323  0.00  0.00    -0.082 A 
ATOM      7  C5  PXY d   1       2.160  -3.606   0.569  0.00  0.00     0.003 A 
ATOM      8  C6  PXY d   1       1.846  -2.385   1.157  0.00  0.00     0.003 A 
ENDROOT
TORSDOF 0
ENDMDL
