MODEL 1
REMARK minimizedAffinity 3.60901904
REMARK minimizedRMSD -1
REMARK  1 active torsions:
REMARK  status: ('A' for Active; 'I' for Inactive)
REMARK    1  A    between atoms: C1_2  and  C2_3 
ROOT
ATOM      1  C2  UNL d   1      -4.484  -0.421   1.824  0.00  0.00    -0.073 A 
ATOM      2  C3  UNL d   1      -5.260   0.688   2.182  0.00  0.00    -0.002 A 
ATOM      3  C4  UNL d   1      -6.000   0.678   3.365  0.00  0.00     0.004 A 
ATOM      4  C5  UNL d   1      -5.966  -0.435   4.205  0.00  0.00    -0.004 A 
ATOM      5  C6  UNL d   1      -5.187  -1.547   3.871  0.00  0.00    -0.075 A 
ATOM      6  C7  UNL d   1      -5.142  -2.753   4.763  0.00  0.00     0.076 C 
ATOM      7  C8  UNL d   1      -4.450  -1.531   2.680  0.00  0.00     0.001 A 
ENDROOT
BRANCH   1   8
ATOM      8  C1  UNL d   1      -3.679  -0.412   0.551  0.00  0.00     0.053 C 
ATOM      9  C   UNL d   1      -4.518  -0.012  -0.652  0.00  0.00     0.018 C 
ENDBRANCH   1   8
TORSDOF 1
ENDMDL
