MODEL 1
REMARK minimizedAffinity 4.25392723
REMARK minimizedRMSD -1
REMARK  1 active torsions:
REMARK  status: ('A' for Active; 'I' for Inactive)
REMARK    1  A    between atoms: C1_2  and  C2_3 
ROOT
ATOM      1  C2  UNL d   1      -4.523   0.154   1.534  0.00  0.00    -0.073 A 
ATOM      2  C3  UNL d   1      -5.061   0.046   0.247  0.00  0.00    -0.002 A 
ATOM      3  C4  UNL d   1      -4.322   0.458  -0.863  0.00  0.00     0.004 A 
ATOM      4  C5  UNL d   1      -3.037   0.976  -0.698  0.00  0.00    -0.004 A 
ATOM      5  C6  UNL d   1      -2.477   1.080   0.580  0.00  0.00    -0.075 A 
ATOM      6  C7  UNL d   1      -1.097   1.637   0.775  0.00  0.00     0.076 C 
ATOM      7  C8  UNL d   1      -3.227   0.667   1.689  0.00  0.00     0.001 A 
ENDROOT
BRANCH   1   8
ATOM      8  C1  UNL d   1      -5.314  -0.296   2.735  0.00  0.00     0.053 C 
ATOM      9  C   UNL d   1      -4.873  -1.665   3.228  0.00  0.00     0.018 C 
ENDBRANCH   1   8
TORSDOF 1
ENDMDL
