MODEL 1
REMARK minimizedAffinity 10.9995012
REMARK minimizedRMSD -1
REMARK  1 active torsions:
REMARK  status: ('A' for Active; 'I' for Inactive)
REMARK    1  A    between atoms: C1_2  and  C2_3 
ROOT
ATOM      1  C2  UNL d   1      -3.666   0.956   3.108  0.00  0.00    -0.073 A 
ATOM      2  C3  UNL d   1      -4.968   1.441   3.280  0.00  0.00    -0.002 A 
ATOM      3  C4  UNL d   1      -5.999   0.577   3.648  0.00  0.00     0.004 A 
ATOM      4  C5  UNL d   1      -5.740  -0.778   3.854  0.00  0.00    -0.004 A 
ATOM      5  C6  UNL d   1      -4.444  -1.280   3.699  0.00  0.00    -0.075 A 
ATOM      6  C7  UNL d   1      -4.148  -2.735   3.915  0.00  0.00     0.076 C 
ATOM      7  C8  UNL d   1      -3.413  -0.405   3.327  0.00  0.00     0.001 A 
ENDROOT
BRANCH   1   8
ATOM      8  C1  UNL d   1      -2.548   1.887   2.717  0.00  0.00     0.053 C 
ATOM      9  C   UNL d   1      -1.206   1.430   3.268  0.00  0.00     0.018 C 
ENDBRANCH   1   8
TORSDOF 1
ENDMDL
