MODEL 1
REMARK minimizedAffinity 7.44023514
REMARK minimizedRMSD -1
REMARK  1 active torsions:
REMARK  status: ('A' for Active; 'I' for Inactive)
REMARK    1  A    between atoms: C1_2  and  C2_3 
ROOT
ATOM      1  C2  UNL d   1      -2.328  -5.013  -4.935  0.00  0.00    -0.073 A 
ATOM      2  C3  UNL d   1      -2.354  -3.743  -5.523  0.00  0.00    -0.002 A 
ATOM      3  C4  UNL d   1      -3.552  -3.211  -6.000  0.00  0.00     0.004 A 
ATOM      4  C5  UNL d   1      -4.737  -3.938  -5.888  0.00  0.00    -0.004 A 
ATOM      5  C6  UNL d   1      -4.734  -5.204  -5.293  0.00  0.00    -0.075 A 
ATOM      6  C7  UNL d   1      -6.000  -6.000  -5.166  0.00  0.00     0.076 C 
ATOM      7  C8  UNL d   1      -3.526  -5.733  -4.819  0.00  0.00     0.001 A 
ENDROOT
BRANCH   1   8
ATOM      8  C1  UNL d   1      -1.037  -5.589  -4.414  0.00  0.00     0.053 C 
ATOM      9  C   UNL d   1      -0.410  -4.707  -3.345  0.00  0.00     0.018 C 
ENDBRANCH   1   8
TORSDOF 1
ENDMDL
