MODEL 1
REMARK minimizedAffinity 4.49621773
REMARK minimizedRMSD -1
REMARK  1 active torsions:
REMARK  status: ('A' for Active; 'I' for Inactive)
REMARK    1  A    between atoms: C1_2  and  C2_3 
ROOT
ATOM      1  C2  UNL d   1      -3.747   4.651  -5.092  0.00  0.00    -0.073 A 
ATOM      2  C3  UNL d   1      -4.085   5.141  -3.826  0.00  0.00    -0.002 A 
ATOM      3  C4  UNL d   1      -3.134   5.809  -3.052  0.00  0.00     0.004 A 
ATOM      4  C5  UNL d   1      -1.841   5.998  -3.538  0.00  0.00    -0.004 A 
ATOM      5  C6  UNL d   1      -1.487   5.525  -4.806  0.00  0.00    -0.075 A 
ATOM      6  C7  UNL d   1      -0.099   5.719  -5.342  0.00  0.00     0.076 C 
ATOM      7  C8  UNL d   1      -2.446   4.854  -5.576  0.00  0.00     0.001 A 
ENDROOT
BRANCH   1   8
ATOM      8  C1  UNL d   1      -4.771   3.936  -5.934  0.00  0.00     0.053 C 
ATOM      9  C   UNL d   1      -4.577   2.428  -5.910  0.00  0.00     0.018 C 
ENDBRANCH   1   8
TORSDOF 1
ENDMDL
