MODEL 1
REMARK minimizedAffinity -5.31184483
REMARK minimizedRMSD -1
REMARK  0 active torsions:
REMARK  status: ('A' for Active; 'I' for Inactive)
ROOT
ATOM      1  C4' PXY d   1      -4.083   0.357   0.747  0.00  0.00     0.077 C 
ATOM      2  C1' PXY d   1       1.342  -0.297   2.635  0.00  0.00     0.077 C 
ATOM      3  C1  PXY d   1      -0.085  -0.130   2.151  0.00  0.00    -0.082 A 
ATOM      4  C2  PXY d   1      -0.337  -0.103   0.853  0.00  0.00     0.003 A 
ATOM      5  C3  PXY d   1      -1.617   0.079   0.398  0.00  0.00     0.003 A 
ATOM      6  C4  PXY d   1      -2.658   0.181   1.281  0.00  0.00    -0.082 A 
ATOM      7  C5  PXY d   1      -2.411   0.145   2.608  0.00  0.00     0.003 A 
ATOM      8  C6  PXY d   1      -1.099   0.000   3.049  0.00  0.00     0.003 A 
ENDROOT
TORSDOF 0
ENDMDL
