MODEL 1
REMARK minimizedAffinity -4.35420513
REMARK minimizedRMSD -1
REMARK  0 active torsions:
REMARK  status: ('A' for Active; 'I' for Inactive)
ROOT
ATOM      1  C4' PXY d   1       0.669   0.574  -1.324  0.00  0.00     0.077 C 
ATOM      2  C1' PXY d   1      -1.213  -0.956   3.923  0.00  0.00     0.077 C 
ATOM      3  C1  PXY d   1      -0.710  -0.548   2.552  0.00  0.00    -0.082 A 
ATOM      4  C2  PXY d   1      -1.539  -0.560   1.521  0.00  0.00     0.003 A 
ATOM      5  C3  PXY d   1      -1.092  -0.224   0.269  0.00  0.00     0.003 A 
ATOM      6  C4  PXY d   1       0.202   0.179   0.079  0.00  0.00    -0.082 A 
ATOM      7  C5  PXY d   1       1.051   0.204   1.129  0.00  0.00     0.003 A 
ATOM      8  C6  PXY d   1       0.589  -0.180   2.384  0.00  0.00     0.003 A 
ENDROOT
TORSDOF 0
ENDMDL
