MODEL 1
REMARK minimizedAffinity -5.19737864
REMARK minimizedRMSD -1
REMARK  0 active torsions:
REMARK  status: ('A' for Active; 'I' for Inactive)
ROOT
ATOM      1  C4' PXY d   1       0.311   0.645  -1.860  0.00  0.00     0.077 C 
ATOM      2  C1' PXY d   1      -0.971  -0.709   3.611  0.00  0.00     0.077 C 
ATOM      3  C1  PXY d   1      -0.645  -0.362   2.172  0.00  0.00    -0.082 A 
ATOM      4  C2  PXY d   1       0.577   0.034   1.856  0.00  0.00     0.003 A 
ATOM      5  C3  PXY d   1       0.881   0.383   0.565  0.00  0.00     0.003 A 
ATOM      6  C4  PXY d   1      -0.061   0.275  -0.422  0.00  0.00    -0.082 A 
ATOM      7  C5  PXY d   1      -1.308  -0.138  -0.109  0.00  0.00     0.003 A 
ATOM      8  C6  PXY d   1      -1.607  -0.448   1.214  0.00  0.00     0.003 A 
ENDROOT
TORSDOF 0
ENDMDL
