MODEL 1
REMARK minimizedAffinity -4.06126881
REMARK minimizedRMSD -1
REMARK  0 active torsions:
REMARK  status: ('A' for Active; 'I' for Inactive)
ROOT
ATOM      1  C4' PXY d   1       1.356   0.246  -2.923  0.00  0.00     0.077 C 
ATOM      2  C1' PXY d   1      -0.152   0.075   2.654  0.00  0.00     0.077 C 
ATOM      3  C1  PXY d   1       0.240   0.132   1.191  0.00  0.00    -0.082 A 
ATOM      4  C2  PXY d   1       0.214  -0.972   0.463  0.00  0.00     0.003 A 
ATOM      5  C3  PXY d   1       0.596  -0.944  -0.853  0.00  0.00     0.003 A 
ATOM      6  C4  PXY d   1       0.959   0.237  -1.445  0.00  0.00    -0.082 A 
ATOM      7  C5  PXY d   1       0.978   1.370  -0.711  0.00  0.00     0.003 A 
ATOM      8  C6  PXY d   1       0.626   1.312   0.634  0.00  0.00     0.003 A 
ENDROOT
TORSDOF 0
ENDMDL
