MODEL 1
REMARK minimizedAffinity -4.96454191
REMARK minimizedRMSD -1
REMARK  0 active torsions:
REMARK  status: ('A' for Active; 'I' for Inactive)
ROOT
ATOM      1  C4' PXY d   1       1.177   0.525  -2.332  0.00  0.00     0.077 C 
ATOM      2  C1' PXY d   1      -1.172  -0.559   2.837  0.00  0.00     0.077 C 
ATOM      3  C1  PXY d   1      -0.562  -0.284   1.476  0.00  0.00    -0.082 A 
ATOM      4  C2  PXY d   1       0.594   0.353   1.394  0.00  0.00     0.003 A 
ATOM      5  C3  PXY d   1       1.144   0.637   0.170  0.00  0.00     0.003 A 
ATOM      6  C4  PXY d   1       0.529   0.218  -0.979  0.00  0.00    -0.082 A 
ATOM      7  C5  PXY d   1      -0.646  -0.442  -0.903  0.00  0.00     0.003 A 
ATOM      8  C6  PXY d   1      -1.207  -0.684   0.347  0.00  0.00     0.003 A 
ENDROOT
TORSDOF 0
ENDMDL
