MODEL 1
REMARK minimizedAffinity -2.32089329
REMARK minimizedRMSD -1
REMARK  0 active torsions:
REMARK  status: ('A' for Active; 'I' for Inactive)
ROOT
ATOM      1  C4' PXY d   1      -0.780  -0.817   3.587  0.00  0.00     0.077 C 
ATOM      2  C1' PXY d   1       0.330   0.662  -1.890  0.00  0.00     0.077 C 
ATOM      3  C1  PXY d   1       0.026   0.276  -0.456  0.00  0.00    -0.082 A 
ATOM      4  C2  PXY d   1       0.947   0.450   0.478  0.00  0.00     0.003 A 
ATOM      5  C3  PXY d   1       0.700   0.076   1.774  0.00  0.00     0.003 A 
ATOM      6  C4  PXY d   1      -0.521  -0.432   2.128  0.00  0.00    -0.082 A 
ATOM      7  C5  PXY d   1      -1.470  -0.603   1.183  0.00  0.00     0.003 A 
ATOM      8  C6  PXY d   1      -1.185  -0.256  -0.135  0.00  0.00     0.003 A 
ENDROOT
TORSDOF 0
ENDMDL
