MODEL 1
REMARK minimizedAffinity -4.92594814
REMARK minimizedRMSD -1
REMARK  0 active torsions:
REMARK  status: ('A' for Active; 'I' for Inactive)
ROOT
ATOM      1  C4' PXY d   1       0.572  -0.354  -1.475  0.00  0.00     0.077 C 
ATOM      2  C1' PXY d   1      -2.017  -0.137   3.689  0.00  0.00     0.077 C 
ATOM      3  C1  PXY d   1      -1.327  -0.188   2.340  0.00  0.00    -0.082 A 
ATOM      4  C2  PXY d   1      -2.054  -0.210   1.234  0.00  0.00     0.003 A 
ATOM      5  C3  PXY d   1      -1.447  -0.289   0.007  0.00  0.00     0.003 A 
ATOM      6  C4  PXY d   1      -0.082  -0.292  -0.092  0.00  0.00    -0.082 A 
ATOM      7  C5  PXY d   1       0.667  -0.260   1.031  0.00  0.00     0.003 A 
ATOM      8  C6  PXY d   1       0.031  -0.221   2.269  0.00  0.00     0.003 A 
ENDROOT
TORSDOF 0
ENDMDL
