MODEL 1
REMARK minimizedAffinity -5.26197529
REMARK minimizedRMSD -1
REMARK  0 active torsions:
REMARK  status: ('A' for Active; 'I' for Inactive)
ROOT
ATOM      1  C4' PXY d   1      -3.608   0.723   1.254  0.00  0.00     0.077 C 
ATOM      2  C1' PXY d   1       1.993  -0.514   1.974  0.00  0.00     0.077 C 
ATOM      3  C1  PXY d   1       0.521  -0.197   1.795  0.00  0.00    -0.082 A 
ATOM      4  C2  PXY d   1       0.077   0.206   0.616  0.00  0.00     0.003 A 
ATOM      5  C3  PXY d   1      -1.245   0.527   0.445  0.00  0.00     0.003 A 
ATOM      6  C4  PXY d   1      -2.132   0.383   1.478  0.00  0.00    -0.082 A 
ATOM      7  C5  PXY d   1      -1.689  -0.038   2.682  0.00  0.00     0.003 A 
ATOM      8  C6  PXY d   1      -0.336  -0.320   2.845  0.00  0.00     0.003 A 
ENDROOT
TORSDOF 0
ENDMDL
