MODEL 1
REMARK minimizedAffinity -5.36288309
REMARK minimizedRMSD -1
REMARK  0 active torsions:
REMARK  status: ('A' for Active; 'I' for Inactive)
ROOT
ATOM      1  C4' PXY d   1      -1.139   1.525  -1.677  0.00  0.00     0.077 C 
ATOM      2  C1' PXY d   1      -0.913  -1.295   3.363  0.00  0.00     0.077 C 
ATOM      3  C1  PXY d   1      -0.959  -0.553   2.042  0.00  0.00    -0.082 A 
ATOM      4  C2  PXY d   1      -2.098  -0.019   1.632  0.00  0.00     0.003 A 
ATOM      5  C3  PXY d   1      -2.165   0.628   0.425  0.00  0.00     0.003 A 
ATOM      6  C4  PXY d   1      -1.043   0.775  -0.346  0.00  0.00    -0.082 A 
ATOM      7  C5  PXY d   1       0.125   0.242   0.071  0.00  0.00     0.003 A 
ATOM      8  C6  PXY d   1       0.163  -0.446   1.280  0.00  0.00     0.003 A 
ENDROOT
TORSDOF 0
ENDMDL
