MODEL 1
REMARK minimizedAffinity -2.65667367
REMARK minimizedRMSD -1
REMARK  0 active torsions:
REMARK  status: ('A' for Active; 'I' for Inactive)
ROOT
ATOM      1  C4' PXY d   1       0.979   0.578  -2.416  0.00  0.00     0.077 C 
ATOM      2  C1' PXY d   1      -0.411  -0.004   3.165  0.00  0.00     0.077 C 
ATOM      3  C1  PXY d   1      -0.057   0.141   1.698  0.00  0.00    -0.082 A 
ATOM      4  C2  PXY d   1       1.184   0.444   1.351  0.00  0.00     0.003 A 
ATOM      5  C3  PXY d   1       1.514   0.610   0.031  0.00  0.00     0.003 A 
ATOM      6  C4  PXY d   1       0.578   0.413  -0.948  0.00  0.00    -0.082 A 
ATOM      7  C5  PXY d   1      -0.688   0.093  -0.603  0.00  0.00     0.003 A 
ATOM      8  C6  PXY d   1      -1.013  -0.031   0.745  0.00  0.00     0.003 A 
ENDROOT
TORSDOF 0
ENDMDL
