MODEL 1
REMARK minimizedAffinity -4.86564541
REMARK minimizedRMSD -1
REMARK  0 active torsions:
REMARK  status: ('A' for Active; 'I' for Inactive)
ROOT
ATOM      1  C4' PXY d   1       2.401   0.010   1.848  0.00  0.00     0.077 C 
ATOM      2  C1' PXY d   1      -2.923   0.750  -0.277  0.00  0.00     0.077 C 
ATOM      3  C1  PXY d   1      -1.531   0.558   0.292  0.00  0.00    -0.082 A 
ATOM      4  C2  PXY d   1      -0.476   0.737  -0.486  0.00  0.00     0.003 A 
ATOM      5  C3  PXY d   1       0.789   0.536   0.004  0.00  0.00     0.003 A 
ATOM      6  C4  PXY d   1       0.977   0.202   1.318  0.00  0.00    -0.082 A 
ATOM      7  C5  PXY d   1      -0.094   0.028   2.121  0.00  0.00     0.003 A 
ATOM      8  C6  PXY d   1      -1.371   0.196   1.594  0.00  0.00     0.003 A 
ENDROOT
TORSDOF 0
ENDMDL
