MODEL 1
REMARK minimizedAffinity -6.13977194
REMARK minimizedRMSD -1
REMARK  0 active torsions:
REMARK  status: ('A' for Active; 'I' for Inactive)
ROOT
ATOM      1  C4' PXY d   1       2.319  -0.102   1.146  0.00  0.00     0.077 C 
ATOM      2  C1' PXY d   1      -3.417   0.211   1.794  0.00  0.00     0.077 C 
ATOM      3  C1  PXY d   1      -1.911   0.132   1.637  0.00  0.00    -0.082 A 
ATOM      4  C2  PXY d   1      -1.370   0.277   0.438  0.00  0.00     0.003 A 
ATOM      5  C3  PXY d   1      -0.013   0.177   0.273  0.00  0.00     0.003 A 
ATOM      6  C4  PXY d   1       0.804  -0.021   1.354  0.00  0.00    -0.082 A 
ATOM      7  C5  PXY d   1       0.261  -0.158   2.582  0.00  0.00     0.003 A 
ATOM      8  C6  PXY d   1      -1.122  -0.095   2.722  0.00  0.00     0.003 A 
ENDROOT
TORSDOF 0
ENDMDL
