MODEL 1
REMARK minimizedAffinity -4.68840551
REMARK minimizedRMSD -1
REMARK  0 active torsions:
REMARK  status: ('A' for Active; 'I' for Inactive)
ROOT
ATOM      1  C4' PXY d   1       0.873  -0.042  -2.665  0.00  0.00     0.077 C 
ATOM      2  C1' PXY d   1      -0.504   0.316   2.938  0.00  0.00     0.077 C 
ATOM      3  C1  PXY d   1      -0.156   0.220   1.466  0.00  0.00    -0.082 A 
ATOM      4  C2  PXY d   1       1.067  -0.134   1.105  0.00  0.00     0.003 A 
ATOM      5  C3  PXY d   1       1.408  -0.195  -0.222  0.00  0.00     0.003 A 
ATOM      6  C4  PXY d   1       0.473   0.059  -1.190  0.00  0.00    -0.082 A 
ATOM      7  C5  PXY d   1      -0.779   0.410  -0.830  0.00  0.00     0.003 A 
ATOM      8  C6  PXY d   1      -1.094   0.506   0.523  0.00  0.00     0.003 A 
ENDROOT
TORSDOF 0
ENDMDL
