MODEL 1
REMARK minimizedAffinity -5.41535664
REMARK minimizedRMSD -1
REMARK  0 active torsions:
REMARK  status: ('A' for Active; 'I' for Inactive)
ROOT
ATOM      1  C4' PXY d   1      -3.296   0.025   1.122  0.00  0.00     0.077 C 
ATOM      2  C1' PXY d   1       2.465   0.087   1.587  0.00  0.00     0.077 C 
ATOM      3  C1  PXY d   1       0.954   0.064   1.476  0.00  0.00    -0.082 A 
ATOM      4  C2  PXY d   1       0.381   0.262   0.300  0.00  0.00     0.003 A 
ATOM      5  C3  PXY d   1      -0.985   0.275   0.187  0.00  0.00     0.003 A 
ATOM      6  C4  PXY d   1      -1.773   0.031   1.280  0.00  0.00    -0.082 A 
ATOM      7  C5  PXY d   1      -1.197  -0.182   2.481  0.00  0.00     0.003 A 
ATOM      8  C6  PXY d   1       0.191  -0.151   2.582  0.00  0.00     0.003 A 
ENDROOT
TORSDOF 0
ENDMDL
