MODEL 1
REMARK minimizedAffinity -0.911095858
REMARK minimizedRMSD -1
REMARK  0 active torsions:
REMARK  status: ('A' for Active; 'I' for Inactive)
ROOT
ATOM      1  C4' PXY d   1       0.679  -0.269  -2.171  0.00  0.00     0.077 C 
ATOM      2  C1' PXY d   1      -1.084  -0.035   3.329  0.00  0.00     0.077 C 
ATOM      3  C1  PXY d   1      -0.620  -0.084   1.887  0.00  0.00    -0.082 A 
ATOM      4  C2  PXY d   1      -1.037  -1.061   1.098  0.00  0.00     0.003 A 
ATOM      5  C3  PXY d   1      -0.601  -1.138  -0.200  0.00  0.00     0.003 A 
ATOM      6  C4  PXY d   1       0.228  -0.175  -0.711  0.00  0.00    -0.082 A 
ATOM      7  C5  PXY d   1       0.650   0.831   0.085  0.00  0.00     0.003 A 
ATOM      8  C6  PXY d   1       0.229   0.868   1.411  0.00  0.00     0.003 A 
ENDROOT
TORSDOF 0
ENDMDL
