MODEL 1
REMARK minimizedAffinity -5.67151165
REMARK minimizedRMSD -1
REMARK  0 active torsions:
REMARK  status: ('A' for Active; 'I' for Inactive)
ROOT
ATOM      1  C4' PXY d   1       1.031  -0.035  -1.848  0.00  0.00     0.077 C 
ATOM      2  C1' PXY d   1      -1.141  -0.517   3.487  0.00  0.00     0.077 C 
ATOM      3  C1  PXY d   1      -0.569  -0.378   2.090  0.00  0.00    -0.082 A 
ATOM      4  C2  PXY d   1      -0.966  -1.204   1.136  0.00  0.00     0.003 A 
ATOM      5  C3  PXY d   1      -0.435  -1.112  -0.125  0.00  0.00     0.003 A 
ATOM      6  C4  PXY d   1       0.473  -0.132  -0.425  0.00  0.00    -0.082 A 
ATOM      7  C5  PXY d   1       0.875   0.721   0.541  0.00  0.00     0.003 A 
ATOM      8  C6  PXY d   1       0.355   0.585   1.824  0.00  0.00     0.003 A 
ENDROOT
TORSDOF 0
ENDMDL
