MODEL 1
REMARK minimizedAffinity -0.836434901
REMARK minimizedRMSD -1
REMARK  0 active torsions:
REMARK  status: ('A' for Active; 'I' for Inactive)
ROOT
ATOM      1  C4' PXY d   1       0.839   0.391  -1.786  0.00  0.00     0.077 C 
ATOM      2  C1' PXY d   1      -1.496  -1.098   3.288  0.00  0.00     0.077 C 
ATOM      3  C1  PXY d   1      -0.881  -0.696   1.962  0.00  0.00    -0.082 A 
ATOM      4  C2  PXY d   1      -1.222  -1.343   0.860  0.00  0.00     0.003 A 
ATOM      5  C3  PXY d   1      -0.652  -1.013  -0.343  0.00  0.00     0.003 A 
ATOM      6  C4  PXY d   1       0.237   0.025  -0.426  0.00  0.00    -0.082 A 
ATOM      7  C5  PXY d   1       0.582   0.697   0.692  0.00  0.00     0.003 A 
ATOM      8  C6  PXY d   1       0.022   0.320   1.910  0.00  0.00     0.003 A 
ENDROOT
TORSDOF 0
ENDMDL
