MODEL 1
REMARK minimizedAffinity -1.31931424
REMARK minimizedRMSD -1
REMARK  0 active torsions:
REMARK  status: ('A' for Active; 'I' for Inactive)
ROOT
ATOM      1  C4' PXY d   1       0.541   0.294  -2.749  0.00  0.00     0.077 C 
ATOM      2  C1' PXY d   1      -0.403   0.591   2.946  0.00  0.00     0.077 C 
ATOM      3  C1  PXY d   1      -0.167   0.509   1.451  0.00  0.00    -0.082 A 
ATOM      4  C2  PXY d   1       1.068   0.410   0.987  0.00  0.00     0.003 A 
ATOM      5  C3  PXY d   1       1.301   0.366  -0.363  0.00  0.00     0.003 A 
ATOM      6  C4  PXY d   1       0.255   0.370  -1.247  0.00  0.00    -0.082 A 
ATOM      7  C5  PXY d   1      -1.009   0.460  -0.782  0.00  0.00     0.003 A 
ATOM      8  C6  PXY d   1      -1.222   0.545   0.591  0.00  0.00     0.003 A 
ENDROOT
TORSDOF 0
ENDMDL
