MODEL 1
REMARK minimizedAffinity -5.05081129
REMARK minimizedRMSD -1
REMARK  0 active torsions:
REMARK  status: ('A' for Active; 'I' for Inactive)
ROOT
ATOM      1  C4' PXY d   1      -1.616  -0.519   3.803  0.00  0.00     0.077 C 
ATOM      2  C1' PXY d   1       0.618  -0.134  -1.515  0.00  0.00     0.077 C 
ATOM      3  C1  PXY d   1       0.043  -0.240  -0.116  0.00  0.00    -0.082 A 
ATOM      4  C2  PXY d   1      -1.266  -0.338   0.048  0.00  0.00     0.003 A 
ATOM      5  C3  PXY d   1      -1.805  -0.402   1.307  0.00  0.00     0.003 A 
ATOM      6  C4  PXY d   1      -0.991  -0.420   2.408  0.00  0.00    -0.082 A 
ATOM      7  C5  PXY d   1       0.346  -0.331   2.249  0.00  0.00     0.003 A 
ATOM      8  C6  PXY d   1       0.871  -0.225   0.964  0.00  0.00     0.003 A 
ENDROOT
TORSDOF 0
ENDMDL
