MODEL 1
REMARK minimizedAffinity -4.05504608
REMARK minimizedRMSD -1
REMARK  0 active torsions:
REMARK  status: ('A' for Active; 'I' for Inactive)
ROOT
ATOM      1  C4' PXY d   1      -1.752  -0.582   3.771  0.00  0.00     0.077 C 
ATOM      2  C1' PXY d   1       0.432   0.518  -1.467  0.00  0.00     0.077 C 
ATOM      3  C1  PXY d   1      -0.153   0.232  -0.097  0.00  0.00    -0.082 A 
ATOM      4  C2  PXY d   1       0.615   0.333   0.976  0.00  0.00     0.003 A 
ATOM      5  C3  PXY d   1       0.110   0.047   2.218  0.00  0.00     0.003 A 
ATOM      6  C4  PXY d   1      -1.207  -0.294   2.370  0.00  0.00    -0.082 A 
ATOM      7  C5  PXY d   1      -1.999  -0.389   1.281  0.00  0.00     0.003 A 
ATOM      8  C6  PXY d   1      -1.457  -0.135   0.024  0.00  0.00     0.003 A 
ENDROOT
TORSDOF 0
ENDMDL
