MODEL 1
REMARK minimizedAffinity -2.0357058
REMARK minimizedRMSD -1
REMARK  0 active torsions:
REMARK  status: ('A' for Active; 'I' for Inactive)
ROOT
ATOM      1  C2' OXE d   1      -1.742   0.358   1.911  0.00  0.00     0.078 C 
ATOM      2  C1' OXE d   1       0.129  -1.677   2.399  0.00  0.00     0.078 C 
ATOM      3  C1  OXE d   1       0.155  -1.006   1.048  0.00  0.00    -0.078 A 
ATOM      4  C2  OXE d   1      -0.794  -0.043   0.802  0.00  0.00    -0.078 A 
ATOM      5  C3  OXE d   1      -0.780   0.645  -0.407  0.00  0.00     0.003 A 
ATOM      6  C4  OXE d   1       0.094   0.261  -1.432  0.00  0.00    -0.002 A 
ATOM      7  C5  OXE d   1       1.042  -0.744  -1.216  0.00  0.00    -0.002 A 
ATOM      8  C6  OXE d   1       1.114  -1.357   0.030  0.00  0.00     0.003 A 
ENDROOT
TORSDOF 0
ENDMDL
