MODEL 1
REMARK minimizedAffinity -0.527313411
REMARK minimizedRMSD -1
REMARK  0 active torsions:
REMARK  status: ('A' for Active; 'I' for Inactive)
ROOT
ATOM      1  C2' OXE d   1       2.233  -2.619   1.777  0.00  0.00     0.078 C 
ATOM      2  C1' OXE d   1       2.456  -1.519  -0.796  0.00  0.00     0.078 C 
ATOM      3  C1  OXE d   1       1.410  -0.944   0.127  0.00  0.00    -0.078 A 
ATOM      4  C2  OXE d   1       1.276  -1.520   1.367  0.00  0.00    -0.078 A 
ATOM      5  C3  OXE d   1       0.364  -0.993   2.277  0.00  0.00     0.003 A 
ATOM      6  C4  OXE d   1      -0.524   0.017   1.887  0.00  0.00    -0.002 A 
ATOM      7  C5  OXE d   1      -0.431   0.590   0.614  0.00  0.00    -0.002 A 
ATOM      8  C6  OXE d   1       0.556   0.151  -0.261  0.00  0.00     0.003 A 
ENDROOT
TORSDOF 0
ENDMDL
