MODEL 1
REMARK minimizedAffinity -2.68341064
REMARK minimizedRMSD -1
REMARK  0 active torsions:
REMARK  status: ('A' for Active; 'I' for Inactive)
ROOT
ATOM      1  C2' OXE d   1      -0.480   0.579  -1.222  0.00  0.00     0.078 C 
ATOM      2  C1' OXE d   1       1.614  -1.289  -1.149  0.00  0.00     0.078 C 
ATOM      3  C1  OXE d   1       0.867  -1.020   0.133  0.00  0.00    -0.078 A 
ATOM      4  C2  OXE d   1      -0.126  -0.070   0.099  0.00  0.00    -0.078 A 
ATOM      5  C3  OXE d   1      -0.883   0.177   1.240  0.00  0.00     0.003 A 
ATOM      6  C4  OXE d   1      -0.543  -0.420   2.460  0.00  0.00    -0.002 A 
ATOM      7  C5  OXE d   1       0.491  -1.360   2.526  0.00  0.00    -0.002 A 
ATOM      8  C6  OXE d   1       1.176  -1.703   1.365  0.00  0.00     0.003 A 
ENDROOT
TORSDOF 0
ENDMDL
