MODEL 1
REMARK minimizedAffinity 8.26917648
REMARK minimizedRMSD -1
REMARK  0 active torsions:
REMARK  status: ('A' for Active; 'I' for Inactive)
ROOT
ATOM      1  C2' OXE d   1      -6.000   0.251  -5.587  0.00  0.00     0.078 C 
ATOM      2  C1' OXE d   1      -3.195   0.368  -5.638  0.00  0.00     0.078 C 
ATOM      3  C1  OXE d   1      -3.914   1.177  -4.587  0.00  0.00    -0.078 A 
ATOM      4  C2  OXE d   1      -5.288   1.151  -4.600  0.00  0.00    -0.078 A 
ATOM      5  C3  OXE d   1      -6.000   1.835  -3.619  0.00  0.00     0.003 A 
ATOM      6  C4  OXE d   1      -5.335   2.673  -2.715  0.00  0.00    -0.002 A 
ATOM      7  C5  OXE d   1      -3.937   2.746  -2.711  0.00  0.00    -0.002 A 
ATOM      8  C6  OXE d   1      -3.212   1.973  -3.611  0.00  0.00     0.003 A 
ENDROOT
TORSDOF 0
ENDMDL
