MODEL 1
REMARK minimizedAffinity -3.49634767
REMARK minimizedRMSD -1
REMARK  0 active torsions:
REMARK  status: ('A' for Active; 'I' for Inactive)
ROOT
ATOM      1  C2' OXE d   1       2.387  -2.102   0.421  0.00  0.00     0.078 C 
ATOM      2  C1' OXE d   1       0.649  -1.274   2.464  0.00  0.00     0.078 C 
ATOM      3  C1  OXE d   1       0.270  -0.946   1.041  0.00  0.00    -0.078 A 
ATOM      4  C2  OXE d   1       1.149  -1.314   0.051  0.00  0.00    -0.078 A 
ATOM      5  C3  OXE d   1       0.822  -1.084  -1.282  0.00  0.00     0.003 A 
ATOM      6  C4  OXE d   1      -0.320  -0.346  -1.614  0.00  0.00    -0.002 A 
ATOM      7  C5  OXE d   1      -1.209   0.073  -0.619  0.00  0.00    -0.002 A 
ATOM      8  C6  OXE d   1      -0.951  -0.255   0.708  0.00  0.00     0.003 A 
ENDROOT
TORSDOF 0
ENDMDL
