MODEL 1
REMARK minimizedAffinity 3.06718159
REMARK minimizedRMSD -1
REMARK  0 active torsions:
REMARK  status: ('A' for Active; 'I' for Inactive)
ROOT
ATOM      1  C2' OXE d   1      -1.977   1.156  -1.134  0.00  0.00     0.078 C 
ATOM      2  C1' OXE d   1      -1.630   2.514   1.298  0.00  0.00     0.078 C 
ATOM      3  C1  OXE d   1      -1.336   1.035   1.270  0.00  0.00    -0.078 A 
ATOM      4  C2  OXE d   1      -1.553   0.369   0.087  0.00  0.00    -0.078 A 
ATOM      5  C3  OXE d   1      -1.246  -0.985  -0.008  0.00  0.00     0.003 A 
ATOM      6  C4  OXE d   1      -0.864  -1.707   1.129  0.00  0.00    -0.002 A 
ATOM      7  C5  OXE d   1      -0.674  -1.056   2.353  0.00  0.00    -0.002 A 
ATOM      8  C6  OXE d   1      -0.865   0.320   2.430  0.00  0.00     0.003 A 
ENDROOT
TORSDOF 0
ENDMDL
