MODEL 1
REMARK minimizedAffinity -5.83141422
REMARK minimizedRMSD -1
REMARK  0 active torsions:
REMARK  status: ('A' for Active; 'I' for Inactive)
ROOT
ATOM      1  C2' OXE d   1       2.582  -1.766   3.104  0.00  0.00     0.078 C 
ATOM      2  C1' OXE d   1       3.130  -1.989   0.359  0.00  0.00     0.078 C 
ATOM      3  C1  OXE d   1       1.886  -1.242   0.770  0.00  0.00    -0.078 A 
ATOM      4  C2  OXE d   1       1.601  -1.178   2.113  0.00  0.00    -0.078 A 
ATOM      5  C3  OXE d   1       0.495  -0.454   2.549  0.00  0.00     0.003 A 
ATOM      6  C4  OXE d   1      -0.413   0.078   1.625  0.00  0.00    -0.002 A 
ATOM      7  C5  OXE d   1      -0.162  -0.010   0.252  0.00  0.00    -0.002 A 
ATOM      8  C6  OXE d   1       1.002  -0.628  -0.190  0.00  0.00     0.003 A 
ENDROOT
TORSDOF 0
ENDMDL
