MODEL 1
REMARK minimizedAffinity -0.0419146195
REMARK minimizedRMSD -1
REMARK  0 active torsions:
REMARK  status: ('A' for Active; 'I' for Inactive)
ROOT
ATOM      1  C2' OXE d   1      -0.404  -0.013  -0.997  0.00  0.00     0.078 C 
ATOM      2  C1' OXE d   1       1.946  -1.504  -0.630  0.00  0.00     0.078 C 
ATOM      3  C1  OXE d   1       1.011  -1.365   0.545  0.00  0.00    -0.078 A 
ATOM      4  C2  OXE d   1      -0.113  -0.595   0.370  0.00  0.00    -0.078 A 
ATOM      5  C3  OXE d   1      -1.037  -0.479   1.405  0.00  0.00     0.003 A 
ATOM      6  C4  OXE d   1      -0.756  -1.012   2.669  0.00  0.00    -0.002 A 
ATOM      7  C5  OXE d   1       0.402  -1.766   2.879  0.00  0.00    -0.002 A 
ATOM      8  C6  OXE d   1       1.274  -1.988   1.819  0.00  0.00     0.003 A 
ENDROOT
TORSDOF 0
ENDMDL
