MODEL 1
REMARK minimizedAffinity -5.19991159
REMARK minimizedRMSD -1
REMARK  0 active torsions:
REMARK  status: ('A' for Active; 'I' for Inactive)
ROOT
ATOM      1  C2' OXE d   1       2.243  -0.693   3.181  0.00  0.00     0.078 C 
ATOM      2  C1' OXE d   1       2.889  -0.937   0.460  0.00  0.00     0.078 C 
ATOM      3  C1  OXE d   1       1.462  -0.604   0.817  0.00  0.00    -0.078 A 
ATOM      4  C2  OXE d   1       1.144  -0.533   2.152  0.00  0.00    -0.078 A 
ATOM      5  C3  OXE d   1      -0.145  -0.175   2.536  0.00  0.00     0.003 A 
ATOM      6  C4  OXE d   1      -1.157  -0.039   1.578  0.00  0.00    -0.002 A 
ATOM      7  C5  OXE d   1      -0.864  -0.146   0.215  0.00  0.00    -0.002 A 
ATOM      8  C6  OXE d   1       0.447  -0.386  -0.183  0.00  0.00     0.003 A 
ENDROOT
TORSDOF 0
ENDMDL
