MODEL 1
REMARK minimizedAffinity -4.95200777
REMARK minimizedRMSD -1
REMARK  0 active torsions:
REMARK  status: ('A' for Active; 'I' for Inactive)
ROOT
ATOM      1  C2' OXE d   1       2.212  -2.750   0.964  0.00  0.00     0.078 C 
ATOM      2  C1' OXE d   1       1.267  -1.537  -1.384  0.00  0.00     0.078 C 
ATOM      3  C1  OXE d   1       0.606  -1.159  -0.082  0.00  0.00    -0.078 A 
ATOM      4  C2  OXE d   1       1.044  -1.793   1.056  0.00  0.00    -0.078 A 
ATOM      5  C3  OXE d   1       0.505  -1.442   2.291  0.00  0.00     0.003 A 
ATOM      6  C4  OXE d   1      -0.582  -0.562   2.366  0.00  0.00    -0.002 A 
ATOM      7  C5  OXE d   1      -1.069   0.064   1.214  0.00  0.00    -0.002 A 
ATOM      8  C6  OXE d   1      -0.460  -0.191  -0.010  0.00  0.00     0.003 A 
ENDROOT
TORSDOF 0
ENDMDL
