MODEL 1
REMARK minimizedAffinity -4.28084326
REMARK minimizedRMSD -1
REMARK  0 active torsions:
REMARK  status: ('A' for Active; 'I' for Inactive)
ROOT
ATOM      1  C   UNL d   1       3.060  -0.795  -1.137  0.00  0.00     0.078 C 
ATOM      2  C1  UNL d   1       1.678  -0.545  -0.612  0.00  0.00    -0.077 A 
ATOM      3  C2  UNL d   1       0.876  -1.600  -0.160  0.00  0.00    -0.001 A 
ATOM      4  C3  UNL d   1      -0.412  -1.353   0.317  0.00  0.00     0.003 A 
ATOM      5  C4  UNL d   1      -0.911  -0.052   0.346  0.00  0.00    -0.005 A 
ATOM      6  C5  UNL d   1      -0.121   1.004  -0.105  0.00  0.00     0.003 A 
ATOM      7  C6  UNL d   1       1.168   0.759  -0.582  0.00  0.00    -0.001 A 
ENDROOT
TORSDOF 0
ENDMDL
