MODEL 1
REMARK minimizedAffinity -4.96810818
REMARK minimizedRMSD -1
REMARK  0 active torsions:
REMARK  status: ('A' for Active; 'I' for Inactive)
ROOT
ATOM      1  C   UNL d   1      -0.517   0.373   0.568  0.00  0.00     0.078 C 
ATOM      2  C1  UNL d   1       0.689   0.513  -0.312  0.00  0.00    -0.077 A 
ATOM      3  C2  UNL d   1       0.726   1.464  -1.339  0.00  0.00    -0.001 A 
ATOM      4  C3  UNL d   1       1.852   1.577  -2.156  0.00  0.00     0.003 A 
ATOM      5  C4  UNL d   1       2.949   0.741  -1.956  0.00  0.00    -0.005 A 
ATOM      6  C5  UNL d   1       2.920  -0.210  -0.938  0.00  0.00     0.003 A 
ATOM      7  C6  UNL d   1       1.795  -0.324  -0.120  0.00  0.00    -0.001 A 
ENDROOT
TORSDOF 0
ENDMDL
