MODEL 1
REMARK minimizedAffinity -5.98357868
REMARK minimizedRMSD -1
REMARK  0 active torsions:
REMARK  status: ('A' for Active; 'I' for Inactive)
ROOT
ATOM      1  C   UNL d   1      -0.676   0.495   0.491  0.00  0.00     0.078 C 
ATOM      2  C1  UNL d   1       0.440   0.430  -0.508  0.00  0.00    -0.077 A 
ATOM      3  C2  UNL d   1       0.623   1.449  -1.451  0.00  0.00    -0.001 A 
ATOM      4  C3  UNL d   1       1.661   1.371  -2.382  0.00  0.00     0.003 A 
ATOM      5  C4  UNL d   1       2.523   0.276  -2.379  0.00  0.00    -0.005 A 
ATOM      6  C5  UNL d   1       2.347  -0.743  -1.446  0.00  0.00     0.003 A 
ATOM      7  C6  UNL d   1       1.310  -0.667  -0.515  0.00  0.00    -0.001 A 
ENDROOT
TORSDOF 0
ENDMDL
