MODEL 1
REMARK minimizedAffinity -4.9238472
REMARK minimizedRMSD -1
REMARK  0 active torsions:
REMARK  status: ('A' for Active; 'I' for Inactive)
ROOT
ATOM      1  C   UNL d   1      -0.426  -0.006   0.389  0.00  0.00     0.078 C 
ATOM      2  C1  UNL d   1       0.726   0.106  -0.565  0.00  0.00    -0.077 A 
ATOM      3  C2  UNL d   1       1.775  -0.820  -0.540  0.00  0.00    -0.001 A 
ATOM      4  C3  UNL d   1       2.846  -0.698  -1.427  0.00  0.00     0.003 A 
ATOM      5  C4  UNL d   1       2.879   0.351  -2.344  0.00  0.00    -0.005 A 
ATOM      6  C5  UNL d   1       1.841   1.280  -2.374  0.00  0.00     0.003 A 
ATOM      7  C6  UNL d   1       0.769   1.159  -1.488  0.00  0.00    -0.001 A 
ENDROOT
TORSDOF 0
ENDMDL
