MODEL 1
REMARK minimizedAffinity -5.14255238
REMARK minimizedRMSD -1
REMARK  0 active torsions:
REMARK  status: ('A' for Active; 'I' for Inactive)
ROOT
ATOM      1  C   UNL d   1      -1.104   0.543   0.045  0.00  0.00     0.078 C 
ATOM      2  C1  UNL d   1       0.189   0.372  -0.694  0.00  0.00    -0.077 A 
ATOM      3  C2  UNL d   1       1.038  -0.708  -0.421  0.00  0.00    -0.001 A 
ATOM      4  C3  UNL d   1       2.244  -0.850  -1.110  0.00  0.00     0.003 A 
ATOM      5  C4  UNL d   1       2.612   0.085  -2.075  0.00  0.00    -0.005 A 
ATOM      6  C5  UNL d   1       1.775   1.164  -2.352  0.00  0.00     0.003 A 
ATOM      7  C6  UNL d   1       0.569   1.307  -1.664  0.00  0.00    -0.001 A 
ENDROOT
TORSDOF 0
ENDMDL
