MODEL 1
REMARK minimizedAffinity -3.18400908
REMARK minimizedRMSD -1
REMARK  0 active torsions:
REMARK  status: ('A' for Active; 'I' for Inactive)
ROOT
ATOM      1  C   UNL d   1      -1.456   0.113   0.462  0.00  0.00     0.078 C 
ATOM      2  C1  UNL d   1      -0.178  -0.561   0.061  0.00  0.00    -0.077 A 
ATOM      3  C2  UNL d   1       0.605  -0.058  -0.985  0.00  0.00    -0.001 A 
ATOM      4  C3  UNL d   1       1.788  -0.701  -1.354  0.00  0.00     0.003 A 
ATOM      5  C4  UNL d   1       2.197  -1.852  -0.683  0.00  0.00    -0.005 A 
ATOM      6  C5  UNL d   1       1.423  -2.361   0.357  0.00  0.00     0.003 A 
ATOM      7  C6  UNL d   1       0.240  -1.719   0.728  0.00  0.00    -0.001 A 
ENDROOT
TORSDOF 0
ENDMDL
