MODEL 1
REMARK minimizedAffinity -5.95331717
REMARK minimizedRMSD -1
REMARK  0 active torsions:
REMARK  status: ('A' for Active; 'I' for Inactive)
ROOT
ATOM      1  C   UNL d   1      -0.114   0.458   0.714  0.00  0.00     0.078 C 
ATOM      2  C1  UNL d   1       0.926   0.374  -0.363  0.00  0.00    -0.077 A 
ATOM      3  C2  UNL d   1       1.024   1.362  -1.350  0.00  0.00    -0.001 A 
ATOM      4  C3  UNL d   1       1.990   1.266  -2.352  0.00  0.00     0.003 A 
ATOM      5  C4  UNL d   1       2.865   0.182  -2.379  0.00  0.00    -0.005 A 
ATOM      6  C5  UNL d   1       2.774  -0.808  -1.402  0.00  0.00     0.003 A 
ATOM      7  C6  UNL d   1       1.808  -0.714  -0.399  0.00  0.00    -0.001 A 
ENDROOT
TORSDOF 0
ENDMDL
