MODEL 1
REMARK minimizedAffinity -4.92265654
REMARK minimizedRMSD -1
REMARK  0 active torsions:
REMARK  status: ('A' for Active; 'I' for Inactive)
ROOT
ATOM      1  C   UNL d   1       1.571   2.032  -2.589  0.00  0.00     0.078 C 
ATOM      2  C1  UNL d   1       1.390   0.820  -1.725  0.00  0.00    -0.077 A 
ATOM      3  C2  UNL d   1       2.260  -0.273  -1.825  0.00  0.00    -0.001 A 
ATOM      4  C3  UNL d   1       2.074  -1.399  -1.021  0.00  0.00     0.003 A 
ATOM      5  C4  UNL d   1       1.019  -1.443  -0.112  0.00  0.00    -0.005 A 
ATOM      6  C5  UNL d   1       0.147  -0.362  -0.007  0.00  0.00     0.003 A 
ATOM      7  C6  UNL d   1       0.331   0.765  -0.810  0.00  0.00    -0.001 A 
ENDROOT
TORSDOF 0
ENDMDL
