MODEL 1
REMARK minimizedAffinity -6.16640377
REMARK minimizedRMSD -1
REMARK  0 active torsions:
REMARK  status: ('A' for Active; 'I' for Inactive)
ROOT
ATOM      1  C   UNL d   1       0.388  -1.983   0.243  0.00  0.00     0.078 C 
ATOM      2  C1  UNL d   1       1.096  -0.906  -0.523  0.00  0.00    -0.077 A 
ATOM      3  C2  UNL d   1       0.501   0.346  -0.726  0.00  0.00    -0.001 A 
ATOM      4  C3  UNL d   1       1.167   1.336  -1.449  0.00  0.00     0.003 A 
ATOM      5  C4  UNL d   1       2.432   1.085  -1.977  0.00  0.00    -0.005 A 
ATOM      6  C5  UNL d   1       3.031  -0.158  -1.783  0.00  0.00     0.003 A 
ATOM      7  C6  UNL d   1       2.366  -1.149  -1.060  0.00  0.00    -0.001 A 
ENDROOT
TORSDOF 0
ENDMDL
