MODEL 1
REMARK minimizedAffinity -4.92540216
REMARK minimizedRMSD -1
REMARK  0 active torsions:
REMARK  status: ('A' for Active; 'I' for Inactive)
ROOT
ATOM      1  C   UNL d   1      -1.132   0.437   0.406  0.00  0.00     0.078 C 
ATOM      2  C1  UNL d   1       0.112   0.386  -0.429  0.00  0.00    -0.077 A 
ATOM      3  C2  UNL d   1       0.893  -0.775  -0.488  0.00  0.00    -0.001 A 
ATOM      4  C3  UNL d   1       2.054  -0.806  -1.262  0.00  0.00     0.003 A 
ATOM      5  C4  UNL d   1       2.446   0.322  -1.981  0.00  0.00    -0.005 A 
ATOM      6  C5  UNL d   1       1.676   1.482  -1.927  0.00  0.00     0.003 A 
ATOM      7  C6  UNL d   1       0.514   1.514  -1.154  0.00  0.00    -0.001 A 
ENDROOT
TORSDOF 0
ENDMDL
