MODEL 1
REMARK minimizedAffinity -4.250916
REMARK minimizedRMSD -1
REMARK  0 active torsions:
REMARK  status: ('A' for Active; 'I' for Inactive)
ROOT
ATOM      1  C   UNL d   1       0.420   0.017  -0.022  0.00  0.00     0.078 C 
ATOM      2  C1  UNL d   1      -0.649   0.293   0.993  0.00  0.00    -0.077 A 
ATOM      3  C2  UNL d   1      -1.967  -0.133   0.788  0.00  0.00    -0.001 A 
ATOM      4  C3  UNL d   1      -2.953   0.140   1.736  0.00  0.00     0.003 A 
ATOM      5  C4  UNL d   1      -2.633   0.841   2.897  0.00  0.00    -0.005 A 
ATOM      6  C5  UNL d   1      -1.324   1.272   3.110  0.00  0.00     0.003 A 
ATOM      7  C6  UNL d   1      -0.337   0.999   2.162  0.00  0.00    -0.001 A 
ENDROOT
TORSDOF 0
ENDMDL
