MODEL 1
REMARK minimizedAffinity -5.079041
REMARK minimizedRMSD -1
REMARK  0 active torsions:
REMARK  status: ('A' for Active; 'I' for Inactive)
ROOT
ATOM      1  C   UNL d   1      -0.774   0.215   0.637  0.00  0.00     0.078 C 
ATOM      2  C1  UNL d   1       0.433  -0.029  -0.219  0.00  0.00    -0.077 A 
ATOM      3  C2  UNL d   1       0.929   0.968  -1.068  0.00  0.00    -0.001 A 
ATOM      4  C3  UNL d   1       2.047   0.724  -1.866  0.00  0.00     0.003 A 
ATOM      5  C4  UNL d   1       2.678  -0.518  -1.825  0.00  0.00    -0.005 A 
ATOM      6  C5  UNL d   1       2.191  -1.517  -0.985  0.00  0.00     0.003 A 
ATOM      7  C6  UNL d   1       1.073  -1.274  -0.186  0.00  0.00    -0.001 A 
ENDROOT
TORSDOF 0
ENDMDL
