MODEL 1
REMARK minimizedAffinity -5.75967169
REMARK minimizedRMSD -1
REMARK  0 active torsions:
REMARK  status: ('A' for Active; 'I' for Inactive)
ROOT
ATOM      1  C   UNL d   1       1.064   2.730  -1.921  0.00  0.00     0.078 C 
ATOM      2  C1  UNL d   1       1.306   1.276  -1.648  0.00  0.00    -0.077 A 
ATOM      3  C2  UNL d   1       0.497   0.565  -0.754  0.00  0.00    -0.001 A 
ATOM      4  C3  UNL d   1       0.740  -0.786  -0.502  0.00  0.00     0.003 A 
ATOM      5  C4  UNL d   1       1.793  -1.438  -1.141  0.00  0.00    -0.005 A 
ATOM      6  C5  UNL d   1       2.606  -0.739  -2.031  0.00  0.00     0.003 A 
ATOM      7  C6  UNL d   1       2.364   0.613  -2.283  0.00  0.00    -0.001 A 
ENDROOT
TORSDOF 0
ENDMDL
