MODEL 1
REMARK minimizedAffinity -4.77088022
REMARK minimizedRMSD -1
REMARK  0 active torsions:
REMARK  status: ('A' for Active; 'I' for Inactive)
ROOT
ATOM      1  C   UNL d   1       2.232   1.572  -2.705  0.00  0.00     0.078 C 
ATOM      2  C1  UNL d   1       1.586   0.592  -1.772  0.00  0.00    -0.077 A 
ATOM      3  C2  UNL d   1       2.192  -0.638  -1.485  0.00  0.00    -0.001 A 
ATOM      4  C3  UNL d   1       1.575  -1.544  -0.621  0.00  0.00     0.003 A 
ATOM      5  C4  UNL d   1       0.348  -1.232  -0.039  0.00  0.00    -0.005 A 
ATOM      6  C5  UNL d   1      -0.264  -0.012  -0.321  0.00  0.00     0.003 A 
ATOM      7  C6  UNL d   1       0.352   0.896  -1.184  0.00  0.00    -0.001 A 
ENDROOT
TORSDOF 0
ENDMDL
