MODEL 1
REMARK minimizedAffinity 2.59715486
REMARK minimizedRMSD -1
REMARK  2 active torsions:
REMARK  status: ('A' for Active; 'I' for Inactive)
REMARK    1  A    between atoms: C2'_3  and  C1'_4 
REMARK    2  A    between atoms: C1'_4  and  C1_5 
ROOT
ATOM      1  C1  I4B d   1      -4.781   1.226   3.364  0.00  0.00    -0.075 A 
ATOM      2  C2  I4B d   1      -5.432   2.337   3.838  0.00  0.00     0.003 A 
ATOM      3  C3  I4B d   1      -5.934   2.359   5.162  0.00  0.00     0.002 A 
ATOM      4  C4  I4B d   1      -5.807   1.237   5.955  0.00  0.00    -0.004 A 
ATOM      5  C5  I4B d   1      -5.126   0.120   5.481  0.00  0.00     0.002 A 
ATOM      6  C6  I4B d   1      -4.599   0.118   4.181  0.00  0.00     0.003 A 
ENDROOT
BRANCH   1   7
ATOM      7  C1' I4B d   1      -4.293   1.225   1.950  0.00  0.00     0.060 C 
BRANCH   7   8
ATOM      8  C2' I4B d   1      -3.596  -0.096   1.697  0.00  0.00    -0.013 C 
ATOM      9  C4' I4B d   1      -4.388  -0.958   0.750  0.00  0.00     0.013 C 
ATOM     10  C3' I4B d   1      -2.231   0.197   1.150  0.00  0.00     0.013 C 
ENDBRANCH   7   8
ENDBRANCH   1   7
TORSDOF 2
ENDMDL
