MODEL 1
REMARK minimizedAffinity 16.1133022
REMARK minimizedRMSD -1
REMARK  2 active torsions:
REMARK  status: ('A' for Active; 'I' for Inactive)
REMARK    1  A    between atoms: C2'_3  and  C1'_4 
REMARK    2  A    between atoms: C1'_4  and  C1_5 
ROOT
ATOM      1  C1  I4B d   1      -5.046   3.774   4.116  0.00  0.00    -0.075 A 
ATOM      2  C2  I4B d   1      -5.996   3.868   5.102  0.00  0.00     0.003 A 
ATOM      3  C3  I4B d   1      -5.989   4.965   5.997  0.00  0.00     0.002 A 
ATOM      4  C4  I4B d   1      -4.991   5.913   5.902  0.00  0.00    -0.004 A 
ATOM      5  C5  I4B d   1      -4.042   5.829   4.887  0.00  0.00     0.002 A 
ATOM      6  C6  I4B d   1      -4.077   4.759   3.980  0.00  0.00     0.003 A 
ENDROOT
BRANCH   1   7
ATOM      7  C1' I4B d   1      -5.064   2.585   3.208  0.00  0.00     0.060 C 
BRANCH   7   8
ATOM      8  C2' I4B d   1      -4.548   3.024   1.853  0.00  0.00    -0.013 C 
ATOM      9  C4' I4B d   1      -3.271   2.309   1.498  0.00  0.00     0.013 C 
ATOM     10  C3' I4B d   1      -5.620   2.754   0.840  0.00  0.00     0.013 C 
ENDBRANCH   7   8
ENDBRANCH   1   7
TORSDOF 2
ENDMDL
