MODEL 1
REMARK minimizedAffinity 5.16506433
REMARK minimizedRMSD -1
REMARK  2 active torsions:
REMARK  status: ('A' for Active; 'I' for Inactive)
REMARK    1  A    between atoms: C2'_3  and  C1'_4 
REMARK    2  A    between atoms: C1'_4  and  C1_5 
ROOT
ATOM      1  C1  I4B d   1      -3.195  -1.156  -5.655  0.00  0.00    -0.075 A 
ATOM      2  C2  I4B d   1      -2.519  -0.170  -4.980  0.00  0.00     0.003 A 
ATOM      3  C3  I4B d   1      -1.162  -0.356  -4.617  0.00  0.00     0.002 A 
ATOM      4  C4  I4B d   1      -0.541  -1.554  -4.903  0.00  0.00    -0.004 A 
ATOM      5  C5  I4B d   1      -1.221  -2.544  -5.607  0.00  0.00     0.002 A 
ATOM      6  C6  I4B d   1      -2.552  -2.339  -5.997  0.00  0.00     0.003 A 
ENDROOT
BRANCH   1   7
ATOM      7  C1' I4B d   1      -4.636  -0.940  -5.993  0.00  0.00     0.060 C 
BRANCH   7   8
ATOM      8  C2' I4B d   1      -5.357  -2.262  -5.829  0.00  0.00    -0.013 C 
ATOM      9  C4' I4B d   1      -4.413  -3.423  -5.997  0.00  0.00     0.013 C 
ATOM     10  C3' I4B d   1      -5.996  -2.275  -4.472  0.00  0.00     0.013 C 
ENDBRANCH   7   8
ENDBRANCH   1   7
TORSDOF 2
ENDMDL
