MODEL 1
REMARK minimizedAffinity 1.48998499
REMARK minimizedRMSD -1
REMARK  2 active torsions:
REMARK  status: ('A' for Active; 'I' for Inactive)
REMARK    1  A    between atoms: C2'_3  and  C1'_4 
REMARK    2  A    between atoms: C1'_4  and  C1_5 
ROOT
ATOM      1  C1  I4B d   1      -3.222  -2.404  -5.958  0.00  0.00    -0.075 A 
ATOM      2  C2  I4B d   1      -4.075  -1.329  -5.931  0.00  0.00     0.003 A 
ATOM      3  C3  I4B d   1      -5.476  -1.530  -5.925  0.00  0.00     0.002 A 
ATOM      4  C4  I4B d   1      -5.979  -2.814  -5.996  0.00  0.00    -0.004 A 
ATOM      5  C5  I4B d   1      -5.113  -3.903  -6.000  0.00  0.00     0.002 A 
ATOM      6  C6  I4B d   1      -3.726  -3.698  -5.968  0.00  0.00     0.003 A 
ENDROOT
BRANCH   1   7
ATOM      7  C1' I4B d   1      -1.748  -2.154  -5.997  0.00  0.00     0.060 C 
BRANCH   7   8
ATOM      8  C2' I4B d   1      -1.448  -0.983  -5.084  0.00  0.00    -0.013 C 
ATOM      9  C4' I4B d   1      -0.067  -1.090  -4.494  0.00  0.00     0.013 C 
ATOM     10  C3' I4B d   1      -1.599   0.278  -5.883  0.00  0.00     0.013 C 
ENDBRANCH   7   8
ENDBRANCH   1   7
TORSDOF 2
ENDMDL
