MODEL 1
REMARK minimizedAffinity 4.79303408
REMARK minimizedRMSD -1
REMARK  2 active torsions:
REMARK  status: ('A' for Active; 'I' for Inactive)
REMARK    1  A    between atoms: C2'_3  and  C1'_4 
REMARK    2  A    between atoms: C1'_4  and  C1_5 
ROOT
ATOM      1  C1  I4B d   1      -1.585  -1.689  -5.991  0.00  0.00    -0.075 A 
ATOM      2  C2  I4B d   1      -2.412  -2.785  -5.996  0.00  0.00     0.003 A 
ATOM      3  C3  I4B d   1      -3.818  -2.616  -6.000  0.00  0.00     0.002 A 
ATOM      4  C4  I4B d   1      -4.350  -1.344  -5.947  0.00  0.00    -0.004 A 
ATOM      5  C5  I4B d   1      -3.510  -0.234  -5.965  0.00  0.00     0.002 A 
ATOM      6  C6  I4B d   1      -2.119  -0.407  -6.000  0.00  0.00     0.003 A 
ENDROOT
BRANCH   1   7
ATOM      7  C1' I4B d   1      -0.105  -1.904  -5.954  0.00  0.00     0.060 C 
BRANCH   7   8
ATOM      8  C2' I4B d   1       0.507  -0.796  -5.121  0.00  0.00    -0.013 C 
ATOM      9  C4' I4B d   1       0.530  -1.162  -3.660  0.00  0.00     0.013 C 
ATOM     10  C3' I4B d   1       1.891  -0.539  -5.637  0.00  0.00     0.013 C 
ENDBRANCH   7   8
ENDBRANCH   1   7
TORSDOF 2
ENDMDL
