MODEL 1
REMARK minimizedAffinity 5.29897451
REMARK minimizedRMSD -1
REMARK  2 active torsions:
REMARK  status: ('A' for Active; 'I' for Inactive)
REMARK    1  A    between atoms: C2'_3  and  C1'_4 
REMARK    2  A    between atoms: C1'_4  and  C1_5 
ROOT
ATOM      1  C1  I4B d   1       5.622  -2.716   3.486  0.00  0.00    -0.075 A 
ATOM      2  C2  I4B d   1       5.636  -4.082   3.621  0.00  0.00     0.003 A 
ATOM      3  C3  I4B d   1       5.802  -4.670   4.899  0.00  0.00     0.002 A 
ATOM      4  C4  I4B d   1       5.999  -3.861   5.999  0.00  0.00    -0.004 A 
ATOM      5  C5  I4B d   1       5.961  -2.476   5.864  0.00  0.00     0.002 A 
ATOM      6  C6  I4B d   1       5.760  -1.900   4.601  0.00  0.00     0.003 A 
ENDROOT
BRANCH   1   7
ATOM      7  C1' I4B d   1       5.479  -2.129   2.118  0.00  0.00     0.060 C 
BRANCH   7   8
ATOM      8  C2' I4B d   1       4.867  -0.750   2.264  0.00  0.00    -0.013 C 
ATOM      9  C4' I4B d   1       4.919   0.010   0.965  0.00  0.00     0.013 C 
ATOM     10  C3' I4B d   1       3.454  -0.918   2.736  0.00  0.00     0.013 C 
ENDBRANCH   7   8
ENDBRANCH   1   7
TORSDOF 2
ENDMDL
