MODEL 1
REMARK minimizedAffinity 12.8328724
REMARK minimizedRMSD -1
REMARK  2 active torsions:
REMARK  status: ('A' for Active; 'I' for Inactive)
REMARK    1  A    between atoms: C2'_3  and  C1'_4 
REMARK    2  A    between atoms: C1'_4  and  C1_5 
ROOT
ATOM      1  C1  I4B d   1       2.781   0.720  -3.076  0.00  0.00    -0.075 A 
ATOM      2  C2  I4B d   1       2.694   1.786  -2.216  0.00  0.00     0.003 A 
ATOM      3  C3  I4B d   1       1.510   2.005  -1.472  0.00  0.00     0.002 A 
ATOM      4  C4  I4B d   1       0.427   1.169  -1.654  0.00  0.00    -0.004 A 
ATOM      5  C5  I4B d   1       0.526   0.076  -2.510  0.00  0.00     0.002 A 
ATOM      6  C6  I4B d   1       1.714  -0.158  -3.216  0.00  0.00     0.003 A 
ENDROOT
BRANCH   1   7
ATOM      7  C1' I4B d   1       4.035   0.536  -3.872  0.00  0.00     0.060 C 
BRANCH   7   8
ATOM      8  C2' I4B d   1       3.675   0.634  -5.340  0.00  0.00    -0.013 C 
ATOM      9  C4' I4B d   1       4.364   1.803  -5.994  0.00  0.00     0.013 C 
ATOM     10  C3' I4B d   1       4.058  -0.658  -5.998  0.00  0.00     0.013 C 
ENDBRANCH   7   8
ENDBRANCH   1   7
TORSDOF 2
ENDMDL
