MODEL 1
REMARK minimizedAffinity 11.2509365
REMARK minimizedRMSD -1
REMARK  2 active torsions:
REMARK  status: ('A' for Active; 'I' for Inactive)
REMARK    1  A    between atoms: C2'_3  and  C1'_4 
REMARK    2  A    between atoms: C1'_4  and  C1_5 
ROOT
ATOM      1  C1  I4B d   1      -3.779  -0.591   1.398  0.00  0.00    -0.075 A 
ATOM      2  C2  I4B d   1      -2.474  -0.659   1.818  0.00  0.00     0.003 A 
ATOM      3  C3  I4B d   1      -1.658   0.498   1.799  0.00  0.00     0.002 A 
ATOM      4  C4  I4B d   1      -2.169   1.683   1.309  0.00  0.00    -0.004 A 
ATOM      5  C5  I4B d   1      -3.500   1.755   0.906  0.00  0.00     0.002 A 
ATOM      6  C6  I4B d   1      -4.314   0.615   0.962  0.00  0.00     0.003 A 
ENDROOT
BRANCH   1   7
ATOM      7  C1' I4B d   1      -4.603  -1.839   1.401  0.00  0.00     0.060 C 
BRANCH   7   8
ATOM      8  C2' I4B d   1      -4.504  -2.467   0.025  0.00  0.00    -0.013 C 
ATOM      9  C4' I4B d   1      -3.963  -3.870   0.104  0.00  0.00     0.013 C 
ATOM     10  C3' I4B d   1      -5.870  -2.447  -0.593  0.00  0.00     0.013 C 
ENDBRANCH   7   8
ENDBRANCH   1   7
TORSDOF 2
ENDMDL
