MODEL 1
REMARK minimizedAffinity 3.45122051
REMARK minimizedRMSD -1
REMARK  2 active torsions:
REMARK  status: ('A' for Active; 'I' for Inactive)
REMARK    1  A    between atoms: C2'_3  and  C1'_4 
REMARK    2  A    between atoms: C1'_4  and  C1_5 
ROOT
ATOM      1  C1  I4B d   1      -3.911   1.730   2.523  0.00  0.00    -0.075 A 
ATOM      2  C2  I4B d   1      -3.552   0.476   2.949  0.00  0.00     0.003 A 
ATOM      3  C3  I4B d   1      -4.145  -0.080   4.108  0.00  0.00     0.002 A 
ATOM      4  C4  I4B d   1      -5.050   0.668   4.834  0.00  0.00    -0.004 A 
ATOM      5  C5  I4B d   1      -5.430   1.930   4.387  0.00  0.00     0.002 A 
ATOM      6  C6  I4B d   1      -4.866   2.460   3.218  0.00  0.00     0.003 A 
ENDROOT
BRANCH   1   7
ATOM      7  C1' I4B d   1      -3.240   2.300   1.313  0.00  0.00     0.060 C 
BRANCH   7   8
ATOM      8  C2' I4B d   1      -1.810   2.636   1.687  0.00  0.00    -0.013 C 
ATOM      9  C4' I4B d   1      -1.758   3.758   2.691  0.00  0.00     0.013 C 
ATOM     10  C3' I4B d   1      -1.170   1.393   2.231  0.00  0.00     0.013 C 
ENDBRANCH   7   8
ENDBRANCH   1   7
TORSDOF 2
ENDMDL
