MODEL 1
REMARK minimizedAffinity 14.4898481
REMARK minimizedRMSD -1
REMARK  2 active torsions:
REMARK  status: ('A' for Active; 'I' for Inactive)
REMARK    1  A    between atoms: C2'_3  and  C1'_4 
REMARK    2  A    between atoms: C1'_4  and  C1_5 
ROOT
ATOM      1  C1  I4B d   1      -5.718   3.246   3.604  0.00  0.00    -0.075 A 
ATOM      2  C2  I4B d   1      -5.549   4.605   3.519  0.00  0.00     0.003 A 
ATOM      3  C3  I4B d   1      -5.313   5.368   4.689  0.00  0.00     0.002 A 
ATOM      4  C4  I4B d   1      -5.303   4.741   5.918  0.00  0.00    -0.004 A 
ATOM      5  C5  I4B d   1      -5.451   3.360   5.999  0.00  0.00     0.002 A 
ATOM      6  C6  I4B d   1      -5.647   2.605   4.834  0.00  0.00     0.003 A 
ENDROOT
BRANCH   1   7
ATOM      7  C1' I4B d   1      -5.999   2.475   2.352  0.00  0.00     0.060 C 
BRANCH   7   8
ATOM      8  C2' I4B d   1      -5.159   3.070   1.240  0.00  0.00    -0.013 C 
ATOM      9  C4' I4B d   1      -3.896   2.277   1.027  0.00  0.00     0.013 C 
ATOM     10  C3' I4B d   1      -5.995   3.101  -0.005  0.00  0.00     0.013 C 
ENDBRANCH   7   8
ENDBRANCH   1   7
TORSDOF 2
ENDMDL
