MODEL 1
REMARK minimizedAffinity 6.060781
REMARK minimizedRMSD -1
REMARK  2 active torsions:
REMARK  status: ('A' for Active; 'I' for Inactive)
REMARK    1  A    between atoms: C2'_3  and  C1'_4 
REMARK    2  A    between atoms: C1'_4  and  C1_5 
ROOT
ATOM      1  C1  I4B d   1      -2.604  -1.090  -5.249  0.00  0.00    -0.075 A 
ATOM      2  C2  I4B d   1      -3.612  -0.546  -4.493  0.00  0.00     0.003 A 
ATOM      3  C3  I4B d   1      -4.892  -1.152  -4.469  0.00  0.00     0.002 A 
ATOM      4  C4  I4B d   1      -5.132  -2.264  -5.251  0.00  0.00    -0.004 A 
ATOM      5  C5  I4B d   1      -4.103  -2.827  -6.000  0.00  0.00     0.002 A 
ATOM      6  C6  I4B d   1      -2.827  -2.243  -5.990  0.00  0.00     0.003 A 
ENDROOT
BRANCH   1   7
ATOM      7  C1' I4B d   1      -1.275  -0.405  -5.277  0.00  0.00     0.060 C 
BRANCH   7   8
ATOM      8  C2' I4B d   1      -0.297  -1.252  -4.488  0.00  0.00    -0.013 C 
ATOM      9  C4' I4B d   1       0.159  -2.445  -5.286  0.00  0.00     0.013 C 
ATOM     10  C3' I4B d   1       0.862  -0.382  -4.103  0.00  0.00     0.013 C 
ENDBRANCH   7   8
ENDBRANCH   1   7
TORSDOF 2
ENDMDL
