MODEL 1
REMARK minimizedAffinity 13.4344311
REMARK minimizedRMSD -1
REMARK  0 active torsions:
REMARK  status: ('A' for Active; 'I' for Inactive)
ROOT
ATOM      1  C   UNL d   1      -0.341   2.626   1.735  0.00  0.00     0.124 A 
ATOM      2  C1  UNL d   1       0.483   1.585   1.329  0.00  0.00     0.062 A 
ATOM      3  C2  UNL d   1       0.566   1.244  -0.018  0.00  0.00     0.162 A 
ATOM      4  C3  UNL d   1      -0.175   1.945  -0.969  0.00  0.00    -0.034 A 
ATOM      5  C4  UNL d   1      -1.002   2.990  -0.553  0.00  0.00     0.162 A 
ATOM      6  C5  UNL d   1      -1.082   3.327   0.794  0.00  0.00     0.062 A 
ATOM      7  F   UNL d   1      -1.878   4.333   1.185  0.00  0.00    -0.097 F 
ATOM      8  F1  UNL d   1      -1.728   3.685  -1.441  0.00  0.00    -0.096 F 
ATOM      9  I   UNL d   1      -0.052   1.438  -2.984  0.00  0.00    -0.060 I 
ATOM     10  F2  UNL d   1       1.370   0.234  -0.382  0.00  0.00    -0.096 F 
ATOM     11  F3  UNL d   1       1.199   0.906   2.236  0.00  0.00    -0.097 F 
ATOM     12  F4  UNL d   1      -0.421   2.952   3.032  0.00  0.00    -0.092 F 
ENDROOT
TORSDOF 0
ENDMDL
