MODEL 1
REMARK minimizedAffinity 12.8032656
REMARK minimizedRMSD -1
REMARK  0 active torsions:
REMARK  status: ('A' for Active; 'I' for Inactive)
ROOT
ATOM      1  C   UNL d   1       4.330  -4.212  -1.306  0.00  0.00     0.124 A 
ATOM      2  C1  UNL d   1       4.708  -2.878  -1.353  0.00  0.00     0.062 A 
ATOM      3  C2  UNL d   1       3.750  -1.874  -1.237  0.00  0.00     0.162 A 
ATOM      4  C3  UNL d   1       2.405  -2.202  -1.072  0.00  0.00    -0.034 A 
ATOM      5  C4  UNL d   1       2.032  -3.546  -1.027  0.00  0.00     0.162 A 
ATOM      6  C5  UNL d   1       2.993  -4.545  -1.143  0.00  0.00     0.062 A 
ATOM      7  F   UNL d   1       2.625  -5.834  -1.097  0.00  0.00    -0.097 F 
ATOM      8  F1  UNL d   1       0.746  -3.896  -0.869  0.00  0.00    -0.096 F 
ATOM      9  I   UNL d   1       0.970  -0.704  -0.899  0.00  0.00    -0.060 I 
ATOM     10  F2  UNL d   1       4.145  -0.593  -1.286  0.00  0.00    -0.096 F 
ATOM     11  F3  UNL d   1       5.999  -2.554  -1.511  0.00  0.00    -0.097 F 
ATOM     12  F4  UNL d   1       5.253  -5.176  -1.418  0.00  0.00    -0.092 F 
ENDROOT
TORSDOF 0
ENDMDL
