MODEL 1
REMARK minimizedAffinity 8.85878086
REMARK minimizedRMSD -1
REMARK  0 active torsions:
REMARK  status: ('A' for Active; 'I' for Inactive)
ROOT
ATOM      1  C   UNL d   1      -1.963   2.377   1.961  0.00  0.00     0.124 A 
ATOM      2  C1  UNL d   1      -1.295   2.697   0.787  0.00  0.00     0.062 A 
ATOM      3  C2  UNL d   1      -1.273   1.797  -0.274  0.00  0.00     0.162 A 
ATOM      4  C3  UNL d   1      -1.924   0.567  -0.167  0.00  0.00    -0.034 A 
ATOM      5  C4  UNL d   1      -2.593   0.252   1.017  0.00  0.00     0.162 A 
ATOM      6  C5  UNL d   1      -2.612   1.156   2.074  0.00  0.00     0.062 A 
ATOM      7  F   UNL d   1      -3.258   0.845   3.208  0.00  0.00    -0.097 F 
ATOM      8  F1  UNL d   1      -3.229  -0.921   1.153  0.00  0.00    -0.096 F 
ATOM      9  I   UNL d   1      -1.895  -0.782  -1.752  0.00  0.00    -0.060 I 
ATOM     10  F2  UNL d   1      -0.620   2.132  -1.396  0.00  0.00    -0.096 F 
ATOM     11  F3  UNL d   1      -0.666   3.876   0.675  0.00  0.00    -0.097 F 
ATOM     12  F4  UNL d   1      -1.981   3.245   2.981  0.00  0.00    -0.092 F 
ENDROOT
TORSDOF 0
ENDMDL
