MODEL 1
REMARK minimizedAffinity 22.6938362
REMARK minimizedRMSD -1
REMARK  0 active torsions:
REMARK  status: ('A' for Active; 'I' for Inactive)
ROOT
ATOM      1  C   UNL d   1      -0.812   2.253   0.718  0.00  0.00     0.124 A 
ATOM      2  C1  UNL d   1      -1.152   2.072   2.052  0.00  0.00     0.062 A 
ATOM      3  C2  UNL d   1      -0.505   1.104   2.815  0.00  0.00     0.162 A 
ATOM      4  C3  UNL d   1       0.490   0.310   2.246  0.00  0.00    -0.034 A 
ATOM      5  C4  UNL d   1       0.827   0.497   0.904  0.00  0.00     0.162 A 
ATOM      6  C5  UNL d   1       0.177   1.465   0.146  0.00  0.00     0.062 A 
ATOM      7  F   UNL d   1       0.507   1.638  -1.142  0.00  0.00    -0.097 F 
ATOM      8  F1  UNL d   1       1.779  -0.250   0.326  0.00  0.00    -0.096 F 
ATOM      9  I   UNL d   1       1.460  -1.139   3.383  0.00  0.00    -0.060 I 
ATOM     10  F2  UNL d   1      -0.854   0.952   4.101  0.00  0.00    -0.096 F 
ATOM     11  F3  UNL d   1      -2.108   2.831   2.607  0.00  0.00    -0.097 F 
ATOM     12  F4  UNL d   1      -1.437   3.184  -0.013  0.00  0.00    -0.092 F 
ENDROOT
TORSDOF 0
ENDMDL
