MODEL 1
REMARK minimizedAffinity 2.62600541
REMARK minimizedRMSD -1
REMARK  0 active torsions:
REMARK  status: ('A' for Active; 'I' for Inactive)
ROOT
ATOM      1  C   UNL d   1      -2.921   1.448  -1.869  0.00  0.00     0.124 A 
ATOM      2  C1  UNL d   1      -4.137   1.127  -2.458  0.00  0.00     0.062 A 
ATOM      3  C2  UNL d   1      -4.828   2.079  -3.201  0.00  0.00     0.162 A 
ATOM      4  C3  UNL d   1      -4.305   3.362  -3.362  0.00  0.00    -0.034 A 
ATOM      5  C4  UNL d   1      -3.082   3.678  -2.766  0.00  0.00     0.162 A 
ATOM      6  C5  UNL d   1      -2.395   2.723  -2.024  0.00  0.00     0.062 A 
ATOM      7  F   UNL d   1      -1.221   3.035  -1.456  0.00  0.00    -0.097 F 
ATOM      8  F1  UNL d   1      -2.551   4.902  -2.900  0.00  0.00    -0.096 F 
ATOM      9  I   UNL d   1      -5.335   4.789  -4.472  0.00  0.00    -0.060 I 
ATOM     10  F2  UNL d   1      -6.000   1.741  -3.759  0.00  0.00    -0.096 F 
ATOM     11  F3  UNL d   1      -4.647  -0.104  -2.309  0.00  0.00    -0.097 F 
ATOM     12  F4  UNL d   1      -2.259   0.530  -1.154  0.00  0.00    -0.092 F 
ENDROOT
TORSDOF 0
ENDMDL
