MODEL 1
REMARK minimizedAffinity 12.1661491
REMARK minimizedRMSD -1
REMARK  0 active torsions:
REMARK  status: ('A' for Active; 'I' for Inactive)
ROOT
ATOM      1  C   UNL d   1       0.753  -1.732  -1.559  0.00  0.00     0.124 A 
ATOM      2  C1  UNL d   1      -0.304  -0.852  -1.747  0.00  0.00     0.062 A 
ATOM      3  C2  UNL d   1      -0.399   0.302  -0.974  0.00  0.00     0.162 A 
ATOM      4  C3  UNL d   1       0.567   0.583  -0.008  0.00  0.00    -0.034 A 
ATOM      5  C4  UNL d   1       1.626  -0.307   0.175  0.00  0.00     0.162 A 
ATOM      6  C5  UNL d   1       1.717  -1.459  -0.599  0.00  0.00     0.062 A 
ATOM      7  F   UNL d   1       2.738  -2.309  -0.417  0.00  0.00    -0.097 F 
ATOM      8  F1  UNL d   1       2.572  -0.067   1.096  0.00  0.00    -0.096 F 
ATOM      9  I   UNL d   1       0.428   2.308   1.149  0.00  0.00    -0.060 I 
ATOM     10  F2  UNL d   1      -1.431   1.135  -1.177  0.00  0.00    -0.096 F 
ATOM     11  F3  UNL d   1      -1.237  -1.114  -2.673  0.00  0.00    -0.097 F 
ATOM     12  F4  UNL d   1       0.841  -2.842  -2.303  0.00  0.00    -0.092 F 
ENDROOT
TORSDOF 0
ENDMDL
