MODEL 1
REMARK minimizedAffinity 15.205554
REMARK minimizedRMSD -1
REMARK  0 active torsions:
REMARK  status: ('A' for Active; 'I' for Inactive)
ROOT
ATOM      1  C   UNL d   1      -0.304   1.979   2.254  0.00  0.00     0.124 A 
ATOM      2  C1  UNL d   1       0.726   1.317   1.599  0.00  0.00     0.062 A 
ATOM      3  C2  UNL d   1       0.670   1.124   0.222  0.00  0.00     0.162 A 
ATOM      4  C3  UNL d   1      -0.420   1.595  -0.511  0.00  0.00    -0.034 A 
ATOM      5  C4  UNL d   1      -1.452   2.259   0.154  0.00  0.00     0.162 A 
ATOM      6  C5  UNL d   1      -1.391   2.449   1.531  0.00  0.00     0.062 A 
ATOM      7  F   UNL d   1      -2.386   3.089   2.162  0.00  0.00    -0.097 F 
ATOM      8  F1  UNL d   1      -2.514   2.725  -0.520  0.00  0.00    -0.096 F 
ATOM      9  I   UNL d   1      -0.507   1.308  -2.571  0.00  0.00    -0.060 I 
ATOM     10  F2  UNL d   1       1.679   0.480  -0.384  0.00  0.00    -0.096 F 
ATOM     11  F3  UNL d   1       1.777   0.860   2.295  0.00  0.00    -0.097 F 
ATOM     12  F4  UNL d   1      -0.248   2.162   3.579  0.00  0.00    -0.092 F 
ENDROOT
TORSDOF 0
ENDMDL
