MODEL 1
REMARK minimizedAffinity 14.6856833
REMARK minimizedRMSD -1
REMARK  0 active torsions:
REMARK  status: ('A' for Active; 'I' for Inactive)
ROOT
ATOM      1  C   UNL d   1      -1.619  -0.676  -2.602  0.00  0.00     0.124 A 
ATOM      2  C1  UNL d   1      -0.742   0.354  -2.293  0.00  0.00     0.062 A 
ATOM      3  C2  UNL d   1      -0.953   1.138  -1.162  0.00  0.00     0.162 A 
ATOM      4  C3  UNL d   1      -2.047   0.895  -0.332  0.00  0.00    -0.034 A 
ATOM      5  C4  UNL d   1      -2.926  -0.142  -0.650  0.00  0.00     0.162 A 
ATOM      6  C5  UNL d   1      -2.710  -0.923  -1.781  0.00  0.00     0.062 A 
ATOM      7  F   UNL d   1      -3.560  -1.917  -2.078  0.00  0.00    -0.097 F 
ATOM      8  F1  UNL d   1      -3.988  -0.403   0.127  0.00  0.00    -0.096 F 
ATOM      9  I   UNL d   1      -2.366   2.065   1.359  0.00  0.00    -0.060 I 
ATOM     10  F2  UNL d   1      -0.088   2.126  -0.888  0.00  0.00    -0.096 F 
ATOM     11  F3  UNL d   1       0.313   0.595  -3.085  0.00  0.00    -0.097 F 
ATOM     12  F4  UNL d   1      -1.414  -1.428  -3.691  0.00  0.00    -0.092 F 
ENDROOT
TORSDOF 0
ENDMDL
