MODEL 1
REMARK minimizedAffinity 3.43748903
REMARK minimizedRMSD -1
REMARK  0 active torsions:
REMARK  status: ('A' for Active; 'I' for Inactive)
ROOT
ATOM      1  O1  BZF d   1       4.562   1.920  -3.176  0.00  0.00    -0.204 OA
ATOM      2  C2  BZF d   1       5.686   2.640  -2.821  0.00  0.00     0.174 A 
ATOM      3  C3  BZF d   1       5.869   2.614  -1.485  0.00  0.00    -0.012 A 
ATOM      4  C3A BZF d   1       4.844   1.753  -0.981  0.00  0.00    -0.107 A 
ATOM      5  C4  BZF d   1       4.513   1.319   0.271  0.00  0.00     0.055 A 
ATOM      6  C5  BZF d   1       3.410   0.542   0.431  0.00  0.00    -0.016 A 
ATOM      7  C6  BZF d   1       2.614   0.183  -0.637  0.00  0.00     0.022 A 
ATOM      8  C7  BZF d   1       2.904   0.585  -1.899  0.00  0.00     0.029 A 
ATOM      9  C7A BZF d   1       4.037   1.344  -2.068  0.00  0.00     0.058 A 
ENDROOT
TORSDOF 0
ENDMDL
