MODEL 1
REMARK minimizedAffinity 8.84524918
REMARK minimizedRMSD -1
REMARK  0 active torsions:
REMARK  status: ('A' for Active; 'I' for Inactive)
ROOT
ATOM      1  O1  BZF d   1       1.190   3.320   1.062  0.00  0.00    -0.204 OA
ATOM      2  C2  BZF d   1      -0.045   3.848   0.739  0.00  0.00     0.174 A 
ATOM      3  C3  BZF d   1      -0.651   3.104  -0.209  0.00  0.00    -0.012 A 
ATOM      4  C3A BZF d   1       0.224   1.993  -0.431  0.00  0.00    -0.107 A 
ATOM      5  C4  BZF d   1       0.164   0.900  -1.246  0.00  0.00     0.055 A 
ATOM      6  C5  BZF d   1       1.217   0.041  -1.278  0.00  0.00    -0.016 A 
ATOM      7  C6  BZF d   1       2.345   0.247  -0.511  0.00  0.00     0.022 A 
ATOM      8  C7  BZF d   1       2.448   1.315   0.317  0.00  0.00     0.029 A 
ATOM      9  C7A BZF d   1       1.373   2.167   0.375  0.00  0.00     0.058 A 
ENDROOT
TORSDOF 0
ENDMDL
