MODEL 1
REMARK minimizedAffinity 2.68506837
REMARK minimizedRMSD -1
REMARK  0 active torsions:
REMARK  status: ('A' for Active; 'I' for Inactive)
ROOT
ATOM      1  O1  BZF d   1       4.299   1.863  -3.180  0.00  0.00    -0.204 OA
ATOM      2  C2  BZF d   1       5.358   2.721  -2.958  0.00  0.00     0.174 A 
ATOM      3  C3  BZF d   1       5.644   2.798  -1.642  0.00  0.00    -0.012 A 
ATOM      4  C3A BZF d   1       4.764   1.863  -1.011  0.00  0.00    -0.107 A 
ATOM      5  C4  BZF d   1       4.581   1.474   0.285  0.00  0.00     0.055 A 
ATOM      6  C5  BZF d   1       3.588   0.592   0.576  0.00  0.00    -0.016 A 
ATOM      7  C6  BZF d   1       2.758   0.085  -0.402  0.00  0.00     0.022 A 
ATOM      8  C7  BZF d   1       2.905   0.437  -1.702  0.00  0.00     0.029 A 
ATOM      9  C7A BZF d   1       3.928   1.302  -2.004  0.00  0.00     0.058 A 
ENDROOT
TORSDOF 0
ENDMDL
