MODEL 1
REMARK minimizedAffinity 2.49528289
REMARK minimizedRMSD -1
REMARK  0 active torsions:
REMARK  status: ('A' for Active; 'I' for Inactive)
ROOT
ATOM      1  O1  BZF d   1       3.743   1.254  -3.170  0.00  0.00    -0.204 OA
ATOM      2  C2  BZF d   1       4.866   2.058  -3.206  0.00  0.00     0.174 A 
ATOM      3  C3  BZF d   1       5.222   2.438  -1.962  0.00  0.00    -0.012 A 
ATOM      4  C3A BZF d   1       4.316   1.760  -1.087  0.00  0.00    -0.107 A 
ATOM      5  C4  BZF d   1       4.174   1.722   0.271  0.00  0.00     0.055 A 
ATOM      6  C5  BZF d   1       3.141   1.019   0.807  0.00  0.00    -0.016 A 
ATOM      7  C6  BZF d   1       2.231   0.348   0.016  0.00  0.00     0.022 A 
ATOM      8  C7  BZF d   1       2.335   0.353  -1.335  0.00  0.00     0.029 A 
ATOM      9  C7A BZF d   1       3.396   1.035  -1.879  0.00  0.00     0.058 A 
ENDROOT
TORSDOF 0
ENDMDL
