MODEL 1
REMARK minimizedAffinity 6.57224274
REMARK minimizedRMSD -1
REMARK  0 active torsions:
REMARK  status: ('A' for Active; 'I' for Inactive)
ROOT
ATOM      1  O1  BZF d   1      -0.481   2.020  -1.054  0.00  0.00    -0.204 OA
ATOM      2  C2  BZF d   1      -0.742   3.182  -0.353  0.00  0.00     0.174 A 
ATOM      3  C3  BZF d   1       0.179   3.374   0.613  0.00  0.00    -0.012 A 
ATOM      4  C3A BZF d   1       1.123   2.311   0.450  0.00  0.00    -0.107 A 
ATOM      5  C4  BZF d   1       2.274   1.970   1.102  0.00  0.00     0.055 A 
ATOM      6  C5  BZF d   1       2.923   0.831   0.743  0.00  0.00    -0.016 A 
ATOM      7  C6  BZF d   1       2.447   0.009  -0.257  0.00  0.00     0.022 A 
ATOM      8  C7  BZF d   1       1.312   0.308  -0.935  0.00  0.00     0.029 A 
ATOM      9  C7A BZF d   1       0.672   1.476  -0.598  0.00  0.00     0.058 A 
ENDROOT
TORSDOF 0
ENDMDL
