MODEL 1
REMARK minimizedAffinity 7.16344309
REMARK minimizedRMSD -1
REMARK  0 active torsions:
REMARK  status: ('A' for Active; 'I' for Inactive)
ROOT
ATOM      1  O1  BZF d   1       4.863   1.572  -3.746  0.00  0.00    -0.204 OA
ATOM      2  C2  BZF d   1       5.885   2.396  -3.317  0.00  0.00     0.174 A 
ATOM      3  C3  BZF d   1       5.797   2.615  -1.989  0.00  0.00    -0.012 A 
ATOM      4  C3A BZF d   1       4.703   1.808  -1.546  0.00  0.00    -0.107 A 
ATOM      5  C4  BZF d   1       4.134   1.586  -0.324  0.00  0.00     0.055 A 
ATOM      6  C5  BZF d   1       3.031   0.797  -0.243  0.00  0.00    -0.016 A 
ATOM      7  C6  BZF d   1       2.468   0.218  -1.361  0.00  0.00     0.022 A 
ATOM      8  C7  BZF d   1       2.999   0.405  -2.594  0.00  0.00     0.029 A 
ATOM      9  C7A BZF d   1       4.134   1.175  -2.675  0.00  0.00     0.058 A 
ENDROOT
TORSDOF 0
ENDMDL
