MODEL 1
REMARK minimizedAffinity -3.94157171
REMARK minimizedRMSD -1
REMARK  0 active torsions:
REMARK  status: ('A' for Active; 'I' for Inactive)
ROOT
ATOM      1  O1  BZF d   1      -2.361   1.562  -3.535  0.00  0.00    -0.204 OA
ATOM      2  C2  BZF d   1      -2.230   0.568  -2.584  0.00  0.00     0.174 A 
ATOM      3  C3  BZF d   1      -3.342  -0.193  -2.532  0.00  0.00    -0.012 A 
ATOM      4  C3A BZF d   1      -4.186   0.302  -3.575  0.00  0.00    -0.107 A 
ATOM      5  C4  BZF d   1      -5.422  -0.057  -4.032  0.00  0.00     0.055 A 
ATOM      6  C5  BZF d   1      -6.000   0.677  -5.020  0.00  0.00    -0.016 A 
ATOM      7  C6  BZF d   1      -5.373   1.776  -5.569  0.00  0.00     0.022 A 
ATOM      8  C7  BZF d   1      -4.144   2.168  -5.152  0.00  0.00     0.029 A 
ATOM      9  C7A BZF d   1      -3.544   1.409  -4.177  0.00  0.00     0.058 A 
ENDROOT
TORSDOF 0
ENDMDL
