MODEL 1
REMARK minimizedAffinity 8.72559547
REMARK minimizedRMSD -1
REMARK  0 active torsions:
REMARK  status: ('A' for Active; 'I' for Inactive)
ROOT
ATOM      1  O1  BZF d   1       2.581   0.325  -2.210  0.00  0.00    -0.204 OA
ATOM      2  C2  BZF d   1       2.106  -0.063  -0.972  0.00  0.00     0.174 A 
ATOM      3  C3  BZF d   1       2.974   0.278   0.002  0.00  0.00    -0.012 A 
ATOM      4  C3A BZF d   1       4.017   1.001  -0.660  0.00  0.00    -0.107 A 
ATOM      5  C4  BZF d   1       5.158   1.611  -0.224  0.00  0.00     0.055 A 
ATOM      6  C5  BZF d   1       5.999   2.166  -1.136  0.00  0.00    -0.016 A 
ATOM      7  C6  BZF d   1       5.733   2.125  -2.489  0.00  0.00     0.022 A 
ATOM      8  C7  BZF d   1       4.611   1.535  -2.968  0.00  0.00     0.029 A 
ATOM      9  C7A BZF d   1       3.743   1.002  -2.047  0.00  0.00     0.058 A 
ENDROOT
TORSDOF 0
ENDMDL
