MODEL 1
REMARK minimizedAffinity 17.5182056
REMARK minimizedRMSD -1
REMARK  0 active torsions:
REMARK  status: ('A' for Active; 'I' for Inactive)
ROOT
ATOM      1  O1  BZF d   1       5.001  -0.761   6.000  0.00  0.00    -0.204 OA
ATOM      2  C2  BZF d   1       6.000  -1.452   5.342  0.00  0.00     0.174 A 
ATOM      3  C3  BZF d   1       5.738  -1.530   4.021  0.00  0.00    -0.012 A 
ATOM      4  C3A BZF d   1       4.544  -0.765   3.828  0.00  0.00    -0.107 A 
ATOM      5  C4  BZF d   1       3.795  -0.454   2.730  0.00  0.00     0.055 A 
ATOM      6  C5  BZF d   1       2.646   0.253   2.892  0.00  0.00    -0.016 A 
ATOM      7  C6  BZF d   1       2.214   0.660   4.138  0.00  0.00     0.022 A 
ATOM      8  C7  BZF d   1       2.926   0.379   5.256  0.00  0.00     0.029 A 
ATOM      9  C7A BZF d   1       4.105  -0.306   5.092  0.00  0.00     0.058 A 
ENDROOT
TORSDOF 0
ENDMDL
