MODEL 1
REMARK minimizedAffinity 9.4536972
REMARK minimizedRMSD -1
REMARK  0 active torsions:
REMARK  status: ('A' for Active; 'I' for Inactive)
ROOT
ATOM      1  O1  BZF d   1       3.901   1.046  -3.156  0.00  0.00    -0.204 OA
ATOM      2  C2  BZF d   1       5.052   1.806  -3.095  0.00  0.00     0.174 A 
ATOM      3  C3  BZF d   1       5.371   2.091  -1.816  0.00  0.00    -0.012 A 
ATOM      4  C3A BZF d   1       4.406   1.393  -1.023  0.00  0.00    -0.107 A 
ATOM      5  C4  BZF d   1       4.206   1.272   0.322  0.00  0.00     0.055 A 
ATOM      6  C5  BZF d   1       3.129   0.575   0.770  0.00  0.00    -0.016 A 
ATOM      7  C6  BZF d   1       2.229  -0.007  -0.098  0.00  0.00     0.022 A 
ATOM      8  C7  BZF d   1       2.388   0.081  -1.441  0.00  0.00     0.029 A 
ATOM      9  C7A BZF d   1       3.494   0.756  -1.896  0.00  0.00     0.058 A 
ENDROOT
TORSDOF 0
ENDMDL
