MODEL 1
REMARK minimizedAffinity -2.39738369
REMARK minimizedRMSD -1
REMARK  0 active torsions:
REMARK  status: ('A' for Active; 'I' for Inactive)
ROOT
ATOM      1  O1  BZF d   1      -2.016   0.855  -4.193  0.00  0.00    -0.204 OA
ATOM      2  C2  BZF d   1      -1.968  -0.108  -3.203  0.00  0.00     0.174 A 
ATOM      3  C3  BZF d   1      -3.200  -0.590  -2.944  0.00  0.00    -0.012 A 
ATOM      4  C3A BZF d   1      -4.061   0.049  -3.891  0.00  0.00    -0.107 A 
ATOM      5  C4  BZF d   1      -5.401  -0.031  -4.146  0.00  0.00     0.055 A 
ATOM      6  C5  BZF d   1      -5.943   0.780  -5.092  0.00  0.00    -0.016 A 
ATOM      7  C6  BZF d   1      -5.177   1.685  -5.798  0.00  0.00     0.022 A 
ATOM      8  C7  BZF d   1      -3.844   1.797  -5.584  0.00  0.00     0.029 A 
ATOM      9  C7A BZF d   1      -3.287   0.956  -4.652  0.00  0.00     0.058 A 
ENDROOT
TORSDOF 0
ENDMDL
