MODEL 1
REMARK minimizedAffinity 21.4223919
REMARK minimizedRMSD -1
REMARK  0 active torsions:
REMARK  status: ('A' for Active; 'I' for Inactive)
ROOT
ATOM      1  O1  BZF d   1      -4.050   2.386  -4.750  0.00  0.00    -0.204 OA
ATOM      2  C2  BZF d   1      -5.096   3.127  -5.266  0.00  0.00     0.174 A 
ATOM      3  C3  BZF d   1      -5.994   2.327  -5.876  0.00  0.00    -0.012 A 
ATOM      4  C3A BZF d   1      -5.524   0.994  -5.652  0.00  0.00    -0.107 A 
ATOM      5  C4  BZF d   1      -5.997  -0.239  -6.000  0.00  0.00     0.055 A 
ATOM      6  C5  BZF d   1      -5.262  -1.339  -5.690  0.00  0.00    -0.016 A 
ATOM      7  C6  BZF d   1      -4.049  -1.243  -5.040  0.00  0.00     0.022 A 
ATOM      8  C7  BZF d   1      -3.542  -0.042  -4.670  0.00  0.00     0.029 A 
ATOM      9  C7A BZF d   1      -4.298   1.069  -4.952  0.00  0.00     0.058 A 
ENDROOT
TORSDOF 0
ENDMDL
