MODEL 1
REMARK minimizedAffinity 0.73310709
REMARK minimizedRMSD -1
REMARK  0 active torsions:
REMARK  status: ('A' for Active; 'I' for Inactive)
ROOT
ATOM      1  C   UNL d   1      -4.355   0.766  -1.177  0.00  0.00     0.172 C 
ATOM      2  N   UNL d   1      -4.459  -0.388  -2.039  0.00  0.00    -0.070 N 
ATOM      3  C1  UNL d   1      -3.835  -1.591  -1.841  0.00  0.00    -0.004 A 
ATOM      4  C2  UNL d   1      -4.188  -2.426  -2.879  0.00  0.00    -0.047 A 
ATOM      5  C3  UNL d   1      -5.052  -1.699  -3.732  0.00  0.00    -0.047 A 
ATOM      6  C4  UNL d   1      -5.203  -0.441  -3.188  0.00  0.00    -0.004 A 
ENDROOT
TORSDOF 0
ENDMDL
