MODEL 1
REMARK minimizedAffinity 3.59516144
REMARK minimizedRMSD -1
REMARK  0 active torsions:
REMARK  status: ('A' for Active; 'I' for Inactive)
ROOT
ATOM      1  C   UNL d   1      -1.827  -1.446  -1.956  0.00  0.00     0.172 C 
ATOM      2  N   UNL d   1      -3.014  -1.608  -2.762  0.00  0.00    -0.070 N 
ATOM      3  C1  UNL d   1      -3.039  -1.945  -4.089  0.00  0.00    -0.004 A 
ATOM      4  C2  UNL d   1      -4.357  -1.999  -4.486  0.00  0.00    -0.047 A 
ATOM      5  C3  UNL d   1      -5.153  -1.684  -3.359  0.00  0.00    -0.047 A 
ATOM      6  C4  UNL d   1      -4.295  -1.446  -2.305  0.00  0.00    -0.004 A 
ENDROOT
TORSDOF 0
ENDMDL
