MODEL 1
REMARK minimizedAffinity 1.30614114
REMARK minimizedRMSD -1
REMARK  0 active torsions:
REMARK  status: ('A' for Active; 'I' for Inactive)
ROOT
ATOM      1  C   UNL d   1       0.681  -2.295   2.847  0.00  0.00     0.172 C 
ATOM      2  N   UNL d   1      -0.478  -1.468   3.087  0.00  0.00    -0.070 N 
ATOM      3  C1  UNL d   1      -1.696  -1.605   2.477  0.00  0.00    -0.004 A 
ATOM      4  C2  UNL d   1      -2.530  -0.629   2.978  0.00  0.00    -0.047 A 
ATOM      5  C3  UNL d   1      -1.787   0.121   3.920  0.00  0.00    -0.047 A 
ATOM      6  C4  UNL d   1      -0.520  -0.420   3.968  0.00  0.00    -0.004 A 
ENDROOT
TORSDOF 0
ENDMDL
