MODEL 1
REMARK minimizedAffinity 4.22420263
REMARK minimizedRMSD -1
REMARK  0 active torsions:
REMARK  status: ('A' for Active; 'I' for Inactive)
ROOT
ATOM      1  C   UNL d   1       5.394  -3.810   1.141  0.00  0.00     0.172 C 
ATOM      2  N   UNL d   1       3.973  -3.797   1.396  0.00  0.00    -0.070 N 
ATOM      3  C1  UNL d   1       3.136  -2.731   1.200  0.00  0.00    -0.004 A 
ATOM      4  C2  UNL d   1       1.864  -3.121   1.559  0.00  0.00    -0.047 A 
ATOM      5  C3  UNL d   1       1.939  -4.468   1.986  0.00  0.00    -0.047 A 
ATOM      6  C4  UNL d   1       3.256  -4.862   1.874  0.00  0.00    -0.004 A 
ENDROOT
TORSDOF 0
ENDMDL
