MODEL 1
REMARK minimizedAffinity 3.03090668
REMARK minimizedRMSD -1
REMARK  0 active torsions:
REMARK  status: ('A' for Active; 'I' for Inactive)
ROOT
ATOM      1  C   UNL d   1      -1.659   4.621  -5.975  0.00  0.00     0.172 C 
ATOM      2  N   UNL d   1      -2.872   4.128  -5.366  0.00  0.00    -0.070 N 
ATOM      3  C1  UNL d   1      -4.075   3.965  -6.000  0.00  0.00    -0.004 A 
ATOM      4  C2  UNL d   1      -4.975   3.476  -5.078  0.00  0.00    -0.047 A 
ATOM      5  C3  UNL d   1      -4.289   3.341  -3.847  0.00  0.00    -0.047 A 
ATOM      6  C4  UNL d   1      -2.989   3.751  -4.054  0.00  0.00    -0.004 A 
ENDROOT
TORSDOF 0
ENDMDL
