MODEL 1
REMARK minimizedAffinity 1.41739666
REMARK minimizedRMSD -1
REMARK  0 active torsions:
REMARK  status: ('A' for Active; 'I' for Inactive)
ROOT
ATOM      1  C   UNL d   1      -2.619   5.790  -5.635  0.00  0.00     0.172 C 
ATOM      2  N   UNL d   1      -3.657   4.854  -5.271  0.00  0.00    -0.070 N 
ATOM      3  C1  UNL d   1      -4.786   4.592  -6.000  0.00  0.00    -0.004 A 
ATOM      4  C2  UNL d   1      -5.518   3.644  -5.317  0.00  0.00    -0.047 A 
ATOM      5  C3  UNL d   1      -4.804   3.327  -4.137  0.00  0.00    -0.047 A 
ATOM      6  C4  UNL d   1      -3.656   4.091  -4.134  0.00  0.00    -0.004 A 
ENDROOT
TORSDOF 0
ENDMDL
