MODEL 1
REMARK minimizedAffinity 1.00342274
REMARK minimizedRMSD -1
REMARK  0 active torsions:
REMARK  status: ('A' for Active; 'I' for Inactive)
ROOT
ATOM      1  C   UNL d   1       0.019  -1.398   3.271  0.00  0.00     0.172 C 
ATOM      2  N   UNL d   1       1.062  -2.312   2.868  0.00  0.00    -0.070 N 
ATOM      3  C1  UNL d   1       2.170  -2.634   3.606  0.00  0.00    -0.004 A 
ATOM      4  C2  UNL d   1       2.916  -3.534   2.876  0.00  0.00    -0.047 A 
ATOM      5  C3  UNL d   1       2.233  -3.760   1.657  0.00  0.00    -0.047 A 
ATOM      6  C4  UNL d   1       1.088  -2.991   1.679  0.00  0.00    -0.004 A 
ENDROOT
TORSDOF 0
ENDMDL
