MODEL 1
REMARK minimizedAffinity 1.46667981
REMARK minimizedRMSD -1
REMARK  0 active torsions:
REMARK  status: ('A' for Active; 'I' for Inactive)
ROOT
ATOM      1  C   UNL d   1      -0.275  -2.423   3.105  0.00  0.00     0.172 C 
ATOM      2  N   UNL d   1       0.830  -3.061   2.429  0.00  0.00    -0.070 N 
ATOM      3  C1  UNL d   1       1.648  -2.470   1.504  0.00  0.00    -0.004 A 
ATOM      4  C2  UNL d   1       2.574  -3.408   1.099  0.00  0.00    -0.047 A 
ATOM      5  C3  UNL d   1       2.301  -4.604   1.805  0.00  0.00    -0.047 A 
ATOM      6  C4  UNL d   1       1.217  -4.361   2.621  0.00  0.00    -0.004 A 
ENDROOT
TORSDOF 0
ENDMDL
