MODEL 1
REMARK minimizedAffinity 7.40742445
REMARK minimizedRMSD -1
REMARK  0 active torsions:
REMARK  status: ('A' for Active; 'I' for Inactive)
ROOT
ATOM      1  C   UNL d   1      -2.903  -0.764  -1.313  0.00  0.00     0.172 C 
ATOM      2  N   UNL d   1      -3.802  -1.401  -2.246  0.00  0.00    -0.070 N 
ATOM      3  C1  UNL d   1      -4.068  -0.971  -3.519  0.00  0.00    -0.004 A 
ATOM      4  C2  UNL d   1      -4.972  -1.846  -4.080  0.00  0.00    -0.047 A 
ATOM      5  C3  UNL d   1      -5.260  -2.837  -3.111  0.00  0.00    -0.047 A 
ATOM      6  C4  UNL d   1      -4.522  -2.537  -1.985  0.00  0.00    -0.004 A 
ENDROOT
TORSDOF 0
ENDMDL
