MODEL 1
REMARK minimizedAffinity 0.515072048
REMARK minimizedRMSD -1
REMARK  0 active torsions:
REMARK  status: ('A' for Active; 'I' for Inactive)
ROOT
ATOM      1  C   UNL d   1      -1.417  -4.152   3.066  0.00  0.00     0.172 C 
ATOM      2  N   UNL d   1      -0.176  -3.621   2.553  0.00  0.00    -0.070 N 
ATOM      3  C1  UNL d   1       0.776  -4.332   1.873  0.00  0.00    -0.004 A 
ATOM      4  C2  UNL d   1       1.803  -3.469   1.557  0.00  0.00    -0.047 A 
ATOM      5  C3  UNL d   1       1.455  -2.194   2.066  0.00  0.00    -0.047 A 
ATOM      6  C4  UNL d   1       0.226  -2.317   2.677  0.00  0.00    -0.004 A 
ENDROOT
TORSDOF 0
ENDMDL
