MODEL 1
REMARK minimizedAffinity 0.621677816
REMARK minimizedRMSD -1
REMARK  0 active torsions:
REMARK  status: ('A' for Active; 'I' for Inactive)
ROOT
ATOM      1  C   UNL d   1       4.383  -6.000   5.939  0.00  0.00     0.172 C 
ATOM      2  N   UNL d   1       4.724  -4.597   5.956  0.00  0.00    -0.070 N 
ATOM      3  C1  UNL d   1       5.993  -4.084   5.997  0.00  0.00    -0.004 A 
ATOM      4  C2  UNL d   1       5.893  -2.710   5.999  0.00  0.00    -0.047 A 
ATOM      5  C3  UNL d   1       4.517  -2.385   5.958  0.00  0.00    -0.047 A 
ATOM      6  C4  UNL d   1       3.815  -3.572   5.932  0.00  0.00    -0.004 A 
ENDROOT
TORSDOF 0
ENDMDL
