MODEL 1
REMARK minimizedAffinity 1.19156671
REMARK minimizedRMSD -1
REMARK  0 active torsions:
REMARK  status: ('A' for Active; 'I' for Inactive)
ROOT
ATOM      1  C   UNL d   1      -0.869  -0.083   1.229  0.00  0.00     0.124 A 
ATOM      2  C1  UNL d   1      -1.573   0.250   0.080  0.00  0.00     0.062 A 
ATOM      3  C2  UNL d   1      -0.953   0.185  -1.165  0.00  0.00     0.162 A 
ATOM      4  C3  UNL d   1       0.379  -0.216  -1.267  0.00  0.00    -0.034 A 
ATOM      5  C4  UNL d   1       1.081  -0.548  -0.107  0.00  0.00     0.162 A 
ATOM      6  C5  UNL d   1       0.457  -0.481   1.134  0.00  0.00     0.062 A 
ATOM      7  F   UNL d   1       1.139  -0.803   2.243  0.00  0.00    -0.097 F 
ATOM      8  F1  UNL d   1       2.363  -0.937  -0.170  0.00  0.00    -0.096 F 
ATOM      9  I   UNL d   1       1.310  -0.314  -3.126  0.00  0.00    -0.060 I 
ATOM     10  F2  UNL d   1      -1.658   0.512  -2.258  0.00  0.00    -0.096 F 
ATOM     11  F3  UNL d   1      -2.854   0.636   0.169  0.00  0.00    -0.097 F 
ATOM     12  F4  UNL d   1      -1.467  -0.018   2.425  0.00  0.00    -0.092 F 
ENDROOT
TORSDOF 0
ENDMDL
