MODEL 1
REMARK minimizedAffinity -3.90272498
REMARK minimizedRMSD -1
REMARK  0 active torsions:
REMARK  status: ('A' for Active; 'I' for Inactive)
ROOT
ATOM      1  C   UNL d   1       0.557  -0.356  -2.529  0.00  0.00     0.124 A 
ATOM      2  C1  UNL d   1      -0.581   0.174  -1.940  0.00  0.00     0.062 A 
ATOM      3  C2  UNL d   1      -0.733   0.143  -0.556  0.00  0.00     0.162 A 
ATOM      4  C3  UNL d   1       0.258  -0.420   0.248  0.00  0.00    -0.034 A 
ATOM      5  C4  UNL d   1       1.400  -0.953  -0.353  0.00  0.00     0.162 A 
ATOM      6  C5  UNL d   1       1.547  -0.919  -1.736  0.00  0.00     0.062 A 
ATOM      7  F   UNL d   1       2.648  -1.433  -2.304  0.00  0.00    -0.097 F 
ATOM      8  F1  UNL d   1       2.373  -1.502   0.390  0.00  0.00    -0.096 F 
ATOM      9  I   UNL d   1       0.036  -0.468   2.316  0.00  0.00    -0.060 I 
ATOM     10  F2  UNL d   1      -1.844   0.664  -0.014  0.00  0.00    -0.096 F 
ATOM     11  F3  UNL d   1      -1.539   0.718  -2.704  0.00  0.00    -0.097 F 
ATOM     12  F4  UNL d   1       0.700  -0.326  -3.861  0.00  0.00    -0.092 F 
ENDROOT
TORSDOF 0
ENDMDL
