MODEL 1
REMARK minimizedAffinity -1.31155396
REMARK minimizedRMSD -1
REMARK  0 active torsions:
REMARK  status: ('A' for Active; 'I' for Inactive)
ROOT
ATOM      1  C   UNL d   1      -1.548  -0.508   2.698  0.00  0.00     0.124 A 
ATOM      2  C1  UNL d   1      -2.261   0.063   1.653  0.00  0.00     0.062 A 
ATOM      3  C2  UNL d   1      -1.678   0.190   0.395  0.00  0.00     0.162 A 
ATOM      4  C3  UNL d   1      -0.375  -0.255   0.175  0.00  0.00    -0.034 A 
ATOM      5  C4  UNL d   1       0.336  -0.827   1.231  0.00  0.00     0.162 A 
ATOM      6  C5  UNL d   1      -0.250  -0.952   2.486  0.00  0.00     0.062 A 
ATOM      7  F   UNL d   1       0.441  -1.503   3.495  0.00  0.00    -0.097 F 
ATOM      8  F1  UNL d   1       1.592  -1.266   1.054  0.00  0.00    -0.096 F 
ATOM      9  I   UNL d   1       0.500  -0.067  -1.704  0.00  0.00    -0.060 I 
ATOM     10  F2  UNL d   1      -2.391   0.745  -0.596  0.00  0.00    -0.096 F 
ATOM     11  F3  UNL d   1      -3.514   0.494   1.855  0.00  0.00    -0.097 F 
ATOM     12  F4  UNL d   1      -2.110  -0.628   3.907  0.00  0.00    -0.092 F 
ENDROOT
TORSDOF 0
ENDMDL
