MODEL 1
REMARK minimizedAffinity 1.99958897
REMARK minimizedRMSD -1
REMARK  0 active torsions:
REMARK  status: ('A' for Active; 'I' for Inactive)
ROOT
ATOM      1  C   UNL d   1       0.382  -0.007  -2.195  0.00  0.00     0.124 A 
ATOM      2  C1  UNL d   1       1.396  -0.624  -1.475  0.00  0.00     0.062 A 
ATOM      3  C2  UNL d   1       1.303  -0.737  -0.091  0.00  0.00     0.162 A 
ATOM      4  C3  UNL d   1       0.191  -0.232   0.583  0.00  0.00    -0.034 A 
ATOM      5  C4  UNL d   1      -0.824   0.388  -0.148  0.00  0.00     0.162 A 
ATOM      6  C5  UNL d   1      -0.726   0.498  -1.531  0.00  0.00     0.062 A 
ATOM      7  F   UNL d   1      -1.707   1.095  -2.225  0.00  0.00    -0.097 F 
ATOM      8  F1  UNL d   1      -1.907   0.885   0.469  0.00  0.00    -0.096 F 
ATOM      9  I   UNL d   1       0.048  -0.399   2.652  0.00  0.00    -0.060 I 
ATOM     10  F2  UNL d   1       2.297  -1.339   0.579  0.00  0.00    -0.096 F 
ATOM     11  F3  UNL d   1       2.468  -1.113  -2.115  0.00  0.00    -0.097 F 
ATOM     12  F4  UNL d   1       0.475   0.101  -3.527  0.00  0.00    -0.092 F 
ENDROOT
TORSDOF 0
ENDMDL
