MODEL 1
REMARK minimizedAffinity 0.383911282
REMARK minimizedRMSD -1
REMARK  0 active torsions:
REMARK  status: ('A' for Active; 'I' for Inactive)
ROOT
ATOM      1  C   UNL d   1      -1.313   0.190   2.762  0.00  0.00     0.124 A 
ATOM      2  C1  UNL d   1       0.032   0.129   2.423  0.00  0.00     0.062 A 
ATOM      3  C2  UNL d   1       0.415   0.093   1.085  0.00  0.00     0.162 A 
ATOM      4  C3  UNL d   1      -0.549   0.118   0.076  0.00  0.00    -0.034 A 
ATOM      5  C4  UNL d   1      -1.899   0.179   0.426  0.00  0.00     0.162 A 
ATOM      6  C5  UNL d   1      -2.276   0.215   1.764  0.00  0.00     0.062 A 
ATOM      7  F   UNL d   1      -3.576   0.274   2.091  0.00  0.00    -0.097 F 
ATOM      8  F1  UNL d   1      -2.851   0.205  -0.519  0.00  0.00    -0.096 F 
ATOM      9  I   UNL d   1       0.020   0.065  -1.925  0.00  0.00    -0.060 I 
ATOM     10  F2  UNL d   1       1.721   0.034   0.786  0.00  0.00    -0.096 F 
ATOM     11  F3  UNL d   1       0.965   0.103   3.385  0.00  0.00    -0.097 F 
ATOM     12  F4  UNL d   1      -1.678   0.223   4.050  0.00  0.00    -0.092 F 
ENDROOT
TORSDOF 0
ENDMDL
