MODEL 1
REMARK minimizedAffinity 0.616612911
REMARK minimizedRMSD -1
REMARK  0 active torsions:
REMARK  status: ('A' for Active; 'I' for Inactive)
ROOT
ATOM      1  C   UNL d   1      -0.756   0.241   1.568  0.00  0.00     0.124 A 
ATOM      2  C1  UNL d   1       0.523  -0.293   1.495  0.00  0.00     0.062 A 
ATOM      3  C2  UNL d   1       1.133  -0.483   0.258  0.00  0.00     0.162 A 
ATOM      4  C3  UNL d   1       0.465  -0.137  -0.917  0.00  0.00    -0.034 A 
ATOM      5  C4  UNL d   1      -0.821   0.399  -0.835  0.00  0.00     0.162 A 
ATOM      6  C5  UNL d   1      -1.427   0.586   0.403  0.00  0.00     0.062 A 
ATOM      7  F   UNL d   1      -2.663   1.102   0.472  0.00  0.00    -0.097 F 
ATOM      8  F1  UNL d   1      -1.492   0.742  -1.945  0.00  0.00    -0.096 F 
ATOM      9  I   UNL d   1       1.374  -0.419  -2.768  0.00  0.00    -0.060 I 
ATOM     10  F2  UNL d   1       2.370  -1.001   0.217  0.00  0.00    -0.096 F 
ATOM     11  F3  UNL d   1       1.174  -0.629   2.618  0.00  0.00    -0.097 F 
ATOM     12  F4  UNL d   1      -1.340   0.421   2.759  0.00  0.00    -0.092 F 
ENDROOT
TORSDOF 0
ENDMDL
