MODEL 1
REMARK minimizedAffinity 0.354836673
REMARK minimizedRMSD -1
REMARK  0 active torsions:
REMARK  status: ('A' for Active; 'I' for Inactive)
ROOT
ATOM      1  C   UNL d   1       1.381  -1.744  -3.848  0.00  0.00     0.124 A 
ATOM      2  C1  UNL d   1       1.536  -0.444  -3.386  0.00  0.00     0.062 A 
ATOM      3  C2  UNL d   1       0.938  -0.050  -2.193  0.00  0.00     0.162 A 
ATOM      4  C3  UNL d   1       0.180  -0.957  -1.452  0.00  0.00    -0.034 A 
ATOM      5  C4  UNL d   1       0.029  -2.262  -1.923  0.00  0.00     0.162 A 
ATOM      6  C5  UNL d   1       0.628  -2.652  -3.116  0.00  0.00     0.062 A 
ATOM      7  F   UNL d   1       0.478  -3.908  -3.561  0.00  0.00    -0.097 F 
ATOM      8  F1  UNL d   1      -0.693  -3.160  -1.235  0.00  0.00    -0.096 F 
ATOM      9  I   UNL d   1      -0.716  -0.371   0.333  0.00  0.00    -0.060 I 
ATOM     10  F2  UNL d   1       1.104   1.212  -1.770  0.00  0.00    -0.096 F 
ATOM     11  F3  UNL d   1       2.262   0.434  -4.092  0.00  0.00    -0.097 F 
ATOM     12  F4  UNL d   1       1.957  -2.121  -4.997  0.00  0.00    -0.092 F 
ENDROOT
TORSDOF 0
ENDMDL
