MODEL 1
REMARK minimizedAffinity 2.16221881
REMARK minimizedRMSD -1
REMARK  0 active torsions:
REMARK  status: ('A' for Active; 'I' for Inactive)
ROOT
ATOM      1  C   UNL d   1       1.211  -1.551  -3.706  0.00  0.00     0.124 A 
ATOM      2  C1  UNL d   1       1.274  -0.230  -3.285  0.00  0.00     0.062 A 
ATOM      3  C2  UNL d   1       0.439   0.221  -2.267  0.00  0.00     0.162 A 
ATOM      4  C3  UNL d   1      -0.466  -0.650  -1.661  0.00  0.00    -0.034 A 
ATOM      5  C4  UNL d   1      -0.524  -1.978  -2.091  0.00  0.00     0.162 A 
ATOM      6  C5  UNL d   1       0.312  -2.423  -3.108  0.00  0.00     0.062 A 
ATOM      7  F   UNL d   1       0.250  -3.700  -3.514  0.00  0.00    -0.097 F 
ATOM      8  F1  UNL d   1      -1.383  -2.842  -1.530  0.00  0.00    -0.096 F 
ATOM      9  I   UNL d   1      -1.717   0.020  -0.139  0.00  0.00    -0.060 I 
ATOM     10  F2  UNL d   1       0.522   1.503  -1.880  0.00  0.00    -0.096 F 
ATOM     11  F3  UNL d   1       2.141   0.615  -3.861  0.00  0.00    -0.097 F 
ATOM     12  F4  UNL d   1       2.015  -1.982  -4.686  0.00  0.00    -0.092 F 
ENDROOT
TORSDOF 0
ENDMDL
