MODEL 1
REMARK minimizedAffinity 0.726915598
REMARK minimizedRMSD -1
REMARK  0 active torsions:
REMARK  status: ('A' for Active; 'I' for Inactive)
ROOT
ATOM      1  C   UNL d   1      -0.183   0.457  -1.866  0.00  0.00     0.124 A 
ATOM      2  C1  UNL d   1       0.944   0.046  -1.167  0.00  0.00     0.062 A 
ATOM      3  C2  UNL d   1       0.872  -0.187   0.203  0.00  0.00     0.162 A 
ATOM      4  C3  UNL d   1      -0.332  -0.011   0.885  0.00  0.00    -0.034 A 
ATOM      5  C4  UNL d   1      -1.461   0.404   0.176  0.00  0.00     0.162 A 
ATOM      6  C5  UNL d   1      -1.384   0.635  -1.194  0.00  0.00     0.062 A 
ATOM      7  F   UNL d   1      -2.474   1.032  -1.867  0.00  0.00    -0.097 F 
ATOM      8  F1  UNL d   1      -2.635   0.583   0.800  0.00  0.00    -0.096 F 
ATOM      9  I   UNL d   1      -0.443  -0.358   2.934  0.00  0.00    -0.060 I 
ATOM     10  F2  UNL d   1       1.977  -0.583   0.852  0.00  0.00    -0.096 F 
ATOM     11  F3  UNL d   1       2.106  -0.126  -1.814  0.00  0.00    -0.097 F 
ATOM     12  F4  UNL d   1      -0.111   0.681  -3.184  0.00  0.00    -0.092 F 
ENDROOT
TORSDOF 0
ENDMDL
