MODEL 1
REMARK minimizedAffinity 2.76647186
REMARK minimizedRMSD -1
REMARK  0 active torsions:
REMARK  status: ('A' for Active; 'I' for Inactive)
ROOT
ATOM      1  C   UNL d   1      -0.663   0.354   2.173  0.00  0.00     0.124 A 
ATOM      2  C1  UNL d   1      -1.416   0.721   1.067  0.00  0.00     0.062 A 
ATOM      3  C2  UNL d   1      -0.904   0.553  -0.216  0.00  0.00     0.162 A 
ATOM      4  C3  UNL d   1       0.369   0.013  -0.400  0.00  0.00    -0.034 A 
ATOM      5  C4  UNL d   1       1.121  -0.354   0.718  0.00  0.00     0.162 A 
ATOM      6  C5  UNL d   1       0.604  -0.183   1.998  0.00  0.00     0.062 A 
ATOM      7  F   UNL d   1       1.333  -0.539   3.066  0.00  0.00    -0.097 F 
ATOM      8  F1  UNL d   1       2.348  -0.876   0.577  0.00  0.00    -0.096 F 
ATOM      9  I   UNL d   1       1.139  -0.241  -2.317  0.00  0.00    -0.060 I 
ATOM     10  F2  UNL d   1      -1.654   0.917  -1.267  0.00  0.00    -0.096 F 
ATOM     11  F3  UNL d   1      -2.641   1.241   1.234  0.00  0.00    -0.097 F 
ATOM     12  F4  UNL d   1      -1.159   0.518   3.407  0.00  0.00    -0.092 F 
ENDROOT
TORSDOF 0
ENDMDL
