MODEL 1
REMARK minimizedAffinity 1.12185216
REMARK minimizedRMSD -1
REMARK  0 active torsions:
REMARK  status: ('A' for Active; 'I' for Inactive)
ROOT
ATOM      1  C   UNL d   1       1.092  -0.641  -2.902  0.00  0.00     0.124 A 
ATOM      2  C1  UNL d   1       0.134  -1.433  -2.284  0.00  0.00     0.062 A 
ATOM      3  C2  UNL d   1      -0.108  -1.303  -0.920  0.00  0.00     0.162 A 
ATOM      4  C3  UNL d   1       0.608  -0.375  -0.163  0.00  0.00    -0.034 A 
ATOM      5  C4  UNL d   1       1.570   0.418  -0.791  0.00  0.00     0.162 A 
ATOM      6  C5  UNL d   1       1.809   0.284  -2.155  0.00  0.00     0.062 A 
ATOM      7  F   UNL d   1       2.735   1.050  -2.750  0.00  0.00    -0.097 F 
ATOM      8  F1  UNL d   1       2.276   1.319  -0.093  0.00  0.00    -0.096 F 
ATOM      9  I   UNL d   1       0.248  -0.177   1.877  0.00  0.00    -0.060 I 
ATOM     10  F2  UNL d   1      -1.040  -2.082  -0.350  0.00  0.00    -0.096 F 
ATOM     11  F3  UNL d   1      -0.559  -2.327  -3.003  0.00  0.00    -0.097 F 
ATOM     12  F4  UNL d   1       1.324  -0.769  -4.214  0.00  0.00    -0.092 F 
ENDROOT
TORSDOF 0
ENDMDL
