MODEL 1
REMARK minimizedAffinity 1.31183529
REMARK minimizedRMSD -1
REMARK  0 active torsions:
REMARK  status: ('A' for Active; 'I' for Inactive)
ROOT
ATOM      1  C   UNL d   1      -0.352   0.473  -1.390  0.00  0.00     0.124 A 
ATOM      2  C1  UNL d   1      -1.568   0.672  -0.751  0.00  0.00     0.062 A 
ATOM      3  C2  UNL d   1      -1.667   0.516   0.629  0.00  0.00     0.162 A 
ATOM      4  C3  UNL d   1      -0.547   0.161   1.380  0.00  0.00    -0.034 A 
ATOM      5  C4  UNL d   1       0.673  -0.038   0.730  0.00  0.00     0.162 A 
ATOM      6  C5  UNL d   1       0.767   0.119  -0.649  0.00  0.00     0.062 A 
ATOM      7  F   UNL d   1       1.943  -0.073  -1.265  0.00  0.00    -0.097 F 
ATOM      8  F1  UNL d   1       1.770  -0.380   1.421  0.00  0.00    -0.096 F 
ATOM      9  I   UNL d   1      -0.691  -0.073   3.443  0.00  0.00    -0.060 I 
ATOM     10  F2  UNL d   1      -2.855   0.714   1.220  0.00  0.00    -0.096 F 
ATOM     11  F3  UNL d   1      -2.650   1.013  -1.464  0.00  0.00    -0.097 F 
ATOM     12  F4  UNL d   1      -0.259   0.623  -2.717  0.00  0.00    -0.092 F 
ENDROOT
TORSDOF 0
ENDMDL
