MODEL 1
REMARK minimizedAffinity -2.6403811
REMARK minimizedRMSD -1
REMARK  0 active torsions:
REMARK  status: ('A' for Active; 'I' for Inactive)
ROOT
ATOM      1  C   UNL d   1      -1.129  -0.535   1.791  0.00  0.00     0.124 A 
ATOM      2  C1  UNL d   1      -1.655   0.045   0.645  0.00  0.00     0.062 A 
ATOM      3  C2  UNL d   1      -1.017  -0.122  -0.580  0.00  0.00     0.162 A 
ATOM      4  C3  UNL d   1       0.155  -0.874  -0.666  0.00  0.00    -0.034 A 
ATOM      5  C4  UNL d   1       0.679  -1.453   0.491  0.00  0.00     0.162 A 
ATOM      6  C5  UNL d   1       0.037  -1.283   1.713  0.00  0.00     0.062 A 
ATOM      7  F   UNL d   1       0.546  -1.844   2.820  0.00  0.00    -0.097 F 
ATOM      8  F1  UNL d   1       1.803  -2.182   0.444  0.00  0.00    -0.096 F 
ATOM      9  I   UNL d   1       1.113  -1.126  -2.497  0.00  0.00    -0.060 I 
ATOM     10  F2  UNL d   1      -1.547   0.450  -1.671  0.00  0.00    -0.096 F 
ATOM     11  F3  UNL d   1      -2.781   0.770   0.718  0.00  0.00    -0.097 F 
ATOM     12  F4  UNL d   1      -1.745  -0.371   2.969  0.00  0.00    -0.092 F 
ENDROOT
TORSDOF 0
ENDMDL
