MODEL 1
REMARK minimizedAffinity -2.35131431
REMARK minimizedRMSD -1
REMARK  0 active torsions:
REMARK  status: ('A' for Active; 'I' for Inactive)
ROOT
ATOM      1  C   UNL d   1      -0.396   0.003   1.967  0.00  0.00     0.124 A 
ATOM      2  C1  UNL d   1       0.902  -0.489   1.931  0.00  0.00     0.062 A 
ATOM      3  C2  UNL d   1       1.480  -0.851   0.718  0.00  0.00     0.162 A 
ATOM      4  C3  UNL d   1       0.762  -0.721  -0.471  0.00  0.00    -0.034 A 
ATOM      5  C4  UNL d   1      -0.543  -0.227  -0.427  0.00  0.00     0.162 A 
ATOM      6  C5  UNL d   1      -1.117   0.133   0.788  0.00  0.00     0.062 A 
ATOM      7  F   UNL d   1      -2.370   0.608   0.821  0.00  0.00    -0.097 F 
ATOM      8  F1  UNL d   1      -1.262  -0.090  -1.551  0.00  0.00    -0.096 F 
ATOM      9  I   UNL d   1       1.623  -1.261  -2.287  0.00  0.00    -0.060 I 
ATOM     10  F2  UNL d   1       2.736  -1.323   0.713  0.00  0.00    -0.096 F 
ATOM     11  F3  UNL d   1       1.600  -0.617   3.068  0.00  0.00    -0.097 F 
ATOM     12  F4  UNL d   1      -0.950   0.349   3.135  0.00  0.00    -0.092 F 
ENDROOT
TORSDOF 0
ENDMDL
