MODEL 1
REMARK minimizedAffinity 7.2943635
REMARK minimizedRMSD -1
REMARK  0 active torsions:
REMARK  status: ('A' for Active; 'I' for Inactive)
ROOT
ATOM      1  C1  DEN d   1       3.848  -0.998   1.572  0.00  0.00     0.130 A 
ATOM      2  C2  DEN d   1       4.499   0.308   1.620  0.00  0.00    -0.031 A 
ATOM      3  C3  DEN d   1       4.027   1.096   0.463  0.00  0.00     0.027 A 
ATOM      4  C4  DEN d   1       2.357   0.425  -1.384  0.00  0.00     0.027 A 
ATOM      5  C5  DEN d   1       1.551  -0.588  -1.855  0.00  0.00    -0.003 A 
ATOM      6  C6  DEN d   1       1.480  -1.810  -1.240  0.00  0.00     0.001 A 
ATOM      7  C7  DEN d   1       2.195  -2.036  -0.094  0.00  0.00     0.017 A 
ATOM      8  C8  DEN d   1       3.016  -1.022   0.382  0.00  0.00    -0.094 A 
ATOM      9  C9  DEN d   1       3.064   0.211  -0.246  0.00  0.00    -0.072 A 
ENDROOT
TORSDOF 0
ENDMDL
