MODEL 1
REMARK minimizedAffinity 16.5990181
REMARK minimizedRMSD -1
REMARK  0 active torsions:
REMARK  status: ('A' for Active; 'I' for Inactive)
ROOT
ATOM      1  C1  DEN d   1      -5.565   4.028   2.491  0.00  0.00     0.130 A 
ATOM      2  C2  DEN d   1      -4.453   4.290   1.580  0.00  0.00    -0.031 A 
ATOM      3  C3  DEN d   1      -3.448   5.092   2.306  0.00  0.00     0.027 A 
ATOM      4  C4  DEN d   1      -3.502   5.945   4.740  0.00  0.00     0.027 A 
ATOM      5  C5  DEN d   1      -4.245   5.984   5.899  0.00  0.00    -0.003 A 
ATOM      6  C6  DEN d   1      -5.483   5.407   5.993  0.00  0.00     0.001 A 
ATOM      7  C7  DEN d   1      -5.998   4.727   4.921  0.00  0.00     0.017 A 
ATOM      8  C8  DEN d   1      -5.259   4.690   3.746  0.00  0.00    -0.094 A 
ATOM      9  C9  DEN d   1      -4.003   5.269   3.675  0.00  0.00    -0.072 A 
ENDROOT
TORSDOF 0
ENDMDL
