MODEL 1
REMARK minimizedAffinity 8.10326481
REMARK minimizedRMSD -1
REMARK  0 active torsions:
REMARK  status: ('A' for Active; 'I' for Inactive)
ROOT
ATOM      1  C1  DEN d   1      -0.015  -0.353  -0.017  0.00  0.00     0.130 A 
ATOM      2  C2  DEN d   1      -0.618   0.422  -1.098  0.00  0.00    -0.031 A 
ATOM      3  C3  DEN d   1       0.437   1.258  -1.704  0.00  0.00     0.027 A 
ATOM      4  C4  DEN d   1       2.934   1.424  -1.080  0.00  0.00     0.027 A 
ATOM      5  C5  DEN d   1       3.909   0.967  -0.222  0.00  0.00    -0.003 A 
ATOM      6  C6  DEN d   1       3.640   0.071   0.779  0.00  0.00     0.001 A 
ATOM      7  C7  DEN d   1       2.373  -0.431   0.917  0.00  0.00     0.017 A 
ATOM      8  C8  DEN d   1       1.383   0.031   0.060  0.00  0.00    -0.094 A 
ATOM      9  C9  DEN d   1       1.678   0.927  -0.953  0.00  0.00    -0.072 A 
ENDROOT
TORSDOF 0
ENDMDL
