MODEL 1
REMARK minimizedAffinity 6.98125553
REMARK minimizedRMSD -1
REMARK  0 active torsions:
REMARK  status: ('A' for Active; 'I' for Inactive)
ROOT
ATOM      1  C1  DEN d   1      -2.036   5.835   3.621  0.00  0.00     0.130 A 
ATOM      2  C2  DEN d   1      -1.325   5.969   4.890  0.00  0.00    -0.031 A 
ATOM      3  C3  DEN d   1      -2.327   5.999   5.974  0.00  0.00     0.027 A 
ATOM      4  C4  DEN d   1      -4.896   5.848   5.814  0.00  0.00     0.027 A 
ATOM      5  C5  DEN d   1      -5.963   5.737   4.949  0.00  0.00    -0.003 A 
ATOM      6  C6  DEN d   1      -5.798   5.686   3.590  0.00  0.00     0.001 A 
ATOM      7  C7  DEN d   1      -4.536   5.700   3.058  0.00  0.00     0.017 A 
ATOM      8  C8  DEN d   1      -3.456   5.819   3.923  0.00  0.00    -0.094 A 
ATOM      9  C9  DEN d   1      -3.643   5.857   5.295  0.00  0.00    -0.072 A 
ENDROOT
TORSDOF 0
ENDMDL
