MODEL 1
REMARK minimizedAffinity 6.97930098
REMARK minimizedRMSD -1
REMARK  0 active torsions:
REMARK  status: ('A' for Active; 'I' for Inactive)
ROOT
ATOM      1  C1  DEN d   1       1.634   0.937  -0.913  0.00  0.00     0.130 A 
ATOM      2  C2  DEN d   1       2.528  -0.166  -0.573  0.00  0.00    -0.031 A 
ATOM      3  C3  DEN d   1       3.412   0.282   0.521  0.00  0.00     0.027 A 
ATOM      4  C4  DEN d   1       3.478   2.564   1.722  0.00  0.00     0.027 A 
ATOM      5  C5  DEN d   1       2.919   3.822   1.773  0.00  0.00    -0.003 A 
ATOM      6  C6  DEN d   1       1.924   4.214   0.918  0.00  0.00     0.001 A 
ATOM      7  C7  DEN d   1       1.426   3.325   0.003  0.00  0.00     0.017 A 
ATOM      8  C8  DEN d   1       1.989   2.058  -0.060  0.00  0.00    -0.094 A 
ATOM      9  C9  DEN d   1       2.986   1.676   0.821  0.00  0.00    -0.072 A 
ENDROOT
TORSDOF 0
ENDMDL
