MODEL 1
REMARK minimizedAffinity 16.803072
REMARK minimizedRMSD -1
REMARK  0 active torsions:
REMARK  status: ('A' for Active; 'I' for Inactive)
ROOT
ATOM      1  C1  DEN d   1       3.918   1.901  -1.247  0.00  0.00     0.130 A 
ATOM      2  C2  DEN d   1       4.531   2.376  -0.010  0.00  0.00    -0.031 A 
ATOM      3  C3  DEN d   1       4.062   1.514   1.093  0.00  0.00     0.027 A 
ATOM      4  C4  DEN d   1       2.457  -0.504   1.005  0.00  0.00     0.027 A 
ATOM      5  C5  DEN d   1       1.672  -1.278   0.179  0.00  0.00    -0.003 A 
ATOM      6  C6  DEN d   1       1.555  -1.029  -1.162  0.00  0.00     0.001 A 
ATOM      7  C7  DEN d   1       2.270  -0.006  -1.727  0.00  0.00     0.017 A 
ATOM      8  C8  DEN d   1       3.058   0.784  -0.900  0.00  0.00    -0.094 A 
ATOM      9  C9  DEN d   1       3.172   0.509   0.452  0.00  0.00    -0.072 A 
ENDROOT
TORSDOF 0
ENDMDL
