MODEL 1
REMARK minimizedAffinity 10.7770529
REMARK minimizedRMSD -1
REMARK  0 active torsions:
REMARK  status: ('A' for Active; 'I' for Inactive)
ROOT
ATOM      1  C1  DEN d   1       3.724   2.410  -0.186  0.00  0.00     0.130 A 
ATOM      2  C2  DEN d   1       4.375   2.540   1.115  0.00  0.00    -0.031 A 
ATOM      3  C3  DEN d   1       4.169   1.280   1.857  0.00  0.00     0.027 A 
ATOM      4  C4  DEN d   1       2.918  -0.851   1.119  0.00  0.00     0.027 A 
ATOM      5  C5  DEN d   1       2.191  -1.431   0.103  0.00  0.00    -0.003 A 
ATOM      6  C6  DEN d   1       1.897  -0.765  -1.057  0.00  0.00     0.001 A 
ATOM      7  C7  DEN d   1       2.371   0.506  -1.248  0.00  0.00     0.017 A 
ATOM      8  C8  DEN d   1       3.099   1.100  -0.225  0.00  0.00    -0.094 A 
ATOM      9  C9  DEN d   1       3.396   0.405   0.935  0.00  0.00    -0.072 A 
ENDROOT
TORSDOF 0
ENDMDL
