MODEL 1
REMARK minimizedAffinity 9.24072361
REMARK minimizedRMSD -1
REMARK  0 active torsions:
REMARK  status: ('A' for Active; 'I' for Inactive)
ROOT
ATOM      1  C1  DEN d   1      -4.269   2.005  -0.938  0.00  0.00     0.130 A 
ATOM      2  C2  DEN d   1      -4.067   0.764  -0.197  0.00  0.00    -0.031 A 
ATOM      3  C3  DEN d   1      -4.561  -0.351  -1.030  0.00  0.00     0.027 A 
ATOM      4  C4  DEN d   1      -5.608  -0.275  -3.386  0.00  0.00     0.027 A 
ATOM      5  C5  DEN d   1      -5.996   0.553  -4.416  0.00  0.00    -0.003 A 
ATOM      6  C6  DEN d   1      -5.868   1.915  -4.346  0.00  0.00     0.001 A 
ATOM      7  C7  DEN d   1      -5.296   2.487  -3.239  0.00  0.00     0.017 A 
ATOM      8  C8  DEN d   1      -4.910   1.659  -2.194  0.00  0.00    -0.094 A 
ATOM      9  C9  DEN d   1      -5.036   0.283  -2.289  0.00  0.00    -0.072 A 
ENDROOT
TORSDOF 0
ENDMDL
