MODEL 1
REMARK minimizedAffinity -2.48693037
REMARK minimizedRMSD -1
REMARK  0 active torsions:
REMARK  status: ('A' for Active; 'I' for Inactive)
ROOT
ATOM      1  C   UNL d   1       1.355  -2.520   0.282  0.00  0.00     0.172 C 
ATOM      2  N   UNL d   1       1.774  -2.507   1.664  0.00  0.00    -0.070 N 
ATOM      3  C1  UNL d   1       2.274  -3.576   2.358  0.00  0.00    -0.004 A 
ATOM      4  C2  UNL d   1       2.553  -3.155   3.640  0.00  0.00    -0.047 A 
ATOM      5  C3  UNL d   1       2.207  -1.785   3.720  0.00  0.00    -0.047 A 
ATOM      6  C4  UNL d   1       1.728  -1.409   2.483  0.00  0.00    -0.004 A 
ENDROOT
TORSDOF 0
ENDMDL
