MODEL 1
REMARK minimizedAffinity 5.29741287
REMARK minimizedRMSD -1
REMARK  0 active torsions:
REMARK  status: ('A' for Active; 'I' for Inactive)
ROOT
ATOM      1  C   UNL d   1       1.059  -2.587  -1.094  0.00  0.00     0.172 C 
ATOM      2  N   UNL d   1      -0.156  -1.809  -1.031  0.00  0.00    -0.070 N 
ATOM      3  C1  UNL d   1      -0.767  -1.375   0.115  0.00  0.00    -0.004 A 
ATOM      4  C2  UNL d   1      -1.894  -0.670  -0.249  0.00  0.00    -0.047 A 
ATOM      5  C3  UNL d   1      -1.963  -0.682  -1.663  0.00  0.00    -0.047 A 
ATOM      6  C4  UNL d   1      -0.875  -1.394  -2.121  0.00  0.00    -0.004 A 
ENDROOT
TORSDOF 0
ENDMDL
