MODEL 1
REMARK minimizedAffinity 2.219491
REMARK minimizedRMSD -1
REMARK  0 active torsions:
REMARK  status: ('A' for Active; 'I' for Inactive)
ROOT
ATOM      1  C   UNL d   1       1.127  -1.858  -0.044  0.00  0.00     0.172 C 
ATOM      2  N   UNL d   1       1.586  -1.961   1.322  0.00  0.00    -0.070 N 
ATOM      3  C1  UNL d   1       2.178  -3.060   1.884  0.00  0.00    -0.004 A 
ATOM      4  C2  UNL d   1       2.467  -2.759   3.197  0.00  0.00    -0.047 A 
ATOM      5  C3  UNL d   1       2.032  -1.433   3.433  0.00  0.00    -0.047 A 
ATOM      6  C4  UNL d   1       1.491  -0.963   2.255  0.00  0.00    -0.004 A 
ENDROOT
TORSDOF 0
ENDMDL
