MODEL 1
REMARK minimizedAffinity 9.05115509
REMARK minimizedRMSD -1
REMARK  0 active torsions:
REMARK  status: ('A' for Active; 'I' for Inactive)
ROOT
ATOM      1  C   UNL d   1       2.064  -0.762   2.886  0.00  0.00     0.172 C 
ATOM      2  N   UNL d   1       2.539   0.412   2.193  0.00  0.00    -0.070 N 
ATOM      3  C1  UNL d   1       2.417   1.703   2.633  0.00  0.00    -0.004 A 
ATOM      4  C2  UNL d   1       2.996   2.527   1.691  0.00  0.00    -0.047 A 
ATOM      5  C3  UNL d   1       3.481   1.702   0.649  0.00  0.00    -0.047 A 
ATOM      6  C4  UNL d   1       3.185   0.398   0.985  0.00  0.00    -0.004 A 
ENDROOT
TORSDOF 0
ENDMDL
