MODEL 1
REMARK minimizedAffinity 3.99629664
REMARK minimizedRMSD -1
REMARK  0 active torsions:
REMARK  status: ('A' for Active; 'I' for Inactive)
ROOT
ATOM      1  C   UNL d   1       5.236  -1.853   3.143  0.00  0.00     0.172 C 
ATOM      2  N   UNL d   1       3.913  -1.374   2.816  0.00  0.00    -0.070 N 
ATOM      3  C1  UNL d   1       3.628  -0.308   2.005  0.00  0.00    -0.004 A 
ATOM      4  C2  UNL d   1       2.257  -0.178   1.947  0.00  0.00    -0.047 A 
ATOM      5  C3  UNL d   1       1.699  -1.200   2.751  0.00  0.00    -0.047 A 
ATOM      6  C4  UNL d   1       2.747  -1.926   3.278  0.00  0.00    -0.004 A 
ENDROOT
TORSDOF 0
ENDMDL
