MODEL 1
REMARK minimizedAffinity 6.80127335
REMARK minimizedRMSD -1
REMARK  0 active torsions:
REMARK  status: ('A' for Active; 'I' for Inactive)
ROOT
ATOM      1  C   UNL d   1      -6.000   2.281   3.708  0.00  0.00     0.172 C 
ATOM      2  N   UNL d   1      -5.358   2.623   2.461  0.00  0.00    -0.070 N 
ATOM      3  C1  UNL d   1      -5.999   2.997   1.310  0.00  0.00    -0.004 A 
ATOM      4  C2  UNL d   1      -5.039   3.238   0.351  0.00  0.00    -0.047 A 
ATOM      5  C3  UNL d   1      -3.777   3.000   0.946  0.00  0.00    -0.047 A 
ATOM      6  C4  UNL d   1      -4.004   2.621   2.252  0.00  0.00    -0.004 A 
ENDROOT
TORSDOF 0
ENDMDL
