MODEL 1
REMARK minimizedAffinity 5.16050959
REMARK minimizedRMSD -1
REMARK  0 active torsions:
REMARK  status: ('A' for Active; 'I' for Inactive)
ROOT
ATOM      1  C   UNL d   1       0.359  -4.517   5.867  0.00  0.00     0.172 C 
ATOM      2  N   UNL d   1       1.662  -4.188   5.338  0.00  0.00    -0.070 N 
ATOM      3  C1  UNL d   1       2.649  -5.087   5.031  0.00  0.00    -0.004 A 
ATOM      4  C2  UNL d   1       3.731  -4.379   4.555  0.00  0.00    -0.047 A 
ATOM      5  C3  UNL d   1       3.383  -3.007   4.577  0.00  0.00    -0.047 A 
ATOM      6  C4  UNL d   1       2.097  -2.918   5.067  0.00  0.00    -0.004 A 
ENDROOT
TORSDOF 0
ENDMDL
