MODEL 1
REMARK minimizedAffinity 1.18460095
REMARK minimizedRMSD -1
REMARK  0 active torsions:
REMARK  status: ('A' for Active; 'I' for Inactive)
ROOT
ATOM      1  C   UNL d   1      -6.000  -0.958  -5.520  0.00  0.00     0.172 C 
ATOM      2  N   UNL d   1      -5.996   0.432  -5.128  0.00  0.00    -0.070 N 
ATOM      3  C1  UNL d   1      -5.987   0.898  -3.840  0.00  0.00    -0.004 A 
ATOM      4  C2  UNL d   1      -5.985   2.275  -3.891  0.00  0.00    -0.047 A 
ATOM      5  C3  UNL d   1      -5.993   2.650  -5.255  0.00  0.00    -0.047 A 
ATOM      6  C4  UNL d   1      -6.000   1.489  -5.999  0.00  0.00    -0.004 A 
ENDROOT
TORSDOF 0
ENDMDL
