MODEL 1
REMARK minimizedAffinity 5.60915422
REMARK minimizedRMSD -1
REMARK  0 active torsions:
REMARK  status: ('A' for Active; 'I' for Inactive)
ROOT
ATOM      1  C   UNL d   1      -0.120  -0.340   1.810  0.00  0.00     0.172 C 
ATOM      2  N   UNL d   1       1.092  -0.751   2.479  0.00  0.00    -0.070 N 
ATOM      3  C1  UNL d   1       1.311  -0.713   3.830  0.00  0.00    -0.004 A 
ATOM      4  C2  UNL d   1       2.583  -1.187   4.066  0.00  0.00    -0.047 A 
ATOM      5  C3  UNL d   1       3.149  -1.521   2.812  0.00  0.00    -0.047 A 
ATOM      6  C4  UNL d   1       2.205  -1.241   1.847  0.00  0.00    -0.004 A 
ENDROOT
TORSDOF 0
ENDMDL
