MODEL 1
REMARK minimizedAffinity 3.04656696
REMARK minimizedRMSD -1
REMARK  0 active torsions:
REMARK  status: ('A' for Active; 'I' for Inactive)
ROOT
ATOM      1  C   UNL d   1      -5.957   2.672   3.511  0.00  0.00     0.172 C 
ATOM      2  N   UNL d   1      -5.358   2.772   2.201  0.00  0.00    -0.070 N 
ATOM      3  C1  UNL d   1      -5.999   3.168   1.058  0.00  0.00    -0.004 A 
ATOM      4  C2  UNL d   1      -5.086   3.131   0.027  0.00  0.00    -0.047 A 
ATOM      5  C3  UNL d   1      -3.853   2.696   0.568  0.00  0.00    -0.047 A 
ATOM      6  C4  UNL d   1      -4.050   2.481   1.916  0.00  0.00    -0.004 A 
ENDROOT
TORSDOF 0
ENDMDL
