MODEL 1
REMARK minimizedAffinity -2.79780698
REMARK minimizedRMSD -1
REMARK  0 active torsions:
REMARK  status: ('A' for Active; 'I' for Inactive)
ROOT
ATOM      1  C4' PXY d   1      -2.233  -0.359  -1.556  0.00  0.00     0.077 C 
ATOM      2  C1' PXY d   1      -3.637   4.943  -3.382  0.00  0.00     0.077 C 
ATOM      3  C1  PXY d   1      -3.268   3.557  -2.891  0.00  0.00    -0.082 A 
ATOM      4  C2  PXY d   1      -2.757   2.678  -3.737  0.00  0.00     0.003 A 
ATOM      5  C3  PXY d   1      -2.447   1.410  -3.318  0.00  0.00     0.003 A 
ATOM      6  C4  PXY d   1      -2.612   1.055  -2.006  0.00  0.00    -0.082 A 
ATOM      7  C5  PXY d   1      -3.123   1.949  -1.133  0.00  0.00     0.003 A 
ATOM      8  C6  PXY d   1      -3.470   3.218  -1.588  0.00  0.00     0.003 A 
ENDROOT
TORSDOF 0
ENDMDL
