MODEL 1
REMARK minimizedAffinity 0.259106934
REMARK minimizedRMSD -1
REMARK  0 active torsions:
REMARK  status: ('A' for Active; 'I' for Inactive)
ROOT
ATOM      1  C4' PXY d   1      -4.395   5.998  -1.877  0.00  0.00     0.077 C 
ATOM      2  C1' PXY d   1      -0.796   4.136  -6.000  0.00  0.00     0.077 C 
ATOM      3  C1  PXY d   1      -1.738   4.613  -4.912  0.00  0.00    -0.082 A 
ATOM      4  C2  PXY d   1      -2.647   5.532  -5.192  0.00  0.00     0.003 A 
ATOM      5  C3  PXY d   1      -3.486   5.998  -4.212  0.00  0.00     0.003 A 
ATOM      6  C4  PXY d   1      -3.429   5.480  -2.946  0.00  0.00    -0.082 A 
ATOM      7  C5  PXY d   1      -2.511   4.534  -2.656  0.00  0.00     0.003 A 
ATOM      8  C6  PXY d   1      -1.641   4.104  -3.654  0.00  0.00     0.003 A 
ENDROOT
TORSDOF 0
ENDMDL
