MODEL 1
REMARK minimizedAffinity -3.44858098
REMARK minimizedRMSD -1
REMARK  0 active torsions:
REMARK  status: ('A' for Active; 'I' for Inactive)
ROOT
ATOM      1  C4' PXY d   1      -2.622   0.736  -2.248  0.00  0.00     0.077 C 
ATOM      2  C1' PXY d   1      -2.233   6.000  -4.606  0.00  0.00     0.077 C 
ATOM      3  C1  PXY d   1      -2.346   4.617  -3.995  0.00  0.00    -0.082 A 
ATOM      4  C2  PXY d   1      -1.826   4.385  -2.801  0.00  0.00     0.003 A 
ATOM      5  C3  PXY d   1      -1.890   3.132  -2.247  0.00  0.00     0.003 A 
ATOM      6  C4  PXY d   1      -2.540   2.119  -2.900  0.00  0.00    -0.082 A 
ATOM      7  C5  PXY d   1      -3.083   2.350  -4.114  0.00  0.00     0.003 A 
ATOM      8  C6  PXY d   1      -2.971   3.618  -4.677  0.00  0.00     0.003 A 
ENDROOT
TORSDOF 0
ENDMDL
