MODEL 1
REMARK minimizedAffinity -5.33446312
REMARK minimizedRMSD -1
REMARK  0 active torsions:
REMARK  status: ('A' for Active; 'I' for Inactive)
ROOT
ATOM      1  C4' PXY d   1       1.488  -2.306   1.149  0.00  0.00     0.077 C 
ATOM      2  C1' PXY d   1      -3.519   0.104   2.744  0.00  0.00     0.077 C 
ATOM      3  C1  PXY d   1      -2.199  -0.520   2.334  0.00  0.00    -0.082 A 
ATOM      4  C2  PXY d   1      -2.087  -1.091   1.146  0.00  0.00     0.003 A 
ATOM      5  C3  PXY d   1      -0.911  -1.689   0.771  0.00  0.00     0.003 A 
ATOM      6  C4  PXY d   1       0.178  -1.655   1.601  0.00  0.00    -0.082 A 
ATOM      7  C5  PXY d   1       0.074  -1.065   2.811  0.00  0.00     0.003 A 
ATOM      8  C6  PXY d   1      -1.141  -0.500   3.188  0.00  0.00     0.003 A 
ENDROOT
TORSDOF 0
ENDMDL
