MODEL 1
REMARK minimizedAffinity 8.8100071
REMARK minimizedRMSD -1
REMARK  0 active torsions:
REMARK  status: ('A' for Active; 'I' for Inactive)
ROOT
ATOM      1  C4' PXY d   1      -5.455   3.016  -0.013  0.00  0.00     0.077 C 
ATOM      2  C1' PXY d   1      -2.263   5.674  -4.032  0.00  0.00     0.077 C 
ATOM      3  C1  PXY d   1      -3.106   4.970  -2.988  0.00  0.00    -0.082 A 
ATOM      4  C2  PXY d   1      -3.326   5.555  -1.821  0.00  0.00     0.003 A 
ATOM      5  C3  PXY d   1      -4.059   4.919  -0.853  0.00  0.00     0.003 A 
ATOM      6  C4  PXY d   1      -4.618   3.694  -1.101  0.00  0.00    -0.082 A 
ATOM      7  C5  PXY d   1      -4.408   3.095  -2.292  0.00  0.00     0.003 A 
ATOM      8  C6  PXY d   1      -3.626   3.739  -3.246  0.00  0.00     0.003 A 
ENDROOT
TORSDOF 0
ENDMDL
