MODEL 1
REMARK minimizedAffinity -2.55799866
REMARK minimizedRMSD -1
REMARK  0 active torsions:
REMARK  status: ('A' for Active; 'I' for Inactive)
ROOT
ATOM      1  C4' PXY d   1      -4.058   3.147  -0.603  0.00  0.00     0.077 C 
ATOM      2  C1' PXY d   1      -1.517   5.082  -5.420  0.00  0.00     0.077 C 
ATOM      3  C1  PXY d   1      -2.183   4.562  -4.161  0.00  0.00    -0.082 A 
ATOM      4  C2  PXY d   1      -2.937   5.374  -3.438  0.00  0.00     0.003 A 
ATOM      5  C3  PXY d   1      -3.521   4.929  -2.279  0.00  0.00     0.003 A 
ATOM      6  C4  PXY d   1      -3.374   3.626  -1.886  0.00  0.00    -0.082 A 
ATOM      7  C5  PXY d   1      -2.615   2.789  -2.625  0.00  0.00     0.003 A 
ATOM      8  C6  PXY d   1      -1.998   3.271  -3.775  0.00  0.00     0.003 A 
ENDROOT
TORSDOF 0
ENDMDL
