MODEL 1
REMARK minimizedAffinity -1.39165246
REMARK minimizedRMSD -1
REMARK  0 active torsions:
REMARK  status: ('A' for Active; 'I' for Inactive)
ROOT
ATOM      1  C4' PXY d   1       1.121  -1.823   1.114  0.00  0.00     0.077 C 
ATOM      2  C1' PXY d   1      -3.680   0.528   3.316  0.00  0.00     0.077 C 
ATOM      3  C1  PXY d   1      -2.428  -0.097   2.732  0.00  0.00    -0.082 A 
ATOM      4  C2  PXY d   1      -1.277   0.022   3.373  0.00  0.00     0.003 A 
ATOM      5  C3  PXY d   1      -0.130  -0.510   2.844  0.00  0.00     0.003 A 
ATOM      6  C4  PXY d   1      -0.170  -1.216   1.671  0.00  0.00    -0.082 A 
ATOM      7  C5  PXY d   1      -1.343  -1.351   1.016  0.00  0.00     0.003 A 
ATOM      8  C6  PXY d   1      -2.488  -0.768   1.550  0.00  0.00     0.003 A 
ENDROOT
TORSDOF 0
ENDMDL
