MODEL 1
REMARK minimizedAffinity 4.95466709
REMARK minimizedRMSD -1
REMARK  0 active torsions:
REMARK  status: ('A' for Active; 'I' for Inactive)
ROOT
ATOM      1  C4' PXY d   1      -1.847   5.974  -4.196  0.00  0.00     0.077 C 
ATOM      2  C1' PXY d   1      -3.786   1.896  -0.587  0.00  0.00     0.077 C 
ATOM      3  C1  PXY d   1      -3.271   2.957  -1.540  0.00  0.00    -0.082 A 
ATOM      4  C2  PXY d   1      -3.126   4.202  -1.117  0.00  0.00     0.003 A 
ATOM      5  C3  PXY d   1      -2.692   5.180  -1.975  0.00  0.00     0.003 A 
ATOM      6  C4  PXY d   1      -2.354   4.869  -3.265  0.00  0.00    -0.082 A 
ATOM      7  C5  PXY d   1      -2.489   3.599  -3.701  0.00  0.00     0.003 A 
ATOM      8  C6  PXY d   1      -2.970   2.629  -2.826  0.00  0.00     0.003 A 
ENDROOT
TORSDOF 0
ENDMDL
