MODEL 1
REMARK minimizedAffinity 2.70767331
REMARK minimizedRMSD -1
REMARK  0 active torsions:
REMARK  status: ('A' for Active; 'I' for Inactive)
ROOT
ATOM      1  C4' PXY d   1       1.760  -1.979  -1.650  0.00  0.00     0.077 C 
ATOM      2  C1' PXY d   1      -1.098  -1.593   3.359  0.00  0.00     0.077 C 
ATOM      3  C1  PXY d   1      -0.338  -1.698   2.052  0.00  0.00    -0.082 A 
ATOM      4  C2  PXY d   1      -0.742  -1.001   1.002  0.00  0.00     0.003 A 
ATOM      5  C3  PXY d   1      -0.085  -1.109  -0.197  0.00  0.00     0.003 A 
ATOM      6  C4  PXY d   1       1.029  -1.897  -0.308  0.00  0.00    -0.082 A 
ATOM      7  C5  PXY d   1       1.454  -2.602   0.762  0.00  0.00     0.003 A 
ATOM      8  C6  PXY d   1       0.749  -2.511   1.958  0.00  0.00     0.003 A 
ENDROOT
TORSDOF 0
ENDMDL
