MODEL 1
REMARK minimizedAffinity 5.25909758
REMARK minimizedRMSD -1
REMARK  0 active torsions:
REMARK  status: ('A' for Active; 'I' for Inactive)
ROOT
ATOM      1  C4' PXY d   1       1.642  -2.580   0.778  0.00  0.00     0.077 C 
ATOM      2  C1' PXY d   1      -2.625   0.403   3.291  0.00  0.00     0.077 C 
ATOM      3  C1  PXY d   1      -1.514  -0.383   2.623  0.00  0.00    -0.082 A 
ATOM      4  C2  PXY d   1      -0.454  -0.744   3.327  0.00  0.00     0.003 A 
ATOM      5  C3  PXY d   1       0.575  -1.428   2.731  0.00  0.00     0.003 A 
ATOM      6  C4  PXY d   1       0.492  -1.793   1.413  0.00  0.00    -0.082 A 
ATOM      7  C5  PXY d   1      -0.592  -1.438   0.691  0.00  0.00     0.003 A 
ATOM      8  C6  PXY d   1      -1.606  -0.708   1.305  0.00  0.00     0.003 A 
ENDROOT
TORSDOF 0
ENDMDL
