MODEL 1
REMARK minimizedAffinity 2.49334478
REMARK minimizedRMSD -1
REMARK  0 active torsions:
REMARK  status: ('A' for Active; 'I' for Inactive)
ROOT
ATOM      1  C4' PXY d   1       0.446  -2.070  -2.853  0.00  0.00     0.077 C 
ATOM      2  C1' PXY d   1       0.013  -1.653   2.896  0.00  0.00     0.077 C 
ATOM      3  C1  PXY d   1       0.139  -1.761   1.389  0.00  0.00    -0.082 A 
ATOM      4  C2  PXY d   1      -0.891  -1.445   0.622  0.00  0.00     0.003 A 
ATOM      5  C3  PXY d   1      -0.804  -1.567  -0.741  0.00  0.00     0.003 A 
ATOM      6  C4  PXY d   1       0.367  -1.967  -1.328  0.00  0.00    -0.082 A 
ATOM      7  C5  PXY d   1       1.426  -2.281  -0.552  0.00  0.00     0.003 A 
ATOM      8  C6  PXY d   1       1.304  -2.190   0.831  0.00  0.00     0.003 A 
ENDROOT
TORSDOF 0
ENDMDL
