MODEL 1
REMARK minimizedAffinity -3.47063279
REMARK minimizedRMSD -1
REMARK  0 active torsions:
REMARK  status: ('A' for Active; 'I' for Inactive)
ROOT
ATOM      1  C4' PXY d   1      -3.847   3.018  -0.951  0.00  0.00     0.077 C 
ATOM      2  C1' PXY d   1      -0.827   4.167  -5.745  0.00  0.00     0.077 C 
ATOM      3  C1  PXY d   1      -1.620   3.853  -4.491  0.00  0.00    -0.082 A 
ATOM      4  C2  PXY d   1      -2.305   4.814  -3.893  0.00  0.00     0.003 A 
ATOM      5  C3  PXY d   1      -3.001   4.555  -2.740  0.00  0.00     0.003 A 
ATOM      6  C4  PXY d   1      -3.040   3.287  -2.225  0.00  0.00    -0.082 A 
ATOM      7  C5  PXY d   1      -2.353   2.299  -2.836  0.00  0.00     0.003 A 
ATOM      8  C6  PXY d   1      -1.619   2.592  -3.981  0.00  0.00     0.003 A 
ENDROOT
TORSDOF 0
ENDMDL
