MODEL 1
REMARK minimizedAffinity -1.39072096
REMARK minimizedRMSD -1
REMARK  0 active torsions:
REMARK  status: ('A' for Active; 'I' for Inactive)
ROOT
ATOM      1  C4' PXY d   1      -3.003   2.463  -2.258  0.00  0.00     0.077 C 
ATOM      2  C1' PXY d   1      -0.375   5.999  -6.000  0.00  0.00     0.077 C 
ATOM      3  C1  PXY d   1      -1.069   5.082  -5.012  0.00  0.00    -0.082 A 
ATOM      4  C2  PXY d   1      -0.593   3.866  -4.803  0.00  0.00     0.003 A 
ATOM      5  C3  PXY d   1      -1.227   3.012  -3.937  0.00  0.00     0.003 A 
ATOM      6  C4  PXY d   1      -2.329   3.426  -3.239  0.00  0.00    -0.082 A 
ATOM      7  C5  PXY d   1      -2.815   4.670  -3.439  0.00  0.00     0.003 A 
ATOM      8  C6  PXY d   1      -2.181   5.507  -4.353  0.00  0.00     0.003 A 
ENDROOT
TORSDOF 0
ENDMDL
