MODEL 1
REMARK minimizedAffinity -1.5401516
REMARK minimizedRMSD -1
REMARK  0 active torsions:
REMARK  status: ('A' for Active; 'I' for Inactive)
ROOT
ATOM      1  C1  DEN d   1       1.615   1.231   1.553  0.00  0.00     0.130 A 
ATOM      2  C2  DEN d   1       2.676   0.510   0.855  0.00  0.00    -0.031 A 
ATOM      3  C3  DEN d   1       2.042  -0.441  -0.080  0.00  0.00     0.027 A 
ATOM      4  C4  DEN d   1      -0.465  -0.861  -0.515  0.00  0.00     0.027 A 
ATOM      5  C5  DEN d   1      -1.744  -0.498  -0.154  0.00  0.00    -0.003 A 
ATOM      6  C6  DEN d   1      -1.990   0.435   0.818  0.00  0.00     0.001 A 
ATOM      7  C7  DEN d   1      -0.943   1.070   1.431  0.00  0.00     0.017 A 
ATOM      8  C8  DEN d   1       0.349   0.704   1.077  0.00  0.00    -0.094 A 
ATOM      9  C9  DEN d   1       0.578  -0.233   0.083  0.00  0.00    -0.072 A 
ENDROOT
TORSDOF 0
ENDMDL
