MODEL 1
REMARK minimizedAffinity -4.54644012
REMARK minimizedRMSD -1
REMARK  0 active torsions:
REMARK  status: ('A' for Active; 'I' for Inactive)
ROOT
ATOM      1  C1  DEN d   1       0.573  -1.179  -0.545  0.00  0.00     0.130 A 
ATOM      2  C2  DEN d   1       1.744  -0.488  -0.013  0.00  0.00    -0.031 A 
ATOM      3  C3  DEN d   1       1.278   0.517   0.962  0.00  0.00     0.027 A 
ATOM      4  C4  DEN d   1      -1.132   1.066   1.701  0.00  0.00     0.027 A 
ATOM      5  C5  DEN d   1      -2.460   0.753   1.519  0.00  0.00    -0.003 A 
ATOM      6  C6  DEN d   1      -2.870  -0.195   0.619  0.00  0.00     0.001 A 
ATOM      7  C7  DEN d   1      -1.939  -0.895  -0.101  0.00  0.00     0.017 A 
ATOM      8  C8  DEN d   1      -0.597  -0.580   0.071  0.00  0.00    -0.094 A 
ATOM      9  C9  DEN d   1      -0.202   0.373   0.995  0.00  0.00    -0.072 A 
ENDROOT
TORSDOF 0
ENDMDL
