MODEL 1
REMARK minimizedAffinity -4.18701887
REMARK minimizedRMSD -1
REMARK  0 active torsions:
REMARK  status: ('A' for Active; 'I' for Inactive)
ROOT
ATOM      1  C1  DEN d   1       0.040   0.557  -0.783  0.00  0.00     0.130 A 
ATOM      2  C2  DEN d   1       0.591  -0.461   0.107  0.00  0.00    -0.031 A 
ATOM      3  C3  DEN d   1       1.817  -0.999  -0.517  0.00  0.00     0.027 A 
ATOM      4  C4  DEN d   1       2.911  -0.354  -2.762  0.00  0.00     0.027 A 
ATOM      5  C5  DEN d   1       2.802   0.453  -3.873  0.00  0.00    -0.003 A 
ATOM      6  C6  DEN d   1       1.755   1.319  -4.047  0.00  0.00     0.001 A 
ATOM      7  C7  DEN d   1       0.799   1.432  -3.073  0.00  0.00     0.017 A 
ATOM      8  C8  DEN d   1       0.898   0.617  -1.953  0.00  0.00    -0.094 A 
ATOM      9  C9  DEN d   1       1.970  -0.244  -1.790  0.00  0.00    -0.072 A 
ENDROOT
TORSDOF 0
ENDMDL
