MODEL 1
REMARK minimizedAffinity 2.66555929
REMARK minimizedRMSD -1
REMARK  0 active torsions:
REMARK  status: ('A' for Active; 'I' for Inactive)
ROOT
ATOM      1  C1  DEN d   1      -0.497  -0.925   5.142  0.00  0.00     0.130 A 
ATOM      2  C2  DEN d   1       0.908  -1.315   5.218  0.00  0.00    -0.031 A 
ATOM      3  C3  DEN d   1       1.491  -1.190   3.867  0.00  0.00     0.027 A 
ATOM      4  C4  DEN d   1       0.361  -0.429   1.677  0.00  0.00     0.027 A 
ATOM      5  C5  DEN d   1      -0.822  -0.007   1.112  0.00  0.00    -0.003 A 
ATOM      6  C6  DEN d   1      -1.979   0.104   1.837  0.00  0.00     0.001 A 
ATOM      7  C7  DEN d   1      -1.967  -0.166   3.180  0.00  0.00     0.017 A 
ATOM      8  C8  DEN d   1      -0.779  -0.598   3.756  0.00  0.00    -0.094 A 
ATOM      9  C9  DEN d   1       0.383  -0.693   3.008  0.00  0.00    -0.072 A 
ENDROOT
TORSDOF 0
ENDMDL
