MODEL 1
REMARK minimizedAffinity 1.61908734
REMARK minimizedRMSD -1
REMARK  0 active torsions:
REMARK  status: ('A' for Active; 'I' for Inactive)
ROOT
ATOM      1  C1  BNZ d   1       5.995  -3.116   5.527  0.00  0.00     0.000 A 
ATOM      2  C2  BNZ d   1       5.005  -2.170   5.521  0.00  0.00     0.000 A 
ATOM      3  C3  BNZ d   1       3.707  -2.514   5.775  0.00  0.00     0.000 A 
ATOM      4  C4  BNZ d   1       3.395  -3.807   5.995  0.00  0.00     0.000 A 
ATOM      5  C5  BNZ d   1       4.380  -4.774   5.995  0.00  0.00     0.000 A 
ATOM      6  C6  BNZ d   1       5.692  -4.419   5.777  0.00  0.00     0.000 A 
ENDROOT
TORSDOF 0
ENDMDL
