MODEL 1
REMARK minimizedAffinity -2.98622084
REMARK minimizedRMSD -1
REMARK  0 active torsions:
REMARK  status: ('A' for Active; 'I' for Inactive)
ROOT
ATOM      1  C1  BNZ d   1       1.416   1.408   0.550  0.00  0.00     0.000 A 
ATOM      2  C2  BNZ d   1       2.618   1.553   1.189  0.00  0.00     0.000 A 
ATOM      3  C3  BNZ d   1       3.065   2.789   1.566  0.00  0.00     0.000 A 
ATOM      4  C4  BNZ d   1       2.330   3.880   1.267  0.00  0.00     0.000 A 
ATOM      5  C5  BNZ d   1       1.120   3.750   0.615  0.00  0.00     0.000 A 
ATOM      6  C6  BNZ d   1       0.655   2.501   0.273  0.00  0.00     0.000 A 
ENDROOT
TORSDOF 0
ENDMDL
