MODEL 1
REMARK minimizedAffinity -2.45599866
REMARK minimizedRMSD -1
REMARK  0 active torsions:
REMARK  status: ('A' for Active; 'I' for Inactive)
ROOT
ATOM      1  C1  BNZ d   1      -0.349   0.441  -0.047  0.00  0.00     0.000 A 
ATOM      2  C2  BNZ d   1      -1.019   0.093   1.096  0.00  0.00     0.000 A 
ATOM      3  C3  BNZ d   1      -1.158  -1.219   1.453  0.00  0.00     0.000 A 
ATOM      4  C4  BNZ d   1      -0.664  -2.181   0.648  0.00  0.00     0.000 A 
ATOM      5  C5  BNZ d   1       0.006  -1.847  -0.512  0.00  0.00     0.000 A 
ATOM      6  C6  BNZ d   1       0.179  -0.524  -0.848  0.00  0.00     0.000 A 
ENDROOT
TORSDOF 0
ENDMDL
