MODEL 1
REMARK minimizedAffinity -1.57554615
REMARK minimizedRMSD -1
REMARK  0 active torsions:
REMARK  status: ('A' for Active; 'I' for Inactive)
ROOT
ATOM      1  C1  BNZ d   1      -0.987  -2.039   0.863  0.00  0.00     0.000 A 
ATOM      2  C2  BNZ d   1      -0.616  -1.487  -0.334  0.00  0.00     0.000 A 
ATOM      3  C3  BNZ d   1      -0.294  -0.161  -0.423  0.00  0.00     0.000 A 
ATOM      4  C4  BNZ d   1      -0.381   0.618   0.674  0.00  0.00     0.000 A 
ATOM      5  C5  BNZ d   1      -0.762   0.078   1.886  0.00  0.00     0.000 A 
ATOM      6  C6  BNZ d   1      -1.048  -1.265   1.981  0.00  0.00     0.000 A 
ENDROOT
TORSDOF 0
ENDMDL
