MODEL 1
REMARK minimizedAffinity 0.0437312424
REMARK minimizedRMSD -1
REMARK  0 active torsions:
REMARK  status: ('A' for Active; 'I' for Inactive)
ROOT
ATOM      1  C1  BNZ d   1       3.567  -3.945   5.885  0.00  0.00     0.000 A 
ATOM      2  C2  BNZ d   1       4.725  -4.672   5.950  0.00  0.00     0.000 A 
ATOM      3  C3  BNZ d   1       5.941  -4.050   6.000  0.00  0.00     0.000 A 
ATOM      4  C4  BNZ d   1       5.999  -2.703   5.945  0.00  0.00     0.000 A 
ATOM      5  C5  BNZ d   1       4.840  -1.956   5.870  0.00  0.00     0.000 A 
ATOM      6  C6  BNZ d   1       3.616  -2.585   5.859  0.00  0.00     0.000 A 
ENDROOT
TORSDOF 0
ENDMDL
