MODEL 1
REMARK minimizedAffinity -0.0622906573
REMARK minimizedRMSD -1
REMARK  0 active torsions:
REMARK  status: ('A' for Active; 'I' for Inactive)
ROOT
ATOM      1  C1  BNZ d   1       5.959  -1.665   3.633  0.00  0.00     0.000 A 
ATOM      2  C2  BNZ d   1       5.987  -3.034   3.647  0.00  0.00     0.000 A 
ATOM      3  C3  BNZ d   1       5.987  -3.722   4.828  0.00  0.00     0.000 A 
ATOM      4  C4  BNZ d   1       6.000  -3.041   5.992  0.00  0.00     0.000 A 
ATOM      5  C5  BNZ d   1       5.981  -1.660   5.995  0.00  0.00     0.000 A 
ATOM      6  C6  BNZ d   1       5.942  -0.972   4.804  0.00  0.00     0.000 A 
ENDROOT
TORSDOF 0
ENDMDL
