MODEL 1
REMARK minimizedAffinity -4.08213091
REMARK minimizedRMSD -1
REMARK  0 active torsions:
REMARK  status: ('A' for Active; 'I' for Inactive)
ROOT
ATOM      1  C1  BNZ d   1      -2.301  -3.982  -0.409  0.00  0.00     0.000 A 
ATOM      2  C2  BNZ d   1      -1.195  -3.670   0.337  0.00  0.00     0.000 A 
ATOM      3  C3  BNZ d   1      -0.058  -3.202  -0.260  0.00  0.00     0.000 A 
ATOM      4  C4  BNZ d   1      -0.014  -3.086  -1.603  0.00  0.00     0.000 A 
ATOM      5  C5  BNZ d   1      -1.117  -3.405  -2.369  0.00  0.00     0.000 A 
ATOM      6  C6  BNZ d   1      -2.273  -3.839  -1.762  0.00  0.00     0.000 A 
ENDROOT
TORSDOF 0
ENDMDL
