MODEL 1
REMARK minimizedAffinity -3.28289747
REMARK minimizedRMSD -1
REMARK  0 active torsions:
REMARK  status: ('A' for Active; 'I' for Inactive)
ROOT
ATOM      1  C1  BNZ d   1      -0.903  -2.127   1.374  0.00  0.00     0.000 A 
ATOM      2  C2  BNZ d   1      -0.734  -0.797   1.656  0.00  0.00     0.000 A 
ATOM      3  C3  BNZ d   1      -0.288   0.070   0.698  0.00  0.00     0.000 A 
ATOM      4  C4  BNZ d   1       0.027  -0.400  -0.527  0.00  0.00     0.000 A 
ATOM      5  C5  BNZ d   1      -0.130  -1.739  -0.823  0.00  0.00     0.000 A 
ATOM      6  C6  BNZ d   1      -0.616  -2.602   0.132  0.00  0.00     0.000 A 
ENDROOT
TORSDOF 0
ENDMDL
