MODEL 1
REMARK minimizedAffinity -3.11890125
REMARK minimizedRMSD -1
REMARK  0 active torsions:
REMARK  status: ('A' for Active; 'I' for Inactive)
ROOT
ATOM      1  C1  BNZ d   1      -0.062  -1.494  -0.950  0.00  0.00     0.000 A 
ATOM      2  C2  BNZ d   1       0.176  -0.235  -0.467  0.00  0.00     0.000 A 
ATOM      3  C3  BNZ d   1      -0.234   0.123   0.787  0.00  0.00     0.000 A 
ATOM      4  C4  BNZ d   1      -0.914  -0.765   1.541  0.00  0.00     0.000 A 
ATOM      5  C5  BNZ d   1      -1.169  -2.036   1.064  0.00  0.00     0.000 A 
ATOM      6  C6  BNZ d   1      -0.722  -2.404  -0.183  0.00  0.00     0.000 A 
ENDROOT
TORSDOF 0
ENDMDL
