MODEL 1
REMARK minimizedAffinity -2.85336614
REMARK minimizedRMSD -1
REMARK  0 active torsions:
REMARK  status: ('A' for Active; 'I' for Inactive)
ROOT
ATOM      1  C1  BNZ d   1      -1.126  -2.200   1.087  0.00  0.00     0.000 A 
ATOM      2  C2  BNZ d   1      -1.316  -0.961   1.640  0.00  0.00     0.000 A 
ATOM      3  C3  BNZ d   1      -0.954   0.170   0.963  0.00  0.00     0.000 A 
ATOM      4  C4  BNZ d   1      -0.366   0.059  -0.246  0.00  0.00     0.000 A 
ATOM      5  C5  BNZ d   1      -0.160  -1.183  -0.812  0.00  0.00     0.000 A 
ATOM      6  C6  BNZ d   1      -0.561  -2.318  -0.145  0.00  0.00     0.000 A 
ENDROOT
TORSDOF 0
ENDMDL
