MODEL 1
REMARK minimizedAffinity -3.40637136
REMARK minimizedRMSD -1
REMARK  0 active torsions:
REMARK  status: ('A' for Active; 'I' for Inactive)
ROOT
ATOM      1  C1  BNZ d   1      -0.095  -0.509  -1.261  0.00  0.00     0.000 A 
ATOM      2  C2  BNZ d   1      -0.422  -0.097   0.003  0.00  0.00     0.000 A 
ATOM      3  C3  BNZ d   1      -0.882  -0.988   0.932  0.00  0.00     0.000 A 
ATOM      4  C4  BNZ d   1      -1.052  -2.280   0.584  0.00  0.00     0.000 A 
ATOM      5  C5  BNZ d   1      -0.737  -2.709  -0.689  0.00  0.00     0.000 A 
ATOM      6  C6  BNZ d   1      -0.237  -1.817  -1.610  0.00  0.00     0.000 A 
ENDROOT
TORSDOF 0
ENDMDL
