MODEL 1
REMARK minimizedAffinity -4.88891983
REMARK minimizedRMSD -1
REMARK  0 active torsions:
REMARK  status: ('A' for Active; 'I' for Inactive)
ROOT
ATOM      1  C1  BNZ d   1       0.211  -2.454  -2.260  0.00  0.00     0.000 A 
ATOM      2  C2  BNZ d   1       0.077  -1.563  -1.229  0.00  0.00     0.000 A 
ATOM      3  C3  BNZ d   1       0.027  -1.995   0.067  0.00  0.00     0.000 A 
ATOM      4  C4  BNZ d   1       0.070  -3.317   0.327  0.00  0.00     0.000 A 
ATOM      5  C5  BNZ d   1       0.194  -4.229  -0.702  0.00  0.00     0.000 A 
ATOM      6  C6  BNZ d   1       0.284  -3.788  -2.003  0.00  0.00     0.000 A 
ENDROOT
TORSDOF 0
ENDMDL
