MODEL 1
REMARK minimizedAffinity -5.74098396
REMARK minimizedRMSD -1
REMARK  0 active torsions:
REMARK  status: ('A' for Active; 'I' for Inactive)
ROOT
ATOM      1  C1  BNZ d   1       0.029  -3.119   0.173  0.00  0.00     0.000 A 
ATOM      2  C2  BNZ d   1       0.423  -1.825   0.389  0.00  0.00     0.000 A 
ATOM      3  C3  BNZ d   1       0.551  -0.949  -0.652  0.00  0.00     0.000 A 
ATOM      4  C4  BNZ d   1       0.324  -1.377  -1.910  0.00  0.00     0.000 A 
ATOM      5  C5  BNZ d   1      -0.065  -2.680  -2.146  0.00  0.00     0.000 A 
ATOM      6  C6  BNZ d   1      -0.231  -3.549  -1.092  0.00  0.00     0.000 A 
ENDROOT
TORSDOF 0
ENDMDL
