MODEL 1
REMARK minimizedAffinity -3.33886671
REMARK minimizedRMSD -1
REMARK  0 active torsions:
REMARK  status: ('A' for Active; 'I' for Inactive)
ROOT
ATOM      1  C1  BNZ d   1      -0.565  -0.962  -0.849  0.00  0.00     0.000 A 
ATOM      2  C2  BNZ d   1      -1.129  -2.141  -0.441  0.00  0.00     0.000 A 
ATOM      3  C3  BNZ d   1      -1.035  -2.548   0.860  0.00  0.00     0.000 A 
ATOM      4  C4  BNZ d   1      -0.344  -1.797   1.742  0.00  0.00     0.000 A 
ATOM      5  C5  BNZ d   1       0.238  -0.610   1.344  0.00  0.00     0.000 A 
ATOM      6  C6  BNZ d   1       0.108  -0.184   0.042  0.00  0.00     0.000 A 
ENDROOT
TORSDOF 0
ENDMDL
