MODEL 1
REMARK minimizedAffinity 1.49458337
REMARK minimizedRMSD -1
REMARK  0 active torsions:
REMARK  status: ('A' for Active; 'I' for Inactive)
ROOT
ATOM      1  C   UNL d   1       1.145   1.264   2.185  0.00  0.00     0.124 A 
ATOM      2  C1  UNL d   1       1.394   0.777   0.910  0.00  0.00     0.062 A 
ATOM      3  C2  UNL d   1       0.360   0.230   0.155  0.00  0.00     0.162 A 
ATOM      4  C3  UNL d   1      -0.933   0.168   0.674  0.00  0.00    -0.034 A 
ATOM      5  C4  UNL d   1      -1.176   0.659   1.959  0.00  0.00     0.162 A 
ATOM      6  C5  UNL d   1      -0.139   1.205   2.708  0.00  0.00     0.062 A 
ATOM      7  F   UNL d   1      -0.381   1.675   3.941  0.00  0.00    -0.097 F 
ATOM      8  F1  UNL d   1      -2.407   0.615   2.488  0.00  0.00    -0.096 F 
ATOM      9  I   UNL d   1      -2.482  -0.649  -0.450  0.00  0.00    -0.060 I 
ATOM     10  F2  UNL d   1       0.629  -0.233  -1.074  0.00  0.00    -0.096 F 
ATOM     11  F3  UNL d   1       2.634   0.832   0.403  0.00  0.00    -0.097 F 
ATOM     12  F4  UNL d   1       2.142   1.789   2.909  0.00  0.00    -0.092 F 
ENDROOT
TORSDOF 0
ENDMDL
