MODEL 1
REMARK minimizedAffinity 5.00412416
REMARK minimizedRMSD -1
REMARK  0 active torsions:
REMARK  status: ('A' for Active; 'I' for Inactive)
ROOT
ATOM      1  C   UNL d   1      -0.734   0.502   2.636  0.00  0.00     0.124 A 
ATOM      2  C1  UNL d   1      -1.710  -0.034   1.807  0.00  0.00     0.062 A 
ATOM      3  C2  UNL d   1      -1.601   0.090   0.425  0.00  0.00     0.162 A 
ATOM      4  C3  UNL d   1      -0.509   0.751  -0.138  0.00  0.00    -0.034 A 
ATOM      5  C4  UNL d   1       0.468   1.288   0.702  0.00  0.00     0.162 A 
ATOM      6  C5  UNL d   1       0.354   1.163   2.082  0.00  0.00     0.062 A 
ATOM      7  F   UNL d   1       1.298   1.681   2.881  0.00  0.00    -0.097 F 
ATOM      8  F1  UNL d   1       1.531   1.930   0.194  0.00  0.00    -0.096 F 
ATOM      9  I   UNL d   1      -0.341   0.937  -2.204  0.00  0.00    -0.060 I 
ATOM     10  F2  UNL d   1      -2.559  -0.438  -0.351  0.00  0.00    -0.096 F 
ATOM     11  F3  UNL d   1      -2.763  -0.671   2.340  0.00  0.00    -0.097 F 
ATOM     12  F4  UNL d   1      -0.843   0.383   3.965  0.00  0.00    -0.092 F 
ENDROOT
TORSDOF 0
ENDMDL
