MODEL 1
REMARK minimizedAffinity 2.71064162
REMARK minimizedRMSD -1
REMARK  0 active torsions:
REMARK  status: ('A' for Active; 'I' for Inactive)
ROOT
ATOM      1  C   UNL d   1      -1.805   0.408   2.141  0.00  0.00     0.124 A 
ATOM      2  C1  UNL d   1      -1.519  -0.068   0.869  0.00  0.00     0.062 A 
ATOM      3  C2  UNL d   1      -0.263   0.143   0.308  0.00  0.00     0.162 A 
ATOM      4  C3  UNL d   1       0.719   0.833   1.019  0.00  0.00    -0.034 A 
ATOM      5  C4  UNL d   1       0.424   1.309   2.298  0.00  0.00     0.162 A 
ATOM      6  C5  UNL d   1      -0.833   1.096   2.854  0.00  0.00     0.062 A 
ATOM      7  F   UNL d   1      -1.107   1.557   4.084  0.00  0.00    -0.097 F 
ATOM      8  F1  UNL d   1       1.345   1.977   3.010  0.00  0.00    -0.096 F 
ATOM      9  I   UNL d   1       2.598   1.151   0.184  0.00  0.00    -0.060 I 
ATOM     10  F2  UNL d   1      -0.015  -0.328  -0.924  0.00  0.00    -0.096 F 
ATOM     11  F3  UNL d   1      -2.457  -0.732   0.177  0.00  0.00    -0.097 F 
ATOM     12  F4  UNL d   1      -3.014   0.205   2.678  0.00  0.00    -0.092 F 
ENDROOT
TORSDOF 0
ENDMDL
