MODEL 1
REMARK minimizedAffinity -2.59762955
REMARK minimizedRMSD -1
REMARK  0 active torsions:
REMARK  status: ('A' for Active; 'I' for Inactive)
ROOT
ATOM      1  C   UNL d   1      -1.321   0.547   2.560  0.00  0.00     0.124 A 
ATOM      2  C1  UNL d   1      -0.189   0.652   3.357  0.00  0.00     0.062 A 
ATOM      3  C2  UNL d   1       1.072   0.424   2.815  0.00  0.00     0.162 A 
ATOM      4  C3  UNL d   1       1.209   0.088   1.468  0.00  0.00    -0.034 A 
ATOM      5  C4  UNL d   1       0.066  -0.017   0.673  0.00  0.00     0.162 A 
ATOM      6  C5  UNL d   1      -1.192   0.213   1.219  0.00  0.00     0.062 A 
ATOM      7  F   UNL d   1      -2.284   0.111   0.448  0.00  0.00    -0.097 F 
ATOM      8  F1  UNL d   1       0.162  -0.337  -0.626  0.00  0.00    -0.096 F 
ATOM      9  I   UNL d   1       3.094  -0.255   0.654  0.00  0.00    -0.060 I 
ATOM     10  F2  UNL d   1       2.148   0.532   3.608  0.00  0.00    -0.096 F 
ATOM     11  F3  UNL d   1      -0.311   0.974   4.653  0.00  0.00    -0.097 F 
ATOM     12  F4  UNL d   1      -2.533   0.767   3.084  0.00  0.00    -0.092 F 
ENDROOT
TORSDOF 0
ENDMDL
