MODEL 1
REMARK minimizedAffinity -1.51709175
REMARK minimizedRMSD -1
REMARK  0 active torsions:
REMARK  status: ('A' for Active; 'I' for Inactive)
ROOT
ATOM      1  C   UNL d   1       2.263   0.995   1.503  0.00  0.00     0.124 A 
ATOM      2  C1  UNL d   1       1.084   1.515   2.019  0.00  0.00     0.062 A 
ATOM      3  C2  UNL d   1      -0.145   1.009   1.604  0.00  0.00     0.162 A 
ATOM      4  C3  UNL d   1      -0.201  -0.023   0.667  0.00  0.00    -0.034 A 
ATOM      5  C4  UNL d   1       0.989  -0.540   0.152  0.00  0.00     0.162 A 
ATOM      6  C5  UNL d   1       2.215  -0.032   0.571  0.00  0.00     0.062 A 
ATOM      7  F   UNL d   1       3.353  -0.535   0.072  0.00  0.00    -0.097 F 
ATOM      8  F1  UNL d   1       0.972  -1.533  -0.749  0.00  0.00    -0.096 F 
ATOM      9  I   UNL d   1      -2.036  -0.781   0.043  0.00  0.00    -0.060 I 
ATOM     10  F2  UNL d   1      -1.268   1.531   2.119  0.00  0.00    -0.096 F 
ATOM     11  F3  UNL d   1       1.127   2.507   2.920  0.00  0.00    -0.097 F 
ATOM     12  F4  UNL d   1       3.443   1.484   1.904  0.00  0.00    -0.092 F 
ENDROOT
TORSDOF 0
ENDMDL
