MODEL 1
REMARK minimizedAffinity 4.72955036
REMARK minimizedRMSD -1
REMARK  0 active torsions:
REMARK  status: ('A' for Active; 'I' for Inactive)
ROOT
ATOM      1  C   UNL d   1      -1.766   0.064   2.362  0.00  0.00     0.124 A 
ATOM      2  C1  UNL d   1      -1.516  -0.012   0.998  0.00  0.00     0.062 A 
ATOM      3  C2  UNL d   1      -0.382   0.589   0.460  0.00  0.00     0.162 A 
ATOM      4  C3  UNL d   1       0.512   1.271   1.286  0.00  0.00    -0.034 A 
ATOM      5  C4  UNL d   1       0.253   1.344   2.656  0.00  0.00     0.162 A 
ATOM      6  C5  UNL d   1      -0.881   0.742   3.189  0.00  0.00     0.062 A 
ATOM      7  F   UNL d   1      -1.121   0.816   4.506  0.00  0.00    -0.097 F 
ATOM      8  F1  UNL d   1       1.092   1.992   3.478  0.00  0.00    -0.096 F 
ATOM      9  I   UNL d   1       2.209   2.172   0.485  0.00  0.00    -0.060 I 
ATOM     10  F2  UNL d   1      -0.166   0.500  -0.861  0.00  0.00    -0.096 F 
ATOM     11  F3  UNL d   1      -2.370  -0.665   0.197  0.00  0.00    -0.097 F 
ATOM     12  F4  UNL d   1      -2.859  -0.515   2.877  0.00  0.00    -0.092 F 
ENDROOT
TORSDOF 0
ENDMDL
