MODEL 1
REMARK minimizedAffinity 6.57881212
REMARK minimizedRMSD -1
REMARK  0 active torsions:
REMARK  status: ('A' for Active; 'I' for Inactive)
ROOT
ATOM      1  C   UNL d   1       0.175   1.729   2.433  0.00  0.00     0.124 A 
ATOM      2  C1  UNL d   1      -0.800   0.978   3.075  0.00  0.00     0.062 A 
ATOM      3  C2  UNL d   1      -1.642   0.149   2.339  0.00  0.00     0.162 A 
ATOM      4  C3  UNL d   1      -1.513   0.066   0.953  0.00  0.00    -0.034 A 
ATOM      5  C4  UNL d   1      -0.530   0.825   0.314  0.00  0.00     0.162 A 
ATOM      6  C5  UNL d   1       0.309   1.652   1.054  0.00  0.00     0.062 A 
ATOM      7  F   UNL d   1       1.250   2.377   0.432  0.00  0.00    -0.097 F 
ATOM      8  F1  UNL d   1      -0.378   0.768  -1.017  0.00  0.00    -0.096 F 
ATOM      9  I   UNL d   1      -2.770  -1.173  -0.150  0.00  0.00    -0.060 I 
ATOM     10  F2  UNL d   1      -2.575  -0.565   2.986  0.00  0.00    -0.096 F 
ATOM     11  F3  UNL d   1      -0.932   1.052   4.407  0.00  0.00    -0.097 F 
ATOM     12  F4  UNL d   1       0.983   2.527   3.142  0.00  0.00    -0.092 F 
ENDROOT
TORSDOF 0
ENDMDL
