MODEL 1
REMARK minimizedAffinity 8.3632412
REMARK minimizedRMSD -1
REMARK  0 active torsions:
REMARK  status: ('A' for Active; 'I' for Inactive)
ROOT
ATOM      1  C   UNL d   1      -2.284  -1.267   1.048  0.00  0.00     0.124 A 
ATOM      2  C1  UNL d   1      -2.223  -0.728   2.326  0.00  0.00     0.062 A 
ATOM      3  C2  UNL d   1      -1.429   0.388   2.577  0.00  0.00     0.162 A 
ATOM      4  C3  UNL d   1      -0.691   0.973   1.548  0.00  0.00    -0.034 A 
ATOM      5  C4  UNL d   1      -0.757   0.424   0.266  0.00  0.00     0.162 A 
ATOM      6  C5  UNL d   1      -1.552  -0.691   0.020  0.00  0.00     0.062 A 
ATOM      7  F   UNL d   1      -1.610  -1.211  -1.215  0.00  0.00    -0.097 F 
ATOM      8  F1  UNL d   1      -0.061   0.961  -0.746  0.00  0.00    -0.096 F 
ATOM      9  I   UNL d   1       0.496   2.641   1.919  0.00  0.00    -0.060 I 
ATOM     10  F2  UNL d   1      -1.389   0.888   3.821  0.00  0.00    -0.096 F 
ATOM     11  F3  UNL d   1      -2.929  -1.283   3.321  0.00  0.00    -0.097 F 
ATOM     12  F4  UNL d   1      -3.047  -2.342   0.810  0.00  0.00    -0.092 F 
ENDROOT
TORSDOF 0
ENDMDL
