MODEL 1
REMARK minimizedAffinity -4.12378597
REMARK minimizedRMSD -1
REMARK  0 active torsions:
REMARK  status: ('A' for Active; 'I' for Inactive)
ROOT
ATOM      1  C   UNL d   1       1.250  -1.143  -1.117  0.00  0.00     0.078 C 
ATOM      2  C1  UNL d   1       0.338  -0.309  -0.268  0.00  0.00    -0.077 A 
ATOM      3  C2  UNL d   1       0.087  -0.645   1.068  0.00  0.00    -0.001 A 
ATOM      4  C3  UNL d   1      -0.771   0.135   1.843  0.00  0.00     0.003 A 
ATOM      5  C4  UNL d   1      -1.388   1.257   1.291  0.00  0.00    -0.005 A 
ATOM      6  C5  UNL d   1      -1.146   1.598  -0.038  0.00  0.00     0.003 A 
ATOM      7  C6  UNL d   1      -0.287   0.819  -0.815  0.00  0.00    -0.001 A 
ENDROOT
TORSDOF 0
ENDMDL
