MODEL 1
REMARK minimizedAffinity -3.47624254
REMARK minimizedRMSD -1
REMARK  0 active torsions:
REMARK  status: ('A' for Active; 'I' for Inactive)
ROOT
ATOM      1  C   UNL d   1      -1.916   1.411   0.625  0.00  0.00     0.078 C 
ATOM      2  C1  UNL d   1      -0.717   0.781  -0.019  0.00  0.00    -0.077 A 
ATOM      3  C2  UNL d   1      -0.106   1.367  -1.134  0.00  0.00    -0.001 A 
ATOM      4  C3  UNL d   1       1.003   0.765  -1.729  0.00  0.00     0.003 A 
ATOM      5  C4  UNL d   1       1.510  -0.428  -1.217  0.00  0.00    -0.005 A 
ATOM      6  C5  UNL d   1       0.907  -1.020  -0.109  0.00  0.00     0.003 A 
ATOM      7  C6  UNL d   1      -0.202  -0.418   0.487  0.00  0.00    -0.001 A 
ENDROOT
TORSDOF 0
ENDMDL
