MODEL 1
REMARK minimizedAffinity -5.58293819
REMARK minimizedRMSD -1
REMARK  0 active torsions:
REMARK  status: ('A' for Active; 'I' for Inactive)
ROOT
ATOM      1  C   UNL d   1      -2.367   1.840   0.968  0.00  0.00     0.078 C 
ATOM      2  C1  UNL d   1      -1.199   0.981   0.584  0.00  0.00    -0.077 A 
ATOM      3  C2  UNL d   1      -0.564   1.139  -0.654  0.00  0.00    -0.001 A 
ATOM      4  C3  UNL d   1       0.516   0.326  -1.002  0.00  0.00     0.003 A 
ATOM      5  C4  UNL d   1       0.969  -0.651  -0.118  0.00  0.00    -0.005 A 
ATOM      6  C5  UNL d   1       0.343  -0.817   1.115  0.00  0.00     0.003 A 
ATOM      7  C6  UNL d   1      -0.737  -0.005   1.465  0.00  0.00    -0.001 A 
ENDROOT
TORSDOF 0
ENDMDL
