MODEL 1
REMARK minimizedAffinity -3.94952297
REMARK minimizedRMSD -1
REMARK  0 active torsions:
REMARK  status: ('A' for Active; 'I' for Inactive)
ROOT
ATOM      1  C   UNL d   1      -2.119   2.442   1.842  0.00  0.00     0.078 C 
ATOM      2  C1  UNL d   1      -1.328   1.453   1.039  0.00  0.00    -0.077 A 
ATOM      3  C2  UNL d   1      -1.045   0.177   1.542  0.00  0.00    -0.001 A 
ATOM      4  C3  UNL d   1      -0.299  -0.730   0.787  0.00  0.00     0.003 A 
ATOM      5  C4  UNL d   1       0.171  -0.370  -0.474  0.00  0.00    -0.005 A 
ATOM      6  C5  UNL d   1      -0.104   0.898  -0.982  0.00  0.00     0.003 A 
ATOM      7  C6  UNL d   1      -0.849   1.806  -0.229  0.00  0.00    -0.001 A 
ENDROOT
TORSDOF 0
ENDMDL
