MODEL 1
REMARK minimizedAffinity -5.5962553
REMARK minimizedRMSD -1
REMARK  0 active torsions:
REMARK  status: ('A' for Active; 'I' for Inactive)
ROOT
ATOM      1  C   UNL d   1       0.299  -0.985  -1.091  0.00  0.00     0.078 C 
ATOM      2  C1  UNL d   1      -0.500  -0.132  -0.151  0.00  0.00    -0.077 A 
ATOM      3  C2  UNL d   1      -0.642  -0.482   1.197  0.00  0.00    -0.001 A 
ATOM      4  C3  UNL d   1      -1.396   0.316   2.058  0.00  0.00     0.003 A 
ATOM      5  C4  UNL d   1      -2.016   1.469   1.580  0.00  0.00    -0.005 A 
ATOM      6  C5  UNL d   1      -1.882   1.825   0.239  0.00  0.00     0.003 A 
ATOM      7  C6  UNL d   1      -1.128   1.027  -0.623  0.00  0.00    -0.001 A 
ENDROOT
TORSDOF 0
ENDMDL
