MODEL 1
REMARK minimizedAffinity -4.13944006
REMARK minimizedRMSD -1
REMARK  0 active torsions:
REMARK  status: ('A' for Active; 'I' for Inactive)
ROOT
ATOM      1  C   UNL d   1      -2.337   2.182   1.162  0.00  0.00     0.078 C 
ATOM      2  C1  UNL d   1      -1.255   1.232   0.747  0.00  0.00    -0.077 A 
ATOM      3  C2  UNL d   1      -0.637   1.344  -0.505  0.00  0.00    -0.001 A 
ATOM      4  C3  UNL d   1       0.362   0.446  -0.883  0.00  0.00     0.003 A 
ATOM      5  C4  UNL d   1       0.752  -0.572  -0.015  0.00  0.00    -0.005 A 
ATOM      6  C5  UNL d   1       0.142  -0.693   1.232  0.00  0.00     0.003 A 
ATOM      7  C6  UNL d   1      -0.858   0.204   1.611  0.00  0.00    -0.001 A 
ENDROOT
TORSDOF 0
ENDMDL
