MODEL 1
REMARK minimizedAffinity -5.30292606
REMARK minimizedRMSD -1
REMARK  0 active torsions:
REMARK  status: ('A' for Active; 'I' for Inactive)
ROOT
ATOM      1  C   UNL d   1       1.097  -0.481  -0.650  0.00  0.00     0.078 C 
ATOM      2  C1  UNL d   1       0.027   0.315   0.035  0.00  0.00    -0.077 A 
ATOM      3  C2  UNL d   1      -0.576  -0.149   1.210  0.00  0.00    -0.001 A 
ATOM      4  C3  UNL d   1      -1.578   0.599   1.832  0.00  0.00     0.003 A 
ATOM      5  C4  UNL d   1      -1.986   1.814   1.285  0.00  0.00    -0.005 A 
ATOM      6  C5  UNL d   1      -1.392   2.282   0.115  0.00  0.00     0.003 A 
ATOM      7  C6  UNL d   1      -0.391   1.537  -0.508  0.00  0.00    -0.001 A 
ENDROOT
TORSDOF 0
ENDMDL
