MODEL 1
REMARK minimizedAffinity -3.95590997
REMARK minimizedRMSD -1
REMARK  0 active torsions:
REMARK  status: ('A' for Active; 'I' for Inactive)
ROOT
ATOM      1  C   UNL d   1       0.625  -0.379  -0.251  0.00  0.00     0.078 C 
ATOM      2  C1  UNL d   1      -0.479   0.410   0.390  0.00  0.00    -0.077 A 
ATOM      3  C2  UNL d   1      -0.396   0.809   1.729  0.00  0.00    -0.001 A 
ATOM      4  C3  UNL d   1      -1.435   1.534   2.315  0.00  0.00     0.003 A 
ATOM      5  C4  UNL d   1      -2.565   1.865   1.569  0.00  0.00    -0.005 A 
ATOM      6  C5  UNL d   1      -2.657   1.470   0.236  0.00  0.00     0.003 A 
ATOM      7  C6  UNL d   1      -1.619   0.744  -0.351  0.00  0.00    -0.001 A 
ENDROOT
TORSDOF 0
ENDMDL
