MODEL 1
REMARK minimizedAffinity -1.58322895
REMARK minimizedRMSD -1
REMARK  0 active torsions:
REMARK  status: ('A' for Active; 'I' for Inactive)
ROOT
ATOM      1  C   UNL d   1       1.138  -0.815  -0.981  0.00  0.00     0.078 C 
ATOM      2  C1  UNL d   1       0.303  -0.041  -0.004  0.00  0.00    -0.077 A 
ATOM      3  C2  UNL d   1      -0.396   1.105  -0.402  0.00  0.00    -0.001 A 
ATOM      4  C3  UNL d   1      -1.161   1.821   0.519  0.00  0.00     0.003 A 
ATOM      5  C4  UNL d   1      -1.235   1.399   1.845  0.00  0.00    -0.005 A 
ATOM      6  C5  UNL d   1      -0.541   0.261   2.251  0.00  0.00     0.003 A 
ATOM      7  C6  UNL d   1       0.225  -0.456   1.331  0.00  0.00    -0.001 A 
ENDROOT
TORSDOF 0
ENDMDL
