MODEL 1
REMARK minimizedAffinity -4.55909967
REMARK minimizedRMSD -1
REMARK  0 active torsions:
REMARK  status: ('A' for Active; 'I' for Inactive)
ROOT
ATOM      1  C   UNL d   1      -2.018   1.764   1.765  0.00  0.00     0.078 C 
ATOM      2  C1  UNL d   1      -1.171   0.722   1.098  0.00  0.00    -0.077 A 
ATOM      3  C2  UNL d   1      -0.687  -0.380   1.813  0.00  0.00    -0.001 A 
ATOM      4  C3  UNL d   1       0.108  -1.337   1.181  0.00  0.00     0.003 A 
ATOM      5  C4  UNL d   1       0.428  -1.201  -0.168  0.00  0.00    -0.005 A 
ATOM      6  C5  UNL d   1      -0.048  -0.107  -0.888  0.00  0.00     0.003 A 
ATOM      7  C6  UNL d   1      -0.843   0.851  -0.257  0.00  0.00    -0.001 A 
ENDROOT
TORSDOF 0
ENDMDL
