MODEL 1
REMARK minimizedAffinity -5.01357222
REMARK minimizedRMSD -1
REMARK  0 active torsions:
REMARK  status: ('A' for Active; 'I' for Inactive)
ROOT
ATOM      1  C   UNL d   1       0.611  -1.383  -0.778  0.00  0.00     0.078 C 
ATOM      2  C1  UNL d   1      -0.146  -0.347  -0.002  0.00  0.00    -0.077 A 
ATOM      3  C2  UNL d   1      -0.338  -0.478   1.379  0.00  0.00    -0.001 A 
ATOM      4  C3  UNL d   1      -1.053   0.490   2.087  0.00  0.00     0.003 A 
ATOM      5  C4  UNL d   1      -1.583   1.594   1.422  0.00  0.00    -0.005 A 
ATOM      6  C5  UNL d   1      -1.400   1.731   0.048  0.00  0.00     0.003 A 
ATOM      7  C6  UNL d   1      -0.685   0.765  -0.662  0.00  0.00    -0.001 A 
ENDROOT
TORSDOF 0
ENDMDL
