MODEL 1
REMARK minimizedAffinity -5.51994753
REMARK minimizedRMSD -1
REMARK  0 active torsions:
REMARK  status: ('A' for Active; 'I' for Inactive)
ROOT
ATOM      1  C   UNL d   1       1.137  -0.531  -0.657  0.00  0.00     0.078 C 
ATOM      2  C1  UNL d   1       0.112   0.192   0.164  0.00  0.00    -0.077 A 
ATOM      3  C2  UNL d   1      -0.094  -0.132   1.510  0.00  0.00    -0.001 A 
ATOM      4  C3  UNL d   1      -1.059   0.543   2.259  0.00  0.00     0.003 A 
ATOM      5  C4  UNL d   1      -1.826   1.547   1.671  0.00  0.00    -0.005 A 
ATOM      6  C5  UNL d   1      -1.630   1.875   0.331  0.00  0.00     0.003 A 
ATOM      7  C6  UNL d   1      -0.666   1.200  -0.420  0.00  0.00    -0.001 A 
ENDROOT
TORSDOF 0
ENDMDL
