MODEL 1
REMARK minimizedAffinity -3.43005657
REMARK minimizedRMSD -1
REMARK  0 active torsions:
REMARK  status: ('A' for Active; 'I' for Inactive)
ROOT
ATOM      1  C   UNL d   1       0.857  -0.962  -0.990  0.00  0.00     0.078 C 
ATOM      2  C1  UNL d   1       0.032  -0.109  -0.072  0.00  0.00    -0.077 A 
ATOM      3  C2  UNL d   1       0.157  -0.217   1.318  0.00  0.00    -0.001 A 
ATOM      4  C3  UNL d   1      -0.625   0.576   2.160  0.00  0.00     0.003 A 
ATOM      5  C4  UNL d   1      -1.537   1.481   1.621  0.00  0.00    -0.005 A 
ATOM      6  C5  UNL d   1      -1.670   1.593   0.239  0.00  0.00     0.003 A 
ATOM      7  C6  UNL d   1      -0.889   0.801  -0.605  0.00  0.00    -0.001 A 
ENDROOT
TORSDOF 0
ENDMDL
