MODEL 1
REMARK minimizedAffinity -4.02987909
REMARK minimizedRMSD -1
REMARK  0 active torsions:
REMARK  status: ('A' for Active; 'I' for Inactive)
ROOT
ATOM      1  C   UNL d   1       0.602  -0.560  -0.547  0.00  0.00     0.078 C 
ATOM      2  C1  UNL d   1      -0.326   0.266   0.294  0.00  0.00    -0.077 A 
ATOM      3  C2  UNL d   1      -0.479   0.010   1.662  0.00  0.00    -0.001 A 
ATOM      4  C3  UNL d   1      -1.353   0.780   2.430  0.00  0.00     0.003 A 
ATOM      5  C4  UNL d   1      -2.083   1.810   1.839  0.00  0.00    -0.005 A 
ATOM      6  C5  UNL d   1      -1.938   2.070   0.478  0.00  0.00     0.003 A 
ATOM      7  C6  UNL d   1      -1.064   1.301  -0.292  0.00  0.00    -0.001 A 
ENDROOT
TORSDOF 0
ENDMDL
