MODEL 1
REMARK minimizedAffinity -4.98827219
REMARK minimizedRMSD -1
REMARK  0 active torsions:
REMARK  status: ('A' for Active; 'I' for Inactive)
ROOT
ATOM      1  C   UNL d   1      -2.273   1.881   1.506  0.00  0.00     0.078 C 
ATOM      2  C1  UNL d   1      -1.245   0.933   0.964  0.00  0.00    -0.077 A 
ATOM      3  C2  UNL d   1      -0.731   1.090  -0.329  0.00  0.00    -0.001 A 
ATOM      4  C3  UNL d   1       0.219   0.195  -0.825  0.00  0.00     0.003 A 
ATOM      5  C4  UNL d   1       0.661  -0.864  -0.035  0.00  0.00    -0.005 A 
ATOM      6  C5  UNL d   1       0.154  -1.030   1.252  0.00  0.00     0.003 A 
ATOM      7  C6  UNL d   1      -0.796  -0.135   1.749  0.00  0.00    -0.001 A 
ENDROOT
TORSDOF 0
ENDMDL
