MODEL 1
REMARK minimizedAffinity -2.97509956
REMARK minimizedRMSD -1
REMARK  2 active torsions:
REMARK  status: ('A' for Active; 'I' for Inactive)
REMARK    1  A    between atoms: C1_2  and  C2_3 
REMARK    2  A    between atoms: C2_3  and  C3_4 
ROOT
ATOM      1  C3  UNL d   1       0.709   0.460  -0.578  0.00  0.00    -0.075 A 
ATOM      2  C4  UNL d   1       0.603   1.359   0.493  0.00  0.00     0.002 A 
ATOM      3  C5  UNL d   1       1.047   1.000   1.766  0.00  0.00     0.002 A 
ATOM      4  C6  UNL d   1       1.591  -0.264   1.986  0.00  0.00    -0.004 A 
ATOM      5  C7  UNL d   1       1.686  -1.171   0.933  0.00  0.00     0.002 A 
ATOM      6  C8  UNL d   1       1.247  -0.812  -0.343  0.00  0.00     0.002 A 
ENDROOT
BRANCH   1   7
ATOM      7  C2  UNL d   1       0.257   0.853  -1.964  0.00  0.00     0.056 C 
BRANCH   7   8
ATOM      8  C1  UNL d   1       1.351   1.510  -2.813  0.00  0.00     0.007 C 
ATOM      9  C   UNL d   1       1.370   1.017  -4.254  0.00  0.00     0.009 C 
ENDBRANCH   7   8
ENDBRANCH   1   7
TORSDOF 2
ENDMDL
