MODEL 1
REMARK minimizedAffinity -3.40583825
REMARK minimizedRMSD -1
REMARK  2 active torsions:
REMARK  status: ('A' for Active; 'I' for Inactive)
REMARK    1  A    between atoms: C1_2  and  C2_3 
REMARK    2  A    between atoms: C2_3  and  C3_4 
ROOT
ATOM      1  C3  UNL d   1      -1.609  -1.954  -0.605  0.00  0.00    -0.075 A 
ATOM      2  C4  UNL d   1      -0.266  -1.851  -0.998  0.00  0.00     0.002 A 
ATOM      3  C5  UNL d   1       0.476  -0.709  -0.694  0.00  0.00     0.002 A 
ATOM      4  C6  UNL d   1      -0.116   0.346  -0.003  0.00  0.00    -0.004 A 
ATOM      5  C7  UNL d   1      -1.453   0.262   0.378  0.00  0.00     0.002 A 
ATOM      6  C8  UNL d   1      -2.197  -0.881   0.079  0.00  0.00     0.002 A 
ENDROOT
BRANCH   1   7
ATOM      7  C2  UNL d   1      -2.409  -3.198  -0.905  0.00  0.00     0.056 C 
BRANCH   7   8
ATOM      8  C1  UNL d   1      -3.848  -3.157  -0.380  0.00  0.00     0.007 C 
ATOM      9  C   UNL d   1      -4.880  -2.927  -1.476  0.00  0.00     0.009 C 
ENDBRANCH   7   8
ENDBRANCH   1   7
TORSDOF 2
ENDMDL
