MODEL 1
REMARK minimizedAffinity -0.986117303
REMARK minimizedRMSD -1
REMARK  2 active torsions:
REMARK  status: ('A' for Active; 'I' for Inactive)
REMARK    1  A    between atoms: C1_2  and  C2_3 
REMARK    2  A    between atoms: C2_3  and  C3_4 
ROOT
ATOM      1  C3  UNL d   1      -0.085   0.040   0.558  0.00  0.00    -0.075 A 
ATOM      2  C4  UNL d   1      -1.244  -0.219  -0.188  0.00  0.00     0.002 A 
ATOM      3  C5  UNL d   1      -2.495   0.175   0.289  0.00  0.00     0.002 A 
ATOM      4  C6  UNL d   1      -2.604   0.822   1.518  0.00  0.00    -0.004 A 
ATOM      5  C7  UNL d   1      -1.460   1.069   2.274  0.00  0.00     0.002 A 
ATOM      6  C8  UNL d   1      -0.207   0.681   1.798  0.00  0.00     0.002 A 
ENDROOT
BRANCH   1   7
ATOM      7  C2  UNL d   1       1.275  -0.356   0.034  0.00  0.00     0.056 C 
BRANCH   7   8
ATOM      8  C1  UNL d   1       2.103  -1.190   1.017  0.00  0.00     0.007 C 
ATOM      9  C   UNL d   1       3.139  -0.369   1.775  0.00  0.00     0.009 C 
ENDBRANCH   7   8
ENDBRANCH   1   7
TORSDOF 2
ENDMDL
