MODEL 1
REMARK minimizedAffinity -5.48381567
REMARK minimizedRMSD -1
REMARK  2 active torsions:
REMARK  status: ('A' for Active; 'I' for Inactive)
REMARK    1  A    between atoms: C1_2  and  C2_3 
REMARK    2  A    between atoms: C2_3  and  C3_4 
ROOT
ATOM      1  C3  UNL d   1      -0.024   0.430   0.618  0.00  0.00    -0.075 A 
ATOM      2  C4  UNL d   1      -1.369   0.337   1.006  0.00  0.00     0.002 A 
ATOM      3  C5  UNL d   1      -1.822   0.990   2.152  0.00  0.00     0.002 A 
ATOM      4  C6  UNL d   1      -0.938   1.734   2.929  0.00  0.00    -0.004 A 
ATOM      5  C7  UNL d   1       0.404   1.820   2.563  0.00  0.00     0.002 A 
ATOM      6  C8  UNL d   1       0.859   1.171   1.414  0.00  0.00     0.002 A 
ENDROOT
BRANCH   1   7
ATOM      7  C2  UNL d   1       0.467  -0.251  -0.637  0.00  0.00     0.056 C 
BRANCH   7   8
ATOM      8  C1  UNL d   1       0.798   0.714  -1.781  0.00  0.00     0.007 C 
ATOM      9  C   UNL d   1       0.694   0.071  -3.158  0.00  0.00     0.009 C 
ENDBRANCH   7   8
ENDBRANCH   1   7
TORSDOF 2
ENDMDL
