MODEL 1
REMARK minimizedAffinity -3.92056489
REMARK minimizedRMSD -1
REMARK  2 active torsions:
REMARK  status: ('A' for Active; 'I' for Inactive)
REMARK    1  A    between atoms: C1_2  and  C2_3 
REMARK    2  A    between atoms: C2_3  and  C3_4 
ROOT
ATOM      1  C3  UNL d   1       0.096   0.264   0.108  0.00  0.00    -0.075 A 
ATOM      2  C4  UNL d   1       0.669   1.149   1.033  0.00  0.00     0.002 A 
ATOM      3  C5  UNL d   1       0.042   1.403   2.253  0.00  0.00     0.002 A 
ATOM      4  C6  UNL d   1      -1.168   0.785   2.560  0.00  0.00    -0.004 A 
ATOM      5  C7  UNL d   1      -1.755  -0.084   1.642  0.00  0.00     0.002 A 
ATOM      6  C8  UNL d   1      -1.128  -0.343   0.423  0.00  0.00     0.002 A 
ENDROOT
BRANCH   1   7
ATOM      7  C2  UNL d   1       0.784  -0.038  -1.201  0.00  0.00     0.056 C 
BRANCH   7   8
ATOM      8  C1  UNL d   1       0.174   0.684  -2.407  0.00  0.00     0.007 C 
ATOM      9  C   UNL d   1       0.875   0.360  -3.719  0.00  0.00     0.009 C 
ENDBRANCH   7   8
ENDBRANCH   1   7
TORSDOF 2
ENDMDL
