MODEL 1
REMARK minimizedAffinity -2.06713319
REMARK minimizedRMSD -1
REMARK  2 active torsions:
REMARK  status: ('A' for Active; 'I' for Inactive)
REMARK    1  A    between atoms: C1_2  and  C2_3 
REMARK    2  A    between atoms: C2_3  and  C3_4 
ROOT
ATOM      1  C3  UNL d   1       1.456  -0.283  -2.016  0.00  0.00    -0.075 A 
ATOM      2  C4  UNL d   1       2.674  -0.804  -2.477  0.00  0.00     0.002 A 
ATOM      3  C5  UNL d   1       3.320  -0.232  -3.573  0.00  0.00     0.002 A 
ATOM      4  C6  UNL d   1       2.752   0.859  -4.229  0.00  0.00    -0.004 A 
ATOM      5  C7  UNL d   1       1.534   1.374  -3.790  0.00  0.00     0.002 A 
ATOM      6  C8  UNL d   1       0.888   0.806  -2.690  0.00  0.00     0.002 A 
ENDROOT
BRANCH   1   7
ATOM      7  C2  UNL d   1       0.767  -0.880  -0.812  0.00  0.00     0.056 C 
BRANCH   7   8
ATOM      8  C1  UNL d   1       0.075   0.152   0.085  0.00  0.00     0.007 C 
ATOM      9  C   UNL d   1       0.754   0.322   1.438  0.00  0.00     0.009 C 
ENDBRANCH   7   8
ENDBRANCH   1   7
TORSDOF 2
ENDMDL
