MODEL 1
REMARK minimizedAffinity 1.66779602
REMARK minimizedRMSD -1
REMARK  2 active torsions:
REMARK  status: ('A' for Active; 'I' for Inactive)
REMARK    1  A    between atoms: C1_2  and  C2_3 
REMARK    2  A    between atoms: C2_3  and  C3_4 
ROOT
ATOM      1  C3  UNL d   1      -0.323   0.283   1.896  0.00  0.00    -0.075 A 
ATOM      2  C4  UNL d   1      -0.562   0.150   0.521  0.00  0.00     0.002 A 
ATOM      3  C5  UNL d   1       0.460  -0.249  -0.341  0.00  0.00     0.002 A 
ATOM      4  C6  UNL d   1       1.734  -0.510   0.159  0.00  0.00    -0.004 A 
ATOM      5  C7  UNL d   1       1.987  -0.365   1.521  0.00  0.00     0.002 A 
ATOM      6  C8  UNL d   1       0.965   0.030   2.386  0.00  0.00     0.002 A 
ENDROOT
BRANCH   1   7
ATOM      7  C2  UNL d   1      -1.432   0.686   2.838  0.00  0.00     0.056 C 
BRANCH   7   8
ATOM      8  C1  UNL d   1      -2.589  -0.316   2.904  0.00  0.00     0.007 C 
ATOM      9  C   UNL d   1      -2.338  -1.460   3.878  0.00  0.00     0.009 C 
ENDBRANCH   7   8
ENDBRANCH   1   7
TORSDOF 2
ENDMDL
