MODEL 1
REMARK minimizedAffinity -2.6811192
REMARK minimizedRMSD -1
REMARK  2 active torsions:
REMARK  status: ('A' for Active; 'I' for Inactive)
REMARK    1  A    between atoms: C1_2  and  C2_3 
REMARK    2  A    between atoms: C2_3  and  C3_4 
ROOT
ATOM      1  C3  UNL d   1       1.465   0.365  -4.135  0.00  0.00    -0.075 A 
ATOM      2  C4  UNL d   1       0.677  -0.727  -3.742  0.00  0.00     0.002 A 
ATOM      3  C5  UNL d   1      -0.451  -1.088  -4.479  0.00  0.00     0.002 A 
ATOM      4  C6  UNL d   1      -0.812  -0.358  -5.609  0.00  0.00    -0.004 A 
ATOM      5  C7  UNL d   1      -0.046   0.739  -5.999  0.00  0.00     0.002 A 
ATOM      6  C8  UNL d   1       1.086   1.100  -5.266  0.00  0.00     0.002 A 
ENDROOT
BRANCH   1   7
ATOM      7  C2  UNL d   1       2.704   0.743  -3.359  0.00  0.00     0.056 C 
BRANCH   7   8
ATOM      8  C1  UNL d   1       4.015   0.445  -4.094  0.00  0.00     0.007 C 
ATOM      9  C   UNL d   1       4.647  -0.877  -3.680  0.00  0.00     0.009 C 
ENDBRANCH   7   8
ENDBRANCH   1   7
TORSDOF 2
ENDMDL
