MODEL 1
REMARK minimizedAffinity -4.70996666
REMARK minimizedRMSD -1
REMARK  2 active torsions:
REMARK  status: ('A' for Active; 'I' for Inactive)
REMARK    1  A    between atoms: C1_2  and  C2_3 
REMARK    2  A    between atoms: C2_3  and  C3_4 
ROOT
ATOM      1  C3  UNL d   1       0.148  -0.440  -0.421  0.00  0.00    -0.075 A 
ATOM      2  C4  UNL d   1       1.211  -1.080   0.232  0.00  0.00     0.002 A 
ATOM      3  C5  UNL d   1       1.881  -0.450   1.281  0.00  0.00     0.002 A 
ATOM      4  C6  UNL d   1       1.505   0.830   1.682  0.00  0.00    -0.004 A 
ATOM      5  C7  UNL d   1       0.461   1.482   1.030  0.00  0.00     0.002 A 
ATOM      6  C8  UNL d   1      -0.214   0.852  -0.017  0.00  0.00     0.002 A 
ENDROOT
BRANCH   1   7
ATOM      7  C2  UNL d   1      -0.601  -1.129  -1.536  0.00  0.00     0.056 C 
BRANCH   7   8
ATOM      8  C1  UNL d   1      -1.216  -2.474  -1.137  0.00  0.00     0.007 C 
ATOM      9  C   UNL d   1      -2.738  -2.482  -1.203  0.00  0.00     0.009 C 
ENDBRANCH   7   8
ENDBRANCH   1   7
TORSDOF 2
ENDMDL
