MODEL 1
REMARK minimizedAffinity -2.8309648
REMARK minimizedRMSD -1
REMARK  1 active torsions:
REMARK  status: ('A' for Active; 'I' for Inactive)
REMARK    1  A    between atoms: N_2  and  C1_3 
ROOT
ATOM      1  C1  UNL d   1      -1.534  -0.963   0.464  0.00  0.00     0.143 A 
ATOM      2  C2  UNL d   1      -0.619  -1.152   1.506  0.00  0.00    -0.057 A 
ATOM      3  C3  UNL d   1       0.695  -0.678   1.412  0.00  0.00     0.033 A 
ATOM      4  C4  UNL d   1       1.127  -0.030   0.259  0.00  0.00    -0.042 A 
ATOM      5  C5  UNL d   1       0.242   0.146  -0.798  0.00  0.00     0.033 A 
ATOM      6  C6  UNL d   1      -1.071  -0.323  -0.696  0.00  0.00    -0.057 A 
ENDROOT
BRANCH   1   7
ATOM      7  N   UNL d   1      -2.825  -1.497   0.457  0.00  0.00    -0.732 N 
ATOM      8  C   UNL d   1      -3.555  -1.645  -0.784  0.00  0.00     0.284 C 
ATOM      9  H3  UNL d   1      -2.923  -2.285   1.094  0.00  0.00     0.395 HD
ENDBRANCH   1   7
TORSDOF 1
ENDMDL
