MODEL 1
REMARK minimizedAffinity -4.78394651
REMARK minimizedRMSD -1
REMARK  1 active torsions:
REMARK  status: ('A' for Active; 'I' for Inactive)
REMARK    1  A    between atoms: N_2  and  C1_3 
ROOT
ATOM      1  C1  UNL d   1      -0.626  -1.110   2.624  0.00  0.00     0.143 A 
ATOM      2  C2  UNL d   1       0.757  -1.021   2.815  0.00  0.00    -0.057 A 
ATOM      3  C3  UNL d   1       1.571  -0.321   1.916  0.00  0.00     0.033 A 
ATOM      4  C4  UNL d   1       1.017   0.280   0.790  0.00  0.00    -0.042 A 
ATOM      5  C5  UNL d   1      -0.351   0.183   0.566  0.00  0.00     0.033 A 
ATOM      6  C6  UNL d   1      -1.160  -0.511   1.472  0.00  0.00    -0.057 A 
ENDROOT
BRANCH   1   7
ATOM      7  N   UNL d   1      -1.474  -1.874   3.428  0.00  0.00    -0.732 N 
ATOM      8  C   UNL d   1      -1.318  -3.310   3.508  0.00  0.00     0.284 C 
ATOM      9  H3  UNL d   1      -1.670  -1.427   4.321  0.00  0.00     0.395 HD
ENDBRANCH   1   7
TORSDOF 1
ENDMDL
