MODEL 1
REMARK minimizedAffinity -1.79067755
REMARK minimizedRMSD -1
REMARK  1 active torsions:
REMARK  status: ('A' for Active; 'I' for Inactive)
REMARK    1  A    between atoms: N_2  and  C1_3 
ROOT
ATOM      1  C1  UNL d   1      -1.218  -0.274  -0.412  0.00  0.00     0.143 A 
ATOM      2  C2  UNL d   1      -2.096  -0.877  -1.318  0.00  0.00    -0.057 A 
ATOM      3  C3  UNL d   1      -3.348  -1.352  -0.909  0.00  0.00     0.033 A 
ATOM      4  C4  UNL d   1      -3.733  -1.259   0.425  0.00  0.00    -0.042 A 
ATOM      5  C5  UNL d   1      -2.865  -0.686   1.348  0.00  0.00     0.033 A 
ATOM      6  C6  UNL d   1      -1.619  -0.207   0.932  0.00  0.00    -0.057 A 
ENDROOT
BRANCH   1   7
ATOM      7  N   UNL d   1       0.079   0.130  -0.737  0.00  0.00    -0.732 N 
ATOM      8  C   UNL d   1       1.222  -0.453  -0.067  0.00  0.00     0.284 C 
ATOM      9  H3  UNL d   1       0.206   0.259  -1.738  0.00  0.00     0.395 HD
ENDBRANCH   1   7
TORSDOF 1
ENDMDL
