MODEL 1
REMARK minimizedAffinity -3.26275992
REMARK minimizedRMSD -1
REMARK  1 active torsions:
REMARK  status: ('A' for Active; 'I' for Inactive)
REMARK    1  A    between atoms: N_2  and  C1_3 
ROOT
ATOM      1  C1  UNL d   1      -1.458  -0.548   1.006  0.00  0.00     0.143 A 
ATOM      2  C2  UNL d   1      -0.592  -0.065   0.019  0.00  0.00    -0.057 A 
ATOM      3  C3  UNL d   1       0.757   0.187   0.297  0.00  0.00     0.033 A 
ATOM      4  C4  UNL d   1       1.258  -0.013   1.579  0.00  0.00    -0.042 A 
ATOM      5  C5  UNL d   1       0.409  -0.468   2.582  0.00  0.00     0.033 A 
ATOM      6  C6  UNL d   1      -0.935  -0.725   2.296  0.00  0.00    -0.057 A 
ENDROOT
BRANCH   1   7
ATOM      7  N   UNL d   1      -2.831  -0.724   0.817  0.00  0.00    -0.732 N 
ATOM      8  C   UNL d   1      -3.329  -1.475  -0.316  0.00  0.00     0.284 C 
ATOM      9  H3  UNL d   1      -3.322  -0.911   1.688  0.00  0.00     0.395 HD
ENDBRANCH   1   7
TORSDOF 1
ENDMDL
