MODEL 1
REMARK minimizedAffinity -4.09077549
REMARK minimizedRMSD -1
REMARK  1 active torsions:
REMARK  status: ('A' for Active; 'I' for Inactive)
REMARK    1  A    between atoms: N_2  and  C1_3 
ROOT
ATOM      1  C1  UNL d   1      -0.247   0.177   1.070  0.00  0.00     0.143 A 
ATOM      2  C2  UNL d   1      -1.010  -0.529   2.007  0.00  0.00    -0.057 A 
ATOM      3  C3  UNL d   1      -0.403  -1.330   2.981  0.00  0.00     0.033 A 
ATOM      4  C4  UNL d   1       0.981  -1.463   3.018  0.00  0.00    -0.042 A 
ATOM      5  C5  UNL d   1       1.758  -0.791   2.082  0.00  0.00     0.033 A 
ATOM      6  C6  UNL d   1       1.147   0.014   1.115  0.00  0.00    -0.057 A 
ENDROOT
BRANCH   1   7
ATOM      7  N   UNL d   1      -0.795   0.912   0.016  0.00  0.00    -0.732 N 
ATOM      8  C   UNL d   1      -0.262   0.787  -1.324  0.00  0.00     0.284 C 
ATOM      9  H3  UNL d   1      -1.811   0.952   0.057  0.00  0.00     0.395 HD
ENDBRANCH   1   7
TORSDOF 1
ENDMDL
