MODEL 1
REMARK minimizedAffinity -1.49589169
REMARK minimizedRMSD -1
REMARK  1 active torsions:
REMARK  status: ('A' for Active; 'I' for Inactive)
REMARK    1  A    between atoms: N_2  and  C1_3 
ROOT
ATOM      1  C1  UNL d   1       0.271  -0.571  -0.608  0.00  0.00     0.143 A 
ATOM      2  C2  UNL d   1       1.415  -1.318  -0.306  0.00  0.00    -0.057 A 
ATOM      3  C3  UNL d   1       2.256  -0.962   0.755  0.00  0.00     0.033 A 
ATOM      4  C4  UNL d   1       1.983   0.168   1.517  0.00  0.00    -0.042 A 
ATOM      5  C5  UNL d   1       0.866   0.940   1.220  0.00  0.00     0.033 A 
ATOM      6  C6  UNL d   1       0.026   0.576   0.164  0.00  0.00    -0.057 A 
ENDROOT
BRANCH   1   7
ATOM      7  N   UNL d   1      -0.550  -0.817  -1.710  0.00  0.00    -0.732 N 
ATOM      8  C   UNL d   1      -1.916  -0.338  -1.733  0.00  0.00     0.284 C 
ATOM      9  H3  UNL d   1      -0.057  -0.709  -2.594  0.00  0.00     0.395 HD
ENDBRANCH   1   7
TORSDOF 1
ENDMDL
