MODEL 1
REMARK minimizedAffinity -1.45497537
REMARK minimizedRMSD -1
REMARK  0 active torsions:
REMARK  status: ('A' for Active; 'I' for Inactive)
ROOT
ATOM      1  C   UNL d   1       1.726  -0.258  -2.657  0.00  0.00     0.124 A 
ATOM      2  C1  UNL d   1       1.672  -1.316  -1.760  0.00  0.00     0.062 A 
ATOM      3  C2  UNL d   1       0.858  -1.239  -0.635  0.00  0.00     0.162 A 
ATOM      4  C3  UNL d   1       0.088  -0.100  -0.400  0.00  0.00    -0.034 A 
ATOM      5  C4  UNL d   1       0.148   0.961  -1.305  0.00  0.00     0.162 A 
ATOM      6  C5  UNL d   1       0.964   0.879  -2.429  0.00  0.00     0.062 A 
ATOM      7  F   UNL d   1       1.015   1.902  -3.294  0.00  0.00    -0.097 F 
ATOM      8  F1  UNL d   1      -0.578   2.071  -1.110  0.00  0.00    -0.096 F 
ATOM      9  I   UNL d   1      -1.132   0.019   1.282  0.00  0.00    -0.060 I 
ATOM     10  F2  UNL d   1       0.825  -2.277   0.215  0.00  0.00    -0.096 F 
ATOM     11  F3  UNL d   1       2.408  -2.416  -1.978  0.00  0.00    -0.097 F 
ATOM     12  F4  UNL d   1       2.512  -0.335  -3.739  0.00  0.00    -0.092 F 
ENDROOT
TORSDOF 0
ENDMDL
