MODEL 1
REMARK minimizedAffinity -0.339794725
REMARK minimizedRMSD -1
REMARK  0 active torsions:
REMARK  status: ('A' for Active; 'I' for Inactive)
ROOT
ATOM      1  C   UNL d   1       1.594  -0.288  -1.591  0.00  0.00     0.124 A 
ATOM      2  C1  UNL d   1       0.521   0.570  -1.787  0.00  0.00     0.062 A 
ATOM      3  C2  UNL d   1      -0.481   0.668  -0.826  0.00  0.00     0.162 A 
ATOM      4  C3  UNL d   1      -0.415  -0.094   0.341  0.00  0.00    -0.034 A 
ATOM      5  C4  UNL d   1       0.667  -0.955   0.530  0.00  0.00     0.162 A 
ATOM      6  C5  UNL d   1       1.666  -1.050  -0.433  0.00  0.00     0.062 A 
ATOM      7  F   UNL d   1       2.702  -1.880  -0.243  0.00  0.00    -0.097 F 
ATOM      8  F1  UNL d   1       0.763  -1.702   1.640  0.00  0.00    -0.096 F 
ATOM      9  I   UNL d   1      -1.911   0.050   1.780  0.00  0.00    -0.060 I 
ATOM     10  F2  UNL d   1      -1.507   1.506  -1.041  0.00  0.00    -0.096 F 
ATOM     11  F3  UNL d   1       0.448   1.307  -2.905  0.00  0.00    -0.097 F 
ATOM     12  F4  UNL d   1       2.556  -0.381  -2.518  0.00  0.00    -0.092 F 
ENDROOT
TORSDOF 0
ENDMDL
