MODEL 1
REMARK minimizedAffinity -1.54384816
REMARK minimizedRMSD -1
REMARK  0 active torsions:
REMARK  status: ('A' for Active; 'I' for Inactive)
ROOT
ATOM      1  C   UNL d   1       1.582  -0.241  -1.549  0.00  0.00     0.124 A 
ATOM      2  C1  UNL d   1       0.662   0.792  -1.668  0.00  0.00     0.062 A 
ATOM      3  C2  UNL d   1      -0.346   0.944  -0.720  0.00  0.00     0.162 A 
ATOM      4  C3  UNL d   1      -0.439   0.061   0.356  0.00  0.00    -0.034 A 
ATOM      5  C4  UNL d   1       0.489  -0.976   0.468  0.00  0.00     0.162 A 
ATOM      6  C5  UNL d   1       1.495  -1.124  -0.482  0.00  0.00     0.062 A 
ATOM      7  F   UNL d   1       2.382  -2.122  -0.366  0.00  0.00    -0.097 F 
ATOM      8  F1  UNL d   1       0.429  -1.842   1.490  0.00  0.00    -0.096 F 
ATOM      9  I   UNL d   1      -1.944   0.285   1.776  0.00  0.00    -0.060 I 
ATOM     10  F2  UNL d   1      -1.221   1.951  -0.859  0.00  0.00    -0.096 F 
ATOM     11  F3  UNL d   1       0.744   1.645  -2.698  0.00  0.00    -0.097 F 
ATOM     12  F4  UNL d   1       2.550  -0.386  -2.463  0.00  0.00    -0.092 F 
ENDROOT
TORSDOF 0
ENDMDL
