MODEL 1
REMARK minimizedAffinity -1.86071801
REMARK minimizedRMSD -1
REMARK  0 active torsions:
REMARK  status: ('A' for Active; 'I' for Inactive)
ROOT
ATOM      1  C   UNL d   1       1.474  -0.275  -1.619  0.00  0.00     0.124 A 
ATOM      2  C1  UNL d   1       1.244  -1.327  -0.743  0.00  0.00     0.062 A 
ATOM      3  C2  UNL d   1       0.195  -1.261   0.169  0.00  0.00     0.162 A 
ATOM      4  C3  UNL d   1      -0.634  -0.140   0.209  0.00  0.00    -0.034 A 
ATOM      5  C4  UNL d   1      -0.397   0.914  -0.675  0.00  0.00     0.162 A 
ATOM      6  C5  UNL d   1       0.653   0.844  -1.585  0.00  0.00     0.062 A 
ATOM      7  F   UNL d   1       0.874   1.860  -2.431  0.00  0.00    -0.097 F 
ATOM      8  F1  UNL d   1      -1.175   2.006  -0.664  0.00  0.00    -0.096 F 
ATOM      9  I   UNL d   1      -2.205  -0.039   1.571  0.00  0.00    -0.060 I 
ATOM     10  F2  UNL d   1      -0.004  -2.292   1.004  0.00  0.00    -0.096 F 
ATOM     11  F3  UNL d   1       2.036  -2.408  -0.774  0.00  0.00    -0.097 F 
ATOM     12  F4  UNL d   1       2.485  -0.340  -2.495  0.00  0.00    -0.092 F 
ENDROOT
TORSDOF 0
ENDMDL
