MODEL 1
REMARK minimizedAffinity 2.18577075
REMARK minimizedRMSD -1
REMARK  0 active torsions:
REMARK  status: ('A' for Active; 'I' for Inactive)
ROOT
ATOM      1  C   UNL d   1       1.067  -0.333  -0.744  0.00  0.00     0.124 A 
ATOM      2  C1  UNL d   1       0.136   0.694  -0.809  0.00  0.00     0.062 A 
ATOM      3  C2  UNL d   1      -0.626   1.021   0.309  0.00  0.00     0.162 A 
ATOM      4  C3  UNL d   1      -0.458   0.320   1.504  0.00  0.00    -0.034 A 
ATOM      5  C4  UNL d   1       0.480  -0.712   1.561  0.00  0.00     0.162 A 
ATOM      6  C5  UNL d   1       1.239  -1.035   0.441  0.00  0.00     0.062 A 
ATOM      7  F   UNL d   1       2.138  -2.027   0.505  0.00  0.00    -0.097 F 
ATOM      8  F1  UNL d   1       0.667  -1.406   2.694  0.00  0.00    -0.096 F 
ATOM      9  I   UNL d   1      -1.595   0.805   3.178  0.00  0.00    -0.060 I 
ATOM     10  F2  UNL d   1      -1.519   2.017   0.218  0.00  0.00    -0.096 F 
ATOM     11  F3  UNL d   1      -0.033   1.373  -1.953  0.00  0.00    -0.097 F 
ATOM     12  F4  UNL d   1       1.798  -0.645  -1.822  0.00  0.00    -0.092 F 
ENDROOT
TORSDOF 0
ENDMDL
