MODEL 1
REMARK minimizedAffinity -1.91436458
REMARK minimizedRMSD -1
REMARK  0 active torsions:
REMARK  status: ('A' for Active; 'I' for Inactive)
ROOT
ATOM      1  C   UNL d   1       0.848  -1.929  -1.037  0.00  0.00     0.124 A 
ATOM      2  C1  UNL d   1      -0.524  -1.718  -1.044  0.00  0.00     0.062 A 
ATOM      3  C2  UNL d   1      -1.099  -0.823  -0.147  0.00  0.00     0.162 A 
ATOM      4  C3  UNL d   1      -0.302  -0.130   0.764  0.00  0.00    -0.034 A 
ATOM      5  C4  UNL d   1       1.077  -0.348   0.766  0.00  0.00     0.162 A 
ATOM      6  C5  UNL d   1       1.647  -1.244  -0.133  0.00  0.00     0.062 A 
ATOM      7  F   UNL d   1       2.972  -1.446  -0.125  0.00  0.00    -0.097 F 
ATOM      8  F1  UNL d   1       1.873   0.302   1.628  0.00  0.00    -0.096 F 
ATOM      9  I   UNL d   1      -1.158   1.211   2.107  0.00  0.00    -0.060 I 
ATOM     10  F2  UNL d   1      -2.427  -0.639  -0.176  0.00  0.00    -0.096 F 
ATOM     11  F3  UNL d   1      -1.298  -2.380  -1.916  0.00  0.00    -0.097 F 
ATOM     12  F4  UNL d   1       1.398  -2.792  -1.900  0.00  0.00    -0.092 F 
ENDROOT
TORSDOF 0
ENDMDL
