MODEL 1
REMARK minimizedAffinity 7.77937794
REMARK minimizedRMSD -1
REMARK  0 active torsions:
REMARK  status: ('A' for Active; 'I' for Inactive)
ROOT
ATOM      1  C   UNL d   1       0.944  -1.409  -0.987  0.00  0.00     0.124 A 
ATOM      2  C1  UNL d   1       0.442  -0.115  -0.987  0.00  0.00     0.062 A 
ATOM      3  C2  UNL d   1      -0.004   0.463   0.198  0.00  0.00     0.162 A 
ATOM      4  C3  UNL d   1       0.050  -0.253   1.394  0.00  0.00    -0.034 A 
ATOM      5  C4  UNL d   1       0.555  -1.554   1.386  0.00  0.00     0.162 A 
ATOM      6  C5  UNL d   1       1.000  -2.127   0.199  0.00  0.00     0.062 A 
ATOM      7  F   UNL d   1       1.485  -3.377   0.201  0.00  0.00    -0.097 F 
ATOM      8  F1  UNL d   1       0.622  -2.270   2.518  0.00  0.00    -0.096 F 
ATOM      9  I   UNL d   1      -0.617   0.608   3.168  0.00  0.00    -0.060 I 
ATOM     10  F2  UNL d   1      -0.485   1.715   0.169  0.00  0.00    -0.096 F 
ATOM     11  F3  UNL d   1       0.386   0.581  -2.132  0.00  0.00    -0.097 F 
ATOM     12  F4  UNL d   1       1.372  -1.962  -2.128  0.00  0.00    -0.092 F 
ENDROOT
TORSDOF 0
ENDMDL
