MODEL 1
REMARK minimizedAffinity -2.29431343
REMARK minimizedRMSD -1
REMARK  0 active torsions:
REMARK  status: ('A' for Active; 'I' for Inactive)
ROOT
ATOM      1  C   UNL d   1       1.902   0.124  -2.141  0.00  0.00     0.124 A 
ATOM      2  C1  UNL d   1       1.020   1.195  -2.184  0.00  0.00     0.062 A 
ATOM      3  C2  UNL d   1       0.029   1.324  -1.216  0.00  0.00     0.162 A 
ATOM      4  C3  UNL d   1      -0.086   0.380  -0.196  0.00  0.00    -0.034 A 
ATOM      5  C4  UNL d   1       0.803  -0.695  -0.160  0.00  0.00     0.162 A 
ATOM      6  C5  UNL d   1       1.793  -0.820  -1.129  0.00  0.00     0.062 A 
ATOM      7  F   UNL d   1       2.644  -1.855  -1.086  0.00  0.00    -0.097 F 
ATOM      8  F1  UNL d   1       0.721  -1.621   0.808  0.00  0.00    -0.096 F 
ATOM      9  I   UNL d   1      -1.568   0.570   1.254  0.00  0.00    -0.060 I 
ATOM     10  F2  UNL d   1      -0.810   2.370  -1.282  0.00  0.00    -0.096 F 
ATOM     11  F3  UNL d   1       1.123   2.107  -3.161  0.00  0.00    -0.097 F 
ATOM     12  F4  UNL d   1       2.855   0.001  -3.074  0.00  0.00    -0.092 F 
ENDROOT
TORSDOF 0
ENDMDL
