MODEL 1
REMARK minimizedAffinity 1.95385027
REMARK minimizedRMSD -1
REMARK  0 active torsions:
REMARK  status: ('A' for Active; 'I' for Inactive)
ROOT
ATOM      1  C   UNL d   1       1.795  -0.059  -2.036  0.00  0.00     0.124 A 
ATOM      2  C1  UNL d   1       0.919   1.017  -2.080  0.00  0.00     0.062 A 
ATOM      3  C2  UNL d   1      -0.106   1.123  -1.145  0.00  0.00     0.162 A 
ATOM      4  C3  UNL d   1      -0.261   0.151  -0.156  0.00  0.00    -0.034 A 
ATOM      5  C4  UNL d   1       0.623  -0.928  -0.119  0.00  0.00     0.162 A 
ATOM      6  C5  UNL d   1       1.646  -1.030  -1.056  0.00  0.00     0.062 A 
ATOM      7  F   UNL d   1       2.491  -2.071  -1.012  0.00  0.00    -0.097 F 
ATOM      8  F1  UNL d   1       0.503  -1.881   0.818  0.00  0.00    -0.096 F 
ATOM      9  I   UNL d   1      -1.793   0.307   1.244  0.00  0.00    -0.060 I 
ATOM     10  F2  UNL d   1      -0.938   2.174  -1.211  0.00  0.00    -0.096 F 
ATOM     11  F3  UNL d   1       1.060   1.956  -3.026  0.00  0.00    -0.097 F 
ATOM     12  F4  UNL d   1       2.780  -0.160  -2.938  0.00  0.00    -0.092 F 
ENDROOT
TORSDOF 0
ENDMDL
