MODEL 1
REMARK minimizedAffinity -1.83509433
REMARK minimizedRMSD -1
REMARK  0 active torsions:
REMARK  status: ('A' for Active; 'I' for Inactive)
ROOT
ATOM      1  C   UNL d   1       1.354  -0.221  -1.870  0.00  0.00     0.124 A 
ATOM      2  C1  UNL d   1       1.137  -1.200  -0.911  0.00  0.00     0.062 A 
ATOM      3  C2  UNL d   1       0.166  -1.018   0.069  0.00  0.00     0.162 A 
ATOM      4  C3  UNL d   1      -0.599   0.149   0.094  0.00  0.00    -0.034 A 
ATOM      5  C4  UNL d   1      -0.375   1.130  -0.874  0.00  0.00     0.162 A 
ATOM      6  C5  UNL d   1       0.598   0.943  -1.851  0.00  0.00     0.062 A 
ATOM      7  F   UNL d   1       0.805   1.890  -2.778  0.00  0.00    -0.097 F 
ATOM      8  F1  UNL d   1      -1.092   2.263  -0.880  0.00  0.00    -0.096 F 
ATOM      9  I   UNL d   1      -2.053   0.425   1.557  0.00  0.00    -0.060 I 
ATOM     10  F2  UNL d   1      -0.022  -1.981   0.984  0.00  0.00    -0.096 F 
ATOM     11  F3  UNL d   1       1.867  -2.325  -0.926  0.00  0.00    -0.097 F 
ATOM     12  F4  UNL d   1       2.290  -0.399  -2.811  0.00  0.00    -0.092 F 
ENDROOT
TORSDOF 0
ENDMDL
