MODEL 1
REMARK minimizedAffinity -1.83990788
REMARK minimizedRMSD -1
REMARK  0 active torsions:
REMARK  status: ('A' for Active; 'I' for Inactive)
ROOT
ATOM      1  C   UNL d   1       1.660  -0.169  -3.318  0.00  0.00     0.124 A 
ATOM      2  C1  UNL d   1       1.595   1.028  -2.618  0.00  0.00     0.062 A 
ATOM      3  C2  UNL d   1       1.319   1.027  -1.254  0.00  0.00     0.162 A 
ATOM      4  C3  UNL d   1       1.105  -0.175  -0.579  0.00  0.00    -0.034 A 
ATOM      5  C4  UNL d   1       1.171  -1.375  -1.290  0.00  0.00     0.162 A 
ATOM      6  C5  UNL d   1       1.448  -1.369  -2.653  0.00  0.00     0.062 A 
ATOM      7  F   UNL d   1       1.509  -2.527  -3.328  0.00  0.00    -0.097 F 
ATOM      8  F1  UNL d   1       0.971  -2.549  -0.673  0.00  0.00    -0.096 F 
ATOM      9  I   UNL d   1       0.692  -0.180   1.460  0.00  0.00    -0.060 I 
ATOM     10  F2  UNL d   1       1.263   2.199  -0.603  0.00  0.00    -0.096 F 
ATOM     11  F3  UNL d   1       1.799   2.188  -3.258  0.00  0.00    -0.097 F 
ATOM     12  F4  UNL d   1       1.925  -0.166  -4.630  0.00  0.00    -0.092 F 
ENDROOT
TORSDOF 0
ENDMDL
