MODEL 1
REMARK minimizedAffinity -2.48450875
REMARK minimizedRMSD -1
REMARK  0 active torsions:
REMARK  status: ('A' for Active; 'I' for Inactive)
ROOT
ATOM      1  C   UNL d   1       1.396  -0.017  -1.934  0.00  0.00     0.124 A 
ATOM      2  C1  UNL d   1       0.463   1.008  -1.857  0.00  0.00     0.062 A 
ATOM      3  C2  UNL d   1      -0.447   1.047  -0.804  0.00  0.00     0.162 A 
ATOM      4  C3  UNL d   1      -0.427   0.060   0.181  0.00  0.00    -0.034 A 
ATOM      5  C4  UNL d   1       0.514  -0.968   0.095  0.00  0.00     0.162 A 
ATOM      6  C5  UNL d   1       1.421  -1.003  -0.959  0.00  0.00     0.062 A 
ATOM      7  F   UNL d   1       2.322  -1.993  -1.032  0.00  0.00    -0.097 F 
ATOM      8  F1  UNL d   1       0.561  -1.934   1.025  0.00  0.00    -0.096 F 
ATOM      9  I   UNL d   1      -1.786   0.115   1.756  0.00  0.00    -0.060 I 
ATOM     10  F2  UNL d   1      -1.338   2.049  -0.754  0.00  0.00    -0.096 F 
ATOM     11  F3  UNL d   1       0.436   1.962  -2.799  0.00  0.00    -0.097 F 
ATOM     12  F4  UNL d   1       2.270  -0.053  -2.949  0.00  0.00    -0.092 F 
ENDROOT
TORSDOF 0
ENDMDL
