MODEL 1
REMARK minimizedAffinity -1.77853286
REMARK minimizedRMSD -1
REMARK  0 active torsions:
REMARK  status: ('A' for Active; 'I' for Inactive)
ROOT
ATOM      1  C   UNL d   1       1.238   0.234  -1.535  0.00  0.00     0.124 A 
ATOM      2  C1  UNL d   1       0.290   1.248  -1.524  0.00  0.00     0.062 A 
ATOM      3  C2  UNL d   1      -0.550   1.410  -0.426  0.00  0.00     0.162 A 
ATOM      4  C3  UNL d   1      -0.446   0.555   0.671  0.00  0.00    -0.034 A 
ATOM      5  C4  UNL d   1       0.509  -0.463   0.652  0.00  0.00     0.162 A 
ATOM      6  C5  UNL d   1       1.346  -0.620  -0.447  0.00  0.00     0.062 A 
ATOM      7  F   UNL d   1       2.261  -1.601  -0.456  0.00  0.00    -0.097 F 
ATOM      8  F1  UNL d   1       0.636  -1.303   1.691  0.00  0.00    -0.096 F 
ATOM      9  I   UNL d   1      -1.700   0.793   2.315  0.00  0.00    -0.060 I 
ATOM     10  F2  UNL d   1      -1.456   2.398  -0.442  0.00  0.00    -0.096 F 
ATOM     11  F3  UNL d   1       0.182   2.075  -2.574  0.00  0.00    -0.097 F 
ATOM     12  F4  UNL d   1       2.044   0.081  -2.593  0.00  0.00    -0.092 F 
ENDROOT
TORSDOF 0
ENDMDL
