MODEL 1
REMARK minimizedAffinity 0.788048506
REMARK minimizedRMSD -1
REMARK  0 active torsions:
REMARK  status: ('A' for Active; 'I' for Inactive)
ROOT
ATOM      1  C   UNL d   1      -2.301   0.373   2.586  0.00  0.00     0.124 A 
ATOM      2  C1  UNL d   1      -0.953   0.083   2.749  0.00  0.00     0.062 A 
ATOM      3  C2  UNL d   1      -0.116  -0.001   1.640  0.00  0.00     0.162 A 
ATOM      4  C3  UNL d   1      -0.625   0.208   0.357  0.00  0.00    -0.034 A 
ATOM      5  C4  UNL d   1      -1.981   0.499   0.202  0.00  0.00     0.162 A 
ATOM      6  C5  UNL d   1      -2.813   0.581   1.314  0.00  0.00     0.062 A 
ATOM      7  F   UNL d   1      -4.115   0.862   1.155  0.00  0.00    -0.097 F 
ATOM      8  F1  UNL d   1      -2.502   0.705  -1.017  0.00  0.00    -0.096 F 
ATOM      9  I   UNL d   1       0.623   0.084  -1.304  0.00  0.00    -0.060 I 
ATOM     10  F2  UNL d   1       1.182  -0.283   1.826  0.00  0.00    -0.096 F 
ATOM     11  F3  UNL d   1      -0.456  -0.119   3.977  0.00  0.00    -0.097 F 
ATOM     12  F4  UNL d   1      -3.104   0.452   3.655  0.00  0.00    -0.092 F 
ENDROOT
TORSDOF 0
ENDMDL
