MODEL 1
REMARK minimizedAffinity 0.0227233339
REMARK minimizedRMSD -1
REMARK  0 active torsions:
REMARK  status: ('A' for Active; 'I' for Inactive)
ROOT
ATOM      1  C   UNL d   1       2.064   0.034  -1.996  0.00  0.00     0.124 A 
ATOM      2  C1  UNL d   1       1.009   0.925  -2.132  0.00  0.00     0.062 A 
ATOM      3  C2  UNL d   1      -0.048   0.903  -1.226  0.00  0.00     0.162 A 
ATOM      4  C3  UNL d   1      -0.054  -0.013  -0.174  0.00  0.00    -0.034 A 
ATOM      5  C4  UNL d   1       1.011  -0.907  -0.044  0.00  0.00     0.162 A 
ATOM      6  C5  UNL d   1       2.064  -0.881  -0.952  0.00  0.00     0.062 A 
ATOM      7  F   UNL d   1       3.083  -1.743  -0.819  0.00  0.00    -0.097 F 
ATOM      8  F1  UNL d   1       1.037  -1.801   0.956  0.00  0.00    -0.096 F 
ATOM      9  I   UNL d   1      -1.631  -0.049   1.183  0.00  0.00    -0.060 I 
ATOM     10  F2  UNL d   1      -1.054   1.776  -1.382  0.00  0.00    -0.096 F 
ATOM     11  F3  UNL d   1       1.006   1.809  -3.140  0.00  0.00    -0.097 F 
ATOM     12  F4  UNL d   1       3.079   0.056  -2.870  0.00  0.00    -0.092 F 
ENDROOT
TORSDOF 0
ENDMDL
