MODEL 1
REMARK minimizedAffinity -0.707152843
REMARK minimizedRMSD -1
REMARK  0 active torsions:
REMARK  status: ('A' for Active; 'I' for Inactive)
ROOT
ATOM      1  C   UNL d   1       1.147  -0.398  -1.812  0.00  0.00     0.124 A 
ATOM      2  C1  UNL d   1       1.052  -1.392  -0.847  0.00  0.00     0.062 A 
ATOM      3  C2  UNL d   1       0.195  -1.234   0.238  0.00  0.00     0.162 A 
ATOM      4  C3  UNL d   1      -0.575  -0.077   0.364  0.00  0.00    -0.034 A 
ATOM      5  C4  UNL d   1      -0.473   0.918  -0.609  0.00  0.00     0.162 A 
ATOM      6  C5  UNL d   1       0.384   0.755  -1.692  0.00  0.00     0.062 A 
ATOM      7  F   UNL d   1       0.475   1.716  -2.624  0.00  0.00    -0.097 F 
ATOM      8  F1  UNL d   1      -1.199   2.042  -0.519  0.00  0.00    -0.096 F 
ATOM      9  I   UNL d   1      -1.857   0.163   1.986  0.00  0.00    -0.060 I 
ATOM     10  F2  UNL d   1       0.123  -2.210   1.155  0.00  0.00    -0.096 F 
ATOM     11  F3  UNL d   1       1.788  -2.507  -0.960  0.00  0.00    -0.097 F 
ATOM     12  F4  UNL d   1       1.972  -0.553  -2.855  0.00  0.00    -0.092 F 
ENDROOT
TORSDOF 0
ENDMDL
