MODEL 1
REMARK minimizedAffinity 15.783452
REMARK minimizedRMSD -1
REMARK  0 active torsions:
REMARK  status: ('A' for Active; 'I' for Inactive)
ROOT
ATOM      1  C   UNL d   1       0.638  -3.069  -0.897  0.00  0.00     0.124 A 
ATOM      2  C1  UNL d   1       0.707  -3.671   0.352  0.00  0.00     0.062 A 
ATOM      3  C2  UNL d   1       1.688  -3.286   1.261  0.00  0.00     0.162 A 
ATOM      4  C3  UNL d   1       2.608  -2.293   0.925  0.00  0.00    -0.034 A 
ATOM      5  C4  UNL d   1       2.533  -1.694  -0.333  0.00  0.00     0.162 A 
ATOM      6  C5  UNL d   1       1.551  -2.082  -1.238  0.00  0.00     0.062 A 
ATOM      7  F   UNL d   1       1.486  -1.500  -2.445  0.00  0.00    -0.097 F 
ATOM      8  F1  UNL d   1       3.402  -0.736  -0.689  0.00  0.00    -0.096 F 
ATOM      9  I   UNL d   1       4.077  -1.715   2.281  0.00  0.00    -0.060 I 
ATOM     10  F2  UNL d   1       1.731  -3.884   2.461  0.00  0.00    -0.096 F 
ATOM     11  F3  UNL d   1      -0.173  -4.626   0.684  0.00  0.00    -0.097 F 
ATOM     12  F4  UNL d   1      -0.307  -3.442  -1.770  0.00  0.00    -0.092 F 
ENDROOT
TORSDOF 0
ENDMDL
