MODEL 1
REMARK minimizedAffinity 13.8033476
REMARK minimizedRMSD -1
REMARK  0 active torsions:
REMARK  status: ('A' for Active; 'I' for Inactive)
ROOT
ATOM      1  N1  IND d   1       3.991  -0.400  -1.753  0.00  0.00    -0.196 N 
ATOM      2  C2  IND d   1       4.309   0.389  -0.683  0.00  0.00     0.054 A 
ATOM      3  C3  IND d   1       3.673  -0.045   0.428  0.00  0.00    -0.031 A 
ATOM      4  C4  IND d   1       2.142  -2.090   0.742  0.00  0.00     0.051 A 
ATOM      5  C5  IND d   1       1.528  -3.093   0.045  0.00  0.00    -0.031 A 
ATOM      6  C6  IND d   1       1.710  -3.255  -1.313  0.00  0.00     0.015 A 
ATOM      7  C7  IND d   1       2.524  -2.422  -2.027  0.00  0.00    -0.016 A 
ATOM      8  C8  IND d   1       3.144  -1.398  -1.324  0.00  0.00    -0.047 A 
ATOM      9  C9  IND d   1       2.930  -1.204   0.046  0.00  0.00    -0.096 A 
ATOM     10  HN1 IND d   1       4.272  -0.291  -2.558  0.00  0.00     0.298 HD
ENDROOT
TORSDOF 0
ENDMDL
