MODEL 1
REMARK minimizedAffinity 10.7648039
REMARK minimizedRMSD -1
REMARK  0 active torsions:
REMARK  status: ('A' for Active; 'I' for Inactive)
ROOT
ATOM      1  N1  IND d   1       0.084  -0.523   1.527  0.00  0.00    -0.196 N 
ATOM      2  C2  IND d   1       0.765  -0.544   0.342  0.00  0.00     0.054 A 
ATOM      3  C3  IND d   1      -0.096  -0.446  -0.696  0.00  0.00    -0.031 A 
ATOM      4  C4  IND d   1      -2.652  -0.141  -0.678  0.00  0.00     0.051 A 
ATOM      5  C5  IND d   1      -3.726  -0.101   0.166  0.00  0.00    -0.031 A 
ATOM      6  C6  IND d   1      -3.582  -0.200   1.535  0.00  0.00     0.015 A 
ATOM      7  C7  IND d   1      -2.352  -0.330   2.114  0.00  0.00    -0.016 A 
ATOM      8  C8  IND d   1      -1.259  -0.378   1.259  0.00  0.00    -0.047 A 
ATOM      9  C9  IND d   1      -1.403  -0.321  -0.133  0.00  0.00    -0.096 A 
ATOM     10  HN1 IND d   1       0.436  -0.589   2.309  0.00  0.00     0.298 HD
ENDROOT
TORSDOF 0
ENDMDL
