MODEL 1
REMARK minimizedAffinity 10.8523674
REMARK minimizedRMSD -1
REMARK  0 active torsions:
REMARK  status: ('A' for Active; 'I' for Inactive)
ROOT
ATOM      1  N1  IND d   1       0.829  -0.071   1.997  0.00  0.00    -0.196 N 
ATOM      2  C2  IND d   1       1.974   0.308   1.355  0.00  0.00     0.054 A 
ATOM      3  C3  IND d   1       1.823   0.196   0.017  0.00  0.00    -0.031 A 
ATOM      4  C4  IND d   1      -0.253  -0.492  -1.342  0.00  0.00     0.051 A 
ATOM      5  C5  IND d   1      -1.528  -0.963  -1.197  0.00  0.00    -0.031 A 
ATOM      6  C6  IND d   1      -2.095  -1.162   0.045  0.00  0.00     0.015 A 
ATOM      7  C7  IND d   1      -1.409  -0.886   1.194  0.00  0.00    -0.016 A 
ATOM      8  C8  IND d   1      -0.111  -0.414   1.051  0.00  0.00    -0.047 A 
ATOM      9  C9  IND d   1       0.484  -0.251  -0.207  0.00  0.00    -0.096 A 
ATOM     10  HN1 IND d   1       0.714  -0.093   2.849  0.00  0.00     0.298 HD
ENDROOT
TORSDOF 0
ENDMDL
