MODEL 1
REMARK minimizedAffinity 10.203723
REMARK minimizedRMSD -1
REMARK  0 active torsions:
REMARK  status: ('A' for Active; 'I' for Inactive)
ROOT
ATOM      1  N1  IND d   1      -0.782  -5.994   4.815  0.00  0.00    -0.196 N 
ATOM      2  C2  IND d   1      -1.951  -6.000   5.522  0.00  0.00     0.054 A 
ATOM      3  C3  IND d   1      -2.221  -4.763   5.996  0.00  0.00    -0.031 A 
ATOM      4  C4  IND d   1      -0.933  -2.561   5.647  0.00  0.00     0.051 A 
ATOM      5  C5  IND d   1       0.216  -2.060   5.103  0.00  0.00    -0.031 A 
ATOM      6  C6  IND d   1       1.108  -2.860   4.419  0.00  0.00     0.015 A 
ATOM      7  C7  IND d   1       0.878  -4.195   4.243  0.00  0.00    -0.016 A 
ATOM      8  C8  IND d   1      -0.285  -4.709   4.800  0.00  0.00    -0.047 A 
ATOM      9  C9  IND d   1      -1.173  -3.910   5.532  0.00  0.00    -0.096 A 
ATOM     10  HN1 IND d   1      -0.417  -6.678   4.442  0.00  0.00     0.298 HD
ENDROOT
TORSDOF 0
ENDMDL
