MODEL 1
REMARK minimizedAffinity 4.67034721
REMARK minimizedRMSD -1
REMARK  0 active torsions:
REMARK  status: ('A' for Active; 'I' for Inactive)
ROOT
ATOM      1  N1  IND d   1      -3.462  -0.065   1.922  0.00  0.00    -0.196 N 
ATOM      2  C2  IND d   1      -4.300  -0.390   0.892  0.00  0.00     0.054 A 
ATOM      3  C3  IND d   1      -3.588  -0.743  -0.201  0.00  0.00    -0.031 A 
ATOM      4  C4  IND d   1      -1.039  -0.956  -0.494  0.00  0.00     0.051 A 
ATOM      5  C5  IND d   1       0.142  -0.731   0.155  0.00  0.00    -0.031 A 
ATOM      6  C6  IND d   1       0.183  -0.265   1.454  0.00  0.00     0.015 A 
ATOM      7  C7  IND d   1      -0.960  -0.017   2.158  0.00  0.00    -0.016 A 
ATOM      8  C8  IND d   1      -2.162  -0.238   1.500  0.00  0.00    -0.047 A 
ATOM      9  C9  IND d   1      -2.210  -0.670   0.168  0.00  0.00    -0.096 A 
ATOM     10  HN1 IND d   1      -3.705   0.203   2.702  0.00  0.00     0.298 HD
ENDROOT
TORSDOF 0
ENDMDL
