MODEL 1
REMARK minimizedAffinity 19.0682182
REMARK minimizedRMSD -1
REMARK  0 active torsions:
REMARK  status: ('A' for Active; 'I' for Inactive)
ROOT
ATOM      1  N1  IND d   1      -1.745  -5.800   3.994  0.00  0.00    -0.196 N 
ATOM      2  C2  IND d   1      -2.615  -5.986   5.032  0.00  0.00     0.054 A 
ATOM      3  C3  IND d   1      -2.420  -5.045   5.983  0.00  0.00    -0.031 A 
ATOM      4  C4  IND d   1      -0.799  -3.045   5.997  0.00  0.00     0.051 A 
ATOM      5  C5  IND d   1       0.221  -2.480   5.284  0.00  0.00    -0.031 A 
ATOM      6  C6  IND d   1       0.644  -3.002   4.079  0.00  0.00     0.015 A 
ATOM      7  C7  IND d   1       0.053  -4.106   3.534  0.00  0.00    -0.016 A 
ATOM      8  C8  IND d   1      -0.978  -4.687   4.258  0.00  0.00    -0.047 A 
ATOM      9  C9  IND d   1      -1.384  -4.186   5.502  0.00  0.00    -0.096 A 
ATOM     10  HN1 IND d   1      -1.687  -6.295   3.293  0.00  0.00     0.298 HD
ENDROOT
TORSDOF 0
ENDMDL
