MODEL 1
REMARK minimizedAffinity 19.6051178
REMARK minimizedRMSD -1
REMARK  0 active torsions:
REMARK  status: ('A' for Active; 'I' for Inactive)
ROOT
ATOM      1  N1  IND d   1       2.482  -2.636  -3.322  0.00  0.00    -0.196 N 
ATOM      2  C2  IND d   1       3.703  -2.933  -2.782  0.00  0.00     0.054 A 
ATOM      3  C3  IND d   1       3.580  -3.207  -1.464  0.00  0.00    -0.031 A 
ATOM      4  C4  IND d   1       1.460  -3.327  -0.009  0.00  0.00     0.051 A 
ATOM      5  C5  IND d   1       0.113  -3.100  -0.047  0.00  0.00    -0.031 A 
ATOM      6  C6  IND d   1      -0.526  -2.701  -1.203  0.00  0.00     0.015 A 
ATOM      7  C7  IND d   1       0.159  -2.524  -2.371  0.00  0.00    -0.016 A 
ATOM      8  C8  IND d   1       1.528  -2.747  -2.335  0.00  0.00    -0.047 A 
ATOM      9  C9  IND d   1       2.189  -3.111  -1.154  0.00  0.00    -0.096 A 
ATOM     10  HN1 IND d   1       2.336  -2.416  -4.140  0.00  0.00     0.298 HD
ENDROOT
TORSDOF 0
ENDMDL
