MODEL 1
REMARK minimizedAffinity 14.3774557
REMARK minimizedRMSD -1
REMARK  0 active torsions:
REMARK  status: ('A' for Active; 'I' for Inactive)
ROOT
ATOM      1  N1  IND d   1       3.269   2.362   4.752  0.00  0.00    -0.196 N 
ATOM      2  C2  IND d   1       2.000   2.714   5.120  0.00  0.00     0.054 A 
ATOM      3  C3  IND d   1       1.966   4.009   5.508  0.00  0.00    -0.031 A 
ATOM      4  C4  IND d   1       3.850   5.763   5.522  0.00  0.00     0.051 A 
ATOM      5  C5  IND d   1       5.193   5.904   5.307  0.00  0.00    -0.031 A 
ATOM      6  C6  IND d   1       5.978   4.850   4.884  0.00  0.00     0.015 A 
ATOM      7  C7  IND d   1       5.445   3.614   4.649  0.00  0.00    -0.016 A 
ATOM      8  C8  IND d   1       4.084   3.466   4.874  0.00  0.00    -0.047 A 
ATOM      9  C9  IND d   1       3.290   4.520   5.343  0.00  0.00    -0.096 A 
ATOM     10  HN1 IND d   1       3.516   1.582   4.488  0.00  0.00     0.298 HD
ENDROOT
TORSDOF 0
ENDMDL
