MODEL 1
REMARK minimizedAffinity 7.51694441
REMARK minimizedRMSD -1
REMARK  0 active torsions:
REMARK  status: ('A' for Active; 'I' for Inactive)
ROOT
ATOM      1  N1  IND d   1       0.515   0.664   0.068  0.00  0.00    -0.196 N 
ATOM      2  C2  IND d   1       1.545   0.058   0.732  0.00  0.00     0.054 A 
ATOM      3  C3  IND d   1       1.624  -1.247   0.388  0.00  0.00    -0.031 A 
ATOM      4  C4  IND d   1       0.230  -2.575  -1.322  0.00  0.00     0.051 A 
ATOM      5  C5  IND d   1      -0.850  -2.460  -2.152  0.00  0.00    -0.031 A 
ATOM      6  C6  IND d   1      -1.542  -1.275  -2.289  0.00  0.00     0.015 A 
ATOM      7  C7  IND d   1      -1.172  -0.150  -1.607  0.00  0.00    -0.016 A 
ATOM      8  C8  IND d   1      -0.080  -0.264  -0.758  0.00  0.00    -0.047 A 
ATOM      9  C9  IND d   1       0.600  -1.476  -0.582  0.00  0.00    -0.096 A 
ATOM     10  HN1 IND d   1       0.279   1.486   0.152  0.00  0.00     0.298 HD
ENDROOT
TORSDOF 0
ENDMDL
