MODEL 1
REMARK minimizedAffinity 10.8533192
REMARK minimizedRMSD -1
REMARK  0 active torsions:
REMARK  status: ('A' for Active; 'I' for Inactive)
ROOT
ATOM      1  C   UNL d   1      -1.317   3.339   2.037  0.00  0.00    -0.002 A 
ATOM      2  C1  UNL d   1      -1.073   1.993   2.274  0.00  0.00     0.010 A 
ATOM      3  C2  UNL d   1      -0.484   1.194   1.292  0.00  0.00     0.041 A 
ATOM      4  C3  UNL d   1      -0.140   1.775   0.056  0.00  0.00    -0.075 A 
ATOM      5  S   UNL d   1       0.591   0.991  -1.294  0.00  0.00     0.015 SA
ATOM      6  C4  UNL d   1       0.598   2.424  -2.217  0.00  0.00     0.022 A 
ATOM      7  C5  UNL d   1       0.059   3.484  -1.528  0.00  0.00     0.026 A 
ATOM      8  C6  UNL d   1      -0.375   3.128  -0.206  0.00  0.00    -0.082 A 
ATOM      9  C7  UNL d   1      -0.974   3.912   0.809  0.00  0.00     0.045 A 
ENDROOT
TORSDOF 0
ENDMDL
