MODEL 1
REMARK minimizedAffinity 7.71531248
REMARK minimizedRMSD -1
REMARK  0 active torsions:
REMARK  status: ('A' for Active; 'I' for Inactive)
ROOT
ATOM      1  C   UNL d   1      -0.089  -0.098  -4.187  0.00  0.00    -0.002 A 
ATOM      2  C1  UNL d   1      -1.141  -0.752  -3.561  0.00  0.00     0.010 A 
ATOM      3  C2  UNL d   1      -1.576  -0.349  -2.297  0.00  0.00     0.041 A 
ATOM      4  C3  UNL d   1      -0.931   0.734  -1.667  0.00  0.00    -0.075 A 
ATOM      5  S   UNL d   1      -1.294   1.402  -0.120  0.00  0.00     0.015 SA
ATOM      6  C4  UNL d   1      -0.061   2.571  -0.253  0.00  0.00     0.022 A 
ATOM      7  C5  UNL d   1       0.621   2.468  -1.443  0.00  0.00     0.026 A 
ATOM      8  C6  UNL d   1       0.130   1.408  -2.278  0.00  0.00    -0.082 A 
ATOM      9  C7  UNL d   1       0.549   0.975  -3.559  0.00  0.00     0.045 A 
ENDROOT
TORSDOF 0
ENDMDL
