MODEL 1
REMARK minimizedAffinity 16.1622753
REMARK minimizedRMSD -1
REMARK  0 active torsions:
REMARK  status: ('A' for Active; 'I' for Inactive)
ROOT
ATOM      1  C   UNL d   1       1.261  -3.247  -1.271  0.00  0.00    -0.002 A 
ATOM      2  C1  UNL d   1       1.884  -4.486  -1.304  0.00  0.00     0.010 A 
ATOM      3  C2  UNL d   1       2.120  -5.131  -2.520  0.00  0.00     0.041 A 
ATOM      4  C3  UNL d   1       1.716  -4.501  -3.715  0.00  0.00    -0.075 A 
ATOM      5  S   UNL d   1       1.902  -5.102  -5.320  0.00  0.00     0.015 SA
ATOM      6  C4  UNL d   1       1.159  -3.727  -6.000  0.00  0.00     0.022 A 
ATOM      7  C5  UNL d   1       0.772  -2.822  -5.040  0.00  0.00     0.026 A 
ATOM      8  C6  UNL d   1       1.087  -3.253  -3.707  0.00  0.00    -0.082 A 
ATOM      9  C7  UNL d   1       0.862  -2.626  -2.458  0.00  0.00     0.045 A 
ENDROOT
TORSDOF 0
ENDMDL
