MODEL 1
REMARK minimizedAffinity 18.5346413
REMARK minimizedRMSD -1
REMARK  0 active torsions:
REMARK  status: ('A' for Active; 'I' for Inactive)
ROOT
ATOM      1  C   UNL d   1       0.669   3.129  -0.595  0.00  0.00    -0.002 A 
ATOM      2  C1  UNL d   1       0.152   2.320   0.407  0.00  0.00     0.010 A 
ATOM      3  C2  UNL d   1      -0.969   1.522   0.168  0.00  0.00     0.041 A 
ATOM      4  C3  UNL d   1      -1.566   1.550  -1.108  0.00  0.00    -0.075 A 
ATOM      5  S   UNL d   1      -2.945   0.657  -1.630  0.00  0.00     0.015 SA
ATOM      6  C4  UNL d   1      -2.879   1.327  -3.196  0.00  0.00     0.022 A 
ATOM      7  C5  UNL d   1      -1.837   2.213  -3.334  0.00  0.00     0.026 A 
ATOM      8  C6  UNL d   1      -1.062   2.356  -2.133  0.00  0.00    -0.082 A 
ATOM      9  C7  UNL d   1       0.074   3.154  -1.859  0.00  0.00     0.045 A 
ENDROOT
TORSDOF 0
ENDMDL
