MODEL 1
REMARK minimizedAffinity 8.20186996
REMARK minimizedRMSD -1
REMARK  0 active torsions:
REMARK  status: ('A' for Active; 'I' for Inactive)
ROOT
ATOM      1  C   UNL d   1      -0.352   1.698   3.550  0.00  0.00    -0.002 A 
ATOM      2  C1  UNL d   1       0.886   2.299   3.372  0.00  0.00     0.010 A 
ATOM      3  C2  UNL d   1       1.216   2.900   2.156  0.00  0.00     0.041 A 
ATOM      4  C3  UNL d   1       0.271   2.887   1.111  0.00  0.00    -0.075 A 
ATOM      5  S   UNL d   1       0.455   3.562  -0.465  0.00  0.00     0.015 SA
ATOM      6  C4  UNL d   1      -1.106   3.068  -0.939  0.00  0.00     0.022 A 
ATOM      7  C5  UNL d   1      -1.765   2.404   0.068  0.00  0.00     0.026 A 
ATOM      8  C6  UNL d   1      -0.983   2.289   1.266  0.00  0.00    -0.082 A 
ATOM      9  C7  UNL d   1      -1.287   1.688   2.512  0.00  0.00     0.045 A 
ENDROOT
TORSDOF 0
ENDMDL
