MODEL 1
REMARK minimizedAffinity 11.74228
REMARK minimizedRMSD -1
REMARK  0 active torsions:
REMARK  status: ('A' for Active; 'I' for Inactive)
ROOT
ATOM      1  C   UNL d   1      -2.252   2.195   1.553  0.00  0.00    -0.002 A 
ATOM      2  C1  UNL d   1      -2.980   3.376   1.568  0.00  0.00     0.010 A 
ATOM      3  C2  UNL d   1      -2.568   4.473   0.809  0.00  0.00     0.041 A 
ATOM      4  C3  UNL d   1      -1.403   4.361   0.025  0.00  0.00    -0.075 A 
ATOM      5  S   UNL d   1      -0.710   5.574  -0.986  0.00  0.00     0.015 SA
ATOM      6  C4  UNL d   1       0.568   4.552  -1.462  0.00  0.00     0.022 A 
ATOM      7  C5  UNL d   1       0.484   3.312  -0.874  0.00  0.00     0.026 A 
ATOM      8  C6  UNL d   1      -0.654   3.182  -0.007  0.00  0.00    -0.082 A 
ATOM      9  C7  UNL d   1      -1.097   2.087   0.774  0.00  0.00     0.045 A 
ENDROOT
TORSDOF 0
ENDMDL
