MODEL 1
REMARK minimizedAffinity 14.2536221
REMARK minimizedRMSD -1
REMARK  0 active torsions:
REMARK  status: ('A' for Active; 'I' for Inactive)
ROOT
ATOM      1  C   UNL d   1       0.325   2.275   0.425  0.00  0.00    -0.002 A 
ATOM      2  C1  UNL d   1       0.980   3.445   0.066  0.00  0.00     0.010 A 
ATOM      3  C2  UNL d   1       0.658   4.102  -1.123  0.00  0.00     0.041 A 
ATOM      4  C3  UNL d   1      -0.344   3.560  -1.952  0.00  0.00    -0.075 A 
ATOM      5  S   UNL d   1      -0.905   4.193  -3.454  0.00  0.00     0.015 SA
ATOM      6  C4  UNL d   1      -2.027   2.926  -3.654  0.00  0.00     0.022 A 
ATOM      7  C5  UNL d   1      -1.988   2.033  -2.610  0.00  0.00     0.026 A 
ATOM      8  C6  UNL d   1      -1.018   2.383  -1.611  0.00  0.00    -0.082 A 
ATOM      9  C7  UNL d   1      -0.668   1.740  -0.400  0.00  0.00     0.045 A 
ENDROOT
TORSDOF 0
ENDMDL
