MODEL 1
REMARK minimizedAffinity 7.74335098
REMARK minimizedRMSD -1
REMARK  0 active torsions:
REMARK  status: ('A' for Active; 'I' for Inactive)
ROOT
ATOM      1  C   UNL d   1      -2.747   1.389   1.767  0.00  0.00    -0.002 A 
ATOM      2  C1  UNL d   1      -2.417   1.402   0.420  0.00  0.00     0.010 A 
ATOM      3  C2  UNL d   1      -1.195   1.925  -0.008  0.00  0.00     0.041 A 
ATOM      4  C3  UNL d   1      -0.300   2.437   0.952  0.00  0.00    -0.075 A 
ATOM      5  S   UNL d   1       1.253   3.127   0.661  0.00  0.00     0.015 SA
ATOM      6  C4  UNL d   1       1.516   3.419   2.320  0.00  0.00     0.022 A 
ATOM      7  C5  UNL d   1       0.455   3.007   3.091  0.00  0.00     0.026 A 
ATOM      8  C6  UNL d   1      -0.609   2.434   2.315  0.00  0.00    -0.082 A 
ATOM      9  C7  UNL d   1      -1.856   1.898   2.717  0.00  0.00     0.045 A 
ENDROOT
TORSDOF 0
ENDMDL
