MODEL 1
REMARK minimizedAffinity 20.8757725
REMARK minimizedRMSD -1
REMARK  0 active torsions:
REMARK  status: ('A' for Active; 'I' for Inactive)
ROOT
ATOM      1  C   UNL d   1       1.980  -2.356   0.334  0.00  0.00    -0.002 A 
ATOM      2  C1  UNL d   1       0.755  -2.601  -0.269  0.00  0.00     0.010 A 
ATOM      3  C2  UNL d   1       0.616  -3.629  -1.203  0.00  0.00     0.041 A 
ATOM      4  C3  UNL d   1       1.739  -4.417  -1.522  0.00  0.00    -0.075 A 
ATOM      5  S   UNL d   1       1.805  -5.731  -2.636  0.00  0.00     0.015 SA
ATOM      6  C4  UNL d   1       3.461  -6.000  -2.337  0.00  0.00     0.022 A 
ATOM      7  C5  UNL d   1       3.968  -5.117  -1.413  0.00  0.00     0.026 A 
ATOM      8  C6  UNL d   1       2.984  -4.191  -0.927  0.00  0.00    -0.082 A 
ATOM      9  C7  UNL d   1       3.093  -3.140   0.015  0.00  0.00     0.045 A 
ENDROOT
TORSDOF 0
ENDMDL
