MODEL 1
REMARK minimizedAffinity 23.4506588
REMARK minimizedRMSD -1
REMARK  0 active torsions:
REMARK  status: ('A' for Active; 'I' for Inactive)
ROOT
ATOM      1  C   UNL d   1       5.996  -5.262   2.164  0.00  0.00    -0.002 A 
ATOM      2  C1  UNL d   1       4.800  -5.940   2.346  0.00  0.00     0.010 A 
ATOM      3  C2  UNL d   1       3.580  -5.270   2.239  0.00  0.00     0.041 A 
ATOM      4  C3  UNL d   1       3.583  -3.893   1.941  0.00  0.00    -0.075 A 
ATOM      5  S   UNL d   1       2.210  -2.865   1.761  0.00  0.00     0.015 SA
ATOM      6  C4  UNL d   1       3.180  -1.501   1.438  0.00  0.00     0.022 A 
ATOM      7  C5  UNL d   1       4.521  -1.805   1.463  0.00  0.00     0.026 A 
ATOM      8  C6  UNL d   1       4.775  -3.188   1.753  0.00  0.00    -0.082 A 
ATOM      9  C7  UNL d   1       5.995  -3.896   1.869  0.00  0.00     0.045 A 
ENDROOT
TORSDOF 0
ENDMDL
