MODEL 1
REMARK minimizedAffinity 2.91831899
REMARK minimizedRMSD -1
REMARK  0 active torsions:
REMARK  status: ('A' for Active; 'I' for Inactive)
ROOT
ATOM      1  N1  IND d   1       0.350   0.620   1.042  0.00  0.00    -0.196 N 
ATOM      2  C2  IND d   1       0.531  -0.484   1.827  0.00  0.00     0.054 A 
ATOM      3  C3  IND d   1      -0.174  -1.530   1.340  0.00  0.00    -0.031 A 
ATOM      4  C4  IND d   1      -1.612  -1.681  -0.790  0.00  0.00     0.051 A 
ATOM      5  C5  IND d   1      -2.107  -0.921  -1.812  0.00  0.00    -0.031 A 
ATOM      6  C6  IND d   1      -1.800   0.419  -1.939  0.00  0.00     0.015 A 
ATOM      7  C7  IND d   1      -0.974   1.047  -1.051  0.00  0.00    -0.016 A 
ATOM      8  C8  IND d   1      -0.475   0.280  -0.008  0.00  0.00    -0.047 A 
ATOM      9  C9  IND d   1      -0.817  -1.069   0.150  0.00  0.00    -0.096 A 
ATOM     10  HN1 IND d   1       0.693   1.396   1.180  0.00  0.00     0.298 HD
ENDROOT
TORSDOF 0
ENDMDL
