MODEL 1
REMARK minimizedAffinity 2.0453217
REMARK minimizedRMSD -1
REMARK  0 active torsions:
REMARK  status: ('A' for Active; 'I' for Inactive)
ROOT
ATOM      1  N1  IND d   1       0.240  -0.652   1.750  0.00  0.00    -0.196 N 
ATOM      2  C2  IND d   1       0.160  -1.089   0.457  0.00  0.00     0.054 A 
ATOM      3  C3  IND d   1       0.802  -0.233  -0.369  0.00  0.00    -0.031 A 
ATOM      4  C4  IND d   1       2.140   1.893   0.196  0.00  0.00     0.051 A 
ATOM      5  C5  IND d   1       2.466   2.715   1.238  0.00  0.00    -0.031 A 
ATOM      6  C6  IND d   1       2.061   2.450   2.531  0.00  0.00     0.015 A 
ATOM      7  C7  IND d   1       1.321   1.342   2.832  0.00  0.00    -0.016 A 
ATOM      8  C8  IND d   1       0.982   0.508   1.775  0.00  0.00    -0.047 A 
ATOM      9  C9  IND d   1       1.354   0.795   0.456  0.00  0.00    -0.096 A 
ATOM     10  HN1 IND d   1      -0.113  -1.038   2.432  0.00  0.00     0.298 HD
ENDROOT
TORSDOF 0
ENDMDL
