MODEL 1
REMARK minimizedAffinity 2.54287338
REMARK minimizedRMSD -1
REMARK  0 active torsions:
REMARK  status: ('A' for Active; 'I' for Inactive)
ROOT
ATOM      1  N1  IND d   1       1.234   0.307   0.360  0.00  0.00    -0.196 N 
ATOM      2  C2  IND d   1       1.070  -0.688   1.284  0.00  0.00     0.054 A 
ATOM      3  C3  IND d   1      -0.024  -1.425   0.992  0.00  0.00    -0.031 A 
ATOM      4  C4  IND d   1      -1.634  -1.242  -1.009  0.00  0.00     0.051 A 
ATOM      5  C5  IND d   1      -1.913  -0.467  -2.099  0.00  0.00    -0.031 A 
ATOM      6  C6  IND d   1      -1.141   0.626  -2.434  0.00  0.00     0.015 A 
ATOM      7  C7  IND d   1      -0.048   0.980  -1.694  0.00  0.00    -0.016 A 
ATOM      8  C8  IND d   1       0.234   0.199  -0.582  0.00  0.00    -0.047 A 
ATOM      9  C9  IND d   1      -0.571  -0.886  -0.213  0.00  0.00    -0.096 A 
ATOM     10  HN1 IND d   1       1.857   0.899   0.366  0.00  0.00     0.298 HD
ENDROOT
TORSDOF 0
ENDMDL
