MODEL 1
REMARK minimizedAffinity -0.671887338
REMARK minimizedRMSD -1
REMARK  0 active torsions:
REMARK  status: ('A' for Active; 'I' for Inactive)
ROOT
ATOM      1  N1  IND d   1       1.460   1.074   2.723  0.00  0.00    -0.196 N 
ATOM      2  C2  IND d   1       2.061   2.209   2.253  0.00  0.00     0.054 A 
ATOM      3  C3  IND d   1       1.897   2.308   0.915  0.00  0.00    -0.031 A 
ATOM      4  C4  IND d   1       0.591   0.776  -0.690  0.00  0.00     0.051 A 
ATOM      5  C5  IND d   1      -0.097  -0.405  -0.732  0.00  0.00    -0.031 A 
ATOM      6  C6  IND d   1      -0.307  -1.166   0.399  0.00  0.00     0.015 A 
ATOM      7  C7  IND d   1       0.155  -0.769   1.622  0.00  0.00    -0.016 A 
ATOM      8  C8  IND d   1       0.860   0.426   1.667  0.00  0.00    -0.047 A 
ATOM      9  C9  IND d   1       1.113   1.182   0.515  0.00  0.00    -0.096 A 
ATOM     10  HN1 IND d   1       1.458   0.810   3.542  0.00  0.00     0.298 HD
ENDROOT
TORSDOF 0
ENDMDL
