MODEL 1
REMARK minimizedAffinity 0.212602794
REMARK minimizedRMSD -1
REMARK  0 active torsions:
REMARK  status: ('A' for Active; 'I' for Inactive)
ROOT
ATOM      1  N1  IND d   1       1.598   1.917   2.361  0.00  0.00    -0.196 N 
ATOM      2  C2  IND d   1       2.569   2.699   1.801  0.00  0.00     0.054 A 
ATOM      3  C3  IND d   1       2.673   2.443   0.477  0.00  0.00    -0.031 A 
ATOM      4  C4  IND d   1       1.283   0.854  -0.996  0.00  0.00     0.051 A 
ATOM      5  C5  IND d   1       0.306  -0.099  -0.928  0.00  0.00    -0.031 A 
ATOM      6  C6  IND d   1      -0.305  -0.433   0.263  0.00  0.00     0.015 A 
ATOM      7  C7  IND d   1       0.032   0.184   1.435  0.00  0.00    -0.016 A 
ATOM      8  C8  IND d   1       1.029   1.147   1.371  0.00  0.00    -0.047 A 
ATOM      9  C9  IND d   1       1.683   1.460   0.172  0.00  0.00    -0.096 A 
ATOM     10  HN1 IND d   1       1.379   1.908   3.193  0.00  0.00     0.298 HD
ENDROOT
TORSDOF 0
ENDMDL
