MODEL 1
REMARK minimizedAffinity -3.95329261
REMARK minimizedRMSD -1
REMARK  0 active torsions:
REMARK  status: ('A' for Active; 'I' for Inactive)
ROOT
ATOM      1  N1  IND d   1      -4.251   5.966   2.141  0.00  0.00    -0.196 N 
ATOM      2  C2  IND d   1      -5.141   5.295   1.350  0.00  0.00     0.054 A 
ATOM      3  C3  IND d   1      -5.927   4.492   2.103  0.00  0.00    -0.031 A 
ATOM      4  C4  IND d   1      -5.994   4.200   4.659  0.00  0.00     0.051 A 
ATOM      5  C5  IND d   1      -5.347   4.575   5.804  0.00  0.00    -0.031 A 
ATOM      6  C6  IND d   1      -4.283   5.453   5.786  0.00  0.00     0.015 A 
ATOM      7  C7  IND d   1      -3.831   6.000   4.618  0.00  0.00    -0.016 A 
ATOM      8  C8  IND d   1      -4.480   5.615   3.454  0.00  0.00    -0.047 A 
ATOM      9  C9  IND d   1      -5.533   4.692   3.461  0.00  0.00    -0.096 A 
ATOM     10  HN1 IND d   1      -3.650   6.515   1.865  0.00  0.00     0.298 HD
ENDROOT
TORSDOF 0
ENDMDL
