MODEL 1
REMARK minimizedAffinity 5.6925416
REMARK minimizedRMSD -1
REMARK  0 active torsions:
REMARK  status: ('A' for Active; 'I' for Inactive)
ROOT
ATOM      1  N1  IND d   1       0.599  -1.789   0.727  0.00  0.00    -0.196 N 
ATOM      2  C2  IND d   1       0.674  -1.786   2.092  0.00  0.00     0.054 A 
ATOM      3  C3  IND d   1      -0.536  -1.508   2.629  0.00  0.00    -0.031 A 
ATOM      4  C4  IND d   1      -2.796  -1.125   1.457  0.00  0.00     0.051 A 
ATOM      5  C5  IND d   1      -3.359  -0.994   0.219  0.00  0.00    -0.031 A 
ATOM      6  C6  IND d   1      -2.617  -1.127  -0.937  0.00  0.00     0.015 A 
ATOM      7  C7  IND d   1      -1.280  -1.408  -0.897  0.00  0.00    -0.016 A 
ATOM      8  C8  IND d   1      -0.704  -1.534   0.359  0.00  0.00    -0.047 A 
ATOM      9  C9  IND d   1      -1.443  -1.359   1.536  0.00  0.00    -0.096 A 
ATOM     10  HN1 IND d   1       1.255  -1.926   0.189  0.00  0.00     0.298 HD
ENDROOT
TORSDOF 0
ENDMDL
