MODEL 1
REMARK minimizedAffinity 2.8950696
REMARK minimizedRMSD -1
REMARK  0 active torsions:
REMARK  status: ('A' for Active; 'I' for Inactive)
ROOT
ATOM      1  N1  IND d   1       2.150   3.000   1.430  0.00  0.00    -0.196 N 
ATOM      2  C2  IND d   1       2.881   3.050   0.276  0.00  0.00     0.054 A 
ATOM      3  C3  IND d   1       2.785   1.879  -0.392  0.00  0.00    -0.031 A 
ATOM      4  C4  IND d   1       1.402  -0.218   0.171  0.00  0.00     0.051 A 
ATOM      5  C5  IND d   1       0.601  -0.751   1.141  0.00  0.00    -0.031 A 
ATOM      6  C6  IND d   1       0.267  -0.046   2.280  0.00  0.00     0.015 A 
ATOM      7  C7  IND d   1       0.714   1.228   2.485  0.00  0.00    -0.016 A 
ATOM      8  C8  IND d   1       1.533   1.771   1.505  0.00  0.00    -0.047 A 
ATOM      9  C9  IND d   1       1.910   1.045   0.368  0.00  0.00    -0.096 A 
ATOM     10  HN1 IND d   1       2.086   3.630   2.012  0.00  0.00     0.298 HD
ENDROOT
TORSDOF 0
ENDMDL
