MODEL 1
REMARK minimizedAffinity 3.47055173
REMARK minimizedRMSD -1
REMARK  0 active torsions:
REMARK  status: ('A' for Active; 'I' for Inactive)
ROOT
ATOM      1  N1  IND d   1       4.043   2.621   2.380  0.00  0.00    -0.196 N 
ATOM      2  C2  IND d   1       2.744   3.028   2.254  0.00  0.00     0.054 A 
ATOM      3  C3  IND d   1       2.384   3.056   0.951  0.00  0.00    -0.031 A 
ATOM      4  C4  IND d   1       3.734   2.376  -1.133  0.00  0.00     0.051 A 
ATOM      5  C5  IND d   1       4.980   1.974  -1.526  0.00  0.00    -0.031 A 
ATOM      6  C6  IND d   1       5.997   1.761  -0.618  0.00  0.00     0.015 A 
ATOM      7  C7  IND d   1       5.802   1.931   0.723  0.00  0.00    -0.016 A 
ATOM      8  C8  IND d   1       4.540   2.346   1.125  0.00  0.00    -0.047 A 
ATOM      9  C9  IND d   1       3.516   2.605   0.205  0.00  0.00    -0.096 A 
ATOM     10  HN1 IND d   1       4.477   2.550   3.119  0.00  0.00     0.298 HD
ENDROOT
TORSDOF 0
ENDMDL
