MODEL 1
REMARK minimizedAffinity 1.98064876
REMARK minimizedRMSD -1
REMARK  0 active torsions:
REMARK  status: ('A' for Active; 'I' for Inactive)
ROOT
ATOM      1  N1  IND d   1      -5.061  -0.323  -0.008  0.00  0.00    -0.196 N 
ATOM      2  C2  IND d   1      -5.218  -1.462   0.732  0.00  0.00     0.054 A 
ATOM      3  C3  IND d   1      -4.092  -2.208   0.691  0.00  0.00    -0.031 A 
ATOM      4  C4  IND d   1      -1.836  -1.704  -0.442  0.00  0.00     0.051 A 
ATOM      5  C5  IND d   1      -1.221  -0.801  -1.264  0.00  0.00    -0.031 A 
ATOM      6  C6  IND d   1      -1.867   0.331  -1.716  0.00  0.00     0.015 A 
ATOM      7  C7  IND d   1      -3.154   0.610  -1.352  0.00  0.00    -0.016 A 
ATOM      8  C8  IND d   1      -3.784  -0.308  -0.523  0.00  0.00    -0.047 A 
ATOM      9  C9  IND d   1      -3.147  -1.480  -0.095  0.00  0.00    -0.096 A 
ATOM     10  HN1 IND d   1      -5.660   0.282  -0.130  0.00  0.00     0.298 HD
ENDROOT
TORSDOF 0
ENDMDL
