MODEL 1
REMARK minimizedAffinity 3.42845774
REMARK minimizedRMSD -1
REMARK  0 active torsions:
REMARK  status: ('A' for Active; 'I' for Inactive)
ROOT
ATOM      1  N1  IND d   1       1.384  -1.171   0.791  0.00  0.00    -0.196 N 
ATOM      2  C2  IND d   1       0.929  -1.644   1.990  0.00  0.00     0.054 A 
ATOM      3  C3  IND d   1      -0.421  -1.716   1.985  0.00  0.00    -0.031 A 
ATOM      4  C4  IND d   1      -2.079  -1.205   0.083  0.00  0.00     0.051 A 
ATOM      5  C5  IND d   1      -2.140  -0.709  -1.189  0.00  0.00    -0.031 A 
ATOM      6  C6  IND d   1      -1.005  -0.337  -1.881  0.00  0.00     0.015 A 
ATOM      7  C7  IND d   1       0.238  -0.458  -1.328  0.00  0.00    -0.016 A 
ATOM      8  C8  IND d   1       0.303  -0.954  -0.034  0.00  0.00    -0.047 A 
ATOM      9  C9  IND d   1      -0.848  -1.294   0.689  0.00  0.00    -0.096 A 
ATOM     10  HN1 IND d   1       2.208  -1.032   0.587  0.00  0.00     0.298 HD
ENDROOT
TORSDOF 0
ENDMDL
