MODEL 1
REMARK minimizedAffinity 1.92003858
REMARK minimizedRMSD -1
REMARK  0 active torsions:
REMARK  status: ('A' for Active; 'I' for Inactive)
ROOT
ATOM      1  N1  IND d   1       1.560  -1.624   1.907  0.00  0.00    -0.196 N 
ATOM      2  C2  IND d   1       0.386  -2.321   1.836  0.00  0.00     0.054 A 
ATOM      3  C3  IND d   1      -0.659  -1.512   2.124  0.00  0.00    -0.031 A 
ATOM      4  C4  IND d   1      -0.681   1.009   2.641  0.00  0.00     0.051 A 
ATOM      5  C5  IND d   1       0.151   2.072   2.855  0.00  0.00    -0.031 A 
ATOM      6  C6  IND d   1       1.522   1.956   2.759  0.00  0.00     0.015 A 
ATOM      7  C7  IND d   1       2.115   0.769   2.433  0.00  0.00    -0.016 A 
ATOM      8  C8  IND d   1       1.274  -0.314   2.222  0.00  0.00    -0.047 A 
ATOM      9  C9  IND d   1      -0.116  -0.212   2.360  0.00  0.00    -0.096 A 
ATOM     10  HN1 IND d   1       2.345  -1.950   1.777  0.00  0.00     0.298 HD
ENDROOT
TORSDOF 0
ENDMDL
