MODEL 1
REMARK minimizedAffinity -1.05111539
REMARK minimizedRMSD -1
REMARK  0 active torsions:
REMARK  status: ('A' for Active; 'I' for Inactive)
ROOT
ATOM      1  N1  IND d   1       3.578   4.873  -0.722  0.00  0.00    -0.196 N 
ATOM      2  C2  IND d   1       3.180   3.661  -0.229  0.00  0.00     0.054 A 
ATOM      3  C3  IND d   1       3.722   2.657  -0.954  0.00  0.00    -0.031 A 
ATOM      4  C4  IND d   1       5.373   2.770  -2.926  0.00  0.00     0.051 A 
ATOM      5  C5  IND d   1       5.999   3.656  -3.758  0.00  0.00    -0.031 A 
ATOM      6  C6  IND d   1       5.849   5.021  -3.615  0.00  0.00     0.015 A 
ATOM      7  C7  IND d   1       5.074   5.552  -2.624  0.00  0.00    -0.016 A 
ATOM      8  C8  IND d   1       4.431   4.656  -1.782  0.00  0.00    -0.047 A 
ATOM      9  C9  IND d   1       4.545   3.269  -1.949  0.00  0.00    -0.096 A 
ATOM     10  HN1 IND d   1       3.337   5.641  -0.420  0.00  0.00     0.298 HD
ENDROOT
TORSDOF 0
ENDMDL
