MODEL 1
REMARK minimizedAffinity 8.83797264
REMARK minimizedRMSD -1
REMARK  0 active torsions:
REMARK  status: ('A' for Active; 'I' for Inactive)
ROOT
ATOM      1  N1  IND d   1      -3.875  -0.929  -0.382  0.00  0.00    -0.196 N 
ATOM      2  C2  IND d   1      -3.586   0.056   0.520  0.00  0.00     0.054 A 
ATOM      3  C3  IND d   1      -2.386   0.611   0.241  0.00  0.00    -0.031 A 
ATOM      4  C4  IND d   1      -0.773   0.128  -1.707  0.00  0.00     0.051 A 
ATOM      5  C5  IND d   1      -0.587  -0.712  -2.768  0.00  0.00    -0.031 A 
ATOM      6  C6  IND d   1      -1.508  -1.687  -3.096  0.00  0.00     0.015 A 
ATOM      7  C7  IND d   1      -2.659  -1.849  -2.379  0.00  0.00    -0.016 A 
ATOM      8  C8  IND d   1      -2.848  -1.002  -1.297  0.00  0.00    -0.047 A 
ATOM      9  C9  IND d   1      -1.897  -0.039  -0.933  0.00  0.00    -0.096 A 
ATOM     10  HN1 IND d   1      -4.581  -1.421  -0.379  0.00  0.00     0.298 HD
ENDROOT
TORSDOF 0
ENDMDL
