MODEL 1
REMARK minimizedAffinity 9.09842205
REMARK minimizedRMSD -1
REMARK  0 active torsions:
REMARK  status: ('A' for Active; 'I' for Inactive)
ROOT
ATOM      1  N1  IND d   1       1.355  -1.032   0.428  0.00  0.00    -0.196 N 
ATOM      2  C2  IND d   1       1.096  -1.130   1.767  0.00  0.00     0.054 A 
ATOM      3  C3  IND d   1      -0.237  -1.129   1.989  0.00  0.00    -0.031 A 
ATOM      4  C4  IND d   1      -2.177  -1.078   0.297  0.00  0.00     0.051 A 
ATOM      5  C5  IND d   1      -2.439  -0.951  -1.038  0.00  0.00    -0.031 A 
ATOM      6  C6  IND d   1      -1.429  -0.845  -1.972  0.00  0.00     0.015 A 
ATOM      7  C7  IND d   1      -0.113  -0.873  -1.605  0.00  0.00    -0.016 A 
ATOM      8  C8  IND d   1       0.156  -0.995  -0.249  0.00  0.00    -0.047 A 
ATOM      9  C9  IND d   1      -0.865  -1.061   0.708  0.00  0.00    -0.096 A 
ATOM     10  HN1 IND d   1       2.136  -0.998   0.069  0.00  0.00     0.298 HD
ENDROOT
TORSDOF 0
ENDMDL
