MODEL 1
REMARK minimizedAffinity 5.36116219
REMARK minimizedRMSD -1
REMARK  0 active torsions:
REMARK  status: ('A' for Active; 'I' for Inactive)
ROOT
ATOM      1  N1  IND d   1      -1.477  -1.362  -0.869  0.00  0.00    -0.196 N 
ATOM      2  C2  IND d   1      -2.723  -0.947  -0.491  0.00  0.00     0.054 A 
ATOM      3  C3  IND d   1      -3.015   0.244  -1.060  0.00  0.00    -0.031 A 
ATOM      4  C4  IND d   1      -1.636   1.642  -2.725  0.00  0.00     0.051 A 
ATOM      5  C5  IND d   1      -0.417   1.691  -3.341  0.00  0.00    -0.031 A 
ATOM      6  C6  IND d   1       0.530   0.703  -3.162  0.00  0.00     0.015 A 
ATOM      7  C7  IND d   1       0.286  -0.381  -2.366  0.00  0.00    -0.016 A 
ATOM      8  C8  IND d   1      -0.948  -0.430  -1.734  0.00  0.00    -0.047 A 
ATOM      9  C9  IND d   1      -1.896   0.591  -1.878  0.00  0.00    -0.096 A 
ATOM     10  HN1 IND d   1      -1.088  -2.084  -0.609  0.00  0.00     0.298 HD
ENDROOT
TORSDOF 0
ENDMDL
