MODEL 1
REMARK minimizedAffinity 2.61707807
REMARK minimizedRMSD -1
REMARK  0 active torsions:
REMARK  status: ('A' for Active; 'I' for Inactive)
ROOT
ATOM      1  N1  IND d   1      -1.568   2.745  -4.014  0.00  0.00    -0.196 N 
ATOM      2  C2  IND d   1      -0.265   2.659  -4.418  0.00  0.00     0.054 A 
ATOM      3  C3  IND d   1       0.334   1.590  -3.848  0.00  0.00    -0.031 A 
ATOM      4  C4  IND d   1      -0.661  -0.211  -2.300  0.00  0.00     0.051 A 
ATOM      5  C5  IND d   1      -1.802  -0.538  -1.622  0.00  0.00    -0.031 A 
ATOM      6  C6  IND d   1      -2.947   0.227  -1.711  0.00  0.00     0.015 A 
ATOM      7  C7  IND d   1      -2.998   1.346  -2.493  0.00  0.00    -0.016 A 
ATOM      8  C8  IND d   1      -1.839   1.685  -3.177  0.00  0.00    -0.047 A 
ATOM      9  C9  IND d   1      -0.661   0.936  -3.058  0.00  0.00    -0.096 A 
ATOM     10  HN1 IND d   1      -2.125   3.359  -4.243  0.00  0.00     0.298 HD
ENDROOT
TORSDOF 0
ENDMDL
