MODEL 1
REMARK minimizedAffinity -3.19976211
REMARK minimizedRMSD -1
REMARK  1 active torsions:
REMARK  status: ('A' for Active; 'I' for Inactive)
REMARK    1  A    between atoms: C3_4  and  O_7 
ROOT
ATOM      1  C   UNL d   1      -2.359  -0.460  -0.453  0.00  0.00    -0.033 A 
ATOM      2  C1  UNL d   1      -1.192  -0.507  -1.218  0.00  0.00     0.039 A 
ATOM      3  C2  UNL d   1       0.056  -0.443  -0.595  0.00  0.00    -0.080 A 
ATOM      4  C3  UNL d   1       0.123  -0.335   0.791  0.00  0.00     0.150 A 
ATOM      5  C4  UNL d   1      -1.035  -0.291   1.560  0.00  0.00    -0.007 A 
ATOM      6  C5  UNL d   1      -2.281  -0.354   0.936  0.00  0.00     0.039 A 
ENDROOT
BRANCH   4   7
ATOM      7  O   UNL d   1       1.319  -0.265   1.443  0.00  0.00    -0.526 OA
ATOM      8  H5  UNL d   1       2.031  -0.277   0.782  0.00  0.00     0.418 HD
ENDBRANCH   4   7
TORSDOF 1
ENDMDL
