MODEL 1
REMARK minimizedAffinity -0.40712744
REMARK minimizedRMSD -1
REMARK  1 active torsions:
REMARK  status: ('A' for Active; 'I' for Inactive)
REMARK    1  A    between atoms: C3_4  and  O_7 
ROOT
ATOM      1  C   UNL d   1       0.876   0.963  -0.971  0.00  0.00    -0.033 A 
ATOM      2  C1  UNL d   1      -0.302   1.011  -1.720  0.00  0.00     0.039 A 
ATOM      3  C2  UNL d   1      -1.424   0.290  -1.309  0.00  0.00    -0.080 A 
ATOM      4  C3  UNL d   1      -1.356  -0.475  -0.147  0.00  0.00     0.150 A 
ATOM      5  C4  UNL d   1      -0.187  -0.525   0.606  0.00  0.00    -0.007 A 
ATOM      6  C5  UNL d   1       0.932   0.196   0.193  0.00  0.00     0.039 A 
ENDROOT
BRANCH   4   7
ATOM      7  O   UNL d   1      -2.423  -1.200   0.292  0.00  0.00    -0.526 OA
ATOM      8  H5  UNL d   1      -3.151  -1.092  -0.343  0.00  0.00     0.418 HD
ENDBRANCH   4   7
TORSDOF 1
ENDMDL
