MODEL 1
REMARK minimizedAffinity -3.32824636
REMARK minimizedRMSD -1
REMARK  1 active torsions:
REMARK  status: ('A' for Active; 'I' for Inactive)
REMARK    1  A    between atoms: C3_4  and  O_7 
ROOT
ATOM      1  C   UNL d   1       0.447   0.062  -0.939  0.00  0.00    -0.033 A 
ATOM      2  C1  UNL d   1      -0.634   0.585  -0.227  0.00  0.00     0.039 A 
ATOM      3  C2  UNL d   1      -0.872   0.173   1.086  0.00  0.00    -0.080 A 
ATOM      4  C3  UNL d   1      -0.023  -0.760   1.674  0.00  0.00     0.150 A 
ATOM      5  C4  UNL d   1       1.058  -1.282   0.972  0.00  0.00    -0.007 A 
ATOM      6  C5  UNL d   1       1.294  -0.870  -0.339  0.00  0.00     0.039 A 
ENDROOT
BRANCH   4   7
ATOM      7  O   UNL d   1      -0.218  -1.197   2.951  0.00  0.00    -0.526 OA
ATOM      8  H5  UNL d   1      -1.018  -0.772   3.302  0.00  0.00     0.418 HD
ENDBRANCH   4   7
TORSDOF 1
ENDMDL
