MODEL 1
REMARK minimizedAffinity -4.58561707
REMARK minimizedRMSD -1
REMARK  1 active torsions:
REMARK  status: ('A' for Active; 'I' for Inactive)
REMARK    1  A    between atoms: C3_4  and  O_7 
ROOT
ATOM      1  C   UNL d   1       1.548  -0.347   2.397  0.00  0.00    -0.033 A 
ATOM      2  C1  UNL d   1       0.176  -0.087   2.431  0.00  0.00     0.039 A 
ATOM      3  C2  UNL d   1      -0.505   0.234   1.256  0.00  0.00    -0.080 A 
ATOM      4  C3  UNL d   1       0.196   0.290   0.054  0.00  0.00     0.150 A 
ATOM      5  C4  UNL d   1       1.561   0.028   0.012  0.00  0.00    -0.007 A 
ATOM      6  C5  UNL d   1       2.240  -0.291   1.187  0.00  0.00     0.039 A 
ENDROOT
BRANCH   4   7
ATOM      7  O   UNL d   1      -0.425   0.603  -1.119  0.00  0.00    -0.526 OA
ATOM      8  H5  UNL d   1      -1.361   0.787  -0.932  0.00  0.00     0.418 HD
ENDBRANCH   4   7
TORSDOF 1
ENDMDL
