MODEL 1
REMARK minimizedAffinity -2.44591236
REMARK minimizedRMSD -1
REMARK  1 active torsions:
REMARK  status: ('A' for Active; 'I' for Inactive)
REMARK    1  A    between atoms: C3_4  and  O_7 
ROOT
ATOM      1  C   UNL d   1      -0.787  -0.258   1.465  0.00  0.00    -0.033 A 
ATOM      2  C1  UNL d   1      -1.070  -0.950   0.286  0.00  0.00     0.039 A 
ATOM      3  C2  UNL d   1      -0.809  -0.360  -0.952  0.00  0.00    -0.080 A 
ATOM      4  C3  UNL d   1      -0.267   0.921  -0.997  0.00  0.00     0.150 A 
ATOM      5  C4  UNL d   1       0.021   1.616   0.173  0.00  0.00    -0.007 A 
ATOM      6  C5  UNL d   1      -0.241   1.025   1.409  0.00  0.00     0.039 A 
ENDROOT
BRANCH   4   7
ATOM      7  O   UNL d   1      -0.000   1.541  -2.182  0.00  0.00    -0.526 OA
ATOM      8  H5  UNL d   1      -0.276   0.953  -2.905  0.00  0.00     0.418 HD
ENDBRANCH   4   7
TORSDOF 1
ENDMDL
