MODEL 1
REMARK minimizedAffinity -5.00927067
REMARK minimizedRMSD -1
REMARK  1 active torsions:
REMARK  status: ('A' for Active; 'I' for Inactive)
REMARK    1  A    between atoms: C3_4  and  O_7 
ROOT
ATOM      1  C   UNL d   1       1.091  -1.610   2.601  0.00  0.00    -0.033 A 
ATOM      2  C1  UNL d   1      -0.021  -0.767   2.654  0.00  0.00     0.039 A 
ATOM      3  C2  UNL d   1      -0.552  -0.235   1.477  0.00  0.00    -0.080 A 
ATOM      4  C3  UNL d   1       0.036  -0.554   0.256  0.00  0.00     0.150 A 
ATOM      5  C4  UNL d   1       1.140  -1.397   0.196  0.00  0.00    -0.007 A 
ATOM      6  C5  UNL d   1       1.670  -1.927   1.372  0.00  0.00     0.039 A 
ENDROOT
BRANCH   4   7
ATOM      7  O   UNL d   1      -0.444  -0.055  -0.918  0.00  0.00    -0.526 OA
ATOM      8  H5  UNL d   1      -1.191   0.534  -0.719  0.00  0.00     0.418 HD
ENDBRANCH   4   7
TORSDOF 1
ENDMDL
