MODEL 1
REMARK minimizedAffinity -3.981215
REMARK minimizedRMSD -1
REMARK  1 active torsions:
REMARK  status: ('A' for Active; 'I' for Inactive)
REMARK    1  A    between atoms: C3_4  and  O_7 
ROOT
ATOM      1  C   UNL d   1       2.363  -1.180   1.828  0.00  0.00    -0.033 A 
ATOM      2  C1  UNL d   1       1.260  -1.645   2.547  0.00  0.00     0.039 A 
ATOM      3  C2  UNL d   1      -0.025  -1.211   2.215  0.00  0.00    -0.080 A 
ATOM      4  C3  UNL d   1      -0.194  -0.314   1.164  0.00  0.00     0.150 A 
ATOM      5  C4  UNL d   1       0.901   0.151   0.442  0.00  0.00    -0.007 A 
ATOM      6  C5  UNL d   1       2.183  -0.283   0.775  0.00  0.00     0.039 A 
ENDROOT
BRANCH   4   7
ATOM      7  O   UNL d   1      -1.428   0.142   0.807  0.00  0.00    -0.526 OA
ATOM      8  H5  UNL d   1      -2.084  -0.242   1.411  0.00  0.00     0.418 HD
ENDBRANCH   4   7
TORSDOF 1
ENDMDL
