MODEL 1
REMARK minimizedAffinity 0.578065991
REMARK minimizedRMSD -1
REMARK  0 active torsions:
REMARK  status: ('A' for Active; 'I' for Inactive)
ROOT
ATOM      1  C   UNL d   1       1.863   0.295   1.076  0.00  0.00     0.023 A 
ATOM      2  C1  UNL d   1       3.202   0.652   0.910  0.00  0.00     0.003 A 
ATOM      3  C2  UNL d   1       3.788   0.598  -0.356  0.00  0.00     0.048 A 
ATOM      4  C3  UNL d   1       3.031   0.189  -1.453  0.00  0.00     0.023 A 
ATOM      5  C4  UNL d   1       1.691  -0.168  -1.292  0.00  0.00     0.048 A 
ATOM      6  C5  UNL d   1       1.109  -0.114  -0.024  0.00  0.00     0.003 A 
ATOM      7  I   UNL d   1       3.901   0.109  -3.338  0.00  0.00    -0.146 I 
ENDROOT
TORSDOF 0
ENDMDL
