MODEL 1
REMARK minimizedAffinity 7.69568157
REMARK minimizedRMSD -1
REMARK  0 active torsions:
REMARK  status: ('A' for Active; 'I' for Inactive)
ROOT
ATOM      1  C   UNL d   1      -0.684   1.613  -1.257  0.00  0.00     0.023 A 
ATOM      2  C1  UNL d   1       0.115   0.469  -1.235  0.00  0.00     0.003 A 
ATOM      3  C2  UNL d   1       1.176   0.375  -0.332  0.00  0.00     0.048 A 
ATOM      4  C3  UNL d   1       1.433   1.428   0.546  0.00  0.00     0.023 A 
ATOM      5  C4  UNL d   1       0.635   2.573   0.528  0.00  0.00     0.048 A 
ATOM      6  C5  UNL d   1      -0.424   2.663  -0.377  0.00  0.00     0.003 A 
ATOM      7  I   UNL d   1       3.012   1.289   1.890  0.00  0.00    -0.146 I 
ENDROOT
TORSDOF 0
ENDMDL
