MODEL 1
REMARK minimizedAffinity 3.00674343
REMARK minimizedRMSD -1
REMARK  0 active torsions:
REMARK  status: ('A' for Active; 'I' for Inactive)
ROOT
ATOM      1  C   UNL d   1      -1.123   1.869  -1.502  0.00  0.00     0.023 A 
ATOM      2  C1  UNL d   1      -0.855   2.770  -0.472  0.00  0.00     0.003 A 
ATOM      3  C2  UNL d   1       0.048   2.431   0.537  0.00  0.00     0.048 A 
ATOM      4  C3  UNL d   1       0.681   1.189   0.509  0.00  0.00     0.023 A 
ATOM      5  C4  UNL d   1       0.417   0.284  -0.520  0.00  0.00     0.048 A 
ATOM      6  C5  UNL d   1      -0.488   0.627  -1.526  0.00  0.00     0.003 A 
ATOM      7  I   UNL d   1       2.026   0.682   2.010  0.00  0.00    -0.146 I 
ENDROOT
TORSDOF 0
ENDMDL
