MODEL 1
REMARK minimizedAffinity 3.92418385
REMARK minimizedRMSD -1
REMARK  0 active torsions:
REMARK  status: ('A' for Active; 'I' for Inactive)
ROOT
ATOM      1  C   UNL d   1      -2.086   3.013  -0.312  0.00  0.00     0.023 A 
ATOM      2  C1  UNL d   1      -0.879   3.590   0.085  0.00  0.00     0.003 A 
ATOM      3  C2  UNL d   1       0.319   2.893  -0.086  0.00  0.00     0.048 A 
ATOM      4  C3  UNL d   1       0.303   1.621  -0.657  0.00  0.00     0.023 A 
ATOM      5  C4  UNL d   1      -0.901   1.041  -1.057  0.00  0.00     0.048 A 
ATOM      6  C5  UNL d   1      -2.097   1.740  -0.882  0.00  0.00     0.003 A 
ATOM      7  I   UNL d   1       2.085   0.583  -0.914  0.00  0.00    -0.146 I 
ENDROOT
TORSDOF 0
ENDMDL
