MODEL 1
REMARK minimizedAffinity 3.27336884
REMARK minimizedRMSD -1
REMARK  0 active torsions:
REMARK  status: ('A' for Active; 'I' for Inactive)
ROOT
ATOM      1  C   UNL d   1       1.976   0.125  -0.302  0.00  0.00     0.023 A 
ATOM      2  C1  UNL d   1       1.958   0.209  -1.694  0.00  0.00     0.003 A 
ATOM      3  C2  UNL d   1       3.032   0.786  -2.374  0.00  0.00     0.048 A 
ATOM      4  C3  UNL d   1       4.123   1.276  -1.656  0.00  0.00     0.023 A 
ATOM      5  C4  UNL d   1       4.146   1.192  -0.263  0.00  0.00     0.048 A 
ATOM      6  C5  UNL d   1       3.069   0.616   0.413  0.00  0.00     0.003 A 
ATOM      7  I   UNL d   1       5.723   2.134  -2.666  0.00  0.00    -0.146 I 
ENDROOT
TORSDOF 0
ENDMDL
