MODEL 1
REMARK minimizedAffinity 3.46498275
REMARK minimizedRMSD -1
REMARK  0 active torsions:
REMARK  status: ('A' for Active; 'I' for Inactive)
ROOT
ATOM      1  C   UNL d   1       1.981   0.115   0.188  0.00  0.00     0.023 A 
ATOM      2  C1  UNL d   1       3.134   0.755   0.644  0.00  0.00     0.003 A 
ATOM      3  C2  UNL d   1       4.104   1.181  -0.265  0.00  0.00     0.048 A 
ATOM      4  C3  UNL d   1       3.915   0.965  -1.629  0.00  0.00     0.023 A 
ATOM      5  C4  UNL d   1       2.763   0.326  -2.091  0.00  0.00     0.048 A 
ATOM      6  C5  UNL d   1       1.796  -0.099  -1.178  0.00  0.00     0.003 A 
ATOM      7  I   UNL d   1       5.358   1.598  -2.985  0.00  0.00    -0.146 I 
ENDROOT
TORSDOF 0
ENDMDL
