MODEL 1
REMARK minimizedAffinity 10.4381828
REMARK minimizedRMSD -1
REMARK  0 active torsions:
REMARK  status: ('A' for Active; 'I' for Inactive)
ROOT
ATOM      1  C   UNL d   1       2.563   0.060  -0.213  0.00  0.00     0.023 A 
ATOM      2  C1  UNL d   1       3.623   0.654   0.473  0.00  0.00     0.003 A 
ATOM      3  C2  UNL d   1       4.564   1.417  -0.221  0.00  0.00     0.048 A 
ATOM      4  C3  UNL d   1       4.439   1.584  -1.599  0.00  0.00     0.023 A 
ATOM      5  C4  UNL d   1       3.380   0.992  -2.289  0.00  0.00     0.048 A 
ATOM      6  C5  UNL d   1       2.442   0.229  -1.592  0.00  0.00     0.003 A 
ATOM      7  I   UNL d   1       5.839   2.720  -2.634  0.00  0.00    -0.146 I 
ENDROOT
TORSDOF 0
ENDMDL
