MODEL 1
REMARK minimizedAffinity 0.413722157
REMARK minimizedRMSD -1
REMARK  0 active torsions:
REMARK  status: ('A' for Active; 'I' for Inactive)
ROOT
ATOM      1  C   UNL d   1      -0.127  -0.895  -0.073  0.00  0.00     0.124 A 
ATOM      2  C1  UNL d   1       1.063  -0.357   0.398  0.00  0.00     0.062 A 
ATOM      3  C2  UNL d   1       1.049   0.578   1.429  0.00  0.00     0.162 A 
ATOM      4  C3  UNL d   1      -0.160   0.980   1.997  0.00  0.00    -0.034 A 
ATOM      5  C4  UNL d   1      -1.352   0.436   1.518  0.00  0.00     0.162 A 
ATOM      6  C5  UNL d   1      -1.333  -0.498   0.487  0.00  0.00     0.062 A 
ATOM      7  F   UNL d   1      -2.483  -1.017   0.033  0.00  0.00    -0.097 F 
ATOM      8  F1  UNL d   1      -2.532   0.801   2.041  0.00  0.00    -0.096 F 
ATOM      9  I   UNL d   1      -0.185   2.378   3.539  0.00  0.00    -0.060 I 
ATOM     10  F2  UNL d   1       2.214   1.081   1.864  0.00  0.00    -0.096 F 
ATOM     11  F3  UNL d   1       2.230  -0.738  -0.142  0.00  0.00    -0.097 F 
ATOM     12  F4  UNL d   1      -0.110  -1.794  -1.066  0.00  0.00    -0.092 F 
ENDROOT
TORSDOF 0
ENDMDL
