MODEL 1
REMARK minimizedAffinity -0.872679055
REMARK minimizedRMSD -1
REMARK  0 active torsions:
REMARK  status: ('A' for Active; 'I' for Inactive)
ROOT
ATOM      1  C   UNL d   1       1.424   1.351  -3.741  0.00  0.00     0.124 A 
ATOM      2  C1  UNL d   1       0.692   0.213  -3.432  0.00  0.00     0.062 A 
ATOM      3  C2  UNL d   1       0.720  -0.309  -2.142  0.00  0.00     0.162 A 
ATOM      4  C3  UNL d   1       1.483   0.307  -1.150  0.00  0.00    -0.034 A 
ATOM      5  C4  UNL d   1       2.218   1.451  -1.469  0.00  0.00     0.162 A 
ATOM      6  C5  UNL d   1       2.187   1.968  -2.759  0.00  0.00     0.062 A 
ATOM      7  F   UNL d   1       2.895   3.068  -3.056  0.00  0.00    -0.097 F 
ATOM      8  F1  UNL d   1       2.962   2.068  -0.539  0.00  0.00    -0.096 F 
ATOM      9  I   UNL d   1       1.528  -0.470   0.780  0.00  0.00    -0.060 I 
ATOM     10  F2  UNL d   1       0.003  -1.410  -1.872  0.00  0.00    -0.096 F 
ATOM     11  F3  UNL d   1      -0.045  -0.386  -4.379  0.00  0.00    -0.097 F 
ATOM     12  F4  UNL d   1       1.396   1.850  -4.983  0.00  0.00    -0.092 F 
ENDROOT
TORSDOF 0
ENDMDL
