MODEL 1
REMARK minimizedAffinity 7.32280111
REMARK minimizedRMSD -1
REMARK  0 active torsions:
REMARK  status: ('A' for Active; 'I' for Inactive)
ROOT
ATOM      1  C   UNL d   1       1.203   1.482  -3.657  0.00  0.00     0.124 A 
ATOM      2  C1  UNL d   1       1.653   1.855  -2.398  0.00  0.00     0.062 A 
ATOM      3  C2  UNL d   1       1.074   1.307  -1.257  0.00  0.00     0.162 A 
ATOM      4  C3  UNL d   1       0.038   0.380  -1.369  0.00  0.00    -0.034 A 
ATOM      5  C4  UNL d   1      -0.410   0.011  -2.639  0.00  0.00     0.162 A 
ATOM      6  C5  UNL d   1       0.172   0.561  -3.776  0.00  0.00     0.062 A 
ATOM      7  F   UNL d   1      -0.264   0.200  -4.992  0.00  0.00    -0.097 F 
ATOM      8  F1  UNL d   1      -1.404  -0.878  -2.783  0.00  0.00    -0.096 F 
ATOM      9  I   UNL d   1      -0.831  -0.441   0.334  0.00  0.00    -0.060 I 
ATOM     10  F2  UNL d   1       1.529   1.686  -0.053  0.00  0.00    -0.096 F 
ATOM     11  F3  UNL d   1       2.648   2.746  -2.279  0.00  0.00    -0.097 F 
ATOM     12  F4  UNL d   1       1.761   2.012  -4.753  0.00  0.00    -0.092 F 
ENDROOT
TORSDOF 0
ENDMDL
