MODEL 1
REMARK minimizedAffinity 12.1243858
REMARK minimizedRMSD -1
REMARK  0 active torsions:
REMARK  status: ('A' for Active; 'I' for Inactive)
ROOT
ATOM      1  C   UNL d   1      -2.487   0.425  -0.620  0.00  0.00     0.124 A 
ATOM      2  C1  UNL d   1      -2.196  -0.874  -0.226  0.00  0.00     0.062 A 
ATOM      3  C2  UNL d   1      -0.900  -1.217   0.151  0.00  0.00     0.162 A 
ATOM      4  C3  UNL d   1       0.114  -0.259   0.136  0.00  0.00    -0.034 A 
ATOM      5  C4  UNL d   1      -0.187   1.044  -0.263  0.00  0.00     0.162 A 
ATOM      6  C5  UNL d   1      -1.483   1.382  -0.639  0.00  0.00     0.062 A 
ATOM      7  F   UNL d   1      -1.763   2.637  -1.020  0.00  0.00    -0.097 F 
ATOM      8  F1  UNL d   1       0.764   1.989  -0.290  0.00  0.00    -0.096 F 
ATOM      9  I   UNL d   1       2.052  -0.768   0.698  0.00  0.00    -0.060 I 
ATOM     10  F2  UNL d   1      -0.647  -2.479   0.528  0.00  0.00    -0.096 F 
ATOM     11  F3  UNL d   1      -3.164  -1.801  -0.208  0.00  0.00    -0.097 F 
ATOM     12  F4  UNL d   1      -3.734   0.752  -0.983  0.00  0.00    -0.092 F 
ENDROOT
TORSDOF 0
ENDMDL
