MODEL 1
REMARK minimizedAffinity 4.23438406
REMARK minimizedRMSD -1
REMARK  0 active torsions:
REMARK  status: ('A' for Active; 'I' for Inactive)
ROOT
ATOM      1  C   UNL d   1      -0.511   0.207   1.981  0.00  0.00     0.124 A 
ATOM      2  C1  UNL d   1       0.634  -0.406   1.490  0.00  0.00     0.062 A 
ATOM      3  C2  UNL d   1       0.803  -0.576   0.119  0.00  0.00     0.162 A 
ATOM      4  C3  UNL d   1      -0.175  -0.132  -0.771  0.00  0.00    -0.034 A 
ATOM      5  C4  UNL d   1      -1.324   0.482  -0.270  0.00  0.00     0.162 A 
ATOM      6  C5  UNL d   1      -1.488   0.650   1.101  0.00  0.00     0.062 A 
ATOM      7  F   UNL d   1      -2.595   1.242   1.574  0.00  0.00    -0.097 F 
ATOM      8  F1  UNL d   1      -2.284   0.920  -1.098  0.00  0.00    -0.096 F 
ATOM      9  I   UNL d   1       0.074  -0.386  -2.822  0.00  0.00    -0.060 I 
ATOM     10  F2  UNL d   1       1.919  -1.171  -0.328  0.00  0.00    -0.096 F 
ATOM     11  F3  UNL d   1       1.579  -0.835   2.338  0.00  0.00    -0.097 F 
ATOM     12  F4  UNL d   1      -0.672   0.369   3.301  0.00  0.00    -0.092 F 
ENDROOT
TORSDOF 0
ENDMDL
