MODEL 1
REMARK minimizedAffinity 7.03676128
REMARK minimizedRMSD -1
REMARK  0 active torsions:
REMARK  status: ('A' for Active; 'I' for Inactive)
ROOT
ATOM      1  C4' PXY d   1      -3.791  -2.521   0.037  0.00  0.00     0.077 C 
ATOM      2  C1' PXY d   1       1.276  -5.275   0.427  0.00  0.00     0.077 C 
ATOM      3  C1  PXY d   1      -0.046  -4.541   0.326  0.00  0.00    -0.082 A 
ATOM      4  C2  PXY d   1      -1.169  -5.171   0.632  0.00  0.00     0.003 A 
ATOM      5  C3  PXY d   1      -2.377  -4.533   0.515  0.00  0.00     0.003 A 
ATOM      6  C4  PXY d   1      -2.432  -3.219   0.133  0.00  0.00    -0.082 A 
ATOM      7  C5  PXY d   1      -1.290  -2.566  -0.170  0.00  0.00     0.003 A 
ATOM      8  C6  PXY d   1      -0.078  -3.244  -0.085  0.00  0.00     0.003 A 
ENDROOT
TORSDOF 0
ENDMDL
