MODEL 1
REMARK minimizedAffinity 4.61676645
REMARK minimizedRMSD -1
REMARK  0 active torsions:
REMARK  status: ('A' for Active; 'I' for Inactive)
ROOT
ATOM      1  C4' PXY d   1      -1.232  -3.081   0.708  0.00  0.00     0.077 C 
ATOM      2  C1' PXY d   1      -4.321   0.773  -2.297  0.00  0.00     0.077 C 
ATOM      3  C1  PXY d   1      -3.520  -0.238  -1.499  0.00  0.00    -0.082 A 
ATOM      4  C2  PXY d   1      -2.215  -0.341  -1.697  0.00  0.00     0.003 A 
ATOM      5  C3  PXY d   1      -1.481  -1.272  -1.007  0.00  0.00     0.003 A 
ATOM      6  C4  PXY d   1      -2.079  -2.068  -0.068  0.00  0.00    -0.082 A 
ATOM      7  C5  PXY d   1      -3.407  -1.961   0.147  0.00  0.00     0.003 A 
ATOM      8  C6  PXY d   1      -4.142  -1.039  -0.593  0.00  0.00     0.003 A 
ENDROOT
TORSDOF 0
ENDMDL
