MODEL 1
REMARK minimizedAffinity 6.59246588
REMARK minimizedRMSD -1
REMARK  0 active torsions:
REMARK  status: ('A' for Active; 'I' for Inactive)
ROOT
ATOM      1  C4' PXY d   1       5.475  -2.529   3.464  0.00  0.00     0.077 C 
ATOM      2  C1' PXY d   1      -0.002  -1.849   5.181  0.00  0.00     0.077 C 
ATOM      3  C1  PXY d   1       1.430  -2.028   4.718  0.00  0.00    -0.082 A 
ATOM      4  C2  PXY d   1       2.331  -2.516   5.555  0.00  0.00     0.003 A 
ATOM      5  C3  PXY d   1       3.638  -2.655   5.163  0.00  0.00     0.003 A 
ATOM      6  C4  PXY d   1       4.015  -2.340   3.885  0.00  0.00    -0.082 A 
ATOM      7  C5  PXY d   1       3.099  -1.851   3.022  0.00  0.00     0.003 A 
ATOM      8  C6  PXY d   1       1.786  -1.680   3.452  0.00  0.00     0.003 A 
ENDROOT
TORSDOF 0
ENDMDL
