MODEL 1
REMARK minimizedAffinity 4.54911757
REMARK minimizedRMSD -1
REMARK  0 active torsions:
REMARK  status: ('A' for Active; 'I' for Inactive)
ROOT
ATOM      1  C4' PXY d   1      -4.514   0.707  -2.526  0.00  0.00     0.077 C 
ATOM      2  C1' PXY d   1      -1.515  -3.312   0.349  0.00  0.00     0.077 C 
ATOM      3  C1  PXY d   1      -2.311  -2.267  -0.408  0.00  0.00    -0.082 A 
ATOM      4  C2  PXY d   1      -1.696  -1.198  -0.886  0.00  0.00     0.003 A 
ATOM      5  C3  PXY d   1      -2.406  -0.227  -1.546  0.00  0.00     0.003 A 
ATOM      6  C4  PXY d   1      -3.749  -0.378  -1.763  0.00  0.00    -0.082 A 
ATOM      7  C5  PXY d   1      -4.381  -1.472  -1.287  0.00  0.00     0.003 A 
ATOM      8  C6  PXY d   1      -3.650  -2.426  -0.585  0.00  0.00     0.003 A 
ENDROOT
TORSDOF 0
ENDMDL
