MODEL 1
REMARK minimizedAffinity 6.19110298
REMARK minimizedRMSD -1
REMARK  0 active torsions:
REMARK  status: ('A' for Active; 'I' for Inactive)
ROOT
ATOM      1  C4' PXY d   1      -3.065  -2.617   0.011  0.00  0.00     0.077 C 
ATOM      2  C1' PXY d   1       1.589  -5.998   0.586  0.00  0.00     0.077 C 
ATOM      3  C1  PXY d   1       0.374  -5.106   0.425  0.00  0.00    -0.082 A 
ATOM      4  C2  PXY d   1      -0.419  -4.887   1.462  0.00  0.00     0.003 A 
ATOM      5  C3  PXY d   1      -1.539  -4.108   1.326  0.00  0.00     0.003 A 
ATOM      6  C4  PXY d   1      -1.822  -3.504   0.130  0.00  0.00    -0.082 A 
ATOM      7  C5  PXY d   1      -1.012  -3.713  -0.929  0.00  0.00     0.003 A 
ATOM      8  C6  PXY d   1       0.098  -4.540  -0.781  0.00  0.00     0.003 A 
ENDROOT
TORSDOF 0
ENDMDL
