MODEL 1
REMARK minimizedAffinity -1.86913073
REMARK minimizedRMSD -1
REMARK  0 active torsions:
REMARK  status: ('A' for Active; 'I' for Inactive)
ROOT
ATOM      1  C4' PXY d   1      -1.227   2.538  -0.822  0.00  0.00     0.077 C 
ATOM      2  C1' PXY d   1       1.889  -0.860   2.665  0.00  0.00     0.077 C 
ATOM      3  C1  PXY d   1       1.080   0.028   1.741  0.00  0.00    -0.082 A 
ATOM      4  C2  PXY d   1       0.324   0.987   2.251  0.00  0.00     0.003 A 
ATOM      5  C3  PXY d   1      -0.439   1.778   1.432  0.00  0.00     0.003 A 
ATOM      6  C4  PXY d   1      -0.386   1.623   0.073  0.00  0.00    -0.082 A 
ATOM      7  C5  PXY d   1       0.392   0.655  -0.456  0.00  0.00     0.003 A 
ATOM      8  C6  PXY d   1       1.127  -0.166   0.395  0.00  0.00     0.003 A 
ENDROOT
TORSDOF 0
ENDMDL
