MODEL 1
REMARK minimizedAffinity 6.21080732
REMARK minimizedRMSD -1
REMARK  0 active torsions:
REMARK  status: ('A' for Active; 'I' for Inactive)
ROOT
ATOM      1  C4' PXY d   1       0.027   2.600  -0.555  0.00  0.00     0.077 C 
ATOM      2  C1' PXY d   1       1.218  -0.774   3.985  0.00  0.00     0.077 C 
ATOM      3  C1  PXY d   1       0.899   0.119   2.802  0.00  0.00    -0.082 A 
ATOM      4  C2  PXY d   1       0.847  -0.399   1.586  0.00  0.00     0.003 A 
ATOM      5  C3  PXY d   1       0.592   0.400   0.501  0.00  0.00     0.003 A 
ATOM      6  C4  PXY d   1       0.335   1.734   0.669  0.00  0.00    -0.082 A 
ATOM      7  C5  PXY d   1       0.376   2.269   1.908  0.00  0.00     0.003 A 
ATOM      8  C6  PXY d   1       0.678   1.448   2.991  0.00  0.00     0.003 A 
ENDROOT
TORSDOF 0
ENDMDL
