MODEL 1
REMARK minimizedAffinity 8.64297676
REMARK minimizedRMSD -1
REMARK  0 active torsions:
REMARK  status: ('A' for Active; 'I' for Inactive)
ROOT
ATOM      1  C   UNL d   1      -1.991  -5.307  -3.922  0.00  0.00     0.020 A 
ATOM      2  C1  UNL d   1      -1.804  -4.672  -5.149  0.00  0.00     0.020 A 
ATOM      3  C2  UNL d   1      -1.305  -3.368  -5.192  0.00  0.00     0.034 A 
ATOM      4  C3  UNL d   1      -0.993  -2.695  -4.006  0.00  0.00     0.017 A 
ATOM      5  C4  UNL d   1      -1.181  -3.333  -2.774  0.00  0.00     0.017 A 
ATOM      6  C5  UNL d   1      -1.680  -4.639  -2.737  0.00  0.00     0.034 A 
ATOM      7 Cl   UNL d   1      -0.818  -2.567  -1.268  0.00  0.00    -0.070 Cl
ATOM      8 Cl1  UNL d   1      -0.381  -1.084  -4.133  0.00  0.00    -0.070 Cl
ENDROOT
TORSDOF 0
ENDMDL
