MODEL 1
REMARK minimizedAffinity 14.0249338
REMARK minimizedRMSD -1
REMARK  0 active torsions:
REMARK  status: ('A' for Active; 'I' for Inactive)
ROOT
ATOM      1  C   UNL d   1      -0.278   0.374   2.135  0.00  0.00     0.020 A 
ATOM      2  C1  UNL d   1      -0.649  -0.957   2.323  0.00  0.00     0.020 A 
ATOM      3  C2  UNL d   1       0.229  -1.845   2.950  0.00  0.00     0.034 A 
ATOM      4  C3  UNL d   1       1.482  -1.402   3.390  0.00  0.00     0.017 A 
ATOM      5  C4  UNL d   1       1.853  -0.066   3.200  0.00  0.00     0.017 A 
ATOM      6  C5  UNL d   1       0.970   0.818   2.573  0.00  0.00     0.034 A 
ATOM      7 Cl   UNL d   1       3.382   0.553   3.716  0.00  0.00    -0.070 Cl
ATOM      8 Cl1  UNL d   1       2.517  -2.554   4.156  0.00  0.00    -0.070 Cl
ENDROOT
TORSDOF 0
ENDMDL
