MODEL 1
REMARK minimizedAffinity 10.6630764
REMARK minimizedRMSD -1
REMARK  0 active torsions:
REMARK  status: ('A' for Active; 'I' for Inactive)
ROOT
ATOM      1  C   UNL d   1      -1.041  -0.751  -4.874  0.00  0.00     0.020 A 
ATOM      2  C1  UNL d   1       0.002  -0.004  -4.326  0.00  0.00     0.020 A 
ATOM      3  C2  UNL d   1       1.293  -0.533  -4.285  0.00  0.00     0.034 A 
ATOM      4  C3  UNL d   1       1.546  -1.812  -4.793  0.00  0.00     0.017 A 
ATOM      5  C4  UNL d   1       0.500  -2.561  -5.343  0.00  0.00     0.017 A 
ATOM      6  C5  UNL d   1      -0.792  -2.026  -5.382  0.00  0.00     0.034 A 
ATOM      7 Cl   UNL d   1       0.734  -4.147  -5.990  0.00  0.00    -0.070 Cl
ATOM      8 Cl1  UNL d   1       3.168  -2.404  -4.710  0.00  0.00    -0.070 Cl
ENDROOT
TORSDOF 0
ENDMDL
