MODEL 1
REMARK minimizedAffinity 10.2760963
REMARK minimizedRMSD -1
REMARK  0 active torsions:
REMARK  status: ('A' for Active; 'I' for Inactive)
ROOT
ATOM      1  C   UNL d   1       3.496   0.433   4.409  0.00  0.00     0.020 A 
ATOM      2  C1  UNL d   1       2.305   0.141   3.746  0.00  0.00     0.020 A 
ATOM      3  C2  UNL d   1       1.815  -1.167   3.734  0.00  0.00     0.034 A 
ATOM      4  C3  UNL d   1       2.517  -2.187   4.387  0.00  0.00     0.017 A 
ATOM      5  C4  UNL d   1       3.713  -1.892   5.052  0.00  0.00     0.017 A 
ATOM      6  C5  UNL d   1       4.198  -0.581   5.061  0.00  0.00     0.034 A 
ATOM      7 Cl   UNL d   1       4.634  -3.097   5.880  0.00  0.00    -0.070 Cl
ATOM      8 Cl1  UNL d   1       1.853  -3.781   4.332  0.00  0.00    -0.070 Cl
ENDROOT
TORSDOF 0
ENDMDL
