MODEL 1
REMARK minimizedAffinity 4.45028067
REMARK minimizedRMSD -1
REMARK  0 active torsions:
REMARK  status: ('A' for Active; 'I' for Inactive)
ROOT
ATOM      1  C   UNL d   1       3.708  -5.580   6.000  0.00  0.00     0.020 A 
ATOM      2  C1  UNL d   1       4.364  -4.640   5.206  0.00  0.00     0.020 A 
ATOM      3  C2  UNL d   1       3.627  -3.759   4.412  0.00  0.00     0.034 A 
ATOM      4  C3  UNL d   1       2.228  -3.817   4.409  0.00  0.00     0.017 A 
ATOM      5  C4  UNL d   1       1.570  -4.761   5.206  0.00  0.00     0.017 A 
ATOM      6  C5  UNL d   1       2.314  -5.640   6.000  0.00  0.00     0.034 A 
ATOM      7 Cl   UNL d   1      -0.153  -4.892   5.256  0.00  0.00    -0.070 Cl
ATOM      8 Cl1  UNL d   1       1.380  -2.698   3.403  0.00  0.00    -0.070 Cl
ENDROOT
TORSDOF 0
ENDMDL
