MODEL 1
REMARK minimizedAffinity 15.2093277
REMARK minimizedRMSD -1
REMARK  0 active torsions:
REMARK  status: ('A' for Active; 'I' for Inactive)
ROOT
ATOM      1  C   UNL d   1       4.847  -6.000   5.310  0.00  0.00     0.020 A 
ATOM      2  C1  UNL d   1       5.999  -5.285   5.637  0.00  0.00     0.020 A 
ATOM      3  C2  UNL d   1       6.000  -3.891   5.565  0.00  0.00     0.034 A 
ATOM      4  C3  UNL d   1       4.846  -3.206   5.164  0.00  0.00     0.017 A 
ATOM      5  C4  UNL d   1       3.691  -3.924   4.836  0.00  0.00     0.017 A 
ATOM      6  C5  UNL d   1       3.696  -5.321   4.910  0.00  0.00     0.034 A 
ATOM      7 Cl   UNL d   1       2.230  -3.150   4.333  0.00  0.00    -0.070 Cl
ATOM      8 Cl1  UNL d   1       4.918  -1.481   5.098  0.00  0.00    -0.070 Cl
ENDROOT
TORSDOF 0
ENDMDL
