MODEL 1
REMARK minimizedAffinity 12.1351395
REMARK minimizedRMSD -1
REMARK  0 active torsions:
REMARK  status: ('A' for Active; 'I' for Inactive)
ROOT
ATOM      1  C   UNL d   1       0.904  -2.307   3.593  0.00  0.00     0.020 A 
ATOM      2  C1  UNL d   1       0.924  -1.000   3.110  0.00  0.00     0.020 A 
ATOM      3  C2  UNL d   1       1.963  -0.139   3.469  0.00  0.00     0.034 A 
ATOM      4  C3  UNL d   1       2.987  -0.584   4.313  0.00  0.00     0.017 A 
ATOM      5  C4  UNL d   1       2.966  -1.897   4.797  0.00  0.00     0.017 A 
ATOM      6  C5  UNL d   1       1.923  -2.755   4.435  0.00  0.00     0.034 A 
ATOM      7 Cl   UNL d   1       4.194  -2.519   5.842  0.00  0.00    -0.070 Cl
ATOM      8 Cl1  UNL d   1       4.241   0.534   4.715  0.00  0.00    -0.070 Cl
ENDROOT
TORSDOF 0
ENDMDL
