MODEL 1
REMARK minimizedAffinity 5.76869011
REMARK minimizedRMSD -1
REMARK  0 active torsions:
REMARK  status: ('A' for Active; 'I' for Inactive)
ROOT
ATOM      1  C   UNL d   1       1.452  -2.991   3.740  0.00  0.00     0.020 A 
ATOM      2  C1  UNL d   1       2.074  -1.754   3.576  0.00  0.00     0.020 A 
ATOM      3  C2  UNL d   1       3.319  -1.515   4.163  0.00  0.00     0.034 A 
ATOM      4  C3  UNL d   1       3.946  -2.515   4.915  0.00  0.00     0.017 A 
ATOM      5  C4  UNL d   1       3.320  -3.757   5.079  0.00  0.00     0.017 A 
ATOM      6  C5  UNL d   1       2.074  -3.990   4.490  0.00  0.00     0.034 A 
ATOM      7 Cl   UNL d   1       4.031  -5.039   5.993  0.00  0.00    -0.070 Cl
ATOM      8 Cl1  UNL d   1       5.485  -2.152   5.611  0.00  0.00    -0.070 Cl
ENDROOT
TORSDOF 0
ENDMDL
