MODEL 1
REMARK minimizedAffinity 15.3644171
REMARK minimizedRMSD -1
REMARK  0 active torsions:
REMARK  status: ('A' for Active; 'I' for Inactive)
ROOT
ATOM      1  C   UNL d   1       0.374  -1.862  -2.980  0.00  0.00     0.020 A 
ATOM      2  C1  UNL d   1       0.128  -0.782  -3.827  0.00  0.00     0.020 A 
ATOM      3  C2  UNL d   1       1.180   0.044  -4.229  0.00  0.00     0.034 A 
ATOM      4  C3  UNL d   1       2.482  -0.208  -3.784  0.00  0.00     0.017 A 
ATOM      5  C4  UNL d   1       2.729  -1.293  -2.934  0.00  0.00     0.017 A 
ATOM      6  C5  UNL d   1       1.672  -2.116  -2.535  0.00  0.00     0.034 A 
ATOM      7 Cl   UNL d   1       4.309  -1.667  -2.344  0.00  0.00    -0.070 Cl
ATOM      8 Cl1  UNL d   1       3.735   0.854  -4.321  0.00  0.00    -0.070 Cl
ENDROOT
TORSDOF 0
ENDMDL
