MODEL 1
REMARK minimizedAffinity -2.18966651
REMARK minimizedRMSD -1
REMARK  0 active torsions:
REMARK  status: ('A' for Active; 'I' for Inactive)
ROOT
ATOM      1  C1  BNZ d   1      -6.000  -1.576  -4.493  0.00  0.00     0.000 A 
ATOM      2  C2  BNZ d   1      -5.999  -0.474  -3.680  0.00  0.00     0.000 A 
ATOM      3  C3  BNZ d   1      -4.871   0.284  -3.530  0.00  0.00     0.000 A 
ATOM      4  C4  BNZ d   1      -3.736  -0.084  -4.160  0.00  0.00     0.000 A 
ATOM      5  C5  BNZ d   1      -3.719  -1.198  -4.976  0.00  0.00     0.000 A 
ATOM      6  C6  BNZ d   1      -4.867  -1.936  -5.155  0.00  0.00     0.000 A 
ENDROOT
TORSDOF 0
ENDMDL
