MODEL 1
REMARK minimizedAffinity -1.46014261
REMARK minimizedRMSD -1
REMARK  0 active torsions:
REMARK  status: ('A' for Active; 'I' for Inactive)
ROOT
ATOM      1  C1  BNZ d   1      -1.835  -0.101  -0.934  0.00  0.00     0.000 A 
ATOM      2  C2  BNZ d   1      -1.371   1.109  -1.378  0.00  0.00     0.000 A 
ATOM      3  C3  BNZ d   1      -0.435   1.804  -0.664  0.00  0.00     0.000 A 
ATOM      4  C4  BNZ d   1       0.005   1.309   0.510  0.00  0.00     0.000 A 
ATOM      5  C5  BNZ d   1      -0.460   0.095   0.976  0.00  0.00     0.000 A 
ATOM      6  C6  BNZ d   1      -1.373  -0.620   0.236  0.00  0.00     0.000 A 
ENDROOT
TORSDOF 0
ENDMDL
