MODEL 1
REMARK minimizedAffinity -1.31074893
REMARK minimizedRMSD -1
REMARK  0 active torsions:
REMARK  status: ('A' for Active; 'I' for Inactive)
ROOT
ATOM      1  C1  BNZ d   1       4.036   3.011   2.479  0.00  0.00     0.000 A 
ATOM      2  C2  BNZ d   1       4.274   4.315   2.824  0.00  0.00     0.000 A 
ATOM      3  C3  BNZ d   1       4.926   5.158   1.969  0.00  0.00     0.000 A 
ATOM      4  C4  BNZ d   1       5.375   4.687   0.788  0.00  0.00     0.000 A 
ATOM      5  C5  BNZ d   1       5.152   3.372   0.429  0.00  0.00     0.000 A 
ATOM      6  C6  BNZ d   1       4.461   2.537   1.276  0.00  0.00     0.000 A 
ENDROOT
TORSDOF 0
ENDMDL
