MODEL 1
REMARK minimizedAffinity 7.24953842
REMARK minimizedRMSD -1
REMARK  0 active torsions:
REMARK  status: ('A' for Active; 'I' for Inactive)
ROOT
ATOM      1  C1  BNZ d   1      -0.625  -1.983   1.314  0.00  0.00     0.000 A 
ATOM      2  C2  BNZ d   1      -1.609  -2.533   0.536  0.00  0.00     0.000 A 
ATOM      3  C3  BNZ d   1      -2.806  -1.894   0.366  0.00  0.00     0.000 A 
ATOM      4  C4  BNZ d   1      -3.032  -0.728   1.006  0.00  0.00     0.000 A 
ATOM      5  C5  BNZ d   1      -2.053  -0.166   1.801  0.00  0.00     0.000 A 
ATOM      6  C6  BNZ d   1      -0.836  -0.793   1.939  0.00  0.00     0.000 A 
ENDROOT
TORSDOF 0
ENDMDL
