MODEL 1
REMARK minimizedAffinity -2.7382648
REMARK minimizedRMSD -1
REMARK  0 active torsions:
REMARK  status: ('A' for Active; 'I' for Inactive)
ROOT
ATOM      1  C1  BNZ d   1      -1.488   0.380   1.471  0.00  0.00     0.000 A 
ATOM      2  C2  BNZ d   1      -0.302  -0.284   1.643  0.00  0.00     0.000 A 
ATOM      3  C3  BNZ d   1      -0.087  -1.497   1.051  0.00  0.00     0.000 A 
ATOM      4  C4  BNZ d   1      -1.070  -2.063   0.323  0.00  0.00     0.000 A 
ATOM      5  C5  BNZ d   1      -2.275  -1.411   0.148  0.00  0.00     0.000 A 
ATOM      6  C6  BNZ d   1      -2.474  -0.172   0.713  0.00  0.00     0.000 A 
ENDROOT
TORSDOF 0
ENDMDL
