MODEL 1
REMARK minimizedAffinity -0.910301626
REMARK minimizedRMSD -1
REMARK  0 active torsions:
REMARK  status: ('A' for Active; 'I' for Inactive)
ROOT
ATOM      1  C1  BNZ d   1      -0.157  -1.582   1.033  0.00  0.00     0.000 A 
ATOM      2  C2  BNZ d   1      -1.041  -0.545   1.169  0.00  0.00     0.000 A 
ATOM      3  C3  BNZ d   1      -0.806   0.660   0.569  0.00  0.00     0.000 A 
ATOM      4  C4  BNZ d   1       0.332   0.839  -0.133  0.00  0.00     0.000 A 
ATOM      5  C5  BNZ d   1       1.238  -0.193  -0.272  0.00  0.00     0.000 A 
ATOM      6  C6  BNZ d   1       0.979  -1.417   0.301  0.00  0.00     0.000 A 
ENDROOT
TORSDOF 0
ENDMDL
