MODEL 1
REMARK minimizedAffinity 14.0686655
REMARK minimizedRMSD -1
REMARK  0 active torsions:
REMARK  status: ('A' for Active; 'I' for Inactive)
ROOT
ATOM      1  C1  BNZ d   1       3.220   1.267   0.604  0.00  0.00     0.000 A 
ATOM      2  C2  BNZ d   1       4.399   0.594   0.782  0.00  0.00     0.000 A 
ATOM      3  C3  BNZ d   1       4.457  -0.765   0.646  0.00  0.00     0.000 A 
ATOM      4  C4  BNZ d   1       3.329  -1.452   0.373  0.00  0.00     0.000 A 
ATOM      5  C5  BNZ d   1       2.131  -0.789   0.200  0.00  0.00     0.000 A 
ATOM      6  C6  BNZ d   1       2.084   0.583   0.299  0.00  0.00     0.000 A 
ENDROOT
TORSDOF 0
ENDMDL
