MODEL 1
REMARK minimizedAffinity 1.74900401
REMARK minimizedRMSD -1
REMARK  0 active torsions:
REMARK  status: ('A' for Active; 'I' for Inactive)
ROOT
ATOM      1  C1  BNZ d   1      -0.899  -2.368   0.070  0.00  0.00     0.000 A 
ATOM      2  C2  BNZ d   1      -2.080  -1.674   0.084  0.00  0.00     0.000 A 
ATOM      3  C3  BNZ d   1      -2.170  -0.460   0.707  0.00  0.00     0.000 A 
ATOM      4  C4  BNZ d   1      -1.093   0.038   1.348  0.00  0.00     0.000 A 
ATOM      5  C5  BNZ d   1       0.101  -0.655   1.351  0.00  0.00     0.000 A 
ATOM      6  C6  BNZ d   1       0.199  -1.857   0.690  0.00  0.00     0.000 A 
ENDROOT
TORSDOF 0
ENDMDL
