MODEL 1
REMARK minimizedAffinity 1.99008608
REMARK minimizedRMSD -1
REMARK  0 active torsions:
REMARK  status: ('A' for Active; 'I' for Inactive)
ROOT
ATOM      1  C1  BNZ d   1       0.608  -2.096   0.722  0.00  0.00     0.000 A 
ATOM      2  C2  BNZ d   1      -0.492  -2.764   0.252  0.00  0.00     0.000 A 
ATOM      3  C3  BNZ d   1      -1.685  -2.117   0.088  0.00  0.00     0.000 A 
ATOM      4  C4  BNZ d   1      -1.788  -0.817   0.430  0.00  0.00     0.000 A 
ATOM      5  C5  BNZ d   1      -0.690  -0.133   0.914  0.00  0.00     0.000 A 
ATOM      6  C6  BNZ d   1       0.519  -0.777   1.041  0.00  0.00     0.000 A 
ENDROOT
TORSDOF 0
ENDMDL
