MODEL 1
REMARK minimizedAffinity 5.65251398
REMARK minimizedRMSD -1
REMARK  0 active torsions:
REMARK  status: ('A' for Active; 'I' for Inactive)
ROOT
ATOM      1  C1  BNZ d   1       3.395  -0.112   0.528  0.00  0.00     0.000 A 
ATOM      2  C2  BNZ d   1       4.388  -1.053   0.472  0.00  0.00     0.000 A 
ATOM      3  C3  BNZ d   1       4.105  -2.352   0.152  0.00  0.00     0.000 A 
ATOM      4  C4  BNZ d   1       2.826  -2.716  -0.072  0.00  0.00     0.000 A 
ATOM      5  C5  BNZ d   1       1.812  -1.780  -0.010  0.00  0.00     0.000 A 
ATOM      6  C6  BNZ d   1       2.105  -0.467   0.275  0.00  0.00     0.000 A 
ENDROOT
TORSDOF 0
ENDMDL
