MODEL 1
REMARK minimizedAffinity 3.30988312
REMARK minimizedRMSD -1
REMARK  0 active torsions:
REMARK  status: ('A' for Active; 'I' for Inactive)
ROOT
ATOM      1  C1  BNZ d   1      -4.701  -5.580  -3.674  0.00  0.00     0.000 A 
ATOM      2  C2  BNZ d   1      -3.377  -5.230  -3.692  0.00  0.00     0.000 A 
ATOM      3  C3  BNZ d   1      -2.667  -5.237  -4.860  0.00  0.00     0.000 A 
ATOM      4  C4  BNZ d   1      -3.270  -5.631  -6.000  0.00  0.00     0.000 A 
ATOM      5  C5  BNZ d   1      -4.602  -5.995  -5.997  0.00  0.00     0.000 A 
ATOM      6  C6  BNZ d   1      -5.324  -5.950  -4.826  0.00  0.00     0.000 A 
ENDROOT
TORSDOF 0
ENDMDL
