MODEL 1
REMARK minimizedAffinity 0.394555628
REMARK minimizedRMSD -1
REMARK  0 active torsions:
REMARK  status: ('A' for Active; 'I' for Inactive)
ROOT
ATOM      1  C1  BNZ d   1      -0.824  -0.886   0.706  0.00  0.00     0.000 A 
ATOM      2  C2  BNZ d   1      -2.020  -0.295   0.397  0.00  0.00     0.000 A 
ATOM      3  C3  BNZ d   1      -2.726   0.392   1.345  0.00  0.00     0.000 A 
ATOM      4  C4  BNZ d   1      -2.256   0.453   2.608  0.00  0.00     0.000 A 
ATOM      5  C5  BNZ d   1      -1.056  -0.146   2.936  0.00  0.00     0.000 A 
ATOM      6  C6  BNZ d   1      -0.329  -0.804   1.971  0.00  0.00     0.000 A 
ENDROOT
TORSDOF 0
ENDMDL
