MODEL 1
REMARK minimizedAffinity 3.98950958
REMARK minimizedRMSD -1
REMARK  0 active torsions:
REMARK  status: ('A' for Active; 'I' for Inactive)
ROOT
ATOM      1  C1  BNZ d   1      -3.640  -0.010  -3.371  0.00  0.00     0.000 A 
ATOM      2  C2  BNZ d   1      -3.656  -1.174  -4.093  0.00  0.00     0.000 A 
ATOM      3  C3  BNZ d   1      -4.838  -1.764  -4.443  0.00  0.00     0.000 A 
ATOM      4  C4  BNZ d   1      -6.000  -1.213  -4.036  0.00  0.00     0.000 A 
ATOM      5  C5  BNZ d   1      -6.000  -0.046  -3.299  0.00  0.00     0.000 A 
ATOM      6  C6  BNZ d   1      -4.809   0.567  -2.982  0.00  0.00     0.000 A 
ENDROOT
TORSDOF 0
ENDMDL
