MODEL 1
REMARK minimizedAffinity 5.78808546
REMARK minimizedRMSD -1
REMARK  1 active torsions:
REMARK  status: ('A' for Active; 'I' for Inactive)
REMARK    1  A    between atoms: C1_2  and  C2_3 
ROOT
ATOM      1  C2  UNL d   1       1.845  -1.598  -1.430  0.00  0.00    -0.077 A 
ATOM      2  C3  UNL d   1       2.820  -2.286  -0.695  0.00  0.00     0.002 A 
ATOM      3  C4  UNL d   1       2.787  -3.680  -0.608  0.00  0.00     0.002 A 
ATOM      4  C5  UNL d   1       1.783  -4.396  -1.257  0.00  0.00    -0.004 A 
ATOM      5  C6  UNL d   1       0.808  -3.720  -1.989  0.00  0.00     0.002 A 
ATOM      6  C7  UNL d   1       0.839  -2.328  -2.076  0.00  0.00     0.002 A 
ENDROOT
BRANCH   1   7
ATOM      7  C1  UNL d   1       1.909  -0.099  -1.566  0.00  0.00     0.055 C 
ATOM      8  C   UNL d   1       2.912   0.503  -0.593  0.00  0.00     0.019 C 
ENDBRANCH   1   7
TORSDOF 1
ENDMDL
