MODEL 1
REMARK minimizedAffinity 9.20849133
REMARK minimizedRMSD -1
REMARK  1 active torsions:
REMARK  status: ('A' for Active; 'I' for Inactive)
REMARK    1  A    between atoms: C1_2  and  C2_3 
ROOT
ATOM      1  C2  UNL d   1       4.503  -4.148  -4.533  0.00  0.00    -0.077 A 
ATOM      2  C3  UNL d   1       4.143  -3.719  -5.818  0.00  0.00     0.002 A 
ATOM      3  C4  UNL d   1       3.046  -2.875  -5.999  0.00  0.00     0.002 A 
ATOM      4  C5  UNL d   1       2.302  -2.451  -4.900  0.00  0.00    -0.004 A 
ATOM      5  C6  UNL d   1       2.650  -2.874  -3.618  0.00  0.00     0.002 A 
ATOM      6  C7  UNL d   1       3.746  -3.718  -3.435  0.00  0.00     0.002 A 
ENDROOT
BRANCH   1   7
ATOM      7  C1  UNL d   1       5.716  -5.018  -4.330  0.00  0.00     0.055 C 
ATOM      8  C   UNL d   1       5.956  -5.298  -2.853  0.00  0.00     0.019 C 
ENDBRANCH   1   7
TORSDOF 1
ENDMDL
