MODEL 1
REMARK minimizedAffinity 8.50907516
REMARK minimizedRMSD -1
REMARK  1 active torsions:
REMARK  status: ('A' for Active; 'I' for Inactive)
REMARK    1  A    between atoms: C1_2  and  C2_3 
ROOT
ATOM      1  C2  UNL d   1      -3.959  -5.771  -1.736  0.00  0.00    -0.077 A 
ATOM      2  C3  UNL d   1      -2.974  -5.874  -0.743  0.00  0.00     0.002 A 
ATOM      3  C4  UNL d   1      -3.336  -5.985   0.601  0.00  0.00     0.002 A 
ATOM      4  C5  UNL d   1      -4.681  -6.000   0.963  0.00  0.00    -0.004 A 
ATOM      5  C6  UNL d   1      -5.667  -5.897  -0.017  0.00  0.00     0.002 A 
ATOM      6  C7  UNL d   1      -5.308  -5.784  -1.360  0.00  0.00     0.002 A 
ENDROOT
BRANCH   1   7
ATOM      7  C1  UNL d   1      -3.572  -5.700  -3.190  0.00  0.00     0.055 C 
ATOM      8  C   UNL d   1      -2.273  -4.931  -3.381  0.00  0.00     0.019 C 
ENDBRANCH   1   7
TORSDOF 1
ENDMDL
