MODEL 1
REMARK minimizedAffinity 4.54295349
REMARK minimizedRMSD -1
REMARK  1 active torsions:
REMARK  status: ('A' for Active; 'I' for Inactive)
REMARK    1  A    between atoms: C1_2  and  C2_3 
ROOT
ATOM      1  C2  UNL d   1       0.475  -2.604   0.340  0.00  0.00    -0.077 A 
ATOM      2  C3  UNL d   1       1.452  -3.604   0.436  0.00  0.00     0.002 A 
ATOM      3  C4  UNL d   1       2.304  -3.865  -0.639  0.00  0.00     0.002 A 
ATOM      4  C5  UNL d   1       2.189  -3.128  -1.816  0.00  0.00    -0.004 A 
ATOM      5  C6  UNL d   1       1.219  -2.132  -1.922  0.00  0.00     0.002 A 
ATOM      6  C7  UNL d   1       0.366  -1.870  -0.848  0.00  0.00     0.002 A 
ENDROOT
BRANCH   1   7
ATOM      7  C1  UNL d   1      -0.412  -2.287   1.516  0.00  0.00     0.055 C 
ATOM      8  C   UNL d   1      -1.488  -1.279   1.142  0.00  0.00     0.019 C 
ENDBRANCH   1   7
TORSDOF 1
ENDMDL
