MODEL 1
REMARK minimizedAffinity 7.14481783
REMARK minimizedRMSD -1
REMARK  1 active torsions:
REMARK  status: ('A' for Active; 'I' for Inactive)
REMARK    1  A    between atoms: C1_2  and  C2_3 
ROOT
ATOM      1  C2  UNL d   1       2.444  -1.536  -1.227  0.00  0.00    -0.077 A 
ATOM      2  C3  UNL d   1       2.868  -0.311  -0.694  0.00  0.00     0.002 A 
ATOM      3  C4  UNL d   1       2.574   0.885  -1.351  0.00  0.00     0.002 A 
ATOM      4  C5  UNL d   1       1.852   0.868  -2.542  0.00  0.00    -0.004 A 
ATOM      5  C6  UNL d   1       1.427  -0.345  -3.082  0.00  0.00     0.002 A 
ATOM      6  C7  UNL d   1       1.721  -1.542  -2.427  0.00  0.00     0.002 A 
ENDROOT
BRANCH   1   7
ATOM      7  C1  UNL d   1       2.717  -2.824  -0.495  0.00  0.00     0.055 C 
ATOM      8  C   UNL d   1       4.168  -2.906  -0.042  0.00  0.00     0.019 C 
ENDBRANCH   1   7
TORSDOF 1
ENDMDL
