MODEL 1
REMARK minimizedAffinity 7.458076
REMARK minimizedRMSD -1
REMARK  1 active torsions:
REMARK  status: ('A' for Active; 'I' for Inactive)
REMARK    1  A    between atoms: C1_2  and  C2_3 
ROOT
ATOM      1  C2  UNL d   1      -3.386   1.558   3.905  0.00  0.00    -0.077 A 
ATOM      2  C3  UNL d   1      -4.166   0.503   3.411  0.00  0.00     0.002 A 
ATOM      3  C4  UNL d   1      -3.662  -0.342   2.420  0.00  0.00     0.002 A 
ATOM      4  C5  UNL d   1      -2.377  -0.145   1.920  0.00  0.00    -0.004 A 
ATOM      5  C6  UNL d   1      -1.595   0.903   2.404  0.00  0.00     0.002 A 
ATOM      6  C7  UNL d   1      -2.097   1.750   3.393  0.00  0.00     0.002 A 
ENDROOT
BRANCH   1   7
ATOM      7  C1  UNL d   1      -3.908   2.441   5.009  0.00  0.00     0.055 C 
ATOM      8  C   UNL d   1      -5.130   3.228   4.556  0.00  0.00     0.019 C 
ENDBRANCH   1   7
TORSDOF 1
ENDMDL
