MODEL 1
REMARK minimizedAffinity 9.63131809
REMARK minimizedRMSD -1
REMARK  1 active torsions:
REMARK  status: ('A' for Active; 'I' for Inactive)
REMARK    1  A    between atoms: C1_2  and  C2_3 
ROOT
ATOM      1  C2  UNL d   1       2.548  -1.087  -1.093  0.00  0.00    -0.077 A 
ATOM      2  C3  UNL d   1       1.770  -1.233  -2.250  0.00  0.00     0.002 A 
ATOM      3  C4  UNL d   1       1.334  -0.110  -2.955  0.00  0.00     0.002 A 
ATOM      4  C5  UNL d   1       1.675   1.167  -2.513  0.00  0.00    -0.004 A 
ATOM      5  C6  UNL d   1       2.446   1.323  -1.362  0.00  0.00     0.002 A 
ATOM      6  C7  UNL d   1       2.882   0.201  -0.656  0.00  0.00     0.002 A 
ENDROOT
BRANCH   1   7
ATOM      7  C1  UNL d   1       3.060  -2.299  -0.359  0.00  0.00     0.055 C 
ATOM      8  C   UNL d   1       2.072  -3.454  -0.441  0.00  0.00     0.019 C 
ENDBRANCH   1   7
TORSDOF 1
ENDMDL
