MODEL 1
REMARK minimizedAffinity 1.55828464
REMARK minimizedRMSD -1
REMARK  1 active torsions:
REMARK  status: ('A' for Active; 'I' for Inactive)
REMARK    1  A    between atoms: C1_2  and  C2_3 
ROOT
ATOM      1  C2  UNL d   1      -3.298  -4.580  -5.563  0.00  0.00    -0.077 A 
ATOM      2  C3  UNL d   1      -4.615  -4.884  -5.933  0.00  0.00     0.002 A 
ATOM      3  C4  UNL d   1      -5.580  -3.878  -5.999  0.00  0.00     0.002 A 
ATOM      4  C5  UNL d   1      -5.238  -2.561  -5.700  0.00  0.00    -0.004 A 
ATOM      5  C6  UNL d   1      -3.931  -2.249  -5.329  0.00  0.00     0.002 A 
ATOM      6  C7  UNL d   1      -2.965  -3.254  -5.261  0.00  0.00     0.002 A 
ENDROOT
BRANCH   1   7
ATOM      7  C1  UNL d   1      -2.244  -5.656  -5.539  0.00  0.00     0.055 C 
ATOM      8  C   UNL d   1      -1.752  -5.918  -4.122  0.00  0.00     0.019 C 
ENDBRANCH   1   7
TORSDOF 1
ENDMDL
