MODEL 1
REMARK minimizedAffinity 3.77875328
REMARK minimizedRMSD -1
REMARK  1 active torsions:
REMARK  status: ('A' for Active; 'I' for Inactive)
REMARK    1  A    between atoms: C1_2  and  C2_3 
ROOT
ATOM      1  C2  UNL d   1       2.474  -3.513  -0.887  0.00  0.00    -0.077 A 
ATOM      2  C3  UNL d   1       1.122  -3.780  -1.143  0.00  0.00     0.002 A 
ATOM      3  C4  UNL d   1       0.244  -2.741  -1.457  0.00  0.00     0.002 A 
ATOM      4  C5  UNL d   1       0.708  -1.430  -1.521  0.00  0.00    -0.004 A 
ATOM      5  C6  UNL d   1       2.051  -1.153  -1.266  0.00  0.00     0.002 A 
ATOM      6  C7  UNL d   1       2.930  -2.190  -0.951  0.00  0.00     0.002 A 
ENDROOT
BRANCH   1   7
ATOM      7  C1  UNL d   1       3.433  -4.638  -0.596  0.00  0.00     0.055 C 
ATOM      8  C   UNL d   1       2.704  -5.966  -0.461  0.00  0.00     0.019 C 
ENDBRANCH   1   7
TORSDOF 1
ENDMDL
