MODEL 1
REMARK minimizedAffinity 7.08060884
REMARK minimizedRMSD -1
REMARK  1 active torsions:
REMARK  status: ('A' for Active; 'I' for Inactive)
REMARK    1  A    between atoms: C1_2  and  C2_3 
ROOT
ATOM      1  C2  UNL d   1       0.251  -3.017  -1.553  0.00  0.00    -0.077 A 
ATOM      2  C3  UNL d   1       0.989  -1.827  -1.477  0.00  0.00     0.002 A 
ATOM      3  C4  UNL d   1       2.276  -1.827  -0.937  0.00  0.00     0.002 A 
ATOM      4  C5  UNL d   1       2.839  -3.014  -0.473  0.00  0.00    -0.004 A 
ATOM      5  C6  UNL d   1       2.113  -4.202  -0.542  0.00  0.00     0.002 A 
ATOM      6  C7  UNL d   1       0.825  -4.204  -1.080  0.00  0.00     0.002 A 
ENDROOT
BRANCH   1   7
ATOM      7  C1  UNL d   1      -1.119  -3.028  -2.179  0.00  0.00     0.055 C 
ATOM      8  C   UNL d   1      -1.556  -4.443  -2.529  0.00  0.00     0.019 C 
ENDBRANCH   1   7
TORSDOF 1
ENDMDL
