MODEL 1
REMARK minimizedAffinity -4.71490812
REMARK minimizedRMSD -1
REMARK  1 active torsions:
REMARK  status: ('A' for Active; 'I' for Inactive)
REMARK    1  A    between atoms: C1_2  and  C2_3 
ROOT
ATOM      1  C2  UNL d   1      -1.155   1.149  -0.990  0.00  0.00    -0.076 A 
ATOM      2  C3  UNL d   1      -1.766   2.377  -0.683  0.00  0.00     0.004 A 
ATOM      3  C4  UNL d   1      -1.960   3.347  -1.666  0.00  0.00    -0.003 A 
ATOM      4  C5  UNL d   1      -1.547   3.103  -2.971  0.00  0.00     0.000 A 
ATOM      5  C6  UNL d   1      -0.954   1.884  -3.296  0.00  0.00     0.000 A 
ATOM      6  C7  UNL d   1      -0.766   0.889  -2.321  0.00  0.00    -0.073 A 
ATOM      7  C8  UNL d   1      -0.116  -0.406  -2.726  0.00  0.00     0.078 C 
ENDROOT
BRANCH   1   8
ATOM      8  C1  UNL d   1      -0.946   0.147   0.123  0.00  0.00     0.053 C 
ATOM      9  C   UNL d   1       0.447   0.227   0.726  0.00  0.00     0.018 C 
ENDBRANCH   1   8
TORSDOF 1
ENDMDL
