MODEL 1
REMARK minimizedAffinity -2.77457333
REMARK minimizedRMSD -1
REMARK  1 active torsions:
REMARK  status: ('A' for Active; 'I' for Inactive)
REMARK    1  A    between atoms: C1_2  and  C2_3 
ROOT
ATOM      1  C2  UNL d   1       0.279  -0.376  -0.359  0.00  0.00    -0.076 A 
ATOM      2  C3  UNL d   1      -0.763  -0.039   0.523  0.00  0.00     0.004 A 
ATOM      3  C4  UNL d   1      -0.624  -0.219   1.898  0.00  0.00    -0.003 A 
ATOM      4  C5  UNL d   1       0.559  -0.738   2.414  0.00  0.00     0.000 A 
ATOM      5  C6  UNL d   1       1.609  -1.060   1.554  0.00  0.00     0.000 A 
ATOM      6  C7  UNL d   1       1.491  -0.870   0.167  0.00  0.00    -0.073 A 
ATOM      7  C8  UNL d   1       2.653  -1.240  -0.714  0.00  0.00     0.078 C 
ENDROOT
BRANCH   1   8
ATOM      8  C1  UNL d   1       0.061  -0.184  -1.843  0.00  0.00     0.053 C 
ATOM      9  C   UNL d   1      -0.421   1.217  -2.185  0.00  0.00     0.018 C 
ENDBRANCH   1   8
TORSDOF 1
ENDMDL
