MODEL 1
REMARK minimizedAffinity 2.41208124
REMARK minimizedRMSD -1
REMARK  1 active torsions:
REMARK  status: ('A' for Active; 'I' for Inactive)
REMARK    1  A    between atoms: C1_2  and  C2_3 
ROOT
ATOM      1  C2  UNL d   1       1.354  -0.392   0.518  0.00  0.00    -0.076 A 
ATOM      2  C3  UNL d   1       2.047  -0.585   1.726  0.00  0.00     0.004 A 
ATOM      3  C4  UNL d   1       1.366  -0.895   2.902  0.00  0.00    -0.003 A 
ATOM      4  C5  UNL d   1      -0.019  -1.018   2.889  0.00  0.00     0.000 A 
ATOM      5  C6  UNL d   1      -0.721  -0.848   1.696  0.00  0.00     0.000 A 
ATOM      6  C7  UNL d   1      -0.048  -0.551   0.498  0.00  0.00    -0.073 A 
ATOM      7  C8  UNL d   1      -0.856  -0.372  -0.758  0.00  0.00     0.078 C 
ENDROOT
BRANCH   1   8
ATOM      8  C1  UNL d   1       2.143  -0.031  -0.720  0.00  0.00     0.053 C 
ATOM      9  C   UNL d   1       2.414  -1.235  -1.610  0.00  0.00     0.018 C 
ENDBRANCH   1   8
TORSDOF 1
ENDMDL
