MODEL 1
REMARK minimizedAffinity -0.606448889
REMARK minimizedRMSD -1
REMARK  0 active torsions:
REMARK  status: ('A' for Active; 'I' for Inactive)
ROOT
ATOM      1  C   UNL d   1      -6.000   2.863  -3.189  0.00  0.00     0.023 A 
ATOM      2  C1  UNL d   1      -4.980   2.639  -2.263  0.00  0.00     0.003 A 
ATOM      3  C2  UNL d   1      -3.648   2.845  -2.627  0.00  0.00     0.048 A 
ATOM      4  C3  UNL d   1      -3.342   3.276  -3.917  0.00  0.00     0.023 A 
ATOM      5  C4  UNL d   1      -4.359   3.502  -4.846  0.00  0.00     0.048 A 
ATOM      6  C5  UNL d   1      -5.689   3.294  -4.478  0.00  0.00     0.003 A 
ATOM      7  I   UNL d   1      -1.360   3.584  -4.461  0.00  0.00    -0.146 I 
ENDROOT
TORSDOF 0
ENDMDL
