MODEL 1
REMARK minimizedAffinity -0.832108855
REMARK minimizedRMSD -1
REMARK  0 active torsions:
REMARK  status: ('A' for Active; 'I' for Inactive)
ROOT
ATOM      1  C   UNL d   1       1.226   0.636   1.240  0.00  0.00     0.023 A 
ATOM      2  C1  UNL d   1       1.333   1.222  -0.022  0.00  0.00     0.003 A 
ATOM      3  C2  UNL d   1       1.448   0.420  -1.159  0.00  0.00     0.048 A 
ATOM      4  C3  UNL d   1       1.455  -0.968  -1.027  0.00  0.00     0.023 A 
ATOM      5  C4  UNL d   1       1.348  -1.560   0.233  0.00  0.00     0.048 A 
ATOM      6  C5  UNL d   1       1.233  -0.753   1.367  0.00  0.00     0.003 A 
ATOM      7  I   UNL d   1       1.627  -2.165  -2.718  0.00  0.00    -0.146 I 
ENDROOT
TORSDOF 0
ENDMDL
