MODEL 1
REMARK minimizedAffinity 4.44036341
REMARK minimizedRMSD -1
REMARK  0 active torsions:
REMARK  status: ('A' for Active; 'I' for Inactive)
ROOT
ATOM      1  C   UNL d   1       3.322  -0.294  -1.833  0.00  0.00     0.023 A 
ATOM      2  C1  UNL d   1       3.031   0.943  -1.258  0.00  0.00     0.003 A 
ATOM      3  C2  UNL d   1       2.336   1.007  -0.048  0.00  0.00     0.048 A 
ATOM      4  C3  UNL d   1       1.936  -0.171   0.582  0.00  0.00     0.023 A 
ATOM      5  C4  UNL d   1       2.225  -1.412   0.010  0.00  0.00     0.048 A 
ATOM      6  C5  UNL d   1       2.919  -1.470  -1.200  0.00  0.00     0.003 A 
ATOM      7  I   UNL d   1       0.902  -0.080   2.382  0.00  0.00    -0.146 I 
ENDROOT
TORSDOF 0
ENDMDL
