MODEL 1
REMARK minimizedAffinity 5.94686317
REMARK minimizedRMSD -1
REMARK  0 active torsions:
REMARK  status: ('A' for Active; 'I' for Inactive)
ROOT
ATOM      1  C   UNL d   1      -1.366   0.109   2.428  0.00  0.00     0.023 A 
ATOM      2  C1  UNL d   1      -2.750  -0.044   2.341  0.00  0.00     0.003 A 
ATOM      3  C2  UNL d   1      -3.313  -1.321   2.339  0.00  0.00     0.048 A 
ATOM      4  C3  UNL d   1      -2.488  -2.441   2.426  0.00  0.00     0.023 A 
ATOM      5  C4  UNL d   1      -1.103  -2.293   2.514  0.00  0.00     0.048 A 
ATOM      6  C5  UNL d   1      -0.543  -1.014   2.515  0.00  0.00     0.003 A 
ATOM      7  I   UNL d   1      -3.324  -4.344   2.423  0.00  0.00    -0.146 I 
ENDROOT
TORSDOF 0
ENDMDL
