MODEL 1
REMARK minimizedAffinity 3.40352869
REMARK minimizedRMSD -1
REMARK  0 active torsions:
REMARK  status: ('A' for Active; 'I' for Inactive)
ROOT
ATOM      1  C   UNL d   1       0.987  -0.260   0.700  0.00  0.00     0.023 A 
ATOM      2  C1  UNL d   1       1.912  -1.303   0.635  0.00  0.00     0.003 A 
ATOM      3  C2  UNL d   1       2.919  -1.284  -0.332  0.00  0.00     0.048 A 
ATOM      4  C3  UNL d   1       2.997  -0.220  -1.229  0.00  0.00     0.023 A 
ATOM      5  C4  UNL d   1       2.075   0.826  -1.167  0.00  0.00     0.048 A 
ATOM      6  C5  UNL d   1       1.069   0.803  -0.199  0.00  0.00     0.003 A 
ATOM      7  I   UNL d   1       4.496  -0.190  -2.669  0.00  0.00    -0.146 I 
ENDROOT
TORSDOF 0
ENDMDL
