MODEL 1
REMARK minimizedAffinity 4.29986095
REMARK minimizedRMSD -1
REMARK  0 active torsions:
REMARK  status: ('A' for Active; 'I' for Inactive)
ROOT
ATOM      1  C   UNL d   1       0.861  -0.266   0.552  0.00  0.00     0.023 A 
ATOM      2  C1  UNL d   1       1.603   0.901   0.368  0.00  0.00     0.003 A 
ATOM      3  C2  UNL d   1       2.796   0.864  -0.357  0.00  0.00     0.048 A 
ATOM      4  C3  UNL d   1       3.240  -0.343  -0.896  0.00  0.00     0.023 A 
ATOM      5  C4  UNL d   1       2.500  -1.513  -0.715  0.00  0.00     0.048 A 
ATOM      6  C5  UNL d   1       1.308  -1.471   0.012  0.00  0.00     0.003 A 
ATOM      7  I   UNL d   1       5.015  -0.401  -1.976  0.00  0.00    -0.146 I 
ENDROOT
TORSDOF 0
ENDMDL
