MODEL 1
REMARK minimizedAffinity 3.81867599
REMARK minimizedRMSD -1
REMARK  0 active torsions:
REMARK  status: ('A' for Active; 'I' for Inactive)
ROOT
ATOM      1  C   UNL d   1       3.331  -0.543  -1.151  0.00  0.00     0.023 A 
ATOM      2  C1  UNL d   1       2.818   0.623  -0.584  0.00  0.00     0.003 A 
ATOM      3  C2  UNL d   1       1.745   0.554   0.307  0.00  0.00     0.048 A 
ATOM      4  C3  UNL d   1       1.191  -0.684   0.628  0.00  0.00     0.023 A 
ATOM      5  C4  UNL d   1       1.702  -1.854   0.063  0.00  0.00     0.048 A 
ATOM      6  C5  UNL d   1       2.774  -1.780  -0.828  0.00  0.00     0.003 A 
ATOM      7  I   UNL d   1      -0.405  -0.790   1.954  0.00  0.00    -0.146 I 
ENDROOT
TORSDOF 0
ENDMDL
