MODEL 1
REMARK minimizedAffinity 2.98284888
REMARK minimizedRMSD -1
REMARK  0 active torsions:
REMARK  status: ('A' for Active; 'I' for Inactive)
ROOT
ATOM      1  C   UNL d   1       2.457   0.309  -0.073  0.00  0.00     0.023 A 
ATOM      2  C1  UNL d   1       2.195  -1.004  -0.467  0.00  0.00     0.003 A 
ATOM      3  C2  UNL d   1       1.046  -1.654  -0.015  0.00  0.00     0.048 A 
ATOM      4  C3  UNL d   1       0.161  -0.987   0.831  0.00  0.00     0.023 A 
ATOM      5  C4  UNL d   1       0.418   0.327   1.228  0.00  0.00     0.048 A 
ATOM      6  C5  UNL d   1       1.569   0.973   0.774  0.00  0.00     0.003 A 
ATOM      7  I   UNL d   1      -1.551  -1.953   1.506  0.00  0.00    -0.146 I 
ENDROOT
TORSDOF 0
ENDMDL
