MODEL 1
REMARK minimizedAffinity -0.694712341
REMARK minimizedRMSD -1
REMARK  0 active torsions:
REMARK  status: ('A' for Active; 'I' for Inactive)
ROOT
ATOM      1  C   UNL d   1       2.368  -0.306  -0.772  0.00  0.00     0.023 A 
ATOM      2  C1  UNL d   1       1.973  -1.620  -0.519  0.00  0.00     0.003 A 
ATOM      3  C2  UNL d   1       0.925  -1.877   0.367  0.00  0.00     0.048 A 
ATOM      4  C3  UNL d   1       0.276  -0.816   0.996  0.00  0.00     0.023 A 
ATOM      5  C4  UNL d   1       0.666   0.501   0.745  0.00  0.00     0.048 A 
ATOM      6  C5  UNL d   1       1.715   0.753  -0.141  0.00  0.00     0.003 A 
ATOM      7  I   UNL d   1      -1.285  -1.196   2.315  0.00  0.00    -0.146 I 
ENDROOT
TORSDOF 0
ENDMDL
