MODEL 1
REMARK minimizedAffinity 3.8847928
REMARK minimizedRMSD -1
REMARK  0 active torsions:
REMARK  status: ('A' for Active; 'I' for Inactive)
ROOT
ATOM      1  C   UNL d   1      -0.356  -0.208   2.636  0.00  0.00     0.023 A 
ATOM      2  C1  UNL d   1       0.629   0.626   2.108  0.00  0.00     0.003 A 
ATOM      3  C2  UNL d   1       1.348   0.233   0.978  0.00  0.00     0.048 A 
ATOM      4  C3  UNL d   1       1.075  -0.996   0.378  0.00  0.00     0.023 A 
ATOM      5  C4  UNL d   1       0.090  -1.834   0.902  0.00  0.00     0.048 A 
ATOM      6  C5  UNL d   1      -0.626  -1.437   2.033  0.00  0.00     0.003 A 
ATOM      7  I   UNL d   1       2.143  -1.584  -1.305  0.00  0.00    -0.146 I 
ENDROOT
TORSDOF 0
ENDMDL
