MODEL 1
REMARK minimizedAffinity 4.68421221
REMARK minimizedRMSD -1
REMARK  0 active torsions:
REMARK  status: ('A' for Active; 'I' for Inactive)
ROOT
ATOM      1  C   UNL d   1       2.220  -0.043  -0.938  0.00  0.00     0.023 A 
ATOM      2  C1  UNL d   1       1.711  -1.254  -0.470  0.00  0.00     0.003 A 
ATOM      3  C2  UNL d   1       0.990  -1.295   0.725  0.00  0.00     0.048 A 
ATOM      4  C3  UNL d   1       0.780  -0.120   1.446  0.00  0.00     0.023 A 
ATOM      5  C4  UNL d   1       1.287   1.095   0.981  0.00  0.00     0.048 A 
ATOM      6  C5  UNL d   1       2.009   1.130  -0.214  0.00  0.00     0.003 A 
ATOM      7  I   UNL d   1      -0.293  -0.177   3.225  0.00  0.00    -0.146 I 
ENDROOT
TORSDOF 0
ENDMDL
