MODEL 1
REMARK minimizedAffinity 6.29749918
REMARK minimizedRMSD -1
REMARK  0 active torsions:
REMARK  status: ('A' for Active; 'I' for Inactive)
ROOT
ATOM      1  C   UNL d   1      -1.034   1.316  -4.315  0.00  0.00     0.023 A 
ATOM      2  C1  UNL d   1       0.197   1.895  -4.005  0.00  0.00     0.003 A 
ATOM      3  C2  UNL d   1       0.247   3.164  -3.424  0.00  0.00     0.048 A 
ATOM      4  C3  UNL d   1      -0.938   3.848  -3.155  0.00  0.00     0.023 A 
ATOM      5  C4  UNL d   1      -2.172   3.273  -3.463  0.00  0.00     0.048 A 
ATOM      6  C5  UNL d   1      -2.217   2.004  -4.044  0.00  0.00     0.003 A 
ATOM      7  I   UNL d   1      -0.866   5.737  -2.291  0.00  0.00    -0.146 I 
ENDROOT
TORSDOF 0
ENDMDL
