MODEL 1
REMARK minimizedAffinity -2.22387576
REMARK minimizedRMSD -1
REMARK  0 active torsions:
REMARK  status: ('A' for Active; 'I' for Inactive)
ROOT
ATOM      1  C   UNL d   1       2.869  -0.123  -1.216  0.00  0.00     0.023 A 
ATOM      2  C1  UNL d   1       2.053   0.815  -0.583  0.00  0.00     0.003 A 
ATOM      3  C2  UNL d   1       0.990   0.391   0.218  0.00  0.00     0.048 A 
ATOM      4  C3  UNL d   1       0.749  -0.972   0.382  0.00  0.00     0.023 A 
ATOM      5  C4  UNL d   1       1.564  -1.915  -0.249  0.00  0.00     0.048 A 
ATOM      6  C5  UNL d   1       2.624  -1.486  -1.049  0.00  0.00     0.003 A 
ATOM      7  I   UNL d   1      -0.831  -1.606   1.573  0.00  0.00    -0.146 I 
ENDROOT
TORSDOF 0
ENDMDL
