MODEL 1
REMARK minimizedAffinity 1.82700336
REMARK minimizedRMSD -1
REMARK  0 active torsions:
REMARK  status: ('A' for Active; 'I' for Inactive)
ROOT
ATOM      1  C   UNL d   1       0.223   0.454   1.349  0.00  0.00     0.023 A 
ATOM      2  C1  UNL d   1       1.249   1.157   0.717  0.00  0.00     0.003 A 
ATOM      3  C2  UNL d   1       2.077   0.510  -0.203  0.00  0.00     0.048 A 
ATOM      4  C3  UNL d   1       1.874  -0.840  -0.486  0.00  0.00     0.023 A 
ATOM      5  C4  UNL d   1       0.849  -1.548   0.144  0.00  0.00     0.048 A 
ATOM      6  C5  UNL d   1       0.024  -0.897   1.063  0.00  0.00     0.003 A 
ATOM      7  I   UNL d   1       3.105  -1.805  -1.854  0.00  0.00    -0.146 I 
ENDROOT
TORSDOF 0
ENDMDL
