MODEL 1
REMARK minimizedAffinity 2.27717376
REMARK minimizedRMSD -1
REMARK  0 active torsions:
REMARK  status: ('A' for Active; 'I' for Inactive)
ROOT
ATOM      1  C   UNL d   1      -2.221   2.271  -3.742  0.00  0.00     0.023 A 
ATOM      2  C1  UNL d   1      -1.616   1.381  -4.629  0.00  0.00     0.003 A 
ATOM      3  C2  UNL d   1      -0.342   1.652  -5.132  0.00  0.00     0.048 A 
ATOM      4  C3  UNL d   1       0.321   2.816  -4.744  0.00  0.00     0.023 A 
ATOM      5  C4  UNL d   1      -0.280   3.709  -3.856  0.00  0.00     0.048 A 
ATOM      6  C5  UNL d   1      -1.554   3.434  -3.357  0.00  0.00     0.003 A 
ATOM      7  I   UNL d   1       2.218   3.222  -5.491  0.00  0.00    -0.146 I 
ENDROOT
TORSDOF 0
ENDMDL
