MODEL 1
REMARK minimizedAffinity 3.08709836
REMARK minimizedRMSD -1
REMARK  0 active torsions:
REMARK  status: ('A' for Active; 'I' for Inactive)
ROOT
ATOM      1  C   UNL d   1       0.807   0.756   0.794  0.00  0.00     0.023 A 
ATOM      2  C1  UNL d   1       1.761   1.115  -0.159  0.00  0.00     0.003 A 
ATOM      3  C2  UNL d   1       2.323   0.140  -0.987  0.00  0.00     0.048 A 
ATOM      4  C3  UNL d   1       1.925  -1.190  -0.858  0.00  0.00     0.023 A 
ATOM      5  C4  UNL d   1       0.970  -1.553   0.094  0.00  0.00     0.048 A 
ATOM      6  C5  UNL d   1       0.413  -0.575   0.920  0.00  0.00     0.003 A 
ATOM      7  I   UNL d   1       2.759  -2.641  -2.089  0.00  0.00    -0.146 I 
ENDROOT
TORSDOF 0
ENDMDL
