MODEL 1
REMARK minimizedAffinity 5.75292158
REMARK minimizedRMSD -1
REMARK  0 active torsions:
REMARK  status: ('A' for Active; 'I' for Inactive)
ROOT
ATOM      1  C   UNL d   1      -0.538   1.293  -4.221  0.00  0.00     0.023 A 
ATOM      2  C1  UNL d   1       0.491   2.217  -4.039  0.00  0.00     0.003 A 
ATOM      3  C2  UNL d   1       0.215   3.474  -3.497  0.00  0.00     0.048 A 
ATOM      4  C3  UNL d   1      -1.092   3.800  -3.138  0.00  0.00     0.023 A 
ATOM      5  C4  UNL d   1      -2.125   2.878  -3.317  0.00  0.00     0.048 A 
ATOM      6  C5  UNL d   1      -1.844   1.623  -3.860  0.00  0.00     0.003 A 
ATOM      7  I   UNL d   1      -1.505   5.670  -2.331  0.00  0.00    -0.146 I 
ENDROOT
TORSDOF 0
ENDMDL
