MODEL 1
REMARK minimizedAffinity 0.380522609
REMARK minimizedRMSD -1
REMARK  0 active torsions:
REMARK  status: ('A' for Active; 'I' for Inactive)
ROOT
ATOM      1  C   UNL d   1       3.864   0.268  -2.228  0.00  0.00     0.023 A 
ATOM      2  C1  UNL d   1       3.743  -1.085  -1.909  0.00  0.00     0.003 A 
ATOM      3  C2  UNL d   1       2.810  -1.498  -0.955  0.00  0.00     0.048 A 
ATOM      4  C3  UNL d   1       2.002  -0.553  -0.324  0.00  0.00     0.023 A 
ATOM      5  C4  UNL d   1       2.119   0.802  -0.641  0.00  0.00     0.048 A 
ATOM      6  C5  UNL d   1       3.054   1.210  -1.595  0.00  0.00     0.003 A 
ATOM      7  I   UNL d   1       0.613  -1.164   1.096  0.00  0.00    -0.146 I 
ENDROOT
TORSDOF 0
ENDMDL
