MODEL 1
REMARK minimizedAffinity -4.81937838
REMARK minimizedRMSD -1
REMARK  0 active torsions:
REMARK  status: ('A' for Active; 'I' for Inactive)
ROOT
ATOM      1  C   UNL d   1       1.595  -0.213   2.562  0.00  0.00     0.078 C 
ATOM      2  C1  UNL d   1       1.256  -0.424   1.117  0.00  0.00    -0.077 A 
ATOM      3  C2  UNL d   1       2.175  -1.013   0.239  0.00  0.00    -0.001 A 
ATOM      4  C3  UNL d   1       1.849  -1.194  -1.106  0.00  0.00     0.003 A 
ATOM      5  C4  UNL d   1       0.606  -0.787  -1.586  0.00  0.00    -0.005 A 
ATOM      6  C5  UNL d   1      -0.313  -0.197  -0.721  0.00  0.00     0.003 A 
ATOM      7  C6  UNL d   1       0.010  -0.016   0.625  0.00  0.00    -0.001 A 
ENDROOT
TORSDOF 0
ENDMDL
