MODEL 1
REMARK minimizedAffinity 0.00560167991
REMARK minimizedRMSD -1
REMARK  0 active torsions:
REMARK  status: ('A' for Active; 'I' for Inactive)
ROOT
ATOM      1  C   UNL d   1      -0.286   2.454  -1.104  0.00  0.00     0.078 C 
ATOM      2  C1  UNL d   1       0.409   1.308  -0.431  0.00  0.00    -0.077 A 
ATOM      3  C2  UNL d   1       0.984   1.458   0.837  0.00  0.00    -0.001 A 
ATOM      4  C3  UNL d   1       1.637   0.386   1.447  0.00  0.00     0.003 A 
ATOM      5  C4  UNL d   1       1.721  -0.844   0.797  0.00  0.00    -0.005 A 
ATOM      6  C5  UNL d   1       1.153  -1.002  -0.465  0.00  0.00     0.003 A 
ATOM      7  C6  UNL d   1       0.500   0.069  -1.077  0.00  0.00    -0.001 A 
ENDROOT
TORSDOF 0
ENDMDL
