MODEL 1
REMARK minimizedAffinity 0.201351821
REMARK minimizedRMSD -1
REMARK  0 active torsions:
REMARK  status: ('A' for Active; 'I' for Inactive)
ROOT
ATOM      1  C   UNL d   1       1.087  -1.328   2.567  0.00  0.00     0.078 C 
ATOM      2  C1  UNL d   1       0.995  -0.936   1.123  0.00  0.00    -0.077 A 
ATOM      3  C2  UNL d   1      -0.081  -0.176   0.649  0.00  0.00    -0.001 A 
ATOM      4  C3  UNL d   1      -0.159   0.173  -0.700  0.00  0.00     0.003 A 
ATOM      5  C4  UNL d   1       0.835  -0.234  -1.587  0.00  0.00    -0.005 A 
ATOM      6  C5  UNL d   1       1.909  -0.992  -1.125  0.00  0.00     0.003 A 
ATOM      7  C6  UNL d   1       1.989  -1.343   0.224  0.00  0.00    -0.001 A 
ENDROOT
TORSDOF 0
ENDMDL
