MODEL 1
REMARK minimizedAffinity -2.76919842
REMARK minimizedRMSD -1
REMARK  0 active torsions:
REMARK  status: ('A' for Active; 'I' for Inactive)
ROOT
ATOM      1  C   UNL d   1      -0.179   0.419  -1.078  0.00  0.00     0.078 C 
ATOM      2  C1  UNL d   1      -0.096   1.539  -2.072  0.00  0.00    -0.077 A 
ATOM      3  C2  UNL d   1       0.158   1.285  -3.425  0.00  0.00    -0.001 A 
ATOM      4  C3  UNL d   1       0.242   2.338  -4.338  0.00  0.00     0.003 A 
ATOM      5  C4  UNL d   1       0.076   3.652  -3.906  0.00  0.00    -0.005 A 
ATOM      6  C5  UNL d   1      -0.174   3.915  -2.561  0.00  0.00     0.003 A 
ATOM      7  C6  UNL d   1      -0.259   2.864  -1.647  0.00  0.00    -0.001 A 
ENDROOT
TORSDOF 0
ENDMDL
