MODEL 1
REMARK minimizedAffinity 12.6734009
REMARK minimizedRMSD -1
REMARK  0 active torsions:
REMARK  status: ('A' for Active; 'I' for Inactive)
ROOT
ATOM      1  C1  DEN d   1       3.549  -2.625   0.473  0.00  0.00     0.130 A 
ATOM      2  C2  DEN d   1       3.099  -3.885  -0.111  0.00  0.00    -0.031 A 
ATOM      3  C3  DEN d   1       2.037  -3.581  -1.092  0.00  0.00     0.027 A 
ATOM      4  C4  DEN d   1       1.055  -1.293  -1.762  0.00  0.00     0.027 A 
ATOM      5  C5  DEN d   1       1.109   0.064  -1.529  0.00  0.00    -0.003 A 
ATOM      6  C6  DEN d   1       1.950   0.612  -0.597  0.00  0.00     0.001 A 
ATOM      7  C7  DEN d   1       2.803  -0.197   0.107  0.00  0.00     0.017 A 
ATOM      8  C8  DEN d   1       2.748  -1.567  -0.117  0.00  0.00    -0.094 A 
ATOM      9  C9  DEN d   1       1.900  -2.100  -1.073  0.00  0.00    -0.072 A 
ENDROOT
TORSDOF 0
ENDMDL
