MODEL 1
REMARK minimizedAffinity 14.942482
REMARK minimizedRMSD -1
REMARK  0 active torsions:
REMARK  status: ('A' for Active; 'I' for Inactive)
ROOT
ATOM      1  C1  DEN d   1       3.306  -2.297   0.033  0.00  0.00     0.130 A 
ATOM      2  C2  DEN d   1       1.908  -2.700   0.155  0.00  0.00    -0.031 A 
ATOM      3  C3  DEN d   1       1.858  -4.176   0.173  0.00  0.00     0.027 A 
ATOM      4  C4  DEN d   1       3.801  -5.866   0.029  0.00  0.00     0.027 A 
ATOM      5  C5  DEN d   1       5.167  -5.999  -0.096  0.00  0.00    -0.003 A 
ATOM      6  C6  DEN d   1       5.997  -4.917  -0.221  0.00  0.00     0.001 A 
ATOM      7  C7  DEN d   1       5.475  -3.652  -0.177  0.00  0.00     0.017 A 
ATOM      8  C8  DEN d   1       4.098  -3.510  -0.058  0.00  0.00    -0.094 A 
ATOM      9  C9  DEN d   1       3.277  -4.616   0.079  0.00  0.00    -0.072 A 
ENDROOT
TORSDOF 0
ENDMDL
