MODEL 1
REMARK minimizedAffinity 20.7319946
REMARK minimizedRMSD -1
REMARK  0 active torsions:
REMARK  status: ('A' for Active; 'I' for Inactive)
ROOT
ATOM      1  C1  DEN d   1       2.630  -1.653  -0.289  0.00  0.00     0.130 A 
ATOM      2  C2  DEN d   1       1.411  -1.763  -1.085  0.00  0.00    -0.031 A 
ATOM      3  C3  DEN d   1       1.204  -0.479  -1.785  0.00  0.00     0.027 A 
ATOM      4  C4  DEN d   1       2.649   1.656  -1.716  0.00  0.00     0.027 A 
ATOM      5  C5  DEN d   1       3.775   2.233  -1.171  0.00  0.00    -0.003 A 
ATOM      6  C6  DEN d   1       4.573   1.572  -0.275  0.00  0.00     0.001 A 
ATOM      7  C7  DEN d   1       4.281   0.278   0.068  0.00  0.00     0.017 A 
ATOM      8  C8  DEN d   1       3.143  -0.307  -0.471  0.00  0.00    -0.094 A 
ATOM      9  C9  DEN d   1       2.356   0.373  -1.384  0.00  0.00    -0.072 A 
ENDROOT
TORSDOF 0
ENDMDL
