MODEL 1
REMARK minimizedAffinity 2.10549784
REMARK minimizedRMSD -1
REMARK  0 active torsions:
REMARK  status: ('A' for Active; 'I' for Inactive)
ROOT
ATOM      1  C1  DEN d   1       2.415   1.133  -0.493  0.00  0.00     0.130 A 
ATOM      2  C2  DEN d   1       1.995   1.793  -1.727  0.00  0.00    -0.031 A 
ATOM      3  C3  DEN d   1       1.771   0.750  -2.748  0.00  0.00     0.027 A 
ATOM      4  C4  DEN d   1       2.027  -1.808  -2.540  0.00  0.00     0.027 A 
ATOM      5  C5  DEN d   1       2.372  -2.836  -1.691  0.00  0.00    -0.003 A 
ATOM      6  C6  DEN d   1       2.785  -2.613  -0.404  0.00  0.00     0.001 A 
ATOM      7  C7  DEN d   1       2.819  -1.334   0.086  0.00  0.00     0.017 A 
ATOM      8  C8  DEN d   1       2.480  -0.291  -0.767  0.00  0.00    -0.094 A 
ATOM      9  C9  DEN d   1       2.054  -0.538  -2.061  0.00  0.00    -0.072 A 
ENDROOT
TORSDOF 0
ENDMDL
