MODEL 1
REMARK minimizedAffinity 15.2866249
REMARK minimizedRMSD -1
REMARK  0 active torsions:
REMARK  status: ('A' for Active; 'I' for Inactive)
ROOT
ATOM      1  C1  DEN d   1      -2.766   0.406   1.717  0.00  0.00     0.130 A 
ATOM      2  C2  DEN d   1      -3.582   1.157   2.667  0.00  0.00    -0.031 A 
ATOM      3  C3  DEN d   1      -2.704   2.117   3.365  0.00  0.00     0.027 A 
ATOM      4  C4  DEN d   1      -0.173   2.515   3.065  0.00  0.00     0.027 A 
ATOM      5  C5  DEN d   1       0.954   2.111   2.384  0.00  0.00    -0.003 A 
ATOM      6  C6  DEN d   1       0.927   1.095   1.465  0.00  0.00     0.001 A 
ATOM      7  C7  DEN d   1      -0.261   0.479   1.169  0.00  0.00     0.017 A 
ATOM      8  C8  DEN d   1      -1.400   0.876   1.857  0.00  0.00    -0.094 A 
ATOM      9  C9  DEN d   1      -1.354   1.913   2.773  0.00  0.00    -0.072 A 
ENDROOT
TORSDOF 0
ENDMDL
