MODEL 1
REMARK minimizedAffinity 16.9572735
REMARK minimizedRMSD -1
REMARK  0 active torsions:
REMARK  status: ('A' for Active; 'I' for Inactive)
ROOT
ATOM      1  C1  DEN d   1      -3.167   2.252   2.540  0.00  0.00     0.130 A 
ATOM      2  C2  DEN d   1      -3.820   1.044   3.037  0.00  0.00    -0.031 A 
ATOM      3  C3  DEN d   1      -2.777   0.028   3.282  0.00  0.00     0.027 A 
ATOM      4  C4  DEN d   1      -0.226   0.208   2.946  0.00  0.00     0.027 A 
ATOM      5  C5  DEN d   1       0.796   1.033   2.533  0.00  0.00    -0.003 A 
ATOM      6  C6  DEN d   1       0.568   2.300   2.064  0.00  0.00     0.001 A 
ATOM      7  C7  DEN d   1      -0.709   2.795   2.041  0.00  0.00     0.017 A 
ATOM      8  C8  DEN d   1      -1.746   1.966   2.449  0.00  0.00    -0.094 A 
ATOM      9  C9  DEN d   1      -1.493   0.693   2.931  0.00  0.00    -0.072 A 
ENDROOT
TORSDOF 0
ENDMDL
