MODEL 1
REMARK minimizedAffinity 16.0248852
REMARK minimizedRMSD -1
REMARK  0 active torsions:
REMARK  status: ('A' for Active; 'I' for Inactive)
ROOT
ATOM      1  C1  DEN d   1       2.425   5.899   1.011  0.00  0.00     0.130 A 
ATOM      2  C2  DEN d   1       1.249   5.933   1.877  0.00  0.00    -0.031 A 
ATOM      3  C3  DEN d   1       0.050   5.980   1.016  0.00  0.00     0.027 A 
ATOM      4  C4  DEN d   1      -0.100   5.998  -1.558  0.00  0.00     0.027 A 
ATOM      5  C5  DEN d   1       0.632   5.991  -2.726  0.00  0.00    -0.003 A 
ATOM      6  C6  DEN d   1       2.001   5.988  -2.729  0.00  0.00     0.001 A 
ATOM      7  C7  DEN d   1       2.683   5.945  -1.541  0.00  0.00     0.017 A 
ATOM      8  C8  DEN d   1       1.952   5.959  -0.360  0.00  0.00    -0.094 A 
ATOM      9  C9  DEN d   1       0.568   5.950  -0.378  0.00  0.00    -0.072 A 
ENDROOT
TORSDOF 0
ENDMDL
