MODEL 1
REMARK minimizedAffinity 16.7298222
REMARK minimizedRMSD -1
REMARK  0 active torsions:
REMARK  status: ('A' for Active; 'I' for Inactive)
ROOT
ATOM      1  C1  DEN d   1      -3.330   1.156   2.602  0.00  0.00     0.130 A 
ATOM      2  C2  DEN d   1      -2.038   0.631   3.036  0.00  0.00    -0.031 A 
ATOM      3  C3  DEN d   1      -1.804   1.083   4.422  0.00  0.00     0.027 A 
ATOM      4  C4  DEN d   1      -3.310   2.532   5.933  0.00  0.00     0.027 A 
ATOM      5  C5  DEN d   1      -4.499   3.224   6.000  0.00  0.00    -0.003 A 
ATOM      6  C6  DEN d   1      -5.360   3.302   4.937  0.00  0.00     0.001 A 
ATOM      7  C7  DEN d   1      -5.064   2.640   3.774  0.00  0.00     0.017 A 
ATOM      8  C8  DEN d   1      -3.863   1.947   3.696  0.00  0.00    -0.094 A 
ATOM      9  C9  DEN d   1      -3.012   1.870   4.786  0.00  0.00    -0.072 A 
ENDROOT
TORSDOF 0
ENDMDL
