MODEL 1
REMARK minimizedAffinity 14.5790739
REMARK minimizedRMSD -1
REMARK  0 active torsions:
REMARK  status: ('A' for Active; 'I' for Inactive)
ROOT
ATOM      1  C1  DEN d   1      -0.736   0.567   1.216  0.00  0.00     0.130 A 
ATOM      2  C2  DEN d   1      -0.650   1.295   2.480  0.00  0.00    -0.031 A 
ATOM      3  C3  DEN d   1       0.757   1.692   2.683  0.00  0.00     0.027 A 
ATOM      4  C4  DEN d   1       2.801   1.259   1.170  0.00  0.00     0.027 A 
ATOM      5  C5  DEN d   1       3.226   0.672  -0.002  0.00  0.00    -0.003 A 
ATOM      6  C6  DEN d   1       2.373  -0.013  -0.826  0.00  0.00     0.001 A 
ATOM      7  C7  DEN d   1       1.042  -0.092  -0.512  0.00  0.00     0.017 A 
ATOM      8  C8  DEN d   1       0.608   0.490   0.671  0.00  0.00    -0.094 A 
ATOM      9  C9  DEN d   1       1.483   1.190   1.485  0.00  0.00    -0.072 A 
ENDROOT
TORSDOF 0
ENDMDL
