MODEL 1
REMARK minimizedAffinity 13.6295109
REMARK minimizedRMSD -1
REMARK  0 active torsions:
REMARK  status: ('A' for Active; 'I' for Inactive)
ROOT
ATOM      1  C1  DEN d   1       0.186   1.016   1.728  0.00  0.00     0.130 A 
ATOM      2  C2  DEN d   1       0.851   1.588   2.895  0.00  0.00    -0.031 A 
ATOM      3  C3  DEN d   1       2.284   1.744   2.573  0.00  0.00     0.027 A 
ATOM      4  C4  DEN d   1       3.529   1.163   0.390  0.00  0.00     0.027 A 
ATOM      5  C5  DEN d   1       3.389   0.643  -0.878  0.00  0.00    -0.003 A 
ATOM      6  C6  DEN d   1       2.188   0.184  -1.350  0.00  0.00     0.001 A 
ATOM      7  C7  DEN d   1       1.069   0.277  -0.565  0.00  0.00     0.017 A 
ATOM      8  C8  DEN d   1       1.204   0.793   0.717  0.00  0.00    -0.094 A 
ATOM      9  C9  DEN d   1       2.424   1.263   1.172  0.00  0.00    -0.072 A 
ENDROOT
TORSDOF 0
ENDMDL
