MODEL 1
REMARK minimizedAffinity 18.1260757
REMARK minimizedRMSD -1
REMARK  0 active torsions:
REMARK  status: ('A' for Active; 'I' for Inactive)
ROOT
ATOM      1  C1  DEN d   1      -1.247  -4.134  -2.260  0.00  0.00     0.130 A 
ATOM      2  C2  DEN d   1       0.024  -4.750  -2.629  0.00  0.00    -0.031 A 
ATOM      3  C3  DEN d   1       0.066  -4.864  -4.100  0.00  0.00     0.027 A 
ATOM      4  C4  DEN d   1      -1.703  -4.147  -5.835  0.00  0.00     0.027 A 
ATOM      5  C5  DEN d   1      -2.951  -3.589  -6.000  0.00  0.00    -0.003 A 
ATOM      6  C6  DEN d   1      -3.727  -3.207  -4.937  0.00  0.00     0.001 A 
ATOM      7  C7  DEN d   1      -3.243  -3.338  -3.662  0.00  0.00     0.017 A 
ATOM      8  C8  DEN d   1      -1.988  -3.907  -3.487  0.00  0.00    -0.094 A 
ATOM      9  C9  DEN d   1      -1.215  -4.275  -4.575  0.00  0.00    -0.072 A 
ENDROOT
TORSDOF 0
ENDMDL
