MODEL 1
REMARK minimizedAffinity 19.3690033
REMARK minimizedRMSD -1
REMARK  0 active torsions:
REMARK  status: ('A' for Active; 'I' for Inactive)
ROOT
ATOM      1  C1  DEN d   1       0.754  -1.543  -0.903  0.00  0.00     0.130 A 
ATOM      2  C2  DEN d   1       0.801  -1.899  -2.319  0.00  0.00    -0.031 A 
ATOM      3  C3  DEN d   1       1.597  -0.874  -3.022  0.00  0.00     0.027 A 
ATOM      4  C4  DEN d   1       2.760   1.218  -2.060  0.00  0.00     0.027 A 
ATOM      5  C5  DEN d   1       2.992   1.947  -0.915  0.00  0.00    -0.003 A 
ATOM      6  C6  DEN d   1       2.470   1.585   0.299  0.00  0.00     0.001 A 
ATOM      7  C7  DEN d   1       1.727   0.439   0.404  0.00  0.00     0.017 A 
ATOM      8  C8  DEN d   1       1.483  -0.297  -0.748  0.00  0.00    -0.094 A 
ATOM      9  C9  DEN d   1       2.029   0.079  -1.964  0.00  0.00    -0.072 A 
ENDROOT
TORSDOF 0
ENDMDL
