MODEL 1
REMARK minimizedAffinity -5.27802467
REMARK minimizedRMSD -1
REMARK  1 active torsions:
REMARK  status: ('A' for Active; 'I' for Inactive)
REMARK    1  A    between atoms: N_2  and  C1_3 
ROOT
ATOM      1  C1  UNL d   1       0.201  -0.065  -0.060  0.00  0.00     0.143 A 
ATOM      2  C2  UNL d   1       1.050   0.386   0.957  0.00  0.00    -0.057 A 
ATOM      3  C3  UNL d   1       0.550   1.079   2.066  0.00  0.00     0.033 A 
ATOM      4  C4  UNL d   1      -0.809   1.360   2.163  0.00  0.00    -0.042 A 
ATOM      5  C5  UNL d   1      -1.668   0.943   1.152  0.00  0.00     0.033 A 
ATOM      6  C6  UNL d   1      -1.164   0.245   0.051  0.00  0.00    -0.057 A 
ENDROOT
BRANCH   1   7
ATOM      7  N   UNL d   1       0.650  -0.673  -1.235  0.00  0.00    -0.732 N 
ATOM      8  C   UNL d   1       1.085   0.127  -2.359  0.00  0.00     0.284 C 
ATOM      9  H3  UNL d   1       1.233  -1.487  -1.053  0.00  0.00     0.395 HD
ENDBRANCH   1   7
TORSDOF 1
ENDMDL
