MODEL 1
REMARK minimizedAffinity -4.18883181
REMARK minimizedRMSD -1
REMARK  1 active torsions:
REMARK  status: ('A' for Active; 'I' for Inactive)
REMARK    1  A    between atoms: N_2  and  C1_3 
ROOT
ATOM      1  C1  UNL d   1       0.244  -0.325  -0.037  0.00  0.00     0.143 A 
ATOM      2  C2  UNL d   1       1.242   0.070   0.859  0.00  0.00    -0.057 A 
ATOM      3  C3  UNL d   1       0.932   0.786   2.022  0.00  0.00     0.033 A 
ATOM      4  C4  UNL d   1      -0.384   1.145   2.295  0.00  0.00    -0.042 A 
ATOM      5  C5  UNL d   1      -1.389   0.785   1.405  0.00  0.00     0.033 A 
ATOM      6  C6  UNL d   1      -1.074   0.064   0.249  0.00  0.00    -0.057 A 
ENDROOT
BRANCH   1   7
ATOM      7  N   UNL d   1       0.500  -0.952  -1.259  0.00  0.00    -0.732 N 
ATOM      8  C   UNL d   1       1.005  -0.196  -2.385  0.00  0.00     0.284 C 
ATOM      9  H3  UNL d   1       0.934  -1.865  -1.144  0.00  0.00     0.395 HD
ENDBRANCH   1   7
TORSDOF 1
ENDMDL
