MODEL 1
REMARK minimizedAffinity -4.03111506
REMARK minimizedRMSD -1
REMARK  1 active torsions:
REMARK  status: ('A' for Active; 'I' for Inactive)
REMARK    1  A    between atoms: N_2  and  C1_3 
ROOT
ATOM      1  C1  UNL d   1       0.086  -0.484  -0.788  0.00  0.00     0.143 A 
ATOM      2  C2  UNL d   1       0.972  -0.018   0.190  0.00  0.00    -0.057 A 
ATOM      3  C3  UNL d   1       0.509   0.642   1.335  0.00  0.00     0.033 A 
ATOM      4  C4  UNL d   1      -0.851   0.873   1.509  0.00  0.00    -0.042 A 
ATOM      5  C5  UNL d   1      -1.748   0.441   0.539  0.00  0.00     0.033 A 
ATOM      6  C6  UNL d   1      -1.280  -0.222  -0.600  0.00  0.00    -0.057 A 
ENDROOT
BRANCH   1   7
ATOM      7  N   UNL d   1       0.492  -1.059  -1.994  0.00  0.00    -0.732 N 
ATOM      8  C   UNL d   1       1.043  -0.240  -3.052  0.00  0.00     0.284 C 
ATOM      9  H3  UNL d   1       0.974  -1.944  -1.860  0.00  0.00     0.395 HD
ENDBRANCH   1   7
TORSDOF 1
ENDMDL
