MODEL 1
REMARK minimizedAffinity -2.12529922
REMARK minimizedRMSD -1
REMARK  0 active torsions:
REMARK  status: ('A' for Active; 'I' for Inactive)
ROOT
ATOM      1  C   UNL d   1       1.305   3.756  -3.060  0.00  0.00     0.172 C 
ATOM      2  N   UNL d   1       0.376   4.260  -4.044  0.00  0.00    -0.070 N 
ATOM      3  C1  UNL d   1      -0.969   4.438  -3.854  0.00  0.00    -0.004 A 
ATOM      4  C2  UNL d   1      -1.499   4.934  -5.025  0.00  0.00    -0.047 A 
ATOM      5  C3  UNL d   1      -0.436   5.057  -5.952  0.00  0.00    -0.047 A 
ATOM      6  C4  UNL d   1       0.713   4.633  -5.318  0.00  0.00    -0.004 A 
ENDROOT
TORSDOF 0
ENDMDL
