MODEL 1
REMARK minimizedAffinity -0.367263049
REMARK minimizedRMSD -1
REMARK  0 active torsions:
REMARK  status: ('A' for Active; 'I' for Inactive)
ROOT
ATOM      1  C   UNL d   1      -5.981  -0.854  -2.899  0.00  0.00     0.172 C 
ATOM      2  N   UNL d   1      -5.988   0.135  -3.951  0.00  0.00    -0.070 N 
ATOM      3  C1  UNL d   1      -5.996   1.493  -3.771  0.00  0.00    -0.004 A 
ATOM      4  C2  UNL d   1      -6.000   2.084  -5.016  0.00  0.00    -0.047 A 
ATOM      5  C3  UNL d   1      -5.994   1.045  -5.977  0.00  0.00    -0.047 A 
ATOM      6  C4  UNL d   1      -5.987  -0.150  -5.291  0.00  0.00    -0.004 A 
ENDROOT
TORSDOF 0
ENDMDL
