MODEL 1
REMARK minimizedAffinity 0.680629313
REMARK minimizedRMSD -1
REMARK  0 active torsions:
REMARK  status: ('A' for Active; 'I' for Inactive)
ROOT
ATOM      1  C   UNL d   1       2.126   4.498  -3.502  0.00  0.00     0.172 C 
ATOM      2  N   UNL d   1       1.079   4.822  -4.442  0.00  0.00    -0.070 N 
ATOM      3  C1  UNL d   1      -0.045   4.074  -4.675  0.00  0.00    -0.004 A 
ATOM      4  C2  UNL d   1      -0.789   4.720  -5.638  0.00  0.00    -0.047 A 
ATOM      5  C3  UNL d   1      -0.088   5.896  -5.997  0.00  0.00    -0.047 A 
ATOM      6  C4  UNL d   1       1.065   5.934  -5.242  0.00  0.00    -0.004 A 
ENDROOT
TORSDOF 0
ENDMDL
