MODEL 1
REMARK minimizedAffinity 4.98322296
REMARK minimizedRMSD -1
REMARK  0 active torsions:
REMARK  status: ('A' for Active; 'I' for Inactive)
ROOT
ATOM      1  C   UNL d   1       1.766  -2.062   3.405  0.00  0.00     0.172 C 
ATOM      2  N   UNL d   1       0.455  -2.101   2.801  0.00  0.00    -0.070 N 
ATOM      3  C1  UNL d   1      -0.583  -1.255   3.089  0.00  0.00    -0.004 A 
ATOM      4  C2  UNL d   1      -1.655  -1.620   2.304  0.00  0.00    -0.047 A 
ATOM      5  C3  UNL d   1      -1.248  -2.725   1.518  0.00  0.00    -0.047 A 
ATOM      6  C4  UNL d   1       0.062  -3.002   1.846  0.00  0.00    -0.004 A 
ENDROOT
TORSDOF 0
ENDMDL
