MODEL 1
REMARK minimizedAffinity 3.88193226
REMARK minimizedRMSD -1
REMARK  0 active torsions:
REMARK  status: ('A' for Active; 'I' for Inactive)
ROOT
ATOM      1  C   UNL d   1      -1.809  -5.048  -1.780  0.00  0.00     0.172 C 
ATOM      2  N   UNL d   1      -0.807  -4.760  -0.780  0.00  0.00    -0.070 N 
ATOM      3  C1  UNL d   1       0.527  -5.051  -0.880  0.00  0.00    -0.004 A 
ATOM      4  C2  UNL d   1       1.141  -4.618   0.275  0.00  0.00    -0.047 A 
ATOM      5  C3  UNL d   1       0.141  -4.048   1.098  0.00  0.00    -0.047 A 
ATOM      6  C4  UNL d   1      -1.055  -4.149   0.420  0.00  0.00    -0.004 A 
ENDROOT
TORSDOF 0
ENDMDL
