MODEL 1
REMARK minimizedAffinity 6.72065544
REMARK minimizedRMSD -1
REMARK  0 active torsions:
REMARK  status: ('A' for Active; 'I' for Inactive)
ROOT
ATOM      1  C   UNL d   1       5.271   1.873  -2.574  0.00  0.00     0.172 C 
ATOM      2  N   UNL d   1       3.939   1.774  -2.026  0.00  0.00    -0.070 N 
ATOM      3  C1  UNL d   1       2.885   2.592  -2.337  0.00  0.00    -0.004 A 
ATOM      4  C2  UNL d   1       1.795   2.172  -1.606  0.00  0.00    -0.047 A 
ATOM      5  C3  UNL d   1       2.207   1.063  -0.829  0.00  0.00    -0.047 A 
ATOM      6  C4  UNL d   1       3.539   0.839  -1.109  0.00  0.00    -0.004 A 
ENDROOT
TORSDOF 0
ENDMDL
