MODEL 1
REMARK minimizedAffinity 7.13566113
REMARK minimizedRMSD -1
REMARK  0 active torsions:
REMARK  status: ('A' for Active; 'I' for Inactive)
ROOT
ATOM      1  C   UNL d   1       1.470   2.288   0.907  0.00  0.00     0.172 C 
ATOM      2  N   UNL d   1       2.510   1.329   1.199  0.00  0.00    -0.070 N 
ATOM      3  C1  UNL d   1       2.450  -0.015   0.948  0.00  0.00    -0.004 A 
ATOM      4  C2  UNL d   1       3.636  -0.577   1.369  0.00  0.00    -0.047 A 
ATOM      5  C3  UNL d   1       4.436   0.466   1.894  0.00  0.00    -0.047 A 
ATOM      6  C4  UNL d   1       3.715   1.636   1.776  0.00  0.00    -0.004 A 
ENDROOT
TORSDOF 0
ENDMDL
