MODEL 1
REMARK minimizedAffinity 0.494886667
REMARK minimizedRMSD -1
REMARK  0 active torsions:
REMARK  status: ('A' for Active; 'I' for Inactive)
ROOT
ATOM      1  C   UNL d   1      -5.937  -5.981  -4.456  0.00  0.00     0.172 C 
ATOM      2  N   UNL d   1      -4.524  -5.950  -4.750  0.00  0.00    -0.070 N 
ATOM      3  C1  UNL d   1      -3.967  -5.998  -6.000  0.00  0.00    -0.004 A 
ATOM      4  C2  UNL d   1      -2.598  -5.944  -5.855  0.00  0.00    -0.047 A 
ATOM      5  C3  UNL d   1      -2.322  -5.860  -4.469  0.00  0.00    -0.047 A 
ATOM      6  C4  UNL d   1      -3.532  -5.866  -3.808  0.00  0.00    -0.004 A 
ENDROOT
TORSDOF 0
ENDMDL
