MODEL 1
REMARK minimizedAffinity 3.88909149
REMARK minimizedRMSD -1
REMARK  0 active torsions:
REMARK  status: ('A' for Active; 'I' for Inactive)
ROOT
ATOM      1  C   UNL d   1       3.160   1.155   1.253  0.00  0.00     0.172 C 
ATOM      2  N   UNL d   1       2.659   1.474  -0.064  0.00  0.00    -0.070 N 
ATOM      3  C1  UNL d   1       3.400   1.976  -1.100  0.00  0.00    -0.004 A 
ATOM      4  C2  UNL d   1       2.560   2.141  -2.179  0.00  0.00    -0.047 A 
ATOM      5  C3  UNL d   1       1.268   1.725  -1.777  0.00  0.00    -0.047 A 
ATOM      6  C4  UNL d   1       1.359   1.316  -0.463  0.00  0.00    -0.004 A 
ENDROOT
TORSDOF 0
ENDMDL
