MODEL 1
REMARK minimizedAffinity -0.458911061
REMARK minimizedRMSD -1
REMARK  0 active torsions:
REMARK  status: ('A' for Active; 'I' for Inactive)
ROOT
ATOM      1  C   UNL d   1       1.493   4.736  -4.956  0.00  0.00     0.172 C 
ATOM      2  N   UNL d   1       2.355   3.862  -4.195  0.00  0.00    -0.070 N 
ATOM      3  C1  UNL d   1       2.008   3.200  -3.047  0.00  0.00    -0.004 A 
ATOM      4  C2  UNL d   1       3.103   2.474  -2.632  0.00  0.00    -0.047 A 
ATOM      5  C3  UNL d   1       4.144   2.707  -3.561  0.00  0.00    -0.047 A 
ATOM      6  C4  UNL d   1       3.654   3.570  -4.519  0.00  0.00    -0.004 A 
ENDROOT
TORSDOF 0
ENDMDL
