MODEL 1
REMARK minimizedAffinity 6.42402029
REMARK minimizedRMSD -1
REMARK  0 active torsions:
REMARK  status: ('A' for Active; 'I' for Inactive)
ROOT
ATOM      1  C   UNL d   1      -2.584   0.321   4.982  0.00  0.00     0.172 C 
ATOM      2  N   UNL d   1      -2.105   0.217   3.623  0.00  0.00    -0.070 N 
ATOM      3  C1  UNL d   1      -2.151   1.211   2.682  0.00  0.00    -0.004 A 
ATOM      4  C2  UNL d   1      -1.598   0.718   1.520  0.00  0.00    -0.047 A 
ATOM      5  C3  UNL d   1      -1.207  -0.619   1.772  0.00  0.00    -0.047 A 
ATOM      6  C4  UNL d   1      -1.532  -0.903   3.081  0.00  0.00    -0.004 A 
ENDROOT
TORSDOF 0
ENDMDL
