MODEL 1
REMARK minimizedAffinity -0.961417139
REMARK minimizedRMSD -1
REMARK  0 active torsions:
REMARK  status: ('A' for Active; 'I' for Inactive)
ROOT
ATOM      1  C   UNL d   1       3.037   2.615  -2.678  0.00  0.00     0.172 C 
ATOM      2  N   UNL d   1       2.401   2.176  -1.458  0.00  0.00    -0.070 N 
ATOM      3  C1  UNL d   1       1.438   1.208  -1.364  0.00  0.00    -0.004 A 
ATOM      4  C2  UNL d   1       1.092   1.085  -0.035  0.00  0.00    -0.047 A 
ATOM      5  C3  UNL d   1       1.873   2.012   0.694  0.00  0.00    -0.047 A 
ATOM      6  C4  UNL d   1       2.675   2.675  -0.212  0.00  0.00    -0.004 A 
ENDROOT
TORSDOF 0
ENDMDL
