MODEL 1
REMARK minimizedAffinity -2.06162524
REMARK minimizedRMSD -1
REMARK  0 active torsions:
REMARK  status: ('A' for Active; 'I' for Inactive)
ROOT
ATOM      1  C   UNL d   1       0.936   4.390  -3.139  0.00  0.00     0.172 C 
ATOM      2  N   UNL d   1       2.165   3.635  -3.215  0.00  0.00    -0.070 N 
ATOM      3  C1  UNL d   1       2.545   2.640  -2.354  0.00  0.00    -0.004 A 
ATOM      4  C2  UNL d   1       3.774   2.173  -2.766  0.00  0.00    -0.047 A 
ATOM      5  C3  UNL d   1       4.146   2.913  -3.913  0.00  0.00    -0.047 A 
ATOM      6  C4  UNL d   1       3.132   3.811  -4.169  0.00  0.00    -0.004 A 
ENDROOT
TORSDOF 0
ENDMDL
