MODEL 1
REMARK minimizedAffinity -2.00924039
REMARK minimizedRMSD -1
REMARK  0 active torsions:
REMARK  status: ('A' for Active; 'I' for Inactive)
ROOT
ATOM      1  C   UNL d   1       0.873   1.434  -2.132  0.00  0.00     0.172 C 
ATOM      2  N   UNL d   1       1.230   2.592  -2.917  0.00  0.00    -0.070 N 
ATOM      3  C1  UNL d   1       0.359   3.377  -3.625  0.00  0.00    -0.004 A 
ATOM      4  C2  UNL d   1       1.089   4.374  -4.234  0.00  0.00    -0.047 A 
ATOM      5  C3  UNL d   1       2.446   4.182  -3.882  0.00  0.00    -0.047 A 
ATOM      6  C4  UNL d   1       2.505   3.072  -3.066  0.00  0.00    -0.004 A 
ENDROOT
TORSDOF 0
ENDMDL
