MODEL 1
REMARK minimizedAffinity 8.54916573
REMARK minimizedRMSD -1
REMARK  0 active torsions:
REMARK  status: ('A' for Active; 'I' for Inactive)
ROOT
ATOM      1  C1  BNZ d   1      -0.887  -4.121   6.000  0.00  0.00     0.000 A 
ATOM      2  C2  BNZ d   1      -2.041  -3.384   6.000  0.00  0.00     0.000 A 
ATOM      3  C3  BNZ d   1      -2.626  -2.999   4.826  0.00  0.00     0.000 A 
ATOM      4  C4  BNZ d   1      -2.035  -3.317   3.656  0.00  0.00     0.000 A 
ATOM      5  C5  BNZ d   1      -0.867  -4.052   3.639  0.00  0.00     0.000 A 
ATOM      6  C6  BNZ d   1      -0.302  -4.471   4.822  0.00  0.00     0.000 A 
ENDROOT
TORSDOF 0
ENDMDL
