MODEL 1
REMARK minimizedAffinity 9.10164833
REMARK minimizedRMSD -1
REMARK  0 active torsions:
REMARK  status: ('A' for Active; 'I' for Inactive)
ROOT
ATOM      1  C1  BNZ d   1      -5.986   5.652  -0.190  0.00  0.00     0.000 A 
ATOM      2  C2  BNZ d   1      -4.813   5.280  -0.790  0.00  0.00     0.000 A 
ATOM      3  C3  BNZ d   1      -3.646   5.242  -0.079  0.00  0.00     0.000 A 
ATOM      4  C4  BNZ d   1      -3.646   5.613   1.217  0.00  0.00     0.000 A 
ATOM      5  C5  BNZ d   1      -4.820   6.000   1.833  0.00  0.00     0.000 A 
ATOM      6  C6  BNZ d   1      -5.999   6.000   1.125  0.00  0.00     0.000 A 
ENDROOT
TORSDOF 0
ENDMDL
