MODEL 1
REMARK minimizedAffinity 2.53890634
REMARK minimizedRMSD -1
REMARK  0 active torsions:
REMARK  status: ('A' for Active; 'I' for Inactive)
ROOT
ATOM      1  C1  BNZ d   1       1.541  -1.945  -6.000  0.00  0.00     0.000 A 
ATOM      2  C2  BNZ d   1       0.750  -2.265  -4.928  0.00  0.00     0.000 A 
ATOM      3  C3  BNZ d   1       1.271  -2.914  -3.843  0.00  0.00     0.000 A 
ATOM      4  C4  BNZ d   1       2.570  -3.276  -3.848  0.00  0.00     0.000 A 
ATOM      5  C5  BNZ d   1       3.378  -2.969  -4.925  0.00  0.00     0.000 A 
ATOM      6  C6  BNZ d   1       2.859  -2.281  -5.999  0.00  0.00     0.000 A 
ENDROOT
TORSDOF 0
ENDMDL
