MODEL 1
REMARK minimizedAffinity 9.97587299
REMARK minimizedRMSD -1
REMARK  0 active torsions:
REMARK  status: ('A' for Active; 'I' for Inactive)
ROOT
ATOM      1  C1  BNZ d   1       1.742  -3.458  -5.987  0.00  0.00     0.000 A 
ATOM      2  C2  BNZ d   1       1.047  -2.278  -5.984  0.00  0.00     0.000 A 
ATOM      3  C3  BNZ d   1       1.704  -1.079  -5.988  0.00  0.00     0.000 A 
ATOM      4  C4  BNZ d   1       3.052  -1.062  -5.955  0.00  0.00     0.000 A 
ATOM      5  C5  BNZ d   1       3.767  -2.243  -5.948  0.00  0.00     0.000 A 
ATOM      6  C6  BNZ d   1       3.103  -3.448  -5.983  0.00  0.00     0.000 A 
ENDROOT
TORSDOF 0
ENDMDL
