MODEL 1
REMARK minimizedAffinity 10.4884491
REMARK minimizedRMSD -1
REMARK  0 active torsions:
REMARK  status: ('A' for Active; 'I' for Inactive)
ROOT
ATOM      1  C1  BNZ d   1       4.815  -4.843   1.701  0.00  0.00     0.000 A 
ATOM      2  C2  BNZ d   1       3.638  -4.145   1.725  0.00  0.00     0.000 A 
ATOM      3  C3  BNZ d   1       3.632  -2.780   1.655  0.00  0.00     0.000 A 
ATOM      4  C4  BNZ d   1       4.804  -2.114   1.602  0.00  0.00     0.000 A 
ATOM      5  C5  BNZ d   1       6.000  -2.803   1.587  0.00  0.00     0.000 A 
ATOM      6  C6  BNZ d   1       6.000  -4.179   1.618  0.00  0.00     0.000 A 
ENDROOT
TORSDOF 0
ENDMDL
