MODEL 1
REMARK minimizedAffinity 7.63430405
REMARK minimizedRMSD -1
REMARK  0 active torsions:
REMARK  status: ('A' for Active; 'I' for Inactive)
ROOT
ATOM      1  C1  BNZ d   1       1.488  -5.999  -3.572  0.00  0.00     0.000 A 
ATOM      2  C2  BNZ d   1       1.884  -6.000  -2.261  0.00  0.00     0.000 A 
ATOM      3  C3  BNZ d   1       2.422  -4.880  -1.691  0.00  0.00     0.000 A 
ATOM      4  C4  BNZ d   1       2.601  -3.775  -2.443  0.00  0.00     0.000 A 
ATOM      5  C5  BNZ d   1       2.216  -3.761  -3.769  0.00  0.00     0.000 A 
ATOM      6  C6  BNZ d   1       1.638  -4.878  -4.328  0.00  0.00     0.000 A 
ENDROOT
TORSDOF 0
ENDMDL
