MODEL 1
REMARK minimizedAffinity 8.81715584
REMARK minimizedRMSD -1
REMARK  0 active torsions:
REMARK  status: ('A' for Active; 'I' for Inactive)
ROOT
ATOM      1  C1  BNZ d   1      -3.638   5.876   0.958  0.00  0.00     0.000 A 
ATOM      2  C2  BNZ d   1      -3.645   5.980   2.324  0.00  0.00     0.000 A 
ATOM      3  C3  BNZ d   1      -4.821   5.994   3.019  0.00  0.00     0.000 A 
ATOM      4  C4  BNZ d   1      -5.990   5.944   2.347  0.00  0.00     0.000 A 
ATOM      5  C5  BNZ d   1      -6.000   5.848   0.970  0.00  0.00     0.000 A 
ATOM      6  C6  BNZ d   1      -4.813   5.795   0.276  0.00  0.00     0.000 A 
ENDROOT
TORSDOF 0
ENDMDL
