MODEL 1
REMARK minimizedAffinity 9.85875702
REMARK minimizedRMSD -1
REMARK  0 active torsions:
REMARK  status: ('A' for Active; 'I' for Inactive)
ROOT
ATOM      1  C1  BNZ d   1      -3.244   5.659   0.277  0.00  0.00     0.000 A 
ATOM      2  C2  BNZ d   1      -3.919   5.896   1.445  0.00  0.00     0.000 A 
ATOM      3  C3  BNZ d   1      -5.282   5.998   1.457  0.00  0.00     0.000 A 
ATOM      4  C4  BNZ d   1      -5.965   5.903   0.298  0.00  0.00     0.000 A 
ATOM      5  C5  BNZ d   1      -5.298   5.674  -0.889  0.00  0.00     0.000 A 
ATOM      6  C6  BNZ d   1      -3.929   5.533  -0.892  0.00  0.00     0.000 A 
ENDROOT
TORSDOF 0
ENDMDL
