MODEL 1
REMARK minimizedAffinity 2.25112653
REMARK minimizedRMSD -1
REMARK  0 active torsions:
REMARK  status: ('A' for Active; 'I' for Inactive)
ROOT
ATOM      1  C1  BNZ d   1       0.437   4.138  -1.440  0.00  0.00     0.000 A 
ATOM      2  C2  BNZ d   1       0.163   5.430  -1.080  0.00  0.00     0.000 A 
ATOM      3  C3  BNZ d   1      -0.541   5.705   0.059  0.00  0.00     0.000 A 
ATOM      4  C4  BNZ d   1      -1.003   4.688   0.815  0.00  0.00     0.000 A 
ATOM      5  C5  BNZ d   1      -0.742   3.379   0.460  0.00  0.00     0.000 A 
ATOM      6  C6  BNZ d   1      -0.000   3.107  -0.667  0.00  0.00     0.000 A 
ENDROOT
TORSDOF 0
ENDMDL
