MODEL 1
REMARK minimizedAffinity 12.5940399
REMARK minimizedRMSD -1
REMARK  0 active torsions:
REMARK  status: ('A' for Active; 'I' for Inactive)
ROOT
ATOM      1  C1  BNZ d   1      -1.970   3.668  -3.080  0.00  0.00     0.000 A 
ATOM      2  C2  BNZ d   1      -1.146   3.122  -2.133  0.00  0.00     0.000 A 
ATOM      3  C3  BNZ d   1      -0.169   3.871  -1.540  0.00  0.00     0.000 A 
ATOM      4  C4  BNZ d   1       0.008   5.152  -1.922  0.00  0.00     0.000 A 
ATOM      5  C5  BNZ d   1      -0.809   5.714  -2.883  0.00  0.00     0.000 A 
ATOM      6  C6  BNZ d   1      -1.816   4.968  -3.450  0.00  0.00     0.000 A 
ENDROOT
TORSDOF 0
ENDMDL
