MODEL 1
REMARK minimizedAffinity -2.30259395
REMARK minimizedRMSD -1
REMARK  0 active torsions:
REMARK  status: ('A' for Active; 'I' for Inactive)
ROOT
ATOM      1  C1  BNZ d   1      -2.942   1.494   2.349  0.00  0.00     0.000 A 
ATOM      2  C2  BNZ d   1      -2.201   1.937   1.286  0.00  0.00     0.000 A 
ATOM      3  C3  BNZ d   1      -0.861   1.679   1.211  0.00  0.00     0.000 A 
ATOM      4  C4  BNZ d   1      -0.256   1.016   2.218  0.00  0.00     0.000 A 
ATOM      5  C5  BNZ d   1      -0.987   0.571   3.301  0.00  0.00     0.000 A 
ATOM      6  C6  BNZ d   1      -2.344   0.798   3.354  0.00  0.00     0.000 A 
ENDROOT
TORSDOF 0
ENDMDL
