MODEL 1
REMARK minimizedAffinity 4.33269739
REMARK minimizedRMSD -1
REMARK  0 active torsions:
REMARK  status: ('A' for Active; 'I' for Inactive)
ROOT
ATOM      1  C1  BNZ d   1      -0.005   3.031  -0.124  0.00  0.00     0.000 A 
ATOM      2  C2  BNZ d   1       0.244   4.359   0.100  0.00  0.00     0.000 A 
ATOM      3  C3  BNZ d   1      -0.114   5.303  -0.821  0.00  0.00     0.000 A 
ATOM      4  C4  BNZ d   1      -0.682   4.916  -1.982  0.00  0.00     0.000 A 
ATOM      5  C5  BNZ d   1      -0.930   3.580  -2.227  0.00  0.00     0.000 A 
ATOM      6  C6  BNZ d   1      -0.604   2.636  -1.280  0.00  0.00     0.000 A 
ENDROOT
TORSDOF 0
ENDMDL
