MODEL 1
REMARK minimizedAffinity -1.14516854
REMARK minimizedRMSD -1
REMARK  0 active torsions:
REMARK  status: ('A' for Active; 'I' for Inactive)
ROOT
ATOM      1  C1  BNZ d   1      -0.403   3.116   0.120  0.00  0.00     0.000 A 
ATOM      2  C2  BNZ d   1       0.271   4.238   0.522  0.00  0.00     0.000 A 
ATOM      3  C3  BNZ d   1       0.535   5.250  -0.358  0.00  0.00     0.000 A 
ATOM      4  C4  BNZ d   1       0.161   5.121  -1.647  0.00  0.00     0.000 A 
ATOM      5  C5  BNZ d   1      -0.512   3.992  -2.071  0.00  0.00     0.000 A 
ATOM      6  C6  BNZ d   1      -0.810   2.993  -1.173  0.00  0.00     0.000 A 
ENDROOT
TORSDOF 0
ENDMDL
