MODEL 1
REMARK minimizedAffinity 3.4150641
REMARK minimizedRMSD -1
REMARK  0 active torsions:
REMARK  status: ('A' for Active; 'I' for Inactive)
ROOT
ATOM      1  C1  BNZ d   1      -0.087   2.659  -0.344  0.00  0.00     0.000 A 
ATOM      2  C2  BNZ d   1       0.502   3.804   0.122  0.00  0.00     0.000 A 
ATOM      3  C3  BNZ d   1       0.377   4.982  -0.560  0.00  0.00     0.000 A 
ATOM      4  C4  BNZ d   1      -0.302   5.005  -1.725  0.00  0.00     0.000 A 
ATOM      5  C5  BNZ d   1      -0.894   3.857  -2.212  0.00  0.00     0.000 A 
ATOM      6  C6  BNZ d   1      -0.799   2.681  -1.503  0.00  0.00     0.000 A 
ENDROOT
TORSDOF 0
ENDMDL
