MODEL 1
REMARK minimizedAffinity 0.0284083355
REMARK minimizedRMSD -1
REMARK  0 active torsions:
REMARK  status: ('A' for Active; 'I' for Inactive)
ROOT
ATOM      1  C1  BNZ d   1      -0.395   2.907  -0.978  0.00  0.00     0.000 A 
ATOM      2  C2  BNZ d   1       0.286   3.511   0.045  0.00  0.00     0.000 A 
ATOM      3  C3  BNZ d   1       0.609   4.838  -0.017  0.00  0.00     0.000 A 
ATOM      4  C4  BNZ d   1       0.286   5.548  -1.118  0.00  0.00     0.000 A 
ATOM      5  C5  BNZ d   1      -0.393   4.950  -2.161  0.00  0.00     0.000 A 
ATOM      6  C6  BNZ d   1      -0.750   3.624  -2.078  0.00  0.00     0.000 A 
ENDROOT
TORSDOF 0
ENDMDL
