MODEL 1
REMARK minimizedAffinity 3.28019333
REMARK minimizedRMSD -1
REMARK  0 active torsions:
REMARK  status: ('A' for Active; 'I' for Inactive)
ROOT
ATOM      1  C1  BNZ d   1       0.297   4.601   0.143  0.00  0.00     0.000 A 
ATOM      2  C2  BNZ d   1       0.312   4.543  -1.225  0.00  0.00     0.000 A 
ATOM      3  C3  BNZ d   1      -0.047   3.399  -1.881  0.00  0.00     0.000 A 
ATOM      4  C4  BNZ d   1      -0.382   2.303  -1.169  0.00  0.00     0.000 A 
ATOM      5  C5  BNZ d   1      -0.393   2.344   0.211  0.00  0.00     0.000 A 
ATOM      6  C6  BNZ d   1      -0.068   3.509   0.867  0.00  0.00     0.000 A 
ENDROOT
TORSDOF 0
ENDMDL
