MODEL 1
REMARK minimizedAffinity -1.05461574
REMARK minimizedRMSD -1
REMARK  1 active torsions:
REMARK  status: ('A' for Active; 'I' for Inactive)
REMARK    1  A    between atoms: N_2  and  C1_3 
ROOT
ATOM      1  C1  UNL d   1       0.134   0.466  -0.025  0.00  0.00     0.143 A 
ATOM      2  C2  UNL d   1      -0.941   0.805   0.804  0.00  0.00    -0.057 A 
ATOM      3  C3  UNL d   1      -1.261   2.142   1.068  0.00  0.00     0.033 A 
ATOM      4  C4  UNL d   1      -0.491   3.167   0.529  0.00  0.00    -0.042 A 
ATOM      5  C5  UNL d   1       0.597   2.854  -0.278  0.00  0.00     0.033 A 
ATOM      6  C6  UNL d   1       0.907   1.516  -0.544  0.00  0.00    -0.057 A 
ENDROOT
BRANCH   1   7
ATOM      7  N   UNL d   1       0.562  -0.845  -0.247  0.00  0.00    -0.732 N 
ATOM      8  C   UNL d   1       1.918  -1.241   0.069  0.00  0.00     0.284 C 
ATOM      9  H3  UNL d   1      -0.142  -1.533   0.010  0.00  0.00     0.395 HD
ENDBRANCH   1   7
TORSDOF 1
ENDMDL
