MODEL 1
REMARK minimizedAffinity -3.9963758
REMARK minimizedRMSD -1
REMARK  1 active torsions:
REMARK  status: ('A' for Active; 'I' for Inactive)
REMARK    1  A    between atoms: N_2  and  C1_3 
ROOT
ATOM      1  C1  UNL d   1       0.110   0.260   0.260  0.00  0.00     0.143 A 
ATOM      2  C2  UNL d   1      -0.706   1.028   1.097  0.00  0.00    -0.057 A 
ATOM      3  C3  UNL d   1      -0.680   2.427   1.052  0.00  0.00     0.033 A 
ATOM      4  C4  UNL d   1       0.188   3.085   0.186  0.00  0.00    -0.042 A 
ATOM      5  C5  UNL d   1       1.026   2.341  -0.638  0.00  0.00     0.033 A 
ATOM      6  C6  UNL d   1       0.990   0.944  -0.592  0.00  0.00    -0.057 A 
ENDROOT
BRANCH   1   7
ATOM      7  N   UNL d   1       0.201  -1.133   0.327  0.00  0.00    -0.732 N 
ATOM      8  C   UNL d   1       0.178  -1.932  -0.879  0.00  0.00     0.284 C 
ATOM      9  H3  UNL d   1       0.878  -1.445   1.020  0.00  0.00     0.395 HD
ENDBRANCH   1   7
TORSDOF 1
ENDMDL
