MODEL 1
REMARK minimizedAffinity -3.23626637
REMARK minimizedRMSD -1
REMARK  1 active torsions:
REMARK  status: ('A' for Active; 'I' for Inactive)
REMARK    1  A    between atoms: N_2  and  C1_3 
ROOT
ATOM      1  C1  UNL d   1      -0.185   0.208   0.246  0.00  0.00     0.143 A 
ATOM      2  C2  UNL d   1       0.771   0.787  -0.596  0.00  0.00    -0.057 A 
ATOM      3  C3  UNL d   1       0.847   2.175  -0.763  0.00  0.00     0.033 A 
ATOM      4  C4  UNL d   1      -0.054   3.010  -0.111  0.00  0.00    -0.042 A 
ATOM      5  C5  UNL d   1      -1.028   2.456   0.712  0.00  0.00     0.033 A 
ATOM      6  C6  UNL d   1      -1.095   1.069   0.879  0.00  0.00    -0.057 A 
ENDROOT
BRANCH   1   7
ATOM      7  N   UNL d   1      -0.374  -1.170   0.377  0.00  0.00    -0.732 N 
ATOM      8  C   UNL d   1      -0.340  -2.032  -0.785  0.00  0.00     0.284 C 
ATOM      9  H3  UNL d   1       0.101  -1.551   1.192  0.00  0.00     0.395 HD
ENDBRANCH   1   7
TORSDOF 1
ENDMDL
