MODEL 1
REMARK minimizedAffinity -4.58504772
REMARK minimizedRMSD -1
REMARK  1 active torsions:
REMARK  status: ('A' for Active; 'I' for Inactive)
REMARK    1  A    between atoms: N_2  and  C1_3 
ROOT
ATOM      1  C1  UNL d   1      -0.111  -0.222   0.078  0.00  0.00     0.143 A 
ATOM      2  C2  UNL d   1       0.922   0.502  -0.526  0.00  0.00    -0.057 A 
ATOM      3  C3  UNL d   1       0.862   1.896  -0.641  0.00  0.00     0.033 A 
ATOM      4  C4  UNL d   1      -0.251   2.590  -0.178  0.00  0.00    -0.042 A 
ATOM      5  C5  UNL d   1      -1.302   1.889   0.403  0.00  0.00     0.033 A 
ATOM      6  C6  UNL d   1      -1.232   0.497   0.521  0.00  0.00    -0.057 A 
ENDROOT
BRANCH   1   7
ATOM      7  N   UNL d   1      -0.154  -1.617   0.133  0.00  0.00    -0.732 N 
ATOM      8  C   UNL d   1      -1.080  -2.360  -0.695  0.00  0.00     0.284 C 
ATOM      9  H3  UNL d   1       0.773  -2.032   0.195  0.00  0.00     0.395 HD
ENDBRANCH   1   7
TORSDOF 1
ENDMDL
