MODEL 1
REMARK minimizedAffinity 5.60137081
REMARK minimizedRMSD -1
REMARK  1 active torsions:
REMARK  status: ('A' for Active; 'I' for Inactive)
REMARK    1  A    between atoms: N_2  and  C1_3 
ROOT
ATOM      1  C1  UNL d   1      -0.919   0.279   1.900  0.00  0.00     0.143 A 
ATOM      2  C2  UNL d   1      -1.519   1.527   2.098  0.00  0.00    -0.057 A 
ATOM      3  C3  UNL d   1      -1.050   2.671   1.442  0.00  0.00     0.033 A 
ATOM      4  C4  UNL d   1       0.050   2.593   0.594  0.00  0.00    -0.042 A 
ATOM      5  C5  UNL d   1       0.678   1.367   0.402  0.00  0.00     0.033 A 
ATOM      6  C6  UNL d   1       0.201   0.227   1.055  0.00  0.00    -0.057 A 
ENDROOT
BRANCH   1   7
ATOM      7  N   UNL d   1      -1.276  -0.876   2.599  0.00  0.00    -0.732 N 
ATOM      8  C   UNL d   1      -2.660  -1.134   2.938  0.00  0.00     0.284 C 
ATOM      9  H3  UNL d   1      -0.766  -1.696   2.280  0.00  0.00     0.395 HD
ENDBRANCH   1   7
TORSDOF 1
ENDMDL
