MODEL 1
REMARK minimizedAffinity 3.16123033
REMARK minimizedRMSD -1
REMARK  1 active torsions:
REMARK  status: ('A' for Active; 'I' for Inactive)
REMARK    1  A    between atoms: N_2  and  C1_3 
ROOT
ATOM      1  C1  UNL d   1       0.860   2.357   0.869  0.00  0.00     0.143 A 
ATOM      2  C2  UNL d   1       1.836   3.229   1.364  0.00  0.00    -0.057 A 
ATOM      3  C3  UNL d   1       3.194   2.891   1.332  0.00  0.00     0.033 A 
ATOM      4  C4  UNL d   1       3.599   1.658   0.830  0.00  0.00    -0.042 A 
ATOM      5  C5  UNL d   1       2.644   0.766   0.355  0.00  0.00     0.033 A 
ATOM      6  C6  UNL d   1       1.290   1.112   0.383  0.00  0.00    -0.057 A 
ENDROOT
BRANCH   1   7
ATOM      7  N   UNL d   1      -0.514   2.594   0.962  0.00  0.00    -0.732 N 
ATOM      8  C   UNL d   1      -1.330   2.680  -0.230  0.00  0.00     0.284 C 
ATOM      9  H3  UNL d   1      -0.946   2.078   1.725  0.00  0.00     0.395 HD
ENDBRANCH   1   7
TORSDOF 1
ENDMDL
