MODEL 1
REMARK minimizedAffinity -2.55594635
REMARK minimizedRMSD -1
REMARK  1 active torsions:
REMARK  status: ('A' for Active; 'I' for Inactive)
REMARK    1  A    between atoms: N_2  and  C1_3 
ROOT
ATOM      1  C1  UNL d   1       1.395   0.647   0.669  0.00  0.00     0.143 A 
ATOM      2  C2  UNL d   1       1.031  -0.703   0.712  0.00  0.00    -0.057 A 
ATOM      3  C3  UNL d   1      -0.311  -1.096   0.637  0.00  0.00     0.033 A 
ATOM      4  C4  UNL d   1      -1.318  -0.140   0.548  0.00  0.00    -0.042 A 
ATOM      5  C5  UNL d   1      -0.980   1.209   0.529  0.00  0.00     0.033 A 
ATOM      6  C6  UNL d   1       0.362   1.594   0.597  0.00  0.00    -0.057 A 
ENDROOT
BRANCH   1   7
ATOM      7  N   UNL d   1       2.704   1.105   0.838  0.00  0.00    -0.732 N 
ATOM      8  C   UNL d   1       2.975   2.293   1.619  0.00  0.00     0.284 C 
ATOM      9  H3  UNL d   1       3.364   0.347   0.993  0.00  0.00     0.395 HD
ENDBRANCH   1   7
TORSDOF 1
ENDMDL
