MODEL 1
REMARK minimizedAffinity 1.62561965
REMARK minimizedRMSD -1
REMARK  1 active torsions:
REMARK  status: ('A' for Active; 'I' for Inactive)
REMARK    1  A    between atoms: N_2  and  C1_3 
ROOT
ATOM      1  C1  UNL d   1      -1.609   2.519  -0.053  0.00  0.00     0.143 A 
ATOM      2  C2  UNL d   1      -0.822   1.888   0.916  0.00  0.00    -0.057 A 
ATOM      3  C3  UNL d   1       0.575   1.957   0.874  0.00  0.00     0.033 A 
ATOM      4  C4  UNL d   1       1.213   2.636  -0.158  0.00  0.00    -0.042 A 
ATOM      5  C5  UNL d   1       0.452   3.250  -1.146  0.00  0.00     0.033 A 
ATOM      6  C6  UNL d   1      -0.944   3.183  -1.095  0.00  0.00    -0.057 A 
ENDROOT
BRANCH   1   7
ATOM      7  N   UNL d   1      -3.000   2.404  -0.122  0.00  0.00    -0.732 N 
ATOM      8  C   UNL d   1      -3.671   1.241   0.419  0.00  0.00     0.284 C 
ATOM      9  H3  UNL d   1      -3.472   3.284   0.072  0.00  0.00     0.395 HD
ENDBRANCH   1   7
TORSDOF 1
ENDMDL
