MODEL 1
REMARK minimizedAffinity -4.74522448
REMARK minimizedRMSD -1
REMARK  1 active torsions:
REMARK  status: ('A' for Active; 'I' for Inactive)
REMARK    1  A    between atoms: N_2  and  C1_3 
ROOT
ATOM      1  C1  UNL d   1       0.329   0.790   0.034  0.00  0.00     0.143 A 
ATOM      2  C2  UNL d   1      -0.484   1.927  -0.008  0.00  0.00    -0.057 A 
ATOM      3  C3  UNL d   1       0.060   3.213   0.091  0.00  0.00     0.033 A 
ATOM      4  C4  UNL d   1       1.430   3.384   0.264  0.00  0.00    -0.042 A 
ATOM      5  C5  UNL d   1       2.255   2.266   0.333  0.00  0.00     0.033 A 
ATOM      6  C6  UNL d   1       1.706   0.985   0.227  0.00  0.00    -0.057 A 
ENDROOT
BRANCH   1   7
ATOM      7  N   UNL d   1      -0.163  -0.518   0.040  0.00  0.00    -0.732 N 
ATOM      8  C   UNL d   1       0.402  -1.514   0.926  0.00  0.00     0.284 C 
ATOM      9  H3  UNL d   1      -1.177  -0.552  -0.031  0.00  0.00     0.395 HD
ENDBRANCH   1   7
TORSDOF 1
ENDMDL
