MODEL 1
REMARK minimizedAffinity 0.80078882
REMARK minimizedRMSD -1
REMARK  1 active torsions:
REMARK  status: ('A' for Active; 'I' for Inactive)
REMARK    1  A    between atoms: N_2  and  C1_3 
ROOT
ATOM      1  C1  UNL d   1      -1.258   2.789  -0.169  0.00  0.00     0.143 A 
ATOM      2  C2  UNL d   1      -0.345   3.449  -0.999  0.00  0.00    -0.057 A 
ATOM      3  C3  UNL d   1       1.029   3.194  -0.913  0.00  0.00     0.033 A 
ATOM      4  C4  UNL d   1       1.518   2.293   0.027  0.00  0.00    -0.042 A 
ATOM      5  C5  UNL d   1       0.631   1.645   0.879  0.00  0.00     0.033 A 
ATOM      6  C6  UNL d   1      -0.740   1.899   0.784  0.00  0.00    -0.057 A 
ENDROOT
BRANCH   1   7
ATOM      7  N   UNL d   1      -2.626   3.072  -0.139  0.00  0.00    -0.732 N 
ATOM      8  C   UNL d   1      -3.590   2.104  -0.617  0.00  0.00     0.284 C 
ATOM      9  H3  UNL d   1      -2.905   3.549   0.715  0.00  0.00     0.395 HD
ENDBRANCH   1   7
TORSDOF 1
ENDMDL
