MODEL 1
REMARK minimizedAffinity -4.28659534
REMARK minimizedRMSD -1
REMARK  1 active torsions:
REMARK  status: ('A' for Active; 'I' for Inactive)
REMARK    1  A    between atoms: N_2  and  C1_3 
ROOT
ATOM      1  C1  UNL d   1       0.684  -1.983  -0.605  0.00  0.00     0.143 A 
ATOM      2  C2  UNL d   1       0.914  -2.643  -1.817  0.00  0.00    -0.057 A 
ATOM      3  C3  UNL d   1      -0.051  -3.487  -2.378  0.00  0.00     0.033 A 
ATOM      4  C4  UNL d   1      -1.256  -3.710  -1.721  0.00  0.00    -0.042 A 
ATOM      5  C5  UNL d   1      -1.496  -3.084  -0.503  0.00  0.00     0.033 A 
ATOM      6  C6  UNL d   1      -0.531  -2.237   0.050  0.00  0.00    -0.057 A 
ENDROOT
BRANCH   1   7
ATOM      7  N   UNL d   1       1.643  -1.209   0.054  0.00  0.00    -0.732 N 
ATOM      8  C   UNL d   1       1.612   0.236  -0.036  0.00  0.00     0.284 C 
ATOM      9  H3  UNL d   1       1.857  -1.563   0.983  0.00  0.00     0.395 HD
ENDBRANCH   1   7
TORSDOF 1
ENDMDL
