MODEL 1
REMARK minimizedAffinity -3.82655811
REMARK minimizedRMSD -1
REMARK  1 active torsions:
REMARK  status: ('A' for Active; 'I' for Inactive)
REMARK    1  A    between atoms: N_2  and  C1_3 
ROOT
ATOM      1  C1  UNL d   1       0.743   0.870   0.035  0.00  0.00     0.143 A 
ATOM      2  C2  UNL d   1      -0.409   1.643   0.219  0.00  0.00    -0.057 A 
ATOM      3  C3  UNL d   1      -0.339   3.038   0.320  0.00  0.00     0.033 A 
ATOM      4  C4  UNL d   1       0.892   3.684   0.267  0.00  0.00    -0.042 A 
ATOM      5  C5  UNL d   1       2.052   2.934   0.109  0.00  0.00     0.033 A 
ATOM      6  C6  UNL d   1       1.975   1.542   0.003  0.00  0.00    -0.057 A 
ENDROOT
BRANCH   1   7
ATOM      7  N   UNL d   1       0.749  -0.527   0.027  0.00  0.00    -0.732 N 
ATOM      8  C   UNL d   1      -0.297  -1.272   0.694  0.00  0.00     0.284 C 
ATOM      9  H3  UNL d   1       1.020  -0.909  -0.876  0.00  0.00     0.395 HD
ENDBRANCH   1   7
TORSDOF 1
ENDMDL
