MODEL 1
REMARK minimizedAffinity 6.66803932
REMARK minimizedRMSD -1
REMARK  0 active torsions:
REMARK  status: ('A' for Active; 'I' for Inactive)
ROOT
ATOM      1  N1  IND d   1      -1.709   0.961   1.054  0.00  0.00    -0.196 N 
ATOM      2  C2  IND d   1      -1.036   2.147   0.953  0.00  0.00     0.054 A 
ATOM      3  C3  IND d   1       0.269   1.975   1.259  0.00  0.00    -0.031 A 
ATOM      4  C4  IND d   1       1.538  -0.184   1.854  0.00  0.00     0.051 A 
ATOM      5  C5  IND d   1       1.344  -1.513   2.107  0.00  0.00    -0.031 A 
ATOM      6  C6  IND d   1       0.097  -2.098   2.016  0.00  0.00     0.015 A 
ATOM      7  C7  IND d   1      -1.005  -1.374   1.658  0.00  0.00    -0.016 A 
ATOM      8  C8  IND d   1      -0.812  -0.023   1.408  0.00  0.00    -0.047 A 
ATOM      9  C9  IND d   1       0.443   0.585   1.539  0.00  0.00    -0.096 A 
ATOM     10  HN1 IND d   1      -2.551   0.849   0.919  0.00  0.00     0.298 HD
ENDROOT
TORSDOF 0
ENDMDL
