MODEL 1
REMARK minimizedAffinity 3.18553352
REMARK minimizedRMSD -1
REMARK  0 active torsions:
REMARK  status: ('A' for Active; 'I' for Inactive)
ROOT
ATOM      1  N1  IND d   1      -0.234  -0.496   1.718  0.00  0.00    -0.196 N 
ATOM      2  C2  IND d   1       1.119  -0.551   1.912  0.00  0.00     0.054 A 
ATOM      3  C3  IND d   1       1.604  -1.744   1.499  0.00  0.00    -0.031 A 
ATOM      4  C4  IND d   1       0.376  -3.712   0.382  0.00  0.00     0.051 A 
ATOM      5  C5  IND d   1      -0.873  -4.142   0.030  0.00  0.00    -0.031 A 
ATOM      6  C6  IND d   1      -1.994  -3.362   0.224  0.00  0.00     0.015 A 
ATOM      7  C7  IND d   1      -1.907  -2.112   0.770  0.00  0.00    -0.016 A 
ATOM      8  C8  IND d   1      -0.642  -1.675   1.135  0.00  0.00    -0.047 A 
ATOM      9  C9  IND d   1       0.495  -2.479   0.980  0.00  0.00    -0.096 A 
ATOM     10  HN1 IND d   1      -0.743   0.165   1.926  0.00  0.00     0.298 HD
ENDROOT
TORSDOF 0
ENDMDL
