MODEL 1
REMARK minimizedAffinity 2.75415301
REMARK minimizedRMSD -1
REMARK  0 active torsions:
REMARK  status: ('A' for Active; 'I' for Inactive)
ROOT
ATOM      1  N1  IND d   1      -2.825  -2.041   0.695  0.00  0.00    -0.196 N 
ATOM      2  C2  IND d   1      -2.793  -3.282   0.124  0.00  0.00     0.054 A 
ATOM      3  C3  IND d   1      -1.529  -3.760   0.106  0.00  0.00    -0.031 A 
ATOM      4  C4  IND d   1       0.627  -2.716   1.050  0.00  0.00     0.051 A 
ATOM      5  C5  IND d   1       1.107  -1.576   1.631  0.00  0.00    -0.031 A 
ATOM      6  C6  IND d   1       0.284  -0.512   1.938  0.00  0.00     0.015 A 
ATOM      7  C7  IND d   1      -1.058  -0.553   1.685  0.00  0.00    -0.016 A 
ATOM      8  C8  IND d   1      -1.548  -1.707   1.089  0.00  0.00    -0.047 A 
ATOM      9  C9  IND d   1      -0.710  -2.773   0.736  0.00  0.00    -0.096 A 
ATOM     10  HN1 IND d   1      -3.525  -1.550   0.791  0.00  0.00     0.298 HD
ENDROOT
TORSDOF 0
ENDMDL
