MODEL 1
REMARK minimizedAffinity 14.5706587
REMARK minimizedRMSD -1
REMARK  0 active torsions:
REMARK  status: ('A' for Active; 'I' for Inactive)
ROOT
ATOM      1  N1  IND d   1       1.213  -0.186   3.195  0.00  0.00    -0.196 N 
ATOM      2  C2  IND d   1       1.593  -0.319   1.888  0.00  0.00     0.054 A 
ATOM      3  C3  IND d   1       2.201  -1.511   1.695  0.00  0.00    -0.031 A 
ATOM      4  C4  IND d   1       2.591  -3.438   3.357  0.00  0.00     0.051 A 
ATOM      5  C5  IND d   1       2.452  -3.767   4.676  0.00  0.00    -0.031 A 
ATOM      6  C6  IND d   1       1.879  -2.903   5.587  0.00  0.00     0.015 A 
ATOM      7  C7  IND d   1       1.411  -1.676   5.208  0.00  0.00    -0.016 A 
ATOM      8  C8  IND d   1       1.557  -1.336   3.871  0.00  0.00    -0.047 A 
ATOM      9  C9  IND d   1       2.176  -2.191   2.951  0.00  0.00    -0.096 A 
ATOM     10  HN1 IND d   1       0.826   0.501   3.537  0.00  0.00     0.298 HD
ENDROOT
TORSDOF 0
ENDMDL
