MODEL 1
REMARK minimizedAffinity 2.6242907
REMARK minimizedRMSD -1
REMARK  0 active torsions:
REMARK  status: ('A' for Active; 'I' for Inactive)
ROOT
ATOM      1  N1  IND d   1       4.079   3.749  -0.883  0.00  0.00    -0.196 N 
ATOM      2  C2  IND d   1       5.083   4.529  -0.383  0.00  0.00     0.054 A 
ATOM      3  C3  IND d   1       6.000   4.790  -1.342  0.00  0.00    -0.031 A 
ATOM      4  C4  IND d   1       6.000   4.121  -3.828  0.00  0.00     0.051 A 
ATOM      5  C5  IND d   1       5.311   3.376  -4.743  0.00  0.00    -0.031 A 
ATOM      6  C6  IND d   1       4.151   2.706  -4.412  0.00  0.00     0.015 A 
ATOM      7  C7  IND d   1       3.628   2.765  -3.151  0.00  0.00    -0.016 A 
ATOM      8  C8  IND d   1       4.329   3.515  -2.218  0.00  0.00    -0.047 A 
ATOM      9  C9  IND d   1       5.530   4.163  -2.537  0.00  0.00    -0.096 A 
ATOM     10  HN1 IND d   1       3.404   3.453  -0.440  0.00  0.00     0.298 HD
ENDROOT
TORSDOF 0
ENDMDL
