MODEL 1
REMARK minimizedAffinity -1.00469768
REMARK minimizedRMSD -1
REMARK  0 active torsions:
REMARK  status: ('A' for Active; 'I' for Inactive)
ROOT
ATOM      1  N1  IND d   1       5.998   6.000  -1.837  0.00  0.00    -0.196 N 
ATOM      2  C2  IND d   1       5.962   5.435  -0.593  0.00  0.00     0.054 A 
ATOM      3  C3  IND d   1       5.908   4.087  -0.690  0.00  0.00    -0.031 A 
ATOM      4  C4  IND d   1       5.972   2.594  -2.786  0.00  0.00     0.051 A 
ATOM      5  C5  IND d   1       5.967   2.654  -4.151  0.00  0.00    -0.031 A 
ATOM      6  C6  IND d   1       5.975   3.856  -4.829  0.00  0.00     0.015 A 
ATOM      7  C7  IND d   1       6.000   5.049  -4.163  0.00  0.00    -0.016 A 
ATOM      8  C8  IND d   1       5.998   4.992  -2.776  0.00  0.00    -0.047 A 
ATOM      9  C9  IND d   1       5.947   3.776  -2.083  0.00  0.00    -0.096 A 
ATOM     10  HN1 IND d   1       6.018   6.843  -2.005  0.00  0.00     0.298 HD
ENDROOT
TORSDOF 0
ENDMDL
