MODEL 1
REMARK minimizedAffinity 4.27366829
REMARK minimizedRMSD -1
REMARK  0 active torsions:
REMARK  status: ('A' for Active; 'I' for Inactive)
ROOT
ATOM      1  N1  IND d   1       2.522   1.491   4.932  0.00  0.00    -0.196 N 
ATOM      2  C2  IND d   1       2.846   2.488   4.054  0.00  0.00     0.054 A 
ATOM      3  C3  IND d   1       2.805   2.028   2.784  0.00  0.00    -0.031 A 
ATOM      4  C4  IND d   1       2.132  -0.298   1.908  0.00  0.00     0.051 A 
ATOM      5  C5  IND d   1       1.792  -1.552   2.332  0.00  0.00    -0.031 A 
ATOM      6  C6  IND d   1       1.673  -1.861   3.671  0.00  0.00     0.015 A 
ATOM      7  C7  IND d   1       1.879  -0.920   4.641  0.00  0.00    -0.016 A 
ATOM      8  C8  IND d   1       2.232   0.352   4.214  0.00  0.00    -0.047 A 
ATOM      9  C9  IND d   1       2.396   0.661   2.857  0.00  0.00    -0.096 A 
ATOM     10  HN1 IND d   1       2.504   1.563   5.789  0.00  0.00     0.298 HD
ENDROOT
TORSDOF 0
ENDMDL
