MODEL 1
REMARK minimizedAffinity -1.78368878
REMARK minimizedRMSD -1
REMARK  0 active torsions:
REMARK  status: ('A' for Active; 'I' for Inactive)
ROOT
ATOM      1  N1  IND d   1       3.752  -0.163  -5.993  0.00  0.00    -0.196 N 
ATOM      2  C2  IND d   1       4.945   0.503  -5.963  0.00  0.00     0.054 A 
ATOM      3  C3  IND d   1       5.973  -0.374  -5.920  0.00  0.00    -0.031 A 
ATOM      4  C4  IND d   1       5.930  -2.947  -5.994  0.00  0.00     0.051 A 
ATOM      5  C5  IND d   1       5.072  -4.011  -5.986  0.00  0.00    -0.031 A 
ATOM      6  C6  IND d   1       3.703  -3.843  -5.983  0.00  0.00     0.015 A 
ATOM      7  C7  IND d   1       3.137  -2.599  -5.999  0.00  0.00    -0.016 A 
ATOM      8  C8  IND d   1       4.005  -1.517  -6.000  0.00  0.00    -0.047 A 
ATOM      9  C9  IND d   1       5.396  -1.681  -5.960  0.00  0.00    -0.096 A 
ATOM     10  HN1 IND d   1       2.973   0.203  -6.006  0.00  0.00     0.298 HD
ENDROOT
TORSDOF 0
ENDMDL
