MODEL 1
REMARK minimizedAffinity 2.64246011
REMARK minimizedRMSD -1
REMARK  1 active torsions:
REMARK  status: ('A' for Active; 'I' for Inactive)
REMARK    1  A    between atoms: N_2  and  C1_3 
ROOT
ATOM      1  C1  UNL d   1       1.979   0.218   0.256  0.00  0.00     0.143 A 
ATOM      2  C2  UNL d   1       1.454  -0.751   1.118  0.00  0.00    -0.057 A 
ATOM      3  C3  UNL d   1       1.731  -2.111   0.937  0.00  0.00     0.033 A 
ATOM      4  C4  UNL d   1       2.518  -2.530  -0.131  0.00  0.00    -0.042 A 
ATOM      5  C5  UNL d   1       3.030  -1.587  -1.015  0.00  0.00     0.033 A 
ATOM      6  C6  UNL d   1       2.755  -0.230  -0.824  0.00  0.00    -0.057 A 
ENDROOT
BRANCH   1   7
ATOM      7  N   UNL d   1       1.659   1.576   0.326  0.00  0.00    -0.732 N 
ATOM      8  C   UNL d   1       0.338   2.042  -0.036  0.00  0.00     0.284 C 
ATOM      9  H3  UNL d   1       2.046   2.024   1.153  0.00  0.00     0.395 HD
ENDBRANCH   1   7
TORSDOF 1
ENDMDL
