MODEL 1
REMARK minimizedAffinity -1.787799
REMARK minimizedRMSD -1
REMARK  1 active torsions:
REMARK  status: ('A' for Active; 'I' for Inactive)
REMARK    1  A    between atoms: N_2  and  C1_3 
ROOT
ATOM      1  C1  UNL d   1       0.317  -1.024  -0.694  0.00  0.00     0.143 A 
ATOM      2  C2  UNL d   1       1.170  -2.133  -0.668  0.00  0.00    -0.057 A 
ATOM      3  C3  UNL d   1       2.377  -2.105   0.042  0.00  0.00     0.033 A 
ATOM      4  C4  UNL d   1       2.766  -0.953   0.717  0.00  0.00    -0.042 A 
ATOM      5  C5  UNL d   1       1.947   0.170   0.684  0.00  0.00     0.033 A 
ATOM      6  C6  UNL d   1       0.740   0.133  -0.021  0.00  0.00    -0.057 A 
ENDROOT
BRANCH   1   7
ATOM      7  N   UNL d   1      -0.848  -0.957  -1.462  0.00  0.00    -0.732 N 
ATOM      8  C   UNL d   1      -1.300   0.306  -2.006  0.00  0.00     0.284 C 
ATOM      9  H3  UNL d   1      -0.936  -1.742  -2.103  0.00  0.00     0.395 HD
ENDBRANCH   1   7
TORSDOF 1
ENDMDL
