MODEL 1
REMARK minimizedAffinity 2.96842265
REMARK minimizedRMSD -1
REMARK  1 active torsions:
REMARK  status: ('A' for Active; 'I' for Inactive)
REMARK    1  A    between atoms: N_2  and  C1_3 
ROOT
ATOM      1  C1  UNL d   1       1.588   1.373  -0.131  0.00  0.00     0.143 A 
ATOM      2  C2  UNL d   1       1.723  -0.019  -0.113  0.00  0.00    -0.057 A 
ATOM      3  C3  UNL d   1       2.940  -0.627   0.216  0.00  0.00     0.033 A 
ATOM      4  C4  UNL d   1       4.057   0.151   0.506  0.00  0.00    -0.042 A 
ATOM      5  C5  UNL d   1       3.953   1.537   0.469  0.00  0.00     0.033 A 
ATOM      6  C6  UNL d   1       2.732   2.137   0.147  0.00  0.00    -0.057 A 
ENDROOT
BRANCH   1   7
ATOM      7  N   UNL d   1       0.431   2.037  -0.545  0.00  0.00    -0.732 N 
ATOM      8  C   UNL d   1      -0.487   1.410  -1.471  0.00  0.00     0.284 C 
ATOM      9  H3  UNL d   1      -0.023   2.538   0.215  0.00  0.00     0.395 HD
ENDBRANCH   1   7
TORSDOF 1
ENDMDL
