MODEL 1
REMARK minimizedAffinity 5.69294596
REMARK minimizedRMSD -1
REMARK  1 active torsions:
REMARK  status: ('A' for Active; 'I' for Inactive)
REMARK    1  A    between atoms: N_2  and  C1_3 
ROOT
ATOM      1  C1  UNL d   1       0.845  -1.345  -0.331  0.00  0.00     0.143 A 
ATOM      2  C2  UNL d   1       0.285  -2.308  -1.177  0.00  0.00    -0.057 A 
ATOM      3  C3  UNL d   1      -0.647  -1.957  -2.161  0.00  0.00     0.033 A 
ATOM      4  C4  UNL d   1      -1.059  -0.635  -2.296  0.00  0.00    -0.042 A 
ATOM      5  C5  UNL d   1      -0.535   0.335  -1.449  0.00  0.00     0.033 A 
ATOM      6  C6  UNL d   1       0.401  -0.021  -0.474  0.00  0.00    -0.057 A 
ENDROOT
BRANCH   1   7
ATOM      7  N   UNL d   1       1.702  -1.646   0.730  0.00  0.00    -0.732 N 
ATOM      8  C   UNL d   1       1.376  -1.239   2.080  0.00  0.00     0.284 C 
ATOM      9  H3  UNL d   1       2.091  -2.584   0.662  0.00  0.00     0.395 HD
ENDBRANCH   1   7
TORSDOF 1
ENDMDL
