MODEL 1
REMARK minimizedAffinity -3.04907823
REMARK minimizedRMSD -1
REMARK  0 active torsions:
REMARK  status: ('A' for Active; 'I' for Inactive)
ROOT
ATOM      1  O1  BZF d   1       1.385  -4.696   0.832  0.00  0.00    -0.204 OA
ATOM      2  C2  BZF d   1       0.349  -5.142   1.630  0.00  0.00     0.174 A 
ATOM      3  C3  BZF d   1      -0.309  -4.104   2.185  0.00  0.00    -0.012 A 
ATOM      4  C3A BZF d   1       0.299  -2.933   1.631  0.00  0.00    -0.107 A 
ATOM      5  C4  BZF d   1       0.073  -1.595   1.783  0.00  0.00     0.055 A 
ATOM      6  C5  BZF d   1       0.892  -0.711   1.156  0.00  0.00    -0.016 A 
ATOM      7  C6  BZF d   1       1.949  -1.128   0.375  0.00  0.00     0.022 A 
ATOM      8  C7  BZF d   1       2.211  -2.445   0.189  0.00  0.00     0.029 A 
ATOM      9  C7A BZF d   1       1.364  -3.342   0.795  0.00  0.00     0.058 A 
ENDROOT
TORSDOF 0
ENDMDL
