MODEL 1
REMARK minimizedAffinity 1.64366412
REMARK minimizedRMSD -1
REMARK  0 active torsions:
REMARK  status: ('A' for Active; 'I' for Inactive)
ROOT
ATOM      1  O1  BZF d   1       0.800  -0.671   2.506  0.00  0.00    -0.204 OA
ATOM      2  C2  BZF d   1      -0.166   0.067   1.848  0.00  0.00     0.174 A 
ATOM      3  C3  BZF d   1      -0.205  -0.256   0.539  0.00  0.00    -0.012 A 
ATOM      4  C3A BZF d   1       0.734  -1.325   0.387  0.00  0.00    -0.107 A 
ATOM      5  C4  BZF d   1       1.132  -2.080  -0.679  0.00  0.00     0.055 A 
ATOM      6  C5  BZF d   1       2.123  -2.994  -0.508  0.00  0.00    -0.016 A 
ATOM      7  C6  BZF d   1       2.741  -3.175   0.712  0.00  0.00     0.022 A 
ATOM      8  C7  BZF d   1       2.377  -2.453   1.800  0.00  0.00     0.029 A 
ATOM      9  C7A BZF d   1       1.353  -1.551   1.638  0.00  0.00     0.058 A 
ENDROOT
TORSDOF 0
ENDMDL
