MODEL 1
REMARK minimizedAffinity 2.45383763
REMARK minimizedRMSD -1
REMARK  0 active torsions:
REMARK  status: ('A' for Active; 'I' for Inactive)
ROOT
ATOM      1  O1  BZF d   1      -0.896  -1.273   2.134  0.00  0.00    -0.204 OA
ATOM      2  C2  BZF d   1      -1.491  -0.346   1.301  0.00  0.00     0.174 A 
ATOM      3  C3  BZF d   1      -0.821  -0.252   0.134  0.00  0.00    -0.012 A 
ATOM      4  C3A BZF d   1       0.206  -1.245   0.209  0.00  0.00    -0.107 A 
ATOM      5  C4  BZF d   1       1.188  -1.647  -0.651  0.00  0.00     0.055 A 
ATOM      6  C5  BZF d   1       2.074  -2.593  -0.245  0.00  0.00    -0.016 A 
ATOM      7  C6  BZF d   1       2.013  -3.154   1.013  0.00  0.00     0.022 A 
ATOM      8  C7  BZF d   1       1.054  -2.791   1.900  0.00  0.00     0.029 A 
ATOM      9  C7A BZF d   1       0.136  -1.859   1.481  0.00  0.00     0.058 A 
ENDROOT
TORSDOF 0
ENDMDL
