MODEL 1
REMARK minimizedAffinity 19.5942631
REMARK minimizedRMSD -1
REMARK  0 active torsions:
REMARK  status: ('A' for Active; 'I' for Inactive)
ROOT
ATOM      1  O1  BZF d   1       1.929  -4.895  -0.509  0.00  0.00    -0.204 OA
ATOM      2  C2  BZF d   1       1.512  -3.780   0.191  0.00  0.00     0.174 A 
ATOM      3  C3  BZF d   1       2.545  -3.210   0.844  0.00  0.00    -0.012 A 
ATOM      4  C3A BZF d   1       3.697  -3.967   0.459  0.00  0.00    -0.107 A 
ATOM      5  C4  BZF d   1       5.024  -3.877   0.765  0.00  0.00     0.055 A 
ATOM      6  C5  BZF d   1       5.879  -4.816   0.280  0.00  0.00    -0.016 A 
ATOM      7  C6  BZF d   1       5.440  -5.859  -0.509  0.00  0.00     0.022 A 
ATOM      8  C7  BZF d   1       4.133  -5.987  -0.843  0.00  0.00     0.029 A 
ATOM      9  C7A BZF d   1       3.272  -5.021  -0.382  0.00  0.00     0.058 A 
ENDROOT
TORSDOF 0
ENDMDL
