MODEL 1
REMARK minimizedAffinity 1.80788791
REMARK minimizedRMSD -1
REMARK  0 active torsions:
REMARK  status: ('A' for Active; 'I' for Inactive)
ROOT
ATOM      1  O1  BZF d   1       2.473  -3.793  -0.108  0.00  0.00    -0.204 OA
ATOM      2  C2  BZF d   1       2.296  -4.812   0.809  0.00  0.00     0.174 A 
ATOM      3  C3  BZF d   1       1.427  -4.443   1.772  0.00  0.00    -0.012 A 
ATOM      4  C3A BZF d   1       0.965  -3.145   1.385  0.00  0.00    -0.107 A 
ATOM      5  C4  BZF d   1       0.076  -2.263   1.931  0.00  0.00     0.055 A 
ATOM      6  C5  BZF d   1      -0.094  -1.049   1.344  0.00  0.00    -0.016 A 
ATOM      7  C6  BZF d   1       0.611  -0.682   0.217  0.00  0.00     0.022 A 
ATOM      8  C7  BZF d   1       1.500  -1.524  -0.363  0.00  0.00     0.029 A 
ATOM      9  C7A BZF d   1       1.650  -2.765   0.208  0.00  0.00     0.058 A 
ENDROOT
TORSDOF 0
ENDMDL
