MODEL 1
REMARK minimizedAffinity 6.03622389
REMARK minimizedRMSD -1
REMARK  0 active torsions:
REMARK  status: ('A' for Active; 'I' for Inactive)
ROOT
ATOM      1  O1  BZF d   1       2.855  -3.003  -0.480  0.00  0.00    -0.204 OA
ATOM      2  C2  BZF d   1       2.747  -4.334  -0.124  0.00  0.00     0.174 A 
ATOM      3  C3  BZF d   1       1.767  -4.508   0.785  0.00  0.00    -0.012 A 
ATOM      4  C3A BZF d   1       1.166  -3.219   0.943  0.00  0.00    -0.107 A 
ATOM      5  C4  BZF d   1       0.129  -2.752   1.699  0.00  0.00     0.055 A 
ATOM      6  C5  BZF d   1      -0.158  -1.424   1.679  0.00  0.00    -0.016 A 
ATOM      7  C6  BZF d   1       0.574  -0.535   0.919  0.00  0.00     0.022 A 
ATOM      8  C7  BZF d   1       1.609  -0.951   0.150  0.00  0.00     0.029 A 
ATOM      9  C7A BZF d   1       1.880  -2.298   0.142  0.00  0.00     0.058 A 
ENDROOT
TORSDOF 0
ENDMDL
