MODEL 1
REMARK minimizedAffinity -2.54897928
REMARK minimizedRMSD -1
REMARK  0 active torsions:
REMARK  status: ('A' for Active; 'I' for Inactive)
ROOT
ATOM      1  O1  BZF d   1       0.021  -2.244   2.382  0.00  0.00    -0.204 OA
ATOM      2  C2  BZF d   1      -0.521  -1.015   2.059  0.00  0.00     0.174 A 
ATOM      3  C3  BZF d   1       0.034  -0.530   0.930  0.00  0.00    -0.012 A 
ATOM      4  C3A BZF d   1       0.916  -1.559   0.471  0.00  0.00    -0.107 A 
ATOM      5  C4  BZF d   1       1.739  -1.677  -0.612  0.00  0.00     0.055 A 
ATOM      6  C5  BZF d   1       2.522  -2.781  -0.730  0.00  0.00    -0.016 A 
ATOM      7  C6  BZF d   1       2.510  -3.784   0.217  0.00  0.00     0.022 A 
ATOM      8  C7  BZF d   1       1.706  -3.715   1.306  0.00  0.00     0.029 A 
ATOM      9  C7A BZF d   1       0.889  -2.615   1.411  0.00  0.00     0.058 A 
ENDROOT
TORSDOF 0
ENDMDL
