MODEL 1
REMARK minimizedAffinity 0.00560982944
REMARK minimizedRMSD -1
REMARK  0 active torsions:
REMARK  status: ('A' for Active; 'I' for Inactive)
ROOT
ATOM      1  O1  BZF d   1      -4.406   5.445   6.000  0.00  0.00    -0.204 OA
ATOM      2  C2  BZF d   1      -3.112   5.646   5.560  0.00  0.00     0.174 A 
ATOM      3  C3  BZF d   1      -2.596   4.507   5.055  0.00  0.00    -0.012 A 
ATOM      4  C3A BZF d   1      -3.664   3.557   5.103  0.00  0.00    -0.107 A 
ATOM      5  C4  BZF d   1      -3.775   2.248   4.726  0.00  0.00     0.055 A 
ATOM      6  C5  BZF d   1      -4.934   1.585   4.976  0.00  0.00    -0.016 A 
ATOM      7  C6  BZF d   1      -6.000   2.196   5.604  0.00  0.00     0.022 A 
ATOM      8  C7  BZF d   1      -5.939   3.494   5.991  0.00  0.00     0.029 A 
ATOM      9  C7A BZF d   1      -4.781   4.176   5.710  0.00  0.00     0.058 A 
ENDROOT
TORSDOF 0
ENDMDL
