MODEL 1
REMARK minimizedAffinity 8.35012817
REMARK minimizedRMSD -1
REMARK  0 active torsions:
REMARK  status: ('A' for Active; 'I' for Inactive)
ROOT
ATOM      1  O1  BZF d   1       1.265  -4.178   0.939  0.00  0.00    -0.204 OA
ATOM      2  C2  BZF d   1       2.557  -4.206   0.451  0.00  0.00     0.174 A 
ATOM      3  C3  BZF d   1       3.005  -2.956   0.212  0.00  0.00    -0.012 A 
ATOM      4  C3A BZF d   1       1.959  -2.089   0.662  0.00  0.00    -0.107 A 
ATOM      5  C4  BZF d   1       1.818  -0.732   0.703  0.00  0.00     0.055 A 
ATOM      6  C5  BZF d   1       0.642  -0.203   1.133  0.00  0.00    -0.016 A 
ATOM      7  C6  BZF d   1      -0.413  -1.001   1.524  0.00  0.00     0.022 A 
ATOM      8  C7  BZF d   1      -0.318  -2.353   1.504  0.00  0.00     0.029 A 
ATOM      9  C7A BZF d   1       0.880  -2.890   1.102  0.00  0.00     0.058 A 
ENDROOT
TORSDOF 0
ENDMDL
