MODEL 1
REMARK minimizedAffinity 3.79809546
REMARK minimizedRMSD -1
REMARK  0 active torsions:
REMARK  status: ('A' for Active; 'I' for Inactive)
ROOT
ATOM      1  C4' PXY d   1       2.616  -0.150   1.249  0.00  0.00     0.077 C 
ATOM      2  C1' PXY d   1      -0.533   0.663  -3.530  0.00  0.00     0.077 C 
ATOM      3  C1  PXY d   1       0.304   0.452  -2.283  0.00  0.00    -0.082 A 
ATOM      4  C2  PXY d   1      -0.148  -0.330  -1.316  0.00  0.00     0.003 A 
ATOM      5  C3  PXY d   1       0.581  -0.506  -0.168  0.00  0.00     0.003 A 
ATOM      6  C4  PXY d   1       1.810   0.083  -0.031  0.00  0.00    -0.082 A 
ATOM      7  C5  PXY d   1       2.282   0.874  -1.018  0.00  0.00     0.003 A 
ATOM      8  C6  PXY d   1       1.508   1.073  -2.157  0.00  0.00     0.003 A 
ENDROOT
TORSDOF 0
ENDMDL
