MODEL 1
REMARK minimizedAffinity 2.80721951
REMARK minimizedRMSD -1
REMARK  0 active torsions:
REMARK  status: ('A' for Active; 'I' for Inactive)
ROOT
ATOM      1  C4' PXY d   1       2.739  -1.197   0.750  0.00  0.00     0.077 C 
ATOM      2  C1' PXY d   1      -2.859   0.105   0.129  0.00  0.00     0.077 C 
ATOM      3  C1  PXY d   1      -1.390  -0.239   0.279  0.00  0.00    -0.082 A 
ATOM      4  C2  PXY d   1      -0.934  -0.665   1.446  0.00  0.00     0.003 A 
ATOM      5  C3  PXY d   1       0.398  -0.950   1.607  0.00  0.00     0.003 A 
ATOM      6  C4  PXY d   1       1.261  -0.848   0.550  0.00  0.00    -0.082 A 
ATOM      7  C5  PXY d   1       0.801  -0.424  -0.646  0.00  0.00     0.003 A 
ATOM      8  C6  PXY d   1      -0.546  -0.101  -0.779  0.00  0.00     0.003 A 
ENDROOT
TORSDOF 0
ENDMDL
