MODEL 1
REMARK minimizedAffinity 1.38471258
REMARK minimizedRMSD -1
REMARK  0 active torsions:
REMARK  status: ('A' for Active; 'I' for Inactive)
ROOT
ATOM      1  C4' PXY d   1       0.087   0.197  -3.268  0.00  0.00     0.077 C 
ATOM      2  C1' PXY d   1      -1.700   0.734   2.203  0.00  0.00     0.077 C 
ATOM      3  C1  PXY d   1      -1.219   0.590   0.773  0.00  0.00    -0.082 A 
ATOM      4  C2  PXY d   1      -1.874   1.200  -0.202  0.00  0.00     0.003 A 
ATOM      5  C3  PXY d   1      -1.472   1.055  -1.505  0.00  0.00     0.003 A 
ATOM      6  C4  PXY d   1      -0.357   0.321  -1.808  0.00  0.00    -0.082 A 
ATOM      7  C5  PXY d   1       0.323  -0.295  -0.818  0.00  0.00     0.003 A 
ATOM      8  C6  PXY d   1      -0.126  -0.169   0.494  0.00  0.00     0.003 A 
ENDROOT
TORSDOF 0
ENDMDL
