MODEL 1
REMARK minimizedAffinity -5.63572216
REMARK minimizedRMSD -1
REMARK  0 active torsions:
REMARK  status: ('A' for Active; 'I' for Inactive)
ROOT
ATOM      1  C4' PXY d   1       0.728  -0.403  -0.981  0.00  0.00     0.077 C 
ATOM      2  C1' PXY d   1       0.070   1.270   4.513  0.00  0.00     0.077 C 
ATOM      3  C1  PXY d   1       0.255   0.832   3.073  0.00  0.00    -0.082 A 
ATOM      4  C2  PXY d   1      -0.704   1.060   2.191  0.00  0.00     0.003 A 
ATOM      5  C3  PXY d   1      -0.566   0.642   0.893  0.00  0.00     0.003 A 
ATOM      6  C4  PXY d   1       0.588   0.031   0.481  0.00  0.00    -0.082 A 
ATOM      7  C5  PXY d   1       1.576  -0.196   1.372  0.00  0.00     0.003 A 
ATOM      8  C6  PXY d   1       1.399   0.200   2.695  0.00  0.00     0.003 A 
ENDROOT
TORSDOF 0
ENDMDL
