MODEL 1
REMARK minimizedAffinity 0.148923725
REMARK minimizedRMSD -1
REMARK  0 active torsions:
REMARK  status: ('A' for Active; 'I' for Inactive)
ROOT
ATOM      1  C4' PXY d   1      -0.270  -0.064   3.634  0.00  0.00     0.077 C 
ATOM      2  C1' PXY d   1       1.037   0.142  -1.993  0.00  0.00     0.077 C 
ATOM      3  C1  PXY d   1       0.704   0.080  -0.515  0.00  0.00    -0.082 A 
ATOM      4  C2  PXY d   1      -0.520   0.373  -0.107  0.00  0.00     0.003 A 
ATOM      5  C3  PXY d   1      -0.830   0.353   1.228  0.00  0.00     0.003 A 
ATOM      6  C4  PXY d   1       0.109  -0.023   2.151  0.00  0.00    -0.082 A 
ATOM      7  C5  PXY d   1       1.357  -0.334   1.742  0.00  0.00     0.003 A 
ATOM      8  C6  PXY d   1       1.662  -0.267   0.386  0.00  0.00     0.003 A 
ENDROOT
TORSDOF 0
ENDMDL
