MODEL 1
REMARK minimizedAffinity -4.6232357
REMARK minimizedRMSD -1
REMARK  0 active torsions:
REMARK  status: ('A' for Active; 'I' for Inactive)
ROOT
ATOM      1  C4' PXY d   1       0.427  -0.603  -1.489  0.00  0.00     0.077 C 
ATOM      2  C1' PXY d   1      -0.137   1.456   3.883  0.00  0.00     0.077 C 
ATOM      3  C1  PXY d   1      -0.002   0.914   2.473  0.00  0.00    -0.082 A 
ATOM      4  C2  PXY d   1       1.152   0.401   2.078  0.00  0.00     0.003 A 
ATOM      5  C3  PXY d   1       1.301  -0.064   0.796  0.00  0.00     0.003 A 
ATOM      6  C4  PXY d   1       0.243  -0.053  -0.072  0.00  0.00    -0.082 A 
ATOM      7  C5  PXY d   1      -0.941   0.459   0.327  0.00  0.00     0.003 A 
ATOM      8  C6  PXY d   1      -1.060   0.964   1.619  0.00  0.00     0.003 A 
ENDROOT
TORSDOF 0
ENDMDL
