MODEL 1
REMARK minimizedAffinity -4.37854481
REMARK minimizedRMSD -1
REMARK  0 active torsions:
REMARK  status: ('A' for Active; 'I' for Inactive)
ROOT
ATOM      1  C4' PXY d   1      -0.157   1.668   3.453  0.00  0.00     0.077 C 
ATOM      2  C1' PXY d   1      -0.170  -0.741  -1.801  0.00  0.00     0.077 C 
ATOM      3  C1  PXY d   1      -0.179  -0.104  -0.426  0.00  0.00    -0.082 A 
ATOM      4  C2  PXY d   1       0.967   0.119   0.199  0.00  0.00     0.003 A 
ATOM      5  C3  PXY d   1       0.976   0.665   1.456  0.00  0.00     0.003 A 
ATOM      6  C4  PXY d   1      -0.196   1.036   2.059  0.00  0.00    -0.082 A 
ATOM      7  C5  PXY d   1      -1.368   0.822   1.424  0.00  0.00     0.003 A 
ATOM      8  C6  PXY d   1      -1.358   0.228   0.165  0.00  0.00     0.003 A 
ENDROOT
TORSDOF 0
ENDMDL
