MODEL 1
REMARK minimizedAffinity -3.46443009
REMARK minimizedRMSD -1
REMARK  0 active torsions:
REMARK  status: ('A' for Active; 'I' for Inactive)
ROOT
ATOM      1  C4' PXY d   1      -0.827   1.120   3.642  0.00  0.00     0.077 C 
ATOM      2  C1' PXY d   1       0.554  -0.734  -1.656  0.00  0.00     0.077 C 
ATOM      3  C1  PXY d   1       0.179  -0.248  -0.270  0.00  0.00    -0.082 A 
ATOM      4  C2  PXY d   1       1.043   0.473   0.427  0.00  0.00     0.003 A 
ATOM      5  C3  PXY d   1       0.732   0.893   1.695  0.00  0.00     0.003 A 
ATOM      6  C4  PXY d   1      -0.495   0.617   2.235  0.00  0.00    -0.082 A 
ATOM      7  C5  PXY d   1      -1.386  -0.109   1.526  0.00  0.00     0.003 A 
ATOM      8  C6  PXY d   1      -1.036  -0.561   0.257  0.00  0.00     0.003 A 
ENDROOT
TORSDOF 0
ENDMDL
