MODEL 1
REMARK minimizedAffinity -3.75976896
REMARK minimizedRMSD -1
REMARK  0 active torsions:
REMARK  status: ('A' for Active; 'I' for Inactive)
ROOT
ATOM      1  C4' PXY d   1       0.295  -0.498   3.697  0.00  0.00     0.077 C 
ATOM      2  C1' PXY d   1       0.420  -0.819  -2.073  0.00  0.00     0.077 C 
ATOM      3  C1  PXY d   1       0.379  -0.725  -0.561  0.00  0.00    -0.082 A 
ATOM      4  C2  PXY d   1       1.386  -1.202   0.152  0.00  0.00     0.003 A 
ATOM      5  C3  PXY d   1       1.351  -1.154   1.522  0.00  0.00     0.003 A 
ATOM      6  C4  PXY d   1       0.298  -0.563   2.167  0.00  0.00    -0.082 A 
ATOM      7  C5  PXY d   1      -0.729  -0.064   1.447  0.00  0.00     0.003 A 
ATOM      8  C6  PXY d   1      -0.693  -0.160   0.059  0.00  0.00     0.003 A 
ENDROOT
TORSDOF 0
ENDMDL
