MODEL 1
REMARK minimizedAffinity -2.81276417
REMARK minimizedRMSD -1
REMARK  0 active torsions:
REMARK  status: ('A' for Active; 'I' for Inactive)
ROOT
ATOM      1  C4' PXY d   1       0.802  -0.020   4.528  0.00  0.00     0.077 C 
ATOM      2  C1' PXY d   1      -0.528  -0.547  -1.073  0.00  0.00     0.077 C 
ATOM      3  C1  PXY d   1      -0.188  -0.399   0.397  0.00  0.00    -0.082 A 
ATOM      4  C2  PXY d   1       0.997  -0.792   0.837  0.00  0.00     0.003 A 
ATOM      5  C3  PXY d   1       1.309  -0.695   2.169  0.00  0.00     0.003 A 
ATOM      6  C4  PXY d   1       0.419  -0.142   3.050  0.00  0.00    -0.082 A 
ATOM      7  C5  PXY d   1      -0.788   0.271   2.607  0.00  0.00     0.003 A 
ATOM      8  C6  PXY d   1      -1.101   0.126   1.259  0.00  0.00     0.003 A 
ENDROOT
TORSDOF 0
ENDMDL
