MODEL 1
REMARK minimizedAffinity -2.24424529
REMARK minimizedRMSD -1
REMARK  1 active torsions:
REMARK  status: ('A' for Active; 'I' for Inactive)
REMARK    1  A    between atoms: C1_2  and  C2_3 
ROOT
ATOM      1  C2  UNL d   1      -0.908   0.879  -0.996  0.00  0.00    -0.081 A 
ATOM      2  C3  UNL d   1       0.079   0.281  -1.789  0.00  0.00     0.006 A 
ATOM      3  C4  UNL d   1       1.160  -0.379  -1.199  0.00  0.00     0.002 A 
ATOM      4  C5  UNL d   1       1.267  -0.459   0.194  0.00  0.00    -0.080 A 
ATOM      5  C6  UNL d   1       2.406  -1.190   0.840  0.00  0.00     0.076 C 
ATOM      6  C7  UNL d   1       0.291   0.153   0.987  0.00  0.00     0.002 A 
ATOM      7  C8  UNL d   1      -0.789   0.814   0.397  0.00  0.00     0.006 A 
ENDROOT
BRANCH   1   8
ATOM      8  C1  UNL d   1      -2.108   1.535  -1.629  0.00  0.00     0.054 C 
ATOM      9  C   UNL d   1      -1.724   2.282  -2.899  0.00  0.00     0.018 C 
ENDBRANCH   1   8
TORSDOF 1
ENDMDL
