MODEL 1
REMARK minimizedAffinity -3.50377202
REMARK minimizedRMSD -1
REMARK  1 active torsions:
REMARK  status: ('A' for Active; 'I' for Inactive)
REMARK    1  A    between atoms: C1_2  and  C2_3 
ROOT
ATOM      1  C2  UNL d   1      -1.126   0.626  -1.088  0.00  0.00    -0.081 A 
ATOM      2  C3  UNL d   1      -0.511   1.488  -0.171  0.00  0.00     0.006 A 
ATOM      3  C4  UNL d   1       0.741   1.176   0.364  0.00  0.00     0.002 A 
ATOM      4  C5  UNL d   1       1.402   0.002  -0.013  0.00  0.00    -0.080 A 
ATOM      5  C6  UNL d   1       2.759  -0.330   0.531  0.00  0.00     0.076 C 
ATOM      6  C7  UNL d   1       0.780  -0.867  -0.916  0.00  0.00     0.002 A 
ATOM      7  C8  UNL d   1      -0.472  -0.556  -1.451  0.00  0.00     0.006 A 
ENDROOT
BRANCH   1   8
ATOM      8  C1  UNL d   1      -2.446   0.992  -1.717  0.00  0.00     0.054 C 
ATOM      9  C   UNL d   1      -2.251   1.611  -3.093  0.00  0.00     0.018 C 
ENDBRANCH   1   8
TORSDOF 1
ENDMDL
