MODEL 1
REMARK minimizedAffinity -3.46629071
REMARK minimizedRMSD -1
REMARK  1 active torsions:
REMARK  status: ('A' for Active; 'I' for Inactive)
REMARK    1  A    between atoms: C1_2  and  C2_3 
ROOT
ATOM      1  C2  UNL d   1      -0.249   1.083  -0.709  0.00  0.00    -0.081 A 
ATOM      2  C3  UNL d   1       1.112   1.252  -0.991  0.00  0.00     0.006 A 
ATOM      3  C4  UNL d   1       2.053   0.331  -0.524  0.00  0.00     0.002 A 
ATOM      4  C5  UNL d   1       1.648  -0.778   0.226  0.00  0.00    -0.080 A 
ATOM      5  C6  UNL d   1       2.643  -1.791   0.708  0.00  0.00     0.076 C 
ATOM      6  C7  UNL d   1       0.290  -0.938   0.523  0.00  0.00     0.002 A 
ATOM      7  C8  UNL d   1      -0.651  -0.017   0.057  0.00  0.00     0.006 A 
ENDROOT
BRANCH   1   8
ATOM      8  C1  UNL d   1      -1.272   2.039  -1.266  0.00  0.00     0.054 C 
ATOM      9  C   UNL d   1      -2.119   1.377  -2.344  0.00  0.00     0.018 C 
ENDBRANCH   1   8
TORSDOF 1
ENDMDL
