MODEL 1
REMARK minimizedAffinity -2.61929607
REMARK minimizedRMSD -1
REMARK  1 active torsions:
REMARK  status: ('A' for Active; 'I' for Inactive)
REMARK    1  A    between atoms: C1_2  and  C2_3 
ROOT
ATOM      1  C2  UNL d   1       0.203   0.259  -0.677  0.00  0.00    -0.081 A 
ATOM      2  C3  UNL d   1      -0.364  -0.499  -1.709  0.00  0.00     0.006 A 
ATOM      3  C4  UNL d   1      -1.409   0.019  -2.477  0.00  0.00     0.002 A 
ATOM      4  C5  UNL d   1      -1.898   1.307  -2.233  0.00  0.00    -0.080 A 
ATOM      5  C6  UNL d   1      -2.999   1.887  -3.071  0.00  0.00     0.076 C 
ATOM      6  C7  UNL d   1      -1.344   2.058  -1.192  0.00  0.00     0.002 A 
ATOM      7  C8  UNL d   1      -0.300   1.540  -0.422  0.00  0.00     0.006 A 
ENDROOT
BRANCH   1   8
ATOM      8  C1  UNL d   1       1.372  -0.272   0.111  0.00  0.00     0.054 C 
ATOM      9  C   UNL d   1       2.437  -0.858  -0.805  0.00  0.00     0.018 C 
ENDBRANCH   1   8
TORSDOF 1
ENDMDL
