MODEL 1
REMARK minimizedAffinity -4.67873573
REMARK minimizedRMSD -1
REMARK  1 active torsions:
REMARK  status: ('A' for Active; 'I' for Inactive)
REMARK    1  A    between atoms: C1_2  and  C2_3 
ROOT
ATOM      1  C2  UNL d   1       1.987   0.339  -0.127  0.00  0.00    -0.081 A 
ATOM      2  C3  UNL d   1       0.746   0.971  -0.271  0.00  0.00     0.006 A 
ATOM      3  C4  UNL d   1      -0.368   0.514   0.436  0.00  0.00     0.002 A 
ATOM      4  C5  UNL d   1      -0.259  -0.577   1.305  0.00  0.00    -0.080 A 
ATOM      5  C6  UNL d   1      -1.441  -1.058   2.093  0.00  0.00     0.076 C 
ATOM      6  C7  UNL d   1       0.977  -1.219   1.436  0.00  0.00     0.002 A 
ATOM      7  C8  UNL d   1       2.091  -0.763   0.729  0.00  0.00     0.006 A 
ENDROOT
BRANCH   1   8
ATOM      8  C1  UNL d   1       3.206   0.869  -0.838  0.00  0.00     0.054 C 
ATOM      9  C   UNL d   1       4.371  -0.105  -0.742  0.00  0.00     0.018 C 
ENDBRANCH   1   8
TORSDOF 1
ENDMDL
