MODEL 1
REMARK minimizedAffinity -4.14733505
REMARK minimizedRMSD -1
REMARK  1 active torsions:
REMARK  status: ('A' for Active; 'I' for Inactive)
REMARK    1  A    between atoms: C1_2  and  C2_3 
ROOT
ATOM      1  C2  UNL d   1      -0.165   0.771  -0.002  0.00  0.00    -0.081 A 
ATOM      2  C3  UNL d   1       1.190   0.659  -0.337  0.00  0.00     0.006 A 
ATOM      3  C4  UNL d   1       1.929  -0.457   0.063  0.00  0.00     0.002 A 
ATOM      4  C5  UNL d   1       1.324  -1.482   0.798  0.00  0.00    -0.080 A 
ATOM      5  C6  UNL d   1       2.098  -2.700   1.207  0.00  0.00     0.076 C 
ATOM      6  C7  UNL d   1      -0.025  -1.362   1.148  0.00  0.00     0.002 A 
ATOM      7  C8  UNL d   1      -0.764  -0.246   0.749  0.00  0.00     0.006 A 
ENDROOT
BRANCH   1   8
ATOM      8  C1  UNL d   1      -0.980   1.943  -0.487  0.00  0.00     0.054 C 
ATOM      9  C   UNL d   1      -1.771   1.586  -1.737  0.00  0.00     0.018 C 
ENDBRANCH   1   8
TORSDOF 1
ENDMDL
