MODEL 1
REMARK minimizedAffinity -5.32685089
REMARK minimizedRMSD -1
REMARK  1 active torsions:
REMARK  status: ('A' for Active; 'I' for Inactive)
REMARK    1  A    between atoms: C1_2  and  C2_3 
ROOT
ATOM      1  C2  UNL d   1       0.795   1.193  -0.349  0.00  0.00    -0.081 A 
ATOM      2  C3  UNL d   1       2.166   0.917  -0.413  0.00  0.00     0.006 A 
ATOM      3  C4  UNL d   1       2.667  -0.297   0.063  0.00  0.00     0.002 A 
ATOM      4  C5  UNL d   1       1.805  -1.257   0.603  0.00  0.00    -0.080 A 
ATOM      5  C6  UNL d   1       2.326  -2.577   1.090  0.00  0.00     0.076 C 
ATOM      6  C7  UNL d   1       0.437  -0.974   0.684  0.00  0.00     0.002 A 
ATOM      7  C8  UNL d   1      -0.064   0.240   0.209  0.00  0.00     0.006 A 
ENDROOT
BRANCH   1   8
ATOM      8  C1  UNL d   1       0.243   2.475  -0.920  0.00  0.00     0.054 C 
ATOM      9  C   UNL d   1      -1.016   2.220  -1.736  0.00  0.00     0.018 C 
ENDBRANCH   1   8
TORSDOF 1
ENDMDL
