MODEL 1
REMARK minimizedAffinity -5.38070393
REMARK minimizedRMSD -1
REMARK  1 active torsions:
REMARK  status: ('A' for Active; 'I' for Inactive)
REMARK    1  A    between atoms: C1_2  and  C2_3 
ROOT
ATOM      1  C2  UNL d   1      -0.897   0.741  -0.687  0.00  0.00    -0.081 A 
ATOM      2  C3  UNL d   1      -0.844   0.383   0.666  0.00  0.00     0.006 A 
ATOM      3  C4  UNL d   1      -0.159  -0.767   1.068  0.00  0.00     0.002 A 
ATOM      4  C5  UNL d   1       0.490  -1.572   0.126  0.00  0.00    -0.080 A 
ATOM      5  C6  UNL d   1       1.254  -2.792   0.548  0.00  0.00     0.076 C 
ATOM      6  C7  UNL d   1       0.423  -1.224  -1.227  0.00  0.00     0.002 A 
ATOM      7  C8  UNL d   1      -0.263  -0.076  -1.630  0.00  0.00     0.006 A 
ENDROOT
BRANCH   1   8
ATOM      8  C1  UNL d   1      -1.579   2.014  -1.116  0.00  0.00     0.054 C 
ATOM      9  C   UNL d   1      -2.578   1.756  -2.236  0.00  0.00     0.018 C 
ENDBRANCH   1   8
TORSDOF 1
ENDMDL
