MODEL 1
REMARK minimizedAffinity -4.68606186
REMARK minimizedRMSD -1
REMARK  1 active torsions:
REMARK  status: ('A' for Active; 'I' for Inactive)
REMARK    1  A    between atoms: C1_2  and  C2_3 
ROOT
ATOM      1  C2  UNL d   1      -0.435   0.296  -0.352  0.00  0.00    -0.081 A 
ATOM      2  C3  UNL d   1      -1.406  -0.409  -1.073  0.00  0.00     0.006 A 
ATOM      3  C4  UNL d   1      -1.977   0.145  -2.221  0.00  0.00     0.002 A 
ATOM      4  C5  UNL d   1      -1.580   1.408  -2.672  0.00  0.00    -0.080 A 
ATOM      5  C6  UNL d   1      -2.163   2.002  -3.920  0.00  0.00     0.076 C 
ATOM      6  C7  UNL d   1      -0.623   2.120  -1.942  0.00  0.00     0.002 A 
ATOM      7  C8  UNL d   1      -0.052   1.567  -0.793  0.00  0.00     0.006 A 
ENDROOT
BRANCH   1   8
ATOM      8  C1  UNL d   1       0.229  -0.326   0.850  0.00  0.00     0.054 C 
ATOM      9  C   UNL d   1       1.661  -0.738   0.540  0.00  0.00     0.018 C 
ENDBRANCH   1   8
TORSDOF 1
ENDMDL
