MODEL 1
REMARK minimizedAffinity -4.94615698
REMARK minimizedRMSD -1
REMARK  1 active torsions:
REMARK  status: ('A' for Active; 'I' for Inactive)
REMARK    1  A    between atoms: C1_2  and  C2_3 
ROOT
ATOM      1  C2  UNL d   1       0.729  -0.117  -0.070  0.00  0.00    -0.081 A 
ATOM      2  C3  UNL d   1       0.143  -0.731  -1.183  0.00  0.00     0.006 A 
ATOM      3  C4  UNL d   1      -0.909  -0.110  -1.862  0.00  0.00     0.002 A 
ATOM      4  C5  UNL d   1      -1.386   1.136  -1.443  0.00  0.00    -0.080 A 
ATOM      5  C6  UNL d   1      -2.495   1.827  -2.180  0.00  0.00     0.076 C 
ATOM      6  C7  UNL d   1      -0.812   1.741  -0.319  0.00  0.00     0.002 A 
ATOM      7  C8  UNL d   1       0.239   1.121   0.359  0.00  0.00     0.006 A 
ENDROOT
BRANCH   1   8
ATOM      8  C1  UNL d   1       1.907  -0.754   0.625  0.00  0.00     0.054 C 
ATOM      9  C   UNL d   1       1.499  -2.029   1.349  0.00  0.00     0.018 C 
ENDBRANCH   1   8
TORSDOF 1
ENDMDL
