MODEL 1
REMARK minimizedAffinity -4.92142344
REMARK minimizedRMSD -1
REMARK  1 active torsions:
REMARK  status: ('A' for Active; 'I' for Inactive)
REMARK    1  A    between atoms: C1_2  and  C2_3 
ROOT
ATOM      1  C2  UNL d   1       0.361  -0.322  -0.156  0.00  0.00    -0.081 A 
ATOM      2  C3  UNL d   1      -0.406  -1.051  -1.073  0.00  0.00     0.006 A 
ATOM      3  C4  UNL d   1      -1.342  -0.405  -1.885  0.00  0.00     0.002 A 
ATOM      4  C5  UNL d   1      -1.520   0.980  -1.798  0.00  0.00    -0.080 A 
ATOM      5  C6  UNL d   1      -2.500   1.690  -2.685  0.00  0.00     0.076 C 
ATOM      6  C7  UNL d   1      -0.766   1.706  -0.870  0.00  0.00     0.002 A 
ATOM      7  C8  UNL d   1       0.169   1.060  -0.058  0.00  0.00     0.006 A 
ENDROOT
BRANCH   1   8
ATOM      8  C1  UNL d   1       1.417  -1.006   0.674  0.00  0.00     0.054 C 
ATOM      9  C   UNL d   1       0.826  -2.147   1.490  0.00  0.00     0.018 C 
ENDBRANCH   1   8
TORSDOF 1
ENDMDL
