MODEL 1
REMARK minimizedAffinity 0.275119066
REMARK minimizedRMSD -1
REMARK  1 active torsions:
REMARK  status: ('A' for Active; 'I' for Inactive)
REMARK    1  A    between atoms: C1_2  and  C2_3 
ROOT
ATOM      1  C2  UNL d   1       0.391   1.066  -0.282  0.00  0.00    -0.081 A 
ATOM      2  C3  UNL d   1      -0.754   1.544   0.367  0.00  0.00     0.006 A 
ATOM      3  C4  UNL d   1      -1.498   0.706   1.200  0.00  0.00     0.002 A 
ATOM      4  C5  UNL d   1      -1.105  -0.621   1.406  0.00  0.00    -0.080 A 
ATOM      5  C6  UNL d   1      -1.877  -1.523   2.322  0.00  0.00     0.076 C 
ATOM      6  C7  UNL d   1       0.029  -1.104   0.744  0.00  0.00     0.002 A 
ATOM      7  C8  UNL d   1       0.773  -0.266  -0.090  0.00  0.00     0.006 A 
ENDROOT
BRANCH   1   8
ATOM      8  C1  UNL d   1       1.232   1.986  -1.130  0.00  0.00     0.054 C 
ATOM      9  C   UNL d   1       2.702   1.597  -1.078  0.00  0.00     0.018 C 
ENDBRANCH   1   8
TORSDOF 1
ENDMDL
