MODEL 1
REMARK minimizedAffinity -3.47921324
REMARK minimizedRMSD -1
REMARK  1 active torsions:
REMARK  status: ('A' for Active; 'I' for Inactive)
REMARK    1  A    between atoms: C1_2  and  C2_3 
ROOT
ATOM      1  C2  UNL d   1      -0.177   0.263   0.351  0.00  0.00    -0.081 A 
ATOM      2  C3  UNL d   1       1.177   0.027   0.081  0.00  0.00     0.006 A 
ATOM      3  C4  UNL d   1       1.797  -1.139   0.538  0.00  0.00     0.002 A 
ATOM      4  C5  UNL d   1       1.072  -2.090   1.264  0.00  0.00    -0.080 A 
ATOM      5  C6  UNL d   1       1.718  -3.360   1.733  0.00  0.00     0.076 C 
ATOM      6  C7  UNL d   1      -0.276  -1.846   1.548  0.00  0.00     0.002 A 
ATOM      7  C8  UNL d   1      -0.896  -0.680   1.093  0.00  0.00     0.006 A 
ENDROOT
BRANCH   1   8
ATOM      8  C1  UNL d   1      -0.864   1.489  -0.195  0.00  0.00     0.054 C 
ATOM      9  C   UNL d   1      -1.684   1.158  -1.434  0.00  0.00     0.018 C 
ENDBRANCH   1   8
TORSDOF 1
ENDMDL
