MODEL 1
REMARK minimizedAffinity -3.83438492
REMARK minimizedRMSD -1
REMARK  1 active torsions:
REMARK  status: ('A' for Active; 'I' for Inactive)
REMARK    1  A    between atoms: C1_2  and  C2_3 
ROOT
ATOM      1  C2  UNL d   1      -0.608   0.863  -0.222  0.00  0.00    -0.081 A 
ATOM      2  C3  UNL d   1       0.693   0.590  -0.661  0.00  0.00     0.006 A 
ATOM      3  C4  UNL d   1       1.383  -0.527  -0.184  0.00  0.00     0.002 A 
ATOM      4  C5  UNL d   1       0.780  -1.395   0.733  0.00  0.00    -0.080 A 
ATOM      5  C6  UNL d   1       1.497  -2.615   1.230  0.00  0.00     0.076 C 
ATOM      6  C7  UNL d   1      -0.514  -1.113   1.185  0.00  0.00     0.002 A 
ATOM      7  C8  UNL d   1      -1.203   0.004   0.709  0.00  0.00     0.006 A 
ENDROOT
BRANCH   1   8
ATOM      8  C1  UNL d   1      -1.378   2.031  -0.783  0.00  0.00     0.054 C 
ATOM      9  C   UNL d   1      -2.300   1.595  -1.912  0.00  0.00     0.018 C 
ENDBRANCH   1   8
TORSDOF 1
ENDMDL
