MODEL 1
REMARK minimizedAffinity 1.78875875
REMARK minimizedRMSD -1
REMARK  0 active torsions:
REMARK  status: ('A' for Active; 'I' for Inactive)
ROOT
ATOM      1  C1  BNZ d   1      -2.320   0.590   3.033  0.00  0.00     0.000 A 
ATOM      2  C2  BNZ d   1      -2.395   0.010   1.795  0.00  0.00     0.000 A 
ATOM      3  C3  BNZ d   1      -1.673  -1.114   1.504  0.00  0.00     0.000 A 
ATOM      4  C4  BNZ d   1      -0.848  -1.632   2.438  0.00  0.00     0.000 A 
ATOM      5  C5  BNZ d   1      -0.755  -1.053   3.687  0.00  0.00     0.000 A 
ATOM      6  C6  BNZ d   1      -1.513   0.055   3.989  0.00  0.00     0.000 A 
ENDROOT
TORSDOF 0
ENDMDL
