MODEL 1
REMARK minimizedAffinity 3.2498126
REMARK minimizedRMSD -1
REMARK  0 active torsions:
REMARK  status: ('A' for Active; 'I' for Inactive)
ROOT
ATOM      1  C1  BNZ d   1      -5.997   2.061   4.252  0.00  0.00     0.000 A 
ATOM      2  C2  BNZ d   1      -4.954   1.497   3.567  0.00  0.00     0.000 A 
ATOM      3  C3  BNZ d   1      -3.691   1.501   4.088  0.00  0.00     0.000 A 
ATOM      4  C4  BNZ d   1      -3.464   2.103   5.273  0.00  0.00     0.000 A 
ATOM      5  C5  BNZ d   1      -4.503   2.684   5.972  0.00  0.00     0.000 A 
ATOM      6  C6  BNZ d   1      -5.781   2.644   5.463  0.00  0.00     0.000 A 
ENDROOT
TORSDOF 0
ENDMDL
