MODEL 1
REMARK minimizedAffinity 3.78552699
REMARK minimizedRMSD -1
REMARK  0 active torsions:
REMARK  status: ('A' for Active; 'I' for Inactive)
ROOT
ATOM      1  C1  BNZ d   1      -2.801  -2.206   1.420  0.00  0.00     0.000 A 
ATOM      2  C2  BNZ d   1      -2.744  -0.890   1.797  0.00  0.00     0.000 A 
ATOM      3  C3  BNZ d   1      -1.569  -0.332   2.216  0.00  0.00     0.000 A 
ATOM      4  C4  BNZ d   1      -0.462  -1.098   2.296  0.00  0.00     0.000 A 
ATOM      5  C5  BNZ d   1      -0.505  -2.429   1.929  0.00  0.00     0.000 A 
ATOM      6  C6  BNZ d   1      -1.681  -2.977   1.470  0.00  0.00     0.000 A 
ENDROOT
TORSDOF 0
ENDMDL
