MODEL 1
REMARK minimizedAffinity 6.5325985
REMARK minimizedRMSD -1
REMARK  0 active torsions:
REMARK  status: ('A' for Active; 'I' for Inactive)
ROOT
ATOM      1  C1  BNZ d   1      -5.790   1.606  -0.009  0.00  0.00     0.000 A 
ATOM      2  C2  BNZ d   1      -5.999   1.580  -1.362  0.00  0.00     0.000 A 
ATOM      3  C3  BNZ d   1      -5.997   0.397  -2.048  0.00  0.00     0.000 A 
ATOM      4  C4  BNZ d   1      -5.747  -0.752  -1.388  0.00  0.00     0.000 A 
ATOM      5  C5  BNZ d   1      -5.525  -0.741  -0.025  0.00  0.00     0.000 A 
ATOM      6  C6  BNZ d   1      -5.566   0.447   0.669  0.00  0.00     0.000 A 
ENDROOT
TORSDOF 0
ENDMDL
