MODEL 1
REMARK minimizedAffinity 7.38844776
REMARK minimizedRMSD -1
REMARK  0 active torsions:
REMARK  status: ('A' for Active; 'I' for Inactive)
ROOT
ATOM      1  C1  BNZ d   1       4.019  -6.000   0.020  0.00  0.00     0.000 A 
ATOM      2  C2  BNZ d   1       3.400  -4.859  -0.419  0.00  0.00     0.000 A 
ATOM      3  C3  BNZ d   1       4.080  -3.676  -0.488  0.00  0.00     0.000 A 
ATOM      4  C4  BNZ d   1       5.365  -3.625  -0.080  0.00  0.00     0.000 A 
ATOM      5  C5  BNZ d   1       6.000  -4.764   0.374  0.00  0.00     0.000 A 
ATOM      6  C6  BNZ d   1       5.323  -5.962   0.405  0.00  0.00     0.000 A 
ENDROOT
TORSDOF 0
ENDMDL
