MODEL 1
REMARK minimizedAffinity 5.81960964
REMARK minimizedRMSD -1
REMARK  0 active torsions:
REMARK  status: ('A' for Active; 'I' for Inactive)
ROOT
ATOM      1  C1  BNZ d   1      -1.318   0.425   4.514  0.00  0.00     0.000 A 
ATOM      2  C2  BNZ d   1      -1.950   1.034   5.566  0.00  0.00     0.000 A 
ATOM      3  C3  BNZ d   1      -3.057   1.809   5.365  0.00  0.00     0.000 A 
ATOM      4  C4  BNZ d   1      -3.507   2.008   4.109  0.00  0.00     0.000 A 
ATOM      5  C5  BNZ d   1      -2.876   1.410   3.037  0.00  0.00     0.000 A 
ATOM      6  C6  BNZ d   1      -1.785   0.598   3.248  0.00  0.00     0.000 A 
ENDROOT
TORSDOF 0
ENDMDL
