MODEL 1
REMARK minimizedAffinity 4.72859049
REMARK minimizedRMSD -1
REMARK  0 active torsions:
REMARK  status: ('A' for Active; 'I' for Inactive)
ROOT
ATOM      1  C1  BNZ d   1      -3.685   0.852   3.140  0.00  0.00     0.000 A 
ATOM      2  C2  BNZ d   1      -4.984   1.286   3.159  0.00  0.00     0.000 A 
ATOM      3  C3  BNZ d   1      -5.488   1.936   4.251  0.00  0.00     0.000 A 
ATOM      4  C4  BNZ d   1      -4.707   2.117   5.335  0.00  0.00     0.000 A 
ATOM      5  C5  BNZ d   1      -3.398   1.677   5.334  0.00  0.00     0.000 A 
ATOM      6  C6  BNZ d   1      -2.882   1.058   4.219  0.00  0.00     0.000 A 
ENDROOT
TORSDOF 0
ENDMDL
