MODEL 1
REMARK minimizedAffinity 6.42175198
REMARK minimizedRMSD -1
REMARK  0 active torsions:
REMARK  status: ('A' for Active; 'I' for Inactive)
ROOT
ATOM      1  C1  BNZ d   1      -1.909   0.431   4.888  0.00  0.00     0.000 A 
ATOM      2  C2  BNZ d   1      -2.633   1.075   5.855  0.00  0.00     0.000 A 
ATOM      3  C3  BNZ d   1      -3.708   1.852   5.524  0.00  0.00     0.000 A 
ATOM      4  C4  BNZ d   1      -4.032   2.017   4.225  0.00  0.00     0.000 A 
ATOM      5  C5  BNZ d   1      -3.305   1.382   3.237  0.00  0.00     0.000 A 
ATOM      6  C6  BNZ d   1      -2.248   0.569   3.577  0.00  0.00     0.000 A 
ENDROOT
TORSDOF 0
ENDMDL
