MODEL 1
REMARK minimizedAffinity 5.60900497
REMARK minimizedRMSD -1
REMARK  0 active torsions:
REMARK  status: ('A' for Active; 'I' for Inactive)
ROOT
ATOM      1  C1  BNZ d   1      -0.372  -5.230  -4.478  0.00  0.00     0.000 A 
ATOM      2  C2  BNZ d   1      -1.501  -6.000  -4.565  0.00  0.00     0.000 A 
ATOM      3  C3  BNZ d   1      -2.430  -5.996  -3.563  0.00  0.00     0.000 A 
ATOM      4  C4  BNZ d   1      -2.211  -5.254  -2.458  0.00  0.00     0.000 A 
ATOM      5  C5  BNZ d   1      -1.073  -4.480  -2.351  0.00  0.00     0.000 A 
ATOM      6  C6  BNZ d   1      -0.159  -4.456  -3.379  0.00  0.00     0.000 A 
ENDROOT
TORSDOF 0
ENDMDL
