MODEL 1
REMARK minimizedAffinity 0.268586069
REMARK minimizedRMSD -1
REMARK  0 active torsions:
REMARK  status: ('A' for Active; 'I' for Inactive)
ROOT
ATOM      1  C1  BNZ d   1       3.293  -4.876  -0.385  0.00  0.00     0.000 A 
ATOM      2  C2  BNZ d   1       3.890  -3.684  -0.699  0.00  0.00     0.000 A 
ATOM      3  C3  BNZ d   1       5.242  -3.605  -0.884  0.00  0.00     0.000 A 
ATOM      4  C4  BNZ d   1       6.000  -4.708  -0.714  0.00  0.00     0.000 A 
ATOM      5  C5  BNZ d   1       5.414  -5.915  -0.388  0.00  0.00     0.000 A 
ATOM      6  C6  BNZ d   1       4.049  -5.999  -0.241  0.00  0.00     0.000 A 
ENDROOT
TORSDOF 0
ENDMDL
