MODEL 1
REMARK minimizedAffinity 2.40142417
REMARK minimizedRMSD -1
REMARK  0 active torsions:
REMARK  status: ('A' for Active; 'I' for Inactive)
ROOT
ATOM      1  C1  BNZ d   1      -0.081  -4.552  -3.786  0.00  0.00     0.000 A 
ATOM      2  C2  BNZ d   1      -0.035  -5.286  -4.941  0.00  0.00     0.000 A 
ATOM      3  C3  BNZ d   1      -1.132  -5.977  -5.375  0.00  0.00     0.000 A 
ATOM      4  C4  BNZ d   1      -2.259  -5.965  -4.634  0.00  0.00     0.000 A 
ATOM      5  C5  BNZ d   1      -2.318  -5.237  -3.463  0.00  0.00     0.000 A 
ATOM      6  C6  BNZ d   1      -1.224  -4.512  -3.049  0.00  0.00     0.000 A 
ENDROOT
TORSDOF 0
ENDMDL
