MODEL 1
REMARK minimizedAffinity 13.7821426
REMARK minimizedRMSD -1
REMARK  0 active torsions:
REMARK  status: ('A' for Active; 'I' for Inactive)
ROOT
ATOM      1  C1  BNZ d   1      -1.414  -2.100   1.281  0.00  0.00     0.000 A 
ATOM      2  C2  BNZ d   1      -2.314  -1.262   1.884  0.00  0.00     0.000 A 
ATOM      3  C3  BNZ d   1      -1.890  -0.225   2.666  0.00  0.00     0.000 A 
ATOM      4  C4  BNZ d   1      -0.569  -0.051   2.877  0.00  0.00     0.000 A 
ATOM      5  C5  BNZ d   1       0.350  -0.893   2.284  0.00  0.00     0.000 A 
ATOM      6  C6  BNZ d   1      -0.079  -1.912   1.465  0.00  0.00     0.000 A 
ENDROOT
TORSDOF 0
ENDMDL
