MODEL 1
REMARK minimizedAffinity 0.327733189
REMARK minimizedRMSD -1
REMARK  0 active torsions:
REMARK  status: ('A' for Active; 'I' for Inactive)
ROOT
ATOM      1  C1  BNZ d   1      -2.482  -5.998  -3.297  0.00  0.00     0.000 A 
ATOM      2  C2  BNZ d   1      -1.818  -6.000  -4.495  0.00  0.00     0.000 A 
ATOM      3  C3  BNZ d   1      -0.508  -5.615  -4.569  0.00  0.00     0.000 A 
ATOM      4  C4  BNZ d   1       0.123  -5.193  -3.454  0.00  0.00     0.000 A 
ATOM      5  C5  BNZ d   1      -0.536  -5.177  -2.241  0.00  0.00     0.000 A 
ATOM      6  C6  BNZ d   1      -1.843  -5.601  -2.164  0.00  0.00     0.000 A 
ENDROOT
TORSDOF 0
ENDMDL
