MODEL 1
REMARK minimizedAffinity 8.65158272
REMARK minimizedRMSD -1
REMARK  0 active torsions:
REMARK  status: ('A' for Active; 'I' for Inactive)
ROOT
ATOM      1  C1  BNZ d   1      -3.053  -0.435   1.922  0.00  0.00     0.000 A 
ATOM      2  C2  BNZ d   1      -3.115   0.419   2.990  0.00  0.00     0.000 A 
ATOM      3  C3  BNZ d   1      -1.978   0.809   3.641  0.00  0.00     0.000 A 
ATOM      4  C4  BNZ d   1      -0.786   0.313   3.249  0.00  0.00     0.000 A 
ATOM      5  C5  BNZ d   1      -0.709  -0.557   2.180  0.00  0.00     0.000 A 
ATOM      6  C6  BNZ d   1      -1.851  -0.916   1.502  0.00  0.00     0.000 A 
ENDROOT
TORSDOF 0
ENDMDL
