MODEL 1
REMARK minimizedAffinity 0.0516673736
REMARK minimizedRMSD -1
REMARK  0 active torsions:
REMARK  status: ('A' for Active; 'I' for Inactive)
ROOT
ATOM      1  C1  BNZ d   1       3.670  -5.303   0.054  0.00  0.00     0.000 A 
ATOM      2  C2  BNZ d   1       3.691  -4.181  -0.731  0.00  0.00     0.000 A 
ATOM      3  C3  BNZ d   1       4.854  -3.753  -1.307  0.00  0.00     0.000 A 
ATOM      4  C4  BNZ d   1       6.000  -4.422  -1.066  0.00  0.00     0.000 A 
ATOM      5  C5  BNZ d   1       5.996  -5.549  -0.268  0.00  0.00     0.000 A 
ATOM      6  C6  BNZ d   1       4.817  -6.000   0.278  0.00  0.00     0.000 A 
ENDROOT
TORSDOF 0
ENDMDL
