MODEL 1
REMARK minimizedAffinity 5.21221161
REMARK minimizedRMSD -1
REMARK  1 active torsions:
REMARK  status: ('A' for Active; 'I' for Inactive)
REMARK    1  A    between atoms: C1_2  and  C2_3 
ROOT
ATOM      1  C2  UNL d   1       3.949  -4.430  -1.153  0.00  0.00    -0.081 A 
ATOM      2  C3  UNL d   1       3.845  -4.509  -2.547  0.00  0.00     0.006 A 
ATOM      3  C4  UNL d   1       2.693  -5.028  -3.143  0.00  0.00     0.002 A 
ATOM      4  C5  UNL d   1       1.623  -5.468  -2.356  0.00  0.00    -0.080 A 
ATOM      5  C6  UNL d   1       0.369  -5.999  -2.984  0.00  0.00     0.076 C 
ATOM      6  C7  UNL d   1       1.734  -5.405  -0.963  0.00  0.00     0.002 A 
ATOM      7  C8  UNL d   1       2.886  -4.887  -0.367  0.00  0.00     0.006 A 
ENDROOT
BRANCH   1   8
ATOM      8  C1  UNL d   1       5.163  -3.811  -0.509  0.00  0.00     0.054 C 
ATOM      9  C   UNL d   1       4.873  -2.398  -0.024  0.00  0.00     0.018 C 
ENDBRANCH   1   8
TORSDOF 1
ENDMDL
