MODEL 1
REMARK minimizedAffinity 10.0619011
REMARK minimizedRMSD -1
REMARK  1 active torsions:
REMARK  status: ('A' for Active; 'I' for Inactive)
REMARK    1  A    between atoms: C1_2  and  C2_3 
ROOT
ATOM      1  C2  UNL d   1      -0.367   3.140   1.969  0.00  0.00    -0.081 A 
ATOM      2  C3  UNL d   1       0.372   2.624   0.898  0.00  0.00     0.006 A 
ATOM      3  C4  UNL d   1       0.650   3.417  -0.218  0.00  0.00     0.002 A 
ATOM      4  C5  UNL d   1       0.201   4.741  -0.278  0.00  0.00    -0.080 A 
ATOM      5  C6  UNL d   1       0.518   5.612  -1.457  0.00  0.00     0.076 C 
ATOM      6  C7  UNL d   1      -0.553   5.251   0.784  0.00  0.00     0.002 A 
ATOM      7  C8  UNL d   1      -0.832   4.458   1.900  0.00  0.00     0.006 A 
ENDROOT
BRANCH   1   8
ATOM      8  C1  UNL d   1      -0.613   2.309   3.202  0.00  0.00     0.054 C 
ATOM      9  C   UNL d   1       0.652   1.590   3.646  0.00  0.00     0.018 C 
ENDBRANCH   1   8
TORSDOF 1
ENDMDL
