MODEL 1
REMARK minimizedAffinity 17.1232681
REMARK minimizedRMSD -1
REMARK  1 active torsions:
REMARK  status: ('A' for Active; 'I' for Inactive)
REMARK    1  A    between atoms: C1_2  and  C2_3 
ROOT
ATOM      1  C2  UNL d   1       5.333  -3.087  -1.902  0.00  0.00    -0.081 A 
ATOM      2  C3  UNL d   1       5.789  -2.944  -3.219  0.00  0.00     0.006 A 
ATOM      3  C4  UNL d   1       5.449  -3.886  -4.192  0.00  0.00     0.002 A 
ATOM      4  C5  UNL d   1       4.642  -4.982  -3.868  0.00  0.00    -0.080 A 
ATOM      5  C6  UNL d   1       4.245  -5.985  -4.910  0.00  0.00     0.076 C 
ATOM      6  C7  UNL d   1       4.201  -5.134  -2.549  0.00  0.00     0.002 A 
ATOM      7  C8  UNL d   1       4.541  -4.193  -1.575  0.00  0.00     0.006 A 
ENDROOT
BRANCH   1   8
ATOM      8  C1  UNL d   1       5.645  -2.038  -0.865  0.00  0.00     0.054 C 
ATOM      9  C   UNL d   1       4.384  -1.581  -0.145  0.00  0.00     0.018 C 
ENDBRANCH   1   8
TORSDOF 1
ENDMDL
