MODEL 1
REMARK minimizedAffinity 11.9039993
REMARK minimizedRMSD -1
REMARK  1 active torsions:
REMARK  status: ('A' for Active; 'I' for Inactive)
REMARK    1  A    between atoms: C1_2  and  C2_3 
ROOT
ATOM      1  C2  UNL d   1       0.340   3.739   1.051  0.00  0.00    -0.081 A 
ATOM      2  C3  UNL d   1       1.497   3.519   1.808  0.00  0.00     0.006 A 
ATOM      3  C4  UNL d   1       1.517   2.536   2.801  0.00  0.00     0.002 A 
ATOM      4  C5  UNL d   1       0.384   1.752   3.047  0.00  0.00    -0.080 A 
ATOM      5  C6  UNL d   1       0.402   0.673   4.088  0.00  0.00     0.076 C 
ATOM      6  C7  UNL d   1      -0.777   1.984   2.302  0.00  0.00     0.002 A 
ATOM      7  C8  UNL d   1      -0.798   2.967   1.310  0.00  0.00     0.006 A 
ENDROOT
BRANCH   1   8
ATOM      8  C1  UNL d   1       0.335   4.754  -0.063  0.00  0.00     0.054 C 
ATOM      9  C   UNL d   1      -0.629   5.895   0.231  0.00  0.00     0.018 C 
ENDBRANCH   1   8
TORSDOF 1
ENDMDL
