MODEL 1
REMARK minimizedAffinity 6.97480583
REMARK minimizedRMSD -1
REMARK  0 active torsions:
REMARK  status: ('A' for Active; 'I' for Inactive)
ROOT
ATOM      1  C   UNL d   1       3.717  -4.087   5.010  0.00  0.00    -0.002 A 
ATOM      2  C1  UNL d   1       2.997  -5.023   4.280  0.00  0.00     0.010 A 
ATOM      3  C2  UNL d   1       2.067  -4.613   3.323  0.00  0.00     0.041 A 
ATOM      4  C3  UNL d   1       1.872  -3.235   3.108  0.00  0.00    -0.075 A 
ATOM      5  S   UNL d   1       0.787  -2.501   1.987  0.00  0.00     0.015 SA
ATOM      6  C4  UNL d   1       1.254  -0.928   2.450  0.00  0.00     0.022 A 
ATOM      7  C5  UNL d   1       2.213  -0.944   3.435  0.00  0.00     0.026 A 
ATOM      8  C6  UNL d   1       2.586  -2.274   3.830  0.00  0.00    -0.082 A 
ATOM      9  C7  UNL d   1       3.521  -2.721   4.794  0.00  0.00     0.045 A 
ENDROOT
TORSDOF 0
ENDMDL
