MODEL 1
REMARK minimizedAffinity 4.83953524
REMARK minimizedRMSD -1
REMARK  0 active torsions:
REMARK  status: ('A' for Active; 'I' for Inactive)
ROOT
ATOM      1  C   UNL d   1       2.391  -4.086   6.000  0.00  0.00    -0.002 A 
ATOM      2  C1  UNL d   1       1.238  -4.636   5.457  0.00  0.00     0.010 A 
ATOM      3  C2  UNL d   1       0.673  -4.099   4.298  0.00  0.00     0.041 A 
ATOM      4  C3  UNL d   1       1.294  -2.992   3.687  0.00  0.00    -0.075 A 
ATOM      5  S   UNL d   1       0.782  -2.170   2.261  0.00  0.00     0.015 SA
ATOM      6  C4  UNL d   1       2.082  -1.070   2.338  0.00  0.00     0.022 A 
ATOM      7  C5  UNL d   1       2.896  -1.310   3.419  0.00  0.00     0.026 A 
ATOM      8  C6  UNL d   1       2.456  -2.422   4.214  0.00  0.00    -0.082 A 
ATOM      9  C7  UNL d   1       3.004  -2.988   5.391  0.00  0.00     0.045 A 
ENDROOT
TORSDOF 0
ENDMDL
