MODEL 1
REMARK minimizedAffinity 12.0252781
REMARK minimizedRMSD -1
REMARK  0 active torsions:
REMARK  status: ('A' for Active; 'I' for Inactive)
ROOT
ATOM      1  C   UNL d   1      -1.931   1.046   0.121  0.00  0.00    -0.002 A 
ATOM      2  C1  UNL d   1      -1.878   2.014  -0.872  0.00  0.00     0.010 A 
ATOM      3  C2  UNL d   1      -2.827   3.038  -0.917  0.00  0.00     0.041 A 
ATOM      4  C3  UNL d   1      -3.838   3.073   0.063  0.00  0.00    -0.075 A 
ATOM      5  S   UNL d   1      -5.106   4.233   0.206  0.00  0.00     0.015 SA
ATOM      6  C4  UNL d   1      -5.748   3.471   1.589  0.00  0.00     0.022 A 
ATOM      7  C5  UNL d   1      -5.025   2.357   1.946  0.00  0.00     0.026 A 
ATOM      8  C6  UNL d   1      -3.912   2.110   1.073  0.00  0.00    -0.082 A 
ATOM      9  C7  UNL d   1      -2.937   1.085   1.091  0.00  0.00     0.045 A 
ENDROOT
TORSDOF 0
ENDMDL
