MODEL 1
REMARK minimizedAffinity 3.33445191
REMARK minimizedRMSD -1
REMARK  0 active torsions:
REMARK  status: ('A' for Active; 'I' for Inactive)
ROOT
ATOM      1  C   UNL d   1       3.794  -5.990  -1.457  0.00  0.00    -0.002 A 
ATOM      2  C1  UNL d   1       5.043  -5.991  -2.062  0.00  0.00     0.010 A 
ATOM      3  C2  UNL d   1       5.157  -5.994  -3.454  0.00  0.00     0.041 A 
ATOM      4  C3  UNL d   1       3.985  -5.995  -4.234  0.00  0.00    -0.075 A 
ATOM      5  S   UNL d   1       3.881  -5.997  -5.955  0.00  0.00     0.015 SA
ATOM      6  C4  UNL d   1       2.177  -5.997  -5.927  0.00  0.00     0.022 A 
ATOM      7  C5  UNL d   1       1.682  -5.995  -4.645  0.00  0.00     0.026 A 
ATOM      8  C6  UNL d   1       2.716  -5.993  -3.648  0.00  0.00    -0.082 A 
ATOM      9  C7  UNL d   1       2.633  -5.991  -2.234  0.00  0.00     0.045 A 
ENDROOT
TORSDOF 0
ENDMDL
