MODEL 1
REMARK minimizedAffinity 4.5753417
REMARK minimizedRMSD -1
REMARK  0 active torsions:
REMARK  status: ('A' for Active; 'I' for Inactive)
ROOT
ATOM      1  C   UNL d   1       4.019  -5.919  -1.340  0.00  0.00    -0.002 A 
ATOM      2  C1  UNL d   1       2.747  -5.901  -1.894  0.00  0.00     0.010 A 
ATOM      3  C2  UNL d   1       2.576  -5.909  -3.280  0.00  0.00     0.041 A 
ATOM      4  C3  UNL d   1       3.716  -5.936  -4.107  0.00  0.00    -0.075 A 
ATOM      5  S   UNL d   1       3.749  -5.951  -5.831  0.00  0.00     0.015 SA
ATOM      6  C4  UNL d   1       5.452  -5.981  -5.872  0.00  0.00     0.022 A 
ATOM      7  C5  UNL d   1       5.999  -5.980  -4.611  0.00  0.00     0.026 A 
ATOM      8  C6  UNL d   1       5.007  -5.955  -3.573  0.00  0.00    -0.082 A 
ATOM      9  C7  UNL d   1       5.148  -5.946  -2.164  0.00  0.00     0.045 A 
ENDROOT
TORSDOF 0
ENDMDL
