MODEL 1
REMARK minimizedAffinity 13.7783947
REMARK minimizedRMSD -1
REMARK  0 active torsions:
REMARK  status: ('A' for Active; 'I' for Inactive)
ROOT
ATOM      1  C   UNL d   1       3.646  -3.121   3.419  0.00  0.00    -0.002 A 
ATOM      2  C1  UNL d   1       2.699  -2.381   2.725  0.00  0.00     0.010 A 
ATOM      3  C2  UNL d   1       1.357  -2.765   2.726  0.00  0.00     0.041 A 
ATOM      4  C3  UNL d   1       0.978  -3.916   3.446  0.00  0.00    -0.075 A 
ATOM      5  S   UNL d   1      -0.608  -4.575   3.592  0.00  0.00     0.015 SA
ATOM      6  C4  UNL d   1      -0.066  -5.854   4.579  0.00  0.00     0.022 A 
ATOM      7  C5  UNL d   1       1.289  -5.795   4.802  0.00  0.00     0.026 A 
ATOM      8  C6  UNL d   1       1.913  -4.676   4.153  0.00  0.00    -0.082 A 
ATOM      9  C7  UNL d   1       3.266  -4.262   4.131  0.00  0.00     0.045 A 
ENDROOT
TORSDOF 0
ENDMDL
