MODEL 1
REMARK minimizedAffinity -6.01047945
REMARK minimizedRMSD -1
REMARK  3 active torsions:
REMARK  status: ('A' for Active; 'I' for Inactive)
REMARK    1  A    between atoms: C3'_2  and  C2'_3 
REMARK    2  A    between atoms: C2'_3  and  C1'_4 
REMARK    3  A    between atoms: C1'_4  and  C1_5 
ROOT
ATOM      1  C1  N4B d   1       0.324   0.026  -0.267  0.00  0.00    -0.075 A 
ATOM      2  C2  N4B d   1       0.956   1.249   0.045  0.00  0.00     0.002 A 
ATOM      3  C3  N4B d   1       2.257   1.258   0.485  0.00  0.00     0.002 A 
ATOM      4  C4  N4B d   1       2.937   0.059   0.638  0.00  0.00    -0.004 A 
ATOM      5  C5  N4B d   1       2.328  -1.117   0.310  0.00  0.00     0.002 A 
ATOM      6  C6  N4B d   1       1.022  -1.140  -0.137  0.00  0.00     0.002 A 
ENDROOT
BRANCH   1   7
ATOM      7  C1' N4B d   1      -1.124  -0.041  -0.669  0.00  0.00     0.057 C 
BRANCH   7   8
ATOM      8  C2' N4B d   1      -1.906   1.020   0.100  0.00  0.00     0.009 C 
BRANCH   8   9
ATOM      9  C3' N4B d   1      -3.383   1.006  -0.255  0.00  0.00     0.004 C 
ATOM     10  C4' N4B d   1      -4.261   1.397   0.896  0.00  0.00     0.003 C 
ENDBRANCH   8   9
ENDBRANCH   7   8
ENDBRANCH   1   7
TORSDOF 3
ENDMDL
