MODEL 1
REMARK minimizedAffinity -5.92898273
REMARK minimizedRMSD -1
REMARK  3 active torsions:
REMARK  status: ('A' for Active; 'I' for Inactive)
REMARK    1  A    between atoms: C3'_2  and  C2'_3 
REMARK    2  A    between atoms: C2'_3  and  C1'_4 
REMARK    3  A    between atoms: C1'_4  and  C1_5 
ROOT
ATOM      1  C1  N4B d   1       0.653  -0.208  -0.137  0.00  0.00    -0.075 A 
ATOM      2  C2  N4B d   1       1.232  -1.422  -0.567  0.00  0.00     0.002 A 
ATOM      3  C3  N4B d   1       2.513  -1.743  -0.192  0.00  0.00     0.002 A 
ATOM      4  C4  N4B d   1       3.239  -0.861   0.595  0.00  0.00    -0.004 A 
ATOM      5  C5  N4B d   1       2.663   0.298   1.028  0.00  0.00     0.002 A 
ATOM      6  C6  N4B d   1       1.375   0.631   0.661  0.00  0.00     0.002 A 
ENDROOT
BRANCH   1   7
ATOM      7  C1' N4B d   1      -0.714   0.226  -0.592  0.00  0.00     0.057 C 
BRANCH   7   8
ATOM      8  C2' N4B d   1      -1.626   0.363   0.623  0.00  0.00     0.009 C 
BRANCH   8   9
ATOM      9  C3' N4B d   1      -3.090   0.452   0.227  0.00  0.00     0.004 C 
ATOM     10  C4' N4B d   1      -4.009   0.523   1.410  0.00  0.00     0.003 C 
ENDBRANCH   8   9
ENDBRANCH   7   8
ENDBRANCH   1   7
TORSDOF 3
ENDMDL
