MODEL 1
REMARK minimizedAffinity 9.69818497
REMARK minimizedRMSD -1
REMARK  1 active torsions:
REMARK  status: ('A' for Active; 'I' for Inactive)
REMARK    1  A    between atoms: C1_2  and  C2_3 
ROOT
ATOM      1  C2  UNL d   1       1.321  -0.105  -1.694  0.00  0.00    -0.076 A 
ATOM      2  C3  UNL d   1       1.566  -0.346  -0.331  0.00  0.00     0.004 A 
ATOM      3  C4  UNL d   1       1.800  -1.637   0.139  0.00  0.00    -0.003 A 
ATOM      4  C5  UNL d   1       1.793  -2.709  -0.747  0.00  0.00     0.000 A 
ATOM      5  C6  UNL d   1       1.569  -2.486  -2.105  0.00  0.00     0.000 A 
ATOM      6  C7  UNL d   1       1.348  -1.189  -2.598  0.00  0.00    -0.073 A 
ATOM      7  C8  UNL d   1       1.105  -1.007  -4.071  0.00  0.00     0.078 C 
ENDROOT
BRANCH   1   8
ATOM      8  C1  UNL d   1       1.046   1.313  -2.141  0.00  0.00     0.053 C 
ATOM      9  C   UNL d   1      -0.077   1.966  -1.351  0.00  0.00     0.018 C 
ENDBRANCH   1   8
TORSDOF 1
ENDMDL
