MODEL 1
REMARK minimizedAffinity 0.572817802
REMARK minimizedRMSD -1
REMARK  1 active torsions:
REMARK  status: ('A' for Active; 'I' for Inactive)
REMARK    1  A    between atoms: C1_2  and  C2_3 
ROOT
ATOM      1  C2  UNL d   1      -2.657   1.100   1.322  0.00  0.00    -0.076 A 
ATOM      2  C3  UNL d   1      -1.752   0.039   1.497  0.00  0.00     0.004 A 
ATOM      3  C4  UNL d   1      -0.595   0.200   2.257  0.00  0.00    -0.003 A 
ATOM      4  C5  UNL d   1      -0.324   1.426   2.855  0.00  0.00     0.000 A 
ATOM      5  C6  UNL d   1      -1.219   2.485   2.707  0.00  0.00     0.000 A 
ATOM      6  C7  UNL d   1      -2.399   2.334   1.958  0.00  0.00    -0.073 A 
ATOM      7  C8  UNL d   1      -3.326   3.511   1.826  0.00  0.00     0.078 C 
ENDROOT
BRANCH   1   8
ATOM      8  C1  UNL d   1      -3.882   0.874   0.465  0.00  0.00     0.053 C 
ATOM      9  C   UNL d   1      -4.202  -0.602   0.285  0.00  0.00     0.018 C 
ENDBRANCH   1   8
TORSDOF 1
ENDMDL
