MODEL 1
REMARK minimizedAffinity 6.35234356
REMARK minimizedRMSD -1
REMARK  1 active torsions:
REMARK  status: ('A' for Active; 'I' for Inactive)
REMARK    1  A    between atoms: C1_2  and  C2_3 
ROOT
ATOM      1  C2  UNL d   1      -0.785   1.431   0.358  0.00  0.00    -0.076 A 
ATOM      2  C3  UNL d   1      -1.908   2.201   0.010  0.00  0.00     0.004 A 
ATOM      3  C4  UNL d   1      -2.865   2.544   0.963  0.00  0.00    -0.003 A 
ATOM      4  C5  UNL d   1      -2.715   2.124   2.279  0.00  0.00     0.000 A 
ATOM      5  C6  UNL d   1      -1.598   1.375   2.647  0.00  0.00     0.000 A 
ATOM      6  C7  UNL d   1      -0.615   1.033   1.702  0.00  0.00    -0.073 A 
ATOM      7  C8  UNL d   1       0.566   0.218   2.152  0.00  0.00     0.078 C 
ENDROOT
BRANCH   1   8
ATOM      8  C1  UNL d   1       0.207   1.065  -0.723  0.00  0.00     0.053 C 
ATOM      9  C   UNL d   1       0.515   2.232  -1.649  0.00  0.00     0.018 C 
ENDBRANCH   1   8
TORSDOF 1
ENDMDL
