MODEL 1
REMARK minimizedAffinity -0.25480327
REMARK minimizedRMSD -1
REMARK  1 active torsions:
REMARK  status: ('A' for Active; 'I' for Inactive)
REMARK    1  A    between atoms: C1_2  and  C2_3 
ROOT
ATOM      1  C2  UNL d   1      -0.766   1.130   0.990  0.00  0.00    -0.076 A 
ATOM      2  C3  UNL d   1       0.412   0.717   0.345  0.00  0.00     0.004 A 
ATOM      3  C4  UNL d   1       0.775   1.244  -0.893  0.00  0.00    -0.003 A 
ATOM      4  C5  UNL d   1      -0.035   2.194  -1.506  0.00  0.00     0.000 A 
ATOM      5  C6  UNL d   1      -1.199   2.629  -0.872  0.00  0.00     0.000 A 
ATOM      6  C7  UNL d   1      -1.570   2.119   0.384  0.00  0.00    -0.073 A 
ATOM      7  C8  UNL d   1      -2.839   2.618   1.020  0.00  0.00     0.078 C 
ENDROOT
BRANCH   1   8
ATOM      8  C1  UNL d   1      -1.122   0.502   2.319  0.00  0.00     0.053 C 
ATOM      9  C   UNL d   1      -1.071   1.500   3.467  0.00  0.00     0.018 C 
ENDBRANCH   1   8
TORSDOF 1
ENDMDL
