MODEL 1
REMARK minimizedAffinity 14.1457338
REMARK minimizedRMSD -1
REMARK  1 active torsions:
REMARK  status: ('A' for Active; 'I' for Inactive)
REMARK    1  A    between atoms: C1_2  and  C2_3 
ROOT
ATOM      1  C2  UNL d   1      -0.764   1.957   0.713  0.00  0.00    -0.076 A 
ATOM      2  C3  UNL d   1       0.456   1.482   1.225  0.00  0.00     0.004 A 
ATOM      3  C4  UNL d   1       0.580   1.124   2.566  0.00  0.00    -0.003 A 
ATOM      4  C5  UNL d   1      -0.513   1.235   3.417  0.00  0.00     0.000 A 
ATOM      5  C6  UNL d   1      -1.736   1.688   2.923  0.00  0.00     0.000 A 
ATOM      6  C7  UNL d   1      -1.883   2.037   1.570  0.00  0.00    -0.073 A 
ATOM      7  C8  UNL d   1      -3.223   2.525   1.091  0.00  0.00     0.078 C 
ENDROOT
BRANCH   1   8
ATOM      8  C1  UNL d   1      -0.832   2.356  -0.744  0.00  0.00     0.053 C 
ATOM      9  C   UNL d   1       0.516   2.253  -1.440  0.00  0.00     0.018 C 
ENDBRANCH   1   8
TORSDOF 1
ENDMDL
