MODEL 1
REMARK minimizedAffinity 12.7002935
REMARK minimizedRMSD -1
REMARK  1 active torsions:
REMARK  status: ('A' for Active; 'I' for Inactive)
REMARK    1  A    between atoms: C1_2  and  C2_3 
ROOT
ATOM      1  C2  UNL d   1       4.016  -3.453  -4.049  0.00  0.00    -0.076 A 
ATOM      2  C3  UNL d   1       3.362  -4.505  -3.386  0.00  0.00     0.004 A 
ATOM      3  C4  UNL d   1       3.925  -5.104  -2.260  0.00  0.00    -0.003 A 
ATOM      4  C5  UNL d   1       5.150  -4.658  -1.778  0.00  0.00     0.000 A 
ATOM      5  C6  UNL d   1       5.805  -3.603  -2.413  0.00  0.00     0.000 A 
ATOM      6  C7  UNL d   1       5.244  -2.978  -3.540  0.00  0.00    -0.073 A 
ATOM      7  C8  UNL d   1       5.996  -1.849  -4.188  0.00  0.00     0.078 C 
ENDROOT
BRANCH   1   8
ATOM      8  C1  UNL d   1       3.371  -2.861  -5.282  0.00  0.00     0.053 C 
ATOM      9  C   UNL d   1       2.248  -1.892  -4.944  0.00  0.00     0.018 C 
ENDBRANCH   1   8
TORSDOF 1
ENDMDL
