MODEL 1
REMARK minimizedAffinity 8.18051338
REMARK minimizedRMSD -1
REMARK  1 active torsions:
REMARK  status: ('A' for Active; 'I' for Inactive)
REMARK    1  A    between atoms: C1_2  and  C2_3 
ROOT
ATOM      1  C2  UNL d   1      -1.042   2.016   1.243  0.00  0.00    -0.076 A 
ATOM      2  C3  UNL d   1       0.105   1.646   0.519  0.00  0.00     0.004 A 
ATOM      3  C4  UNL d   1       0.162   1.804  -0.865  0.00  0.00    -0.003 A 
ATOM      4  C5  UNL d   1      -0.926   2.335  -1.547  0.00  0.00     0.000 A 
ATOM      5  C6  UNL d   1      -2.066   2.724  -0.843  0.00  0.00     0.000 A 
ATOM      6  C7  UNL d   1      -2.133   2.586   0.554  0.00  0.00    -0.073 A 
ATOM      7  C8  UNL d   1      -3.389   3.016   1.261  0.00  0.00     0.078 C 
ENDROOT
BRANCH   1   8
ATOM      8  C1  UNL d   1      -1.056   1.796   2.739  0.00  0.00     0.053 C 
ATOM      9  C   UNL d   1      -0.150   2.768   3.479  0.00  0.00     0.018 C 
ENDBRANCH   1   8
TORSDOF 1
ENDMDL
