MODEL 1
REMARK minimizedAffinity 8.70039368
REMARK minimizedRMSD -1
REMARK  1 active torsions:
REMARK  status: ('A' for Active; 'I' for Inactive)
REMARK    1  A    between atoms: C1_2  and  C2_3 
ROOT
ATOM      1  C2  UNL d   1       5.646  -4.629  -0.775  0.00  0.00    -0.076 A 
ATOM      2  C3  UNL d   1       5.519  -5.701   0.125  0.00  0.00     0.004 A 
ATOM      3  C4  UNL d   1       5.639  -5.501   1.499  0.00  0.00    -0.003 A 
ATOM      4  C5  UNL d   1       5.888  -4.226   1.995  0.00  0.00     0.000 A 
ATOM      5  C6  UNL d   1       6.000  -3.148   1.118  0.00  0.00     0.000 A 
ATOM      6  C7  UNL d   1       5.865  -3.330  -0.269  0.00  0.00    -0.073 A 
ATOM      7  C8  UNL d   1       6.000  -2.133  -1.170  0.00  0.00     0.078 C 
ENDROOT
BRANCH   1   8
ATOM      8  C1  UNL d   1       5.532  -4.910  -2.257  0.00  0.00     0.053 C 
ATOM      9  C   UNL d   1       4.248  -5.642  -2.614  0.00  0.00     0.018 C 
ENDBRANCH   1   8
TORSDOF 1
ENDMDL
