MODEL 1
REMARK minimizedAffinity 8.5310173
REMARK minimizedRMSD -1
REMARK  1 active torsions:
REMARK  status: ('A' for Active; 'I' for Inactive)
REMARK    1  A    between atoms: C1_2  and  C2_3 
ROOT
ATOM      1  C2  UNL d   1      -1.119   1.571  -1.097  0.00  0.00    -0.076 A 
ATOM      2  C3  UNL d   1       0.243   1.919  -1.096  0.00  0.00     0.004 A 
ATOM      3  C4  UNL d   1       1.158   1.238  -1.897  0.00  0.00    -0.003 A 
ATOM      4  C5  UNL d   1       0.726   0.197  -2.712  0.00  0.00     0.000 A 
ATOM      5  C6  UNL d   1      -0.624  -0.150  -2.738  0.00  0.00     0.000 A 
ATOM      6  C7  UNL d   1      -1.563   0.537  -1.949  0.00  0.00    -0.073 A 
ATOM      7  C8  UNL d   1      -3.005   0.116  -2.012  0.00  0.00     0.078 C 
ENDROOT
BRANCH   1   8
ATOM      8  C1  UNL d   1      -2.061   2.328  -0.187  0.00  0.00     0.053 C 
ATOM      9  C   UNL d   1      -1.819   2.025   1.283  0.00  0.00     0.018 C 
ENDBRANCH   1   8
TORSDOF 1
ENDMDL
