MODEL 1
REMARK minimizedAffinity 10.9119158
REMARK minimizedRMSD -1
REMARK  1 active torsions:
REMARK  status: ('A' for Active; 'I' for Inactive)
REMARK    1  A    between atoms: C1_2  and  C2_3 
ROOT
ATOM      1  C2  UNL d   1      -1.410   2.312   1.831  0.00  0.00    -0.076 A 
ATOM      2  C3  UNL d   1      -0.469   3.286   1.456  0.00  0.00     0.004 A 
ATOM      3  C4  UNL d   1       0.787   3.339   2.057  0.00  0.00    -0.003 A 
ATOM      4  C5  UNL d   1       1.124   2.417   3.042  0.00  0.00     0.000 A 
ATOM      5  C6  UNL d   1       0.209   1.432   3.413  0.00  0.00     0.000 A 
ATOM      6  C7  UNL d   1      -1.056   1.355   2.806  0.00  0.00    -0.073 A 
ATOM      7  C8  UNL d   1      -2.006   0.276   3.250  0.00  0.00     0.078 C 
ENDROOT
BRANCH   1   8
ATOM      8  C1  UNL d   1      -2.767   2.321   1.164  0.00  0.00     0.053 C 
ATOM      9  C   UNL d   1      -3.259   3.728   0.864  0.00  0.00     0.018 C 
ENDBRANCH   1   8
TORSDOF 1
ENDMDL
