MODEL 1
REMARK minimizedAffinity 4.05820036
REMARK minimizedRMSD -1
REMARK  1 active torsions:
REMARK  status: ('A' for Active; 'I' for Inactive)
REMARK    1  A    between atoms: C1_2  and  C2_3 
ROOT
ATOM      1  C2  UNL d   1       0.138   3.262  -0.352  0.00  0.00    -0.076 A 
ATOM      2  C3  UNL d   1       0.891   3.197  -1.538  0.00  0.00     0.004 A 
ATOM      3  C4  UNL d   1       1.233   1.970  -2.104  0.00  0.00    -0.003 A 
ATOM      4  C5  UNL d   1       0.828   0.788  -1.495  0.00  0.00     0.000 A 
ATOM      5  C6  UNL d   1       0.066   0.834  -0.328  0.00  0.00     0.000 A 
ATOM      6  C7  UNL d   1      -0.302   2.062   0.247  0.00  0.00    -0.073 A 
ATOM      7  C8  UNL d   1      -1.120   2.052   1.509  0.00  0.00     0.078 C 
ENDROOT
BRANCH   1   8
ATOM      8  C1  UNL d   1      -0.180   4.620   0.230  0.00  0.00     0.053 C 
ATOM      9  C   UNL d   1       0.896   5.651  -0.073  0.00  0.00     0.018 C 
ENDBRANCH   1   8
TORSDOF 1
ENDMDL
