MODEL 1
REMARK minimizedAffinity -0.252696127
REMARK minimizedRMSD -1
REMARK  1 active torsions:
REMARK  status: ('A' for Active; 'I' for Inactive)
REMARK    1  A    between atoms: C1_2  and  C2_3 
ROOT
ATOM      1  C2  UNL d   1      -1.161   0.300   2.625  0.00  0.00    -0.076 A 
ATOM      2  C3  UNL d   1      -2.399  -0.215   3.047  0.00  0.00     0.004 A 
ATOM      3  C4  UNL d   1      -2.489  -1.475   3.637  0.00  0.00    -0.003 A 
ATOM      4  C5  UNL d   1      -1.341  -2.240   3.814  0.00  0.00     0.000 A 
ATOM      5  C6  UNL d   1      -0.102  -1.737   3.417  0.00  0.00     0.000 A 
ATOM      6  C7  UNL d   1       0.007  -0.462   2.836  0.00  0.00    -0.073 A 
ATOM      7  C8  UNL d   1       1.368   0.027   2.421  0.00  0.00     0.078 C 
ENDROOT
BRANCH   1   8
ATOM      8  C1  UNL d   1      -1.130   1.662   1.967  0.00  0.00     0.053 C 
ATOM      9  C   UNL d   1      -2.393   1.955   1.173  0.00  0.00     0.018 C 
ENDBRANCH   1   8
TORSDOF 1
ENDMDL
