MODEL 1
REMARK minimizedAffinity 7.14230537
REMARK minimizedRMSD -1
REMARK  1 active torsions:
REMARK  status: ('A' for Active; 'I' for Inactive)
REMARK    1  A    between atoms: C3_4  and  O_7 
ROOT
ATOM      1  C   UNL d   1      -0.701  -0.121  -1.176  0.00  0.00    -0.033 A 
ATOM      2  C1  UNL d   1      -1.794   0.692  -0.870  0.00  0.00     0.039 A 
ATOM      3  C2  UNL d   1      -1.595   1.932  -0.260  0.00  0.00    -0.080 A 
ATOM      4  C3  UNL d   1      -0.300   2.347   0.038  0.00  0.00     0.150 A 
ATOM      5  C4  UNL d   1       0.794   1.544  -0.268  0.00  0.00    -0.007 A 
ATOM      6  C5  UNL d   1       0.593   0.306  -0.877  0.00  0.00     0.039 A 
ENDROOT
BRANCH   4   7
ATOM      7  O   UNL d   1      -0.056   3.547   0.638  0.00  0.00    -0.526 OA
ATOM      8  H5  UNL d   1      -0.907   3.981   0.816  0.00  0.00     0.418 HD
ENDBRANCH   4   7
TORSDOF 1
ENDMDL
