MODEL 1
REMARK minimizedAffinity 8.18773937
REMARK minimizedRMSD -1
REMARK  1 active torsions:
REMARK  status: ('A' for Active; 'I' for Inactive)
REMARK    1  A    between atoms: C3_4  and  O_7 
ROOT
ATOM      1  C   UNL d   1      -0.685   2.368   2.234  0.00  0.00    -0.033 A 
ATOM      2  C1  UNL d   1      -1.735   1.710   2.876  0.00  0.00     0.039 A 
ATOM      3  C2  UNL d   1      -1.467   0.704   3.806  0.00  0.00    -0.080 A 
ATOM      4  C3  UNL d   1      -0.145   0.367   4.086  0.00  0.00     0.150 A 
ATOM      5  C4  UNL d   1       0.906   1.022   3.454  0.00  0.00    -0.007 A 
ATOM      6  C5  UNL d   1       0.636   2.026   2.524  0.00  0.00     0.039 A 
ENDROOT
BRANCH   4   7
ATOM      7  O   UNL d   1       0.166  -0.611   4.983  0.00  0.00    -0.526 OA
ATOM      8  H5  UNL d   1      -0.661  -0.995   5.320  0.00  0.00     0.418 HD
ENDBRANCH   4   7
TORSDOF 1
ENDMDL
