MODEL 1
REMARK minimizedAffinity 11.378911
REMARK minimizedRMSD -1
REMARK  1 active torsions:
REMARK  status: ('A' for Active; 'I' for Inactive)
REMARK    1  A    between atoms: C3_4  and  O_7 
ROOT
ATOM      1  C   UNL d   1       0.492   0.224  -1.621  0.00  0.00    -0.033 A 
ATOM      2  C1  UNL d   1      -0.555  -0.448  -2.254  0.00  0.00     0.039 A 
ATOM      3  C2  UNL d   1      -1.877  -0.193  -1.882  0.00  0.00    -0.080 A 
ATOM      4  C3  UNL d   1      -2.137   0.736  -0.879  0.00  0.00     0.150 A 
ATOM      5  C4  UNL d   1      -1.099   1.413  -0.247  0.00  0.00    -0.007 A 
ATOM      6  C5  UNL d   1       0.220   1.156  -0.619  0.00  0.00     0.039 A 
ENDROOT
BRANCH   4   7
ATOM      7  O   UNL d   1      -3.410   1.015  -0.479  0.00  0.00    -0.526 OA
ATOM      8  H5  UNL d   1      -4.021   0.452  -0.983  0.00  0.00     0.418 HD
ENDBRANCH   4   7
TORSDOF 1
ENDMDL
