MODEL 1
REMARK minimizedAffinity 2.45002627
REMARK minimizedRMSD -1
REMARK  1 active torsions:
REMARK  status: ('A' for Active; 'I' for Inactive)
REMARK    1  A    between atoms: C3_4  and  O_7 
ROOT
ATOM      1  C   UNL d   1      -0.345   5.999  -2.244  0.00  0.00    -0.033 A 
ATOM      2  C1  UNL d   1      -1.537   5.334  -1.949  0.00  0.00     0.039 A 
ATOM      3  C2  UNL d   1      -1.652   4.591  -0.773  0.00  0.00    -0.080 A 
ATOM      4  C3  UNL d   1      -0.569   4.522   0.100  0.00  0.00     0.150 A 
ATOM      5  C4  UNL d   1       0.620   5.185  -0.185  0.00  0.00    -0.007 A 
ATOM      6  C5  UNL d   1       0.733   5.926  -1.361  0.00  0.00     0.039 A 
ENDROOT
BRANCH   4   7
ATOM      7  O   UNL d   1      -0.632   3.806   1.258  0.00  0.00    -0.526 OA
ATOM      8  H5  UNL d   1      -1.503   3.378   1.308  0.00  0.00     0.418 HD
ENDBRANCH   4   7
TORSDOF 1
ENDMDL
