MODEL 1
REMARK minimizedAffinity 4.28873014
REMARK minimizedRMSD -1
REMARK  1 active torsions:
REMARK  status: ('A' for Active; 'I' for Inactive)
REMARK    1  A    between atoms: C3_4  and  O_7 
ROOT
ATOM      1  C   UNL d   1      -2.729  -5.845  -5.037  0.00  0.00    -0.033 A 
ATOM      2  C1  UNL d   1      -2.519  -5.800  -3.657  0.00  0.00     0.039 A 
ATOM      3  C2  UNL d   1      -3.606  -5.850  -2.782  0.00  0.00    -0.080 A 
ATOM      4  C3  UNL d   1      -4.895  -5.945  -3.298  0.00  0.00     0.150 A 
ATOM      5  C4  UNL d   1      -5.112  -5.994  -4.671  0.00  0.00    -0.007 A 
ATOM      6  C5  UNL d   1      -4.026  -5.944  -5.544  0.00  0.00     0.039 A 
ENDROOT
BRANCH   4   7
ATOM      7  O   UNL d   1      -5.987  -5.992  -2.483  0.00  0.00    -0.526 OA
ATOM      8  H5  UNL d   1      -5.687  -5.920  -1.562  0.00  0.00     0.418 HD
ENDBRANCH   4   7
TORSDOF 1
ENDMDL
