MODEL 1
REMARK minimizedAffinity 7.04235601
REMARK minimizedRMSD -1
REMARK  1 active torsions:
REMARK  status: ('A' for Active; 'I' for Inactive)
REMARK    1  A    between atoms: C3_4  and  O_7 
ROOT
ATOM      1  C   UNL d   1      -0.448   0.836  -0.100  0.00  0.00    -0.033 A 
ATOM      2  C1  UNL d   1      -1.792   0.544  -0.342  0.00  0.00     0.039 A 
ATOM      3  C2  UNL d   1      -2.156  -0.192  -1.472  0.00  0.00    -0.080 A 
ATOM      4  C3  UNL d   1      -1.167  -0.630  -2.349  0.00  0.00     0.150 A 
ATOM      5  C4  UNL d   1       0.173  -0.347  -2.111  0.00  0.00    -0.007 A 
ATOM      6  C5  UNL d   1       0.535   0.389  -0.984  0.00  0.00     0.039 A 
ENDROOT
BRANCH   4   7
ATOM      7  O   UNL d   1      -1.474  -1.348  -3.467  0.00  0.00    -0.526 OA
ATOM      8  H5  UNL d   1      -2.440  -1.443  -3.516  0.00  0.00     0.418 HD
ENDBRANCH   4   7
TORSDOF 1
ENDMDL
