MODEL 1
REMARK minimizedAffinity -0.337275535
REMARK minimizedRMSD -1
REMARK  1 active torsions:
REMARK  status: ('A' for Active; 'I' for Inactive)
REMARK    1  A    between atoms: C1_2  and  C2_3 
ROOT
ATOM      1  C2  UNL d   1       1.444   3.939  -0.578  0.00  0.00    -0.081 A 
ATOM      2  C3  UNL d   1       1.475   3.414  -1.876  0.00  0.00     0.006 A 
ATOM      3  C4  UNL d   1       1.178   2.068  -2.102  0.00  0.00     0.002 A 
ATOM      4  C5  UNL d   1       0.838   1.227  -1.037  0.00  0.00    -0.080 A 
ATOM      5  C6  UNL d   1       0.488  -0.213  -1.269  0.00  0.00     0.076 C 
ATOM      6  C7  UNL d   1       0.824   1.748   0.262  0.00  0.00     0.002 A 
ATOM      7  C8  UNL d   1       1.121   3.093   0.489  0.00  0.00     0.006 A 
ENDROOT
BRANCH   1   8
ATOM      8  C1  UNL d   1       1.700   5.405  -0.339  0.00  0.00     0.054 C 
ATOM      9  C   UNL d   1       2.586   5.997  -1.426  0.00  0.00     0.018 C 
ENDBRANCH   1   8
TORSDOF 1
ENDMDL
