MODEL 1
REMARK minimizedAffinity -3.0741272
REMARK minimizedRMSD -1
REMARK  1 active torsions:
REMARK  status: ('A' for Active; 'I' for Inactive)
REMARK    1  A    between atoms: C1_2  and  C2_3 
ROOT
ATOM      1  C2  UNL d   1       1.460  -0.914  -0.465  0.00  0.00    -0.081 A 
ATOM      2  C3  UNL d   1       1.813  -0.293   0.740  0.00  0.00     0.006 A 
ATOM      3  C4  UNL d   1       1.596   1.075   0.921  0.00  0.00     0.002 A 
ATOM      4  C5  UNL d   1       1.017   1.842  -0.095  0.00  0.00    -0.080 A 
ATOM      5  C6  UNL d   1       0.751   3.306   0.099  0.00  0.00     0.076 C 
ATOM      6  C7  UNL d   1       0.681   1.226  -1.305  0.00  0.00     0.002 A 
ATOM      7  C8  UNL d   1       0.898  -0.142  -1.487  0.00  0.00     0.006 A 
ENDROOT
BRANCH   1   8
ATOM      8  C1  UNL d   1       1.633  -2.401  -0.640  0.00  0.00     0.054 C 
ATOM      9  C   UNL d   1       0.314  -3.074  -0.993  0.00  0.00     0.018 C 
ENDBRANCH   1   8
TORSDOF 1
ENDMDL
