MODEL 1
REMARK minimizedAffinity -2.11215281
REMARK minimizedRMSD -1
REMARK  1 active torsions:
REMARK  status: ('A' for Active; 'I' for Inactive)
REMARK    1  A    between atoms: C1_2  and  C2_3 
ROOT
ATOM      1  C2  UNL d   1       1.565   3.865  -0.396  0.00  0.00    -0.081 A 
ATOM      2  C3  UNL d   1       1.667   3.273  -1.661  0.00  0.00     0.006 A 
ATOM      3  C4  UNL d   1       1.388   1.915  -1.832  0.00  0.00     0.002 A 
ATOM      4  C5  UNL d   1       0.996   1.129  -0.743  0.00  0.00    -0.080 A 
ATOM      5  C6  UNL d   1       0.665  -0.324  -0.918  0.00  0.00     0.076 C 
ATOM      6  C7  UNL d   1       0.912   1.716   0.524  0.00  0.00     0.002 A 
ATOM      7  C8  UNL d   1       1.190   3.074   0.695  0.00  0.00     0.006 A 
ENDROOT
BRANCH   1   8
ATOM      8  C1  UNL d   1       1.802   5.343  -0.221  0.00  0.00     0.054 C 
ATOM      9  C   UNL d   1       2.473   5.946  -1.447  0.00  0.00     0.018 C 
ENDBRANCH   1   8
TORSDOF 1
ENDMDL
