MODEL 1
REMARK minimizedAffinity 2.84267759
REMARK minimizedRMSD -1
REMARK  1 active torsions:
REMARK  status: ('A' for Active; 'I' for Inactive)
REMARK    1  A    between atoms: C1_2  and  C2_3 
ROOT
ATOM      1  C2  UNL d   1       1.287   2.521  -1.532  0.00  0.00    -0.081 A 
ATOM      2  C3  UNL d   1       1.500   2.443  -0.150  0.00  0.00     0.006 A 
ATOM      3  C4  UNL d   1       1.510   1.204   0.496  0.00  0.00     0.002 A 
ATOM      4  C5  UNL d   1       1.317   0.024  -0.229  0.00  0.00    -0.080 A 
ATOM      5  C6  UNL d   1       1.356  -1.315   0.447  0.00  0.00     0.076 C 
ATOM      6  C7  UNL d   1       1.088   0.103  -1.607  0.00  0.00     0.002 A 
ATOM      7  C8  UNL d   1       1.076   1.341  -2.253  0.00  0.00     0.006 A 
ENDROOT
BRANCH   1   8
ATOM      8  C1  UNL d   1       1.340   3.850  -2.241  0.00  0.00     0.054 C 
ATOM      9  C   UNL d   1       2.189   4.853  -1.474  0.00  0.00     0.018 C 
ENDBRANCH   1   8
TORSDOF 1
ENDMDL
