MODEL 1
REMARK minimizedAffinity -2.78708243
REMARK minimizedRMSD -1
REMARK  1 active torsions:
REMARK  status: ('A' for Active; 'I' for Inactive)
REMARK    1  A    between atoms: C1_2  and  C2_3 
ROOT
ATOM      1  C2  UNL d   1       1.511   3.575  -0.889  0.00  0.00    -0.081 A 
ATOM      2  C3  UNL d   1       1.020   3.273  -2.165  0.00  0.00     0.006 A 
ATOM      3  C4  UNL d   1       0.515   2.001  -2.447  0.00  0.00     0.002 A 
ATOM      4  C5  UNL d   1       0.485   1.014  -1.456  0.00  0.00    -0.080 A 
ATOM      5  C6  UNL d   1      -0.083  -0.346  -1.737  0.00  0.00     0.076 C 
ATOM      6  C7  UNL d   1       0.992   1.310  -0.186  0.00  0.00     0.002 A 
ATOM      7  C8  UNL d   1       1.498   2.581   0.096  0.00  0.00     0.006 A 
ENDROOT
BRANCH   1   8
ATOM      8  C1  UNL d   1       1.997   4.964  -0.564  0.00  0.00     0.054 C 
ATOM      9  C   UNL d   1       2.168   5.800  -1.824  0.00  0.00     0.018 C 
ENDBRANCH   1   8
TORSDOF 1
ENDMDL
