MODEL 1
REMARK minimizedAffinity -2.23180938
REMARK minimizedRMSD -1
REMARK  0 active torsions:
REMARK  status: ('A' for Active; 'I' for Inactive)
ROOT
ATOM      1  C   UNL d   1       5.945   0.706   5.999  0.00  0.00     0.078 C 
ATOM      2  C1  UNL d   1       5.971  -0.595   5.253  0.00  0.00    -0.077 A 
ATOM      3  C2  UNL d   1       5.971  -0.623   3.853  0.00  0.00    -0.001 A 
ATOM      4  C3  UNL d   1       5.986  -1.841   3.171  0.00  0.00     0.003 A 
ATOM      5  C4  UNL d   1       5.999  -3.040   3.882  0.00  0.00    -0.005 A 
ATOM      6  C5  UNL d   1       5.997  -3.022   5.275  0.00  0.00     0.003 A 
ATOM      7  C6  UNL d   1       5.983  -1.805   5.958  0.00  0.00    -0.001 A 
ENDROOT
TORSDOF 0
ENDMDL
