MODEL 1
REMARK minimizedAffinity -2.26053667
REMARK minimizedRMSD -1
REMARK  0 active torsions:
REMARK  status: ('A' for Active; 'I' for Inactive)
ROOT
ATOM      1  C   UNL d   1       5.979  -1.075   4.905  0.00  0.00     0.078 C 
ATOM      2  C1  UNL d   1       5.992   0.415   4.736  0.00  0.00    -0.077 A 
ATOM      3  C2  UNL d   1       5.987   1.267   5.848  0.00  0.00    -0.001 A 
ATOM      4  C3  UNL d   1       5.990   2.652   5.675  0.00  0.00     0.003 A 
ATOM      5  C4  UNL d   1       5.997   3.197   4.393  0.00  0.00    -0.005 A 
ATOM      6  C5  UNL d   1       6.000   2.358   3.281  0.00  0.00     0.003 A 
ATOM      7  C6  UNL d   1       5.997   0.972   3.452  0.00  0.00    -0.001 A 
ENDROOT
TORSDOF 0
ENDMDL
