MODEL 1
REMARK minimizedAffinity -1.3608067
REMARK minimizedRMSD -1
REMARK  0 active torsions:
REMARK  status: ('A' for Active; 'I' for Inactive)
ROOT
ATOM      1  C   UNL d   1       5.612  -0.271   5.436  0.00  0.00     0.078 C 
ATOM      2  C1  UNL d   1       5.627   1.049   4.724  0.00  0.00    -0.077 A 
ATOM      3  C2  UNL d   1       6.000   2.223   5.390  0.00  0.00    -0.001 A 
ATOM      4  C3  UNL d   1       6.000   3.446   4.717  0.00  0.00     0.003 A 
ATOM      5  C4  UNL d   1       5.626   3.507   3.376  0.00  0.00    -0.005 A 
ATOM      6  C5  UNL d   1       5.251   2.344   2.706  0.00  0.00     0.003 A 
ATOM      7  C6  UNL d   1       5.250   1.120   3.377  0.00  0.00    -0.001 A 
ENDROOT
TORSDOF 0
ENDMDL
