MODEL 1
REMARK minimizedAffinity 0.93073523
REMARK minimizedRMSD -1
REMARK  0 active torsions:
REMARK  status: ('A' for Active; 'I' for Inactive)
ROOT
ATOM      1  C   UNL d   1       5.985   2.239   4.246  0.00  0.00     0.078 C 
ATOM      2  C1  UNL d   1       5.978   0.759   4.488  0.00  0.00    -0.077 A 
ATOM      3  C2  UNL d   1       5.995   0.241   5.789  0.00  0.00    -0.001 A 
ATOM      4  C3  UNL d   1       5.998  -1.138   5.999  0.00  0.00     0.003 A 
ATOM      5  C4  UNL d   1       5.985  -2.012   4.914  0.00  0.00    -0.005 A 
ATOM      6  C5  UNL d   1       5.969  -1.506   3.616  0.00  0.00     0.003 A 
ATOM      7  C6  UNL d   1       5.966  -0.126   3.403  0.00  0.00    -0.001 A 
ENDROOT
TORSDOF 0
ENDMDL
