MODEL 1
REMARK minimizedAffinity -0.017774852
REMARK minimizedRMSD -1
REMARK  0 active torsions:
REMARK  status: ('A' for Active; 'I' for Inactive)
ROOT
ATOM      1  C   UNL d   1       5.984   4.099   3.362  0.00  0.00     0.078 C 
ATOM      2  C1  UNL d   1       5.995   2.681   3.849  0.00  0.00    -0.077 A 
ATOM      3  C2  UNL d   1       5.986   1.609   2.948  0.00  0.00    -0.001 A 
ATOM      4  C3  UNL d   1       5.986   0.294   3.415  0.00  0.00     0.003 A 
ATOM      5  C4  UNL d   1       5.993   0.038   4.785  0.00  0.00    -0.005 A 
ATOM      6  C5  UNL d   1       5.999   1.098   5.689  0.00  0.00     0.003 A 
ATOM      7  C6  UNL d   1       5.999   2.414   5.223  0.00  0.00    -0.001 A 
ENDROOT
TORSDOF 0
ENDMDL
