MODEL 1
REMARK minimizedAffinity -1.98648536
REMARK minimizedRMSD -1
REMARK  0 active torsions:
REMARK  status: ('A' for Active; 'I' for Inactive)
ROOT
ATOM      1  C   UNL d   1       5.625   4.119   3.199  0.00  0.00     0.078 C 
ATOM      2  C1  UNL d   1       5.616   2.827   3.960  0.00  0.00    -0.077 A 
ATOM      3  C2  UNL d   1       5.998   2.781   5.306  0.00  0.00    -0.001 A 
ATOM      4  C3  UNL d   1       5.994   1.569   6.000  0.00  0.00     0.003 A 
ATOM      5  C4  UNL d   1       5.611   0.395   5.355  0.00  0.00    -0.005 A 
ATOM      6  C5  UNL d   1       5.231   0.431   4.014  0.00  0.00     0.003 A 
ATOM      7  C6  UNL d   1       5.235   1.642   3.320  0.00  0.00    -0.001 A 
ENDROOT
TORSDOF 0
ENDMDL
