MODEL 1
REMARK minimizedAffinity -2.95655608
REMARK minimizedRMSD -1
REMARK  0 active torsions:
REMARK  status: ('A' for Active; 'I' for Inactive)
ROOT
ATOM      1  C   UNL d   1       4.874   3.729   4.135  0.00  0.00     0.078 C 
ATOM      2  C1  UNL d   1       5.255   2.296   4.356  0.00  0.00    -0.077 A 
ATOM      3  C2  UNL d   1       5.251   1.738   5.640  0.00  0.00    -0.001 A 
ATOM      4  C3  UNL d   1       5.618   0.405   5.832  0.00  0.00     0.003 A 
ATOM      5  C4  UNL d   1       5.991  -0.382   4.744  0.00  0.00    -0.005 A 
ATOM      6  C5  UNL d   1       6.000   0.165   3.462  0.00  0.00     0.003 A 
ATOM      7  C6  UNL d   1       5.634   1.498   3.269  0.00  0.00    -0.001 A 
ENDROOT
TORSDOF 0
ENDMDL
