MODEL 1
REMARK minimizedAffinity -3.76371336
REMARK minimizedRMSD -1
REMARK  0 active torsions:
REMARK  status: ('A' for Active; 'I' for Inactive)
ROOT
ATOM      1  C   UNL d   1       5.595   3.510   3.208  0.00  0.00     0.078 C 
ATOM      2  C1  UNL d   1       5.536   2.135   3.801  0.00  0.00    -0.077 A 
ATOM      3  C2  UNL d   1       5.998   1.021   3.089  0.00  0.00    -0.001 A 
ATOM      4  C3  UNL d   1       5.927  -0.255   3.650  0.00  0.00     0.003 A 
ATOM      5  C4  UNL d   1       5.395  -0.430   4.926  0.00  0.00    -0.005 A 
ATOM      6  C5  UNL d   1       4.930   0.672   5.642  0.00  0.00     0.003 A 
ATOM      7  C6  UNL d   1       5.000   1.949   5.082  0.00  0.00    -0.001 A 
ENDROOT
TORSDOF 0
ENDMDL
