MODEL 1
REMARK minimizedAffinity -1.25770843
REMARK minimizedRMSD -1
REMARK  0 active torsions:
REMARK  status: ('A' for Active; 'I' for Inactive)
ROOT
ATOM      1  C   UNL d   1       5.986  -1.334   5.257  0.00  0.00     0.078 C 
ATOM      2  C1  UNL d   1       5.983  -0.030   4.516  0.00  0.00    -0.077 A 
ATOM      3  C2  UNL d   1       5.992   0.004   3.117  0.00  0.00    -0.001 A 
ATOM      4  C3  UNL d   1       5.999   1.226   2.441  0.00  0.00     0.003 A 
ATOM      5  C4  UNL d   1       6.000   2.421   3.156  0.00  0.00    -0.005 A 
ATOM      6  C5  UNL d   1       5.994   2.397   4.549  0.00  0.00     0.003 A 
ATOM      7  C6  UNL d   1       5.986   1.177   5.227  0.00  0.00    -0.001 A 
ENDROOT
TORSDOF 0
ENDMDL
