MODEL 1
REMARK minimizedAffinity -1.06810391
REMARK minimizedRMSD -1
REMARK  0 active torsions:
REMARK  status: ('A' for Active; 'I' for Inactive)
ROOT
ATOM      1  C   UNL d   1       5.990   3.213   2.642  0.00  0.00     0.078 C 
ATOM      2  C1  UNL d   1       6.000   2.107   3.655  0.00  0.00    -0.077 A 
ATOM      3  C2  UNL d   1       5.995   0.765   3.257  0.00  0.00    -0.001 A 
ATOM      4  C3  UNL d   1       5.994  -0.254   4.211  0.00  0.00     0.003 A 
ATOM      5  C4  UNL d   1       5.997   0.059   5.569  0.00  0.00    -0.005 A 
ATOM      6  C5  UNL d   1       5.999   1.392   5.975  0.00  0.00     0.003 A 
ATOM      7  C6  UNL d   1       6.000   2.412   5.022  0.00  0.00    -0.001 A 
ENDROOT
TORSDOF 0
ENDMDL
