MODEL 1
REMARK minimizedAffinity -2.52910709
REMARK minimizedRMSD -1
REMARK  0 active torsions:
REMARK  status: ('A' for Active; 'I' for Inactive)
ROOT
ATOM      1  C   UNL d   1       5.949   3.925   3.499  0.00  0.00     0.078 C 
ATOM      2  C1  UNL d   1       5.856   2.546   4.080  0.00  0.00    -0.077 A 
ATOM      3  C2  UNL d   1       5.998   1.412   3.272  0.00  0.00    -0.001 A 
ATOM      4  C3  UNL d   1       5.900   0.134   3.825  0.00  0.00     0.003 A 
ATOM      5  C4  UNL d   1       5.657  -0.022   5.188  0.00  0.00    -0.005 A 
ATOM      6  C5  UNL d   1       5.511   1.101   6.000  0.00  0.00     0.003 A 
ATOM      7  C6  UNL d   1       5.609   2.380   5.449  0.00  0.00    -0.001 A 
ENDROOT
TORSDOF 0
ENDMDL
