MODEL 1
REMARK minimizedAffinity -3.25280738
REMARK minimizedRMSD -1
REMARK  0 active torsions:
REMARK  status: ('A' for Active; 'I' for Inactive)
ROOT
ATOM      1  C   UNL d   1       5.924   0.156   4.838  0.00  0.00     0.078 C 
ATOM      2  C1  UNL d   1       5.955  -1.332   4.657  0.00  0.00    -0.077 A 
ATOM      3  C2  UNL d   1       5.946  -1.903   3.379  0.00  0.00    -0.001 A 
ATOM      4  C3  UNL d   1       5.965  -3.290   3.226  0.00  0.00     0.003 A 
ATOM      5  C4  UNL d   1       5.993  -4.118   4.346  0.00  0.00    -0.005 A 
ATOM      6  C5  UNL d   1       5.999  -3.559   5.623  0.00  0.00     0.003 A 
ATOM      7  C6  UNL d   1       5.980  -2.172   5.778  0.00  0.00    -0.001 A 
ENDROOT
TORSDOF 0
ENDMDL
