MODEL 1
REMARK minimizedAffinity -2.51276946
REMARK minimizedRMSD -1
REMARK  0 active torsions:
REMARK  status: ('A' for Active; 'I' for Inactive)
ROOT
ATOM      1  C   UNL d   1       5.955   2.847   3.500  0.00  0.00     0.078 C 
ATOM      2  C1  UNL d   1       5.973   1.460   4.069  0.00  0.00    -0.077 A 
ATOM      3  C2  UNL d   1       5.962   0.337   3.233  0.00  0.00    -0.001 A 
ATOM      4  C3  UNL d   1       5.969  -0.948   3.777  0.00  0.00     0.003 A 
ATOM      5  C4  UNL d   1       5.987  -1.123   5.160  0.00  0.00    -0.005 A 
ATOM      6  C5  UNL d   1       5.997  -0.011   6.000  0.00  0.00     0.003 A 
ATOM      7  C6  UNL d   1       5.989   1.275   5.458  0.00  0.00    -0.001 A 
ENDROOT
TORSDOF 0
ENDMDL
