MODEL 1
REMARK minimizedAffinity -2.34037161
REMARK minimizedRMSD -1
REMARK  0 active torsions:
REMARK  status: ('A' for Active; 'I' for Inactive)
ROOT
ATOM      1  C   UNL d   1       5.986   3.641   4.155  0.00  0.00     0.078 C 
ATOM      2  C1  UNL d   1       5.996   2.154   4.348  0.00  0.00    -0.077 A 
ATOM      3  C2  UNL d   1       5.998   1.284   3.250  0.00  0.00    -0.001 A 
ATOM      4  C3  UNL d   1       5.998  -0.098   3.445  0.00  0.00     0.003 A 
ATOM      5  C4  UNL d   1       5.995  -0.622   4.736  0.00  0.00    -0.005 A 
ATOM      6  C5  UNL d   1       5.992   0.235   5.834  0.00  0.00     0.003 A 
ATOM      7  C6  UNL d   1       5.992   1.618   5.641  0.00  0.00    -0.001 A 
ENDROOT
TORSDOF 0
ENDMDL
