MODEL 1
REMARK minimizedAffinity -2.53731418
REMARK minimizedRMSD -1
REMARK  0 active torsions:
REMARK  status: ('A' for Active; 'I' for Inactive)
ROOT
ATOM      1  C   UNL d   1       5.973   3.748   3.355  0.00  0.00     0.078 C 
ATOM      2  C1  UNL d   1       5.970   2.267   3.590  0.00  0.00    -0.077 A 
ATOM      3  C2  UNL d   1       5.993   1.743   4.889  0.00  0.00    -0.001 A 
ATOM      4  C3  UNL d   1       6.000   0.362   5.092  0.00  0.00     0.003 A 
ATOM      5  C4  UNL d   1       5.985  -0.506   4.002  0.00  0.00    -0.005 A 
ATOM      6  C5  UNL d   1       5.964   0.006   2.707  0.00  0.00     0.003 A 
ATOM      7  C6  UNL d   1       5.957   1.386   2.501  0.00  0.00    -0.001 A 
ENDROOT
TORSDOF 0
ENDMDL
