MODEL 1
REMARK minimizedAffinity 3.45850086
REMARK minimizedRMSD -1
REMARK  0 active torsions:
REMARK  status: ('A' for Active; 'I' for Inactive)
ROOT
ATOM      1  C   UNL d   1       5.995   1.760   2.599  0.00  0.00     0.078 C 
ATOM      2  C1  UNL d   1       5.984   3.223   2.928  0.00  0.00    -0.077 A 
ATOM      3  C2  UNL d   1       5.970   4.190   1.916  0.00  0.00    -0.001 A 
ATOM      4  C3  UNL d   1       5.970   5.548   2.237  0.00  0.00     0.003 A 
ATOM      5  C4  UNL d   1       5.984   5.952   3.571  0.00  0.00    -0.005 A 
ATOM      6  C5  UNL d   1       5.999   4.997   4.585  0.00  0.00     0.003 A 
ATOM      7  C6  UNL d   1       6.000   3.638   4.266  0.00  0.00    -0.001 A 
ENDROOT
TORSDOF 0
ENDMDL
