MODEL 1
REMARK minimizedAffinity -2.16153812
REMARK minimizedRMSD -1
REMARK  0 active torsions:
REMARK  status: ('A' for Active; 'I' for Inactive)
ROOT
ATOM      1  C   UNL d   1       5.937   2.507   3.910  0.00  0.00     0.078 C 
ATOM      2  C1  UNL d   1       5.866   1.063   4.307  0.00  0.00    -0.077 A 
ATOM      3  C2  UNL d   1       5.681   0.690   5.644  0.00  0.00    -0.001 A 
ATOM      4  C3  UNL d   1       5.626  -0.658   6.000  0.00  0.00     0.003 A 
ATOM      5  C4  UNL d   1       5.758  -1.645   5.025  0.00  0.00    -0.005 A 
ATOM      6  C5  UNL d   1       5.945  -1.285   3.692  0.00  0.00     0.003 A 
ATOM      7  C6  UNL d   1       5.999   0.063   3.334  0.00  0.00    -0.001 A 
ENDROOT
TORSDOF 0
ENDMDL
