MODEL 1
REMARK minimizedAffinity 2.1799469
REMARK minimizedRMSD -1
REMARK  0 active torsions:
REMARK  status: ('A' for Active; 'I' for Inactive)
ROOT
ATOM      1  C   UNL d   1       5.988   5.930   5.312  0.00  0.00     0.078 C 
ATOM      2  C1  UNL d   1       5.979   4.533   4.768  0.00  0.00    -0.077 A 
ATOM      3  C2  UNL d   1       5.997   3.426   5.625  0.00  0.00    -0.001 A 
ATOM      4  C3  UNL d   1       5.998   2.130   5.105  0.00  0.00     0.003 A 
ATOM      5  C4  UNL d   1       5.981   1.930   3.726  0.00  0.00    -0.005 A 
ATOM      6  C5  UNL d   1       5.965   3.026   2.865  0.00  0.00     0.003 A 
ATOM      7  C6  UNL d   1       5.964   4.322   3.384  0.00  0.00    -0.001 A 
ENDROOT
TORSDOF 0
ENDMDL
