MODEL 1
REMARK minimizedAffinity -2.76474118
REMARK minimizedRMSD -1
REMARK  1 active torsions:
REMARK  status: ('A' for Active; 'I' for Inactive)
REMARK    1  A    between atoms: C1_2  and  C2_3 
ROOT
ATOM      1  C2  UNL d   1      -0.237  -0.848  -0.906  0.00  0.00    -0.076 A 
ATOM      2  C3  UNL d   1      -0.661  -1.380   0.324  0.00  0.00     0.004 A 
ATOM      3  C4  UNL d   1      -1.036  -2.718   0.436  0.00  0.00    -0.003 A 
ATOM      4  C5  UNL d   1      -0.991  -3.546  -0.681  0.00  0.00     0.000 A 
ATOM      5  C6  UNL d   1      -0.556  -3.039  -1.905  0.00  0.00     0.000 A 
ATOM      6  C7  UNL d   1      -0.159  -1.696  -2.031  0.00  0.00    -0.073 A 
ATOM      7  C8  UNL d   1       0.296  -1.201  -3.376  0.00  0.00     0.078 C 
ENDROOT
BRANCH   1   8
ATOM      8  C1  UNL d   1       0.131   0.617  -0.973  0.00  0.00     0.053 C 
ATOM      9  C   UNL d   1       0.443   1.203   0.396  0.00  0.00     0.018 C 
ENDBRANCH   1   8
TORSDOF 1
ENDMDL
