MODEL 1
REMARK minimizedAffinity -4.36980629
REMARK minimizedRMSD -1
REMARK  1 active torsions:
REMARK  status: ('A' for Active; 'I' for Inactive)
REMARK    1  A    between atoms: C1_2  and  C2_3 
ROOT
ATOM      1  C2  UNL d   1      -0.603   0.508   0.231  0.00  0.00    -0.076 A 
ATOM      2  C3  UNL d   1      -0.197  -0.138  -0.950  0.00  0.00     0.004 A 
ATOM      3  C4  UNL d   1      -0.385  -1.509  -1.119  0.00  0.00    -0.003 A 
ATOM      4  C5  UNL d   1      -0.984  -2.256  -0.110  0.00  0.00     0.000 A 
ATOM      5  C6  UNL d   1      -1.409  -1.628   1.060  0.00  0.00     0.000 A 
ATOM      6  C7  UNL d   1      -1.242  -0.244   1.240  0.00  0.00    -0.073 A 
ATOM      7  C8  UNL d   1      -1.714   0.379   2.524  0.00  0.00     0.078 C 
ENDROOT
BRANCH   1   8
ATOM      8  C1  UNL d   1      -0.349   1.992   0.369  0.00  0.00     0.053 C 
ATOM      9  C   UNL d   1       1.134   2.329   0.388  0.00  0.00     0.018 C 
ENDBRANCH   1   8
TORSDOF 1
ENDMDL
