MODEL 1
REMARK minimizedAffinity -1.6233536
REMARK minimizedRMSD -1
REMARK  1 active torsions:
REMARK  status: ('A' for Active; 'I' for Inactive)
REMARK    1  A    between atoms: C1_2  and  C2_3 
ROOT
ATOM      1  C2  UNL d   1      -0.401  -1.386  -0.885  0.00  0.00    -0.076 A 
ATOM      2  C3  UNL d   1      -0.580  -2.364   0.109  0.00  0.00     0.004 A 
ATOM      3  C4  UNL d   1      -0.722  -2.007   1.449  0.00  0.00    -0.003 A 
ATOM      4  C5  UNL d   1      -0.687  -0.666   1.817  0.00  0.00     0.000 A 
ATOM      5  C6  UNL d   1      -0.528   0.318   0.842  0.00  0.00     0.000 A 
ATOM      6  C7  UNL d   1      -0.400  -0.024  -0.516  0.00  0.00    -0.073 A 
ATOM      7  C8  UNL d   1      -0.225   1.078  -1.524  0.00  0.00     0.078 C 
ENDROOT
BRANCH   1   8
ATOM      8  C1  UNL d   1      -0.226  -1.834  -2.318  0.00  0.00     0.053 C 
ATOM      9  C   UNL d   1      -0.836  -3.203  -2.579  0.00  0.00     0.018 C 
ENDBRANCH   1   8
TORSDOF 1
ENDMDL
