MODEL 1
REMARK minimizedAffinity -3.7398293
REMARK minimizedRMSD -1
REMARK  1 active torsions:
REMARK  status: ('A' for Active; 'I' for Inactive)
REMARK    1  A    between atoms: C1_2  and  C2_3 
ROOT
ATOM      1  C2  UNL d   1       0.455  -1.328  -0.586  0.00  0.00    -0.076 A 
ATOM      2  C3  UNL d   1      -0.018  -2.218   0.393  0.00  0.00     0.004 A 
ATOM      3  C4  UNL d   1      -0.432  -3.505   0.054  0.00  0.00    -0.003 A 
ATOM      4  C5  UNL d   1      -0.379  -3.923  -1.271  0.00  0.00     0.000 A 
ATOM      5  C6  UNL d   1       0.105  -3.060  -2.254  0.00  0.00     0.000 A 
ATOM      6  C7  UNL d   1       0.542  -1.765  -1.926  0.00  0.00    -0.073 A 
ATOM      7  C8  UNL d   1       1.048  -0.874  -3.026  0.00  0.00     0.078 C 
ENDROOT
BRANCH   1   8
ATOM      8  C1  UNL d   1       0.865   0.064  -0.163  0.00  0.00     0.053 C 
ATOM      9  C   UNL d   1      -0.316   0.903   0.300  0.00  0.00     0.018 C 
ENDBRANCH   1   8
TORSDOF 1
ENDMDL
