MODEL 1
REMARK minimizedAffinity -2.82744789
REMARK minimizedRMSD -1
REMARK  1 active torsions:
REMARK  status: ('A' for Active; 'I' for Inactive)
REMARK    1  A    between atoms: C1_2  and  C2_3 
ROOT
ATOM      1  C2  UNL d   1      -0.211  -1.033  -0.624  0.00  0.00    -0.076 A 
ATOM      2  C3  UNL d   1       0.213  -0.976  -1.963  0.00  0.00     0.004 A 
ATOM      3  C4  UNL d   1       0.050  -2.068  -2.814  0.00  0.00    -0.003 A 
ATOM      4  C5  UNL d   1      -0.541  -3.234  -2.340  0.00  0.00     0.000 A 
ATOM      5  C6  UNL d   1      -0.984  -3.302  -1.019  0.00  0.00     0.000 A 
ATOM      6  C7  UNL d   1      -0.841  -2.204  -0.153  0.00  0.00    -0.073 A 
ATOM      7  C8  UNL d   1      -1.331  -2.335   1.264  0.00  0.00     0.078 C 
ENDROOT
BRANCH   1   8
ATOM      8  C1  UNL d   1       0.017   0.173   0.260  0.00  0.00     0.053 C 
ATOM      9  C   UNL d   1      -0.355   1.478  -0.428  0.00  0.00     0.018 C 
ENDBRANCH   1   8
TORSDOF 1
ENDMDL
