MODEL 1
REMARK minimizedAffinity 0.651377201
REMARK minimizedRMSD -1
REMARK  1 active torsions:
REMARK  status: ('A' for Active; 'I' for Inactive)
REMARK    1  A    between atoms: C1_2  and  C2_3 
ROOT
ATOM      1  C2  UNL d   1      -0.953  -0.980   0.678  0.00  0.00    -0.076 A 
ATOM      2  C3  UNL d   1      -0.121  -0.919  -0.453  0.00  0.00     0.004 A 
ATOM      3  C4  UNL d   1       0.342   0.302  -0.939  0.00  0.00    -0.003 A 
ATOM      4  C5  UNL d   1      -0.020   1.484  -0.301  0.00  0.00     0.000 A 
ATOM      5  C6  UNL d   1      -0.831   1.441   0.833  0.00  0.00     0.000 A 
ATOM      6  C7  UNL d   1      -1.292   0.216   1.345  0.00  0.00    -0.073 A 
ATOM      7  C8  UNL d   1      -2.169   0.230   2.568  0.00  0.00     0.078 C 
ENDROOT
BRANCH   1   8
ATOM      8  C1  UNL d   1      -1.446  -2.332   1.143  0.00  0.00     0.053 C 
ATOM      9  C   UNL d   1      -2.815  -2.678   0.579  0.00  0.00     0.018 C 
ENDBRANCH   1   8
TORSDOF 1
ENDMDL
