MODEL 1
REMARK minimizedAffinity -4.35601568
REMARK minimizedRMSD -1
REMARK  1 active torsions:
REMARK  status: ('A' for Active; 'I' for Inactive)
REMARK    1  A    between atoms: C1_2  and  C2_3 
ROOT
ATOM      1  C2  UNL d   1      -0.572   0.481   0.379  0.00  0.00    -0.076 A 
ATOM      2  C3  UNL d   1       0.181  -0.181  -0.607  0.00  0.00     0.004 A 
ATOM      3  C4  UNL d   1       0.164  -1.570  -0.710  0.00  0.00    -0.003 A 
ATOM      4  C5  UNL d   1      -0.608  -2.321   0.170  0.00  0.00     0.000 A 
ATOM      5  C6  UNL d   1      -1.375  -1.680   1.142  0.00  0.00     0.000 A 
ATOM      6  C7  UNL d   1      -1.381  -0.279   1.250  0.00  0.00    -0.073 A 
ATOM      7  C8  UNL d   1      -2.222   0.359   2.321  0.00  0.00     0.078 C 
ENDROOT
BRANCH   1   8
ATOM      8  C1  UNL d   1      -0.492   1.989   0.460  0.00  0.00     0.053 C 
ATOM      9  C   UNL d   1       0.855   2.527   0.001  0.00  0.00     0.018 C 
ENDBRANCH   1   8
TORSDOF 1
ENDMDL
