MODEL 1
REMARK minimizedAffinity -3.43587732
REMARK minimizedRMSD -1
REMARK  1 active torsions:
REMARK  status: ('A' for Active; 'I' for Inactive)
REMARK    1  A    between atoms: C1_2  and  C2_3 
ROOT
ATOM      1  C2  UNL d   1      -0.238   0.157  -0.326  0.00  0.00    -0.076 A 
ATOM      2  C3  UNL d   1      -0.686   0.175   1.006  0.00  0.00     0.004 A 
ATOM      3  C4  UNL d   1      -1.055  -1.002   1.655  0.00  0.00    -0.003 A 
ATOM      4  C5  UNL d   1      -0.983  -2.216   0.982  0.00  0.00     0.000 A 
ATOM      5  C6  UNL d   1      -0.524  -2.255  -0.334  0.00  0.00     0.000 A 
ATOM      6  C7  UNL d   1      -0.132  -1.080  -0.998  0.00  0.00    -0.073 A 
ATOM      7  C8  UNL d   1       0.349  -1.179  -2.419  0.00  0.00     0.078 C 
ENDROOT
BRANCH   1   8
ATOM      8  C1  UNL d   1       0.123   1.468  -0.987  0.00  0.00     0.053 C 
ATOM      9  C   UNL d   1       0.569   2.522   0.015  0.00  0.00     0.018 C 
ENDBRANCH   1   8
TORSDOF 1
ENDMDL
