MODEL 1
REMARK minimizedAffinity -1.40929806
REMARK minimizedRMSD -1
REMARK  1 active torsions:
REMARK  status: ('A' for Active; 'I' for Inactive)
REMARK    1  A    between atoms: C1_2  and  C2_3 
ROOT
ATOM      1  C2  UNL d   1       0.731   1.738   0.501  0.00  0.00    -0.076 A 
ATOM      2  C3  UNL d   1       0.911   1.105   1.743  0.00  0.00     0.004 A 
ATOM      3  C4  UNL d   1       0.302  -0.117   2.020  0.00  0.00    -0.003 A 
ATOM      4  C5  UNL d   1      -0.496  -0.728   1.059  0.00  0.00     0.000 A 
ATOM      5  C6  UNL d   1      -0.671  -0.123  -0.185  0.00  0.00     0.000 A 
ATOM      6  C7  UNL d   1      -0.051   1.102  -0.486  0.00  0.00    -0.073 A 
ATOM      7  C8  UNL d   1      -0.279   1.712  -1.842  0.00  0.00     0.078 C 
ENDROOT
BRANCH   1   8
ATOM      8  C1  UNL d   1       1.394   3.077   0.268  0.00  0.00     0.053 C 
ATOM      9  C   UNL d   1       2.561   3.322   1.212  0.00  0.00     0.018 C 
ENDBRANCH   1   8
TORSDOF 1
ENDMDL
