MODEL 1
REMARK minimizedAffinity -2.10577059
REMARK minimizedRMSD -1
REMARK  1 active torsions:
REMARK  status: ('A' for Active; 'I' for Inactive)
REMARK    1  A    between atoms: C1_2  and  C2_3 
ROOT
ATOM      1  C2  UNL d   1       0.471   1.266   0.288  0.00  0.00    -0.076 A 
ATOM      2  C3  UNL d   1       0.519   0.688   1.568  0.00  0.00     0.004 A 
ATOM      3  C4  UNL d   1      -0.086  -0.541   1.824  0.00  0.00    -0.003 A 
ATOM      4  C5  UNL d   1      -0.747  -1.214   0.802  0.00  0.00     0.000 A 
ATOM      5  C6  UNL d   1      -0.789  -0.664  -0.479  0.00  0.00     0.000 A 
ATOM      6  C7  UNL d   1      -0.171   0.567  -0.757  0.00  0.00    -0.073 A 
ATOM      7  C8  UNL d   1      -0.252   1.116  -2.155  0.00  0.00     0.078 C 
ENDROOT
BRANCH   1   8
ATOM      8  C1  UNL d   1       1.122   2.614   0.077  0.00  0.00     0.053 C 
ATOM      9  C   UNL d   1       2.563   2.648   0.560  0.00  0.00     0.018 C 
ENDBRANCH   1   8
TORSDOF 1
ENDMDL
