MODEL 1
REMARK minimizedAffinity -0.847431242
REMARK minimizedRMSD -1
REMARK  1 active torsions:
REMARK  status: ('A' for Active; 'I' for Inactive)
REMARK    1  A    between atoms: C1_2  and  C2_3 
ROOT
ATOM      1  C2  UNL d   1      -0.511  -1.596  -1.015  0.00  0.00    -0.076 A 
ATOM      2  C3  UNL d   1      -0.980  -2.533  -0.078  0.00  0.00     0.004 A 
ATOM      3  C4  UNL d   1      -1.242  -2.161   1.239  0.00  0.00    -0.003 A 
ATOM      4  C5  UNL d   1      -1.040  -0.845   1.641  0.00  0.00     0.000 A 
ATOM      5  C6  UNL d   1      -0.592   0.101   0.720  0.00  0.00     0.000 A 
ATOM      6  C7  UNL d   1      -0.338  -0.254  -0.616  0.00  0.00    -0.073 A 
ATOM      7  C8  UNL d   1       0.149   0.807  -1.564  0.00  0.00     0.078 C 
ENDROOT
BRANCH   1   8
ATOM      8  C1  UNL d   1      -0.218  -2.064  -2.423  0.00  0.00     0.053 C 
ATOM      9  C   UNL d   1      -0.993  -3.319  -2.793  0.00  0.00     0.018 C 
ENDBRANCH   1   8
TORSDOF 1
ENDMDL
