MODEL 1
REMARK minimizedAffinity -5.90223932
REMARK minimizedRMSD -1
REMARK  2 active torsions:
REMARK  status: ('A' for Active; 'I' for Inactive)
REMARK    1  A    between atoms: C1_2  and  C2_3 
REMARK    2  A    between atoms: C2_3  and  C3_4 
ROOT
ATOM      1  C3  UNL d   1       0.121  -0.075   0.489  0.00  0.00    -0.075 A 
ATOM      2  C4  UNL d   1       0.994  -0.975   1.117  0.00  0.00     0.002 A 
ATOM      3  C5  UNL d   1       2.362  -0.709   1.178  0.00  0.00     0.002 A 
ATOM      4  C6  UNL d   1       2.875   0.452   0.604  0.00  0.00    -0.004 A 
ATOM      5  C7  UNL d   1       2.019   1.345  -0.038  0.00  0.00     0.002 A 
ATOM      6  C8  UNL d   1       0.649   1.083  -0.096  0.00  0.00     0.002 A 
ENDROOT
BRANCH   1   7
ATOM      7  C2  UNL d   1      -1.364  -0.343   0.445  0.00  0.00     0.056 C 
BRANCH   7   8
ATOM      8  C1  UNL d   1      -2.099   0.396  -0.679  0.00  0.00     0.007 C 
ATOM      9  C   UNL d   1      -2.163  -0.398  -1.977  0.00  0.00     0.009 C 
ENDBRANCH   7   8
ENDBRANCH   1   7
TORSDOF 2
ENDMDL
