MODEL 1
REMARK minimizedAffinity -5.21186399
REMARK minimizedRMSD -1
REMARK  2 active torsions:
REMARK  status: ('A' for Active; 'I' for Inactive)
REMARK    1  A    between atoms: C1_2  and  C2_3 
REMARK    2  A    between atoms: C2_3  and  C3_4 
ROOT
ATOM      1  C3  UNL d   1      -0.896   0.186  -0.443  0.00  0.00    -0.075 A 
ATOM      2  C4  UNL d   1       0.016   1.244  -0.320  0.00  0.00     0.002 A 
ATOM      3  C5  UNL d   1       1.283   1.027   0.223  0.00  0.00     0.002 A 
ATOM      4  C6  UNL d   1       1.649  -0.245   0.658  0.00  0.00    -0.004 A 
ATOM      5  C7  UNL d   1       0.745  -1.300   0.555  0.00  0.00     0.002 A 
ATOM      6  C8  UNL d   1      -0.522  -1.086   0.009  0.00  0.00     0.002 A 
ENDROOT
BRANCH   1   7
ATOM      7  C2  UNL d   1      -2.258   0.408  -1.057  0.00  0.00     0.056 C 
BRANCH   7   8
ATOM      8  C1  UNL d   1      -2.553  -0.489  -2.263  0.00  0.00     0.007 C 
ATOM      9  C   UNL d   1      -3.411   0.190  -3.322  0.00  0.00     0.009 C 
ENDBRANCH   7   8
ENDBRANCH   1   7
TORSDOF 2
ENDMDL
