MODEL 1
REMARK minimizedAffinity -4.31918383
REMARK minimizedRMSD -1
REMARK  2 active torsions:
REMARK  status: ('A' for Active; 'I' for Inactive)
REMARK    1  A    between atoms: C1_2  and  C2_3 
REMARK    2  A    between atoms: C2_3  and  C3_4 
ROOT
ATOM      1  C3  UNL d   1       0.810  -0.217   0.808  0.00  0.00    -0.075 A 
ATOM      2  C4  UNL d   1       0.399  -1.374   1.486  0.00  0.00     0.002 A 
ATOM      3  C5  UNL d   1       1.191  -1.923   2.495  0.00  0.00     0.002 A 
ATOM      4  C6  UNL d   1       2.406  -1.330   2.831  0.00  0.00    -0.004 A 
ATOM      5  C7  UNL d   1       2.832  -0.190   2.153  0.00  0.00     0.002 A 
ATOM      6  C8  UNL d   1       2.039   0.364   1.147  0.00  0.00     0.002 A 
ENDROOT
BRANCH   1   7
ATOM      7  C2  UNL d   1      -0.057   0.399  -0.264  0.00  0.00     0.056 C 
BRANCH   7   8
ATOM      8  C1  UNL d   1      -1.546   0.456   0.093  0.00  0.00     0.007 C 
ATOM      9  C   UNL d   1      -2.458   0.405  -1.125  0.00  0.00     0.009 C 
ENDBRANCH   7   8
ENDBRANCH   1   7
TORSDOF 2
ENDMDL
