MODEL 1
REMARK minimizedAffinity -4.45544672
REMARK minimizedRMSD -1
REMARK  2 active torsions:
REMARK  status: ('A' for Active; 'I' for Inactive)
REMARK    1  A    between atoms: C1_2  and  C2_3 
REMARK    2  A    between atoms: C2_3  and  C3_4 
ROOT
ATOM      1  C3  UNL d   1      -1.441   0.019  -1.345  0.00  0.00    -0.075 A 
ATOM      2  C4  UNL d   1      -2.010  -1.203  -1.734  0.00  0.00     0.002 A 
ATOM      3  C5  UNL d   1      -2.796  -1.283  -2.884  0.00  0.00     0.002 A 
ATOM      4  C6  UNL d   1      -3.032  -0.145  -3.651  0.00  0.00    -0.004 A 
ATOM      5  C7  UNL d   1      -2.486   1.077  -3.265  0.00  0.00     0.002 A 
ATOM      6  C8  UNL d   1      -1.695   1.160  -2.117  0.00  0.00     0.002 A 
ENDROOT
BRANCH   1   7
ATOM      7  C2  UNL d   1      -0.565   0.106  -0.118  0.00  0.00     0.056 C 
BRANCH   7   8
ATOM      8  C1  UNL d   1       0.322   1.355  -0.073  0.00  0.00     0.007 C 
ATOM      9  C   UNL d   1       1.717   1.082   0.471  0.00  0.00     0.009 C 
ENDBRANCH   7   8
ENDBRANCH   1   7
TORSDOF 2
ENDMDL
