MODEL 1
REMARK minimizedAffinity -3.70618033
REMARK minimizedRMSD -1
REMARK  0 active torsions:
REMARK  status: ('A' for Active; 'I' for Inactive)
ROOT
ATOM      1  C   UNL d   1       0.853  -0.677  -0.686  0.00  0.00     0.078 C 
ATOM      2  C1  UNL d   1      -0.052   0.105   0.219  0.00  0.00    -0.077 A 
ATOM      3  C2  UNL d   1      -1.268   0.620  -0.246  0.00  0.00    -0.001 A 
ATOM      4  C3  UNL d   1      -2.095   1.354   0.605  0.00  0.00     0.003 A 
ATOM      5  C4  UNL d   1      -1.715   1.581   1.927  0.00  0.00    -0.005 A 
ATOM      6  C5  UNL d   1      -0.506   1.074   2.398  0.00  0.00     0.003 A 
ATOM      7  C6  UNL d   1       0.323   0.340   1.548  0.00  0.00    -0.001 A 
ENDROOT
TORSDOF 0
ENDMDL
