MODEL 1
REMARK minimizedAffinity -4.2886138
REMARK minimizedRMSD -1
REMARK  0 active torsions:
REMARK  status: ('A' for Active; 'I' for Inactive)
ROOT
ATOM      1  C   UNL d   1       0.708  -1.252  -0.777  0.00  0.00     0.078 C 
ATOM      2  C1  UNL d   1      -0.119  -0.277   0.006  0.00  0.00    -0.077 A 
ATOM      3  C2  UNL d   1      -1.233   0.349  -0.568  0.00  0.00    -0.001 A 
ATOM      4  C3  UNL d   1      -1.988   1.262   0.170  0.00  0.00     0.003 A 
ATOM      5  C4  UNL d   1      -1.637   1.558   1.486  0.00  0.00    -0.005 A 
ATOM      6  C5  UNL d   1      -0.530   0.942   2.065  0.00  0.00     0.003 A 
ATOM      7  C6  UNL d   1       0.227   0.029   1.328  0.00  0.00    -0.001 A 
ENDROOT
TORSDOF 0
ENDMDL
