MODEL 1
REMARK minimizedAffinity -3.54958224
REMARK minimizedRMSD -1
REMARK  0 active torsions:
REMARK  status: ('A' for Active; 'I' for Inactive)
ROOT
ATOM      1  C   UNL d   1       1.201  -0.426  -0.273  0.00  0.00     0.078 C 
ATOM      2  C1  UNL d   1       0.764  -1.593  -1.108  0.00  0.00    -0.077 A 
ATOM      3  C2  UNL d   1       0.296  -1.410  -2.415  0.00  0.00    -0.001 A 
ATOM      4  C3  UNL d   1      -0.116  -2.504  -3.177  0.00  0.00     0.003 A 
ATOM      5  C4  UNL d   1      -0.065  -3.789  -2.641  0.00  0.00    -0.005 A 
ATOM      6  C5  UNL d   1       0.398  -3.981  -1.341  0.00  0.00     0.003 A 
ATOM      7  C6  UNL d   1       0.810  -2.888  -0.577  0.00  0.00    -0.001 A 
ENDROOT
TORSDOF 0
ENDMDL
