MODEL 1
REMARK minimizedAffinity -4.4776063
REMARK minimizedRMSD -1
REMARK  0 active torsions:
REMARK  status: ('A' for Active; 'I' for Inactive)
ROOT
ATOM      1  C   UNL d   1       0.094  -0.659  -0.415  0.00  0.00     0.078 C 
ATOM      2  C1  UNL d   1      -0.497   0.580   0.190  0.00  0.00    -0.077 A 
ATOM      3  C2  UNL d   1      -0.104   1.852  -0.244  0.00  0.00    -0.001 A 
ATOM      4  C3  UNL d   1      -0.655   2.996   0.335  0.00  0.00     0.003 A 
ATOM      5  C4  UNL d   1      -1.602   2.880   1.351  0.00  0.00    -0.005 A 
ATOM      6  C5  UNL d   1      -1.998   1.618   1.790  0.00  0.00     0.003 A 
ATOM      7  C6  UNL d   1      -1.447   0.473   1.213  0.00  0.00    -0.001 A 
ENDROOT
TORSDOF 0
ENDMDL
