MODEL 1
REMARK minimizedAffinity -5.68681335
REMARK minimizedRMSD -1
REMARK  0 active torsions:
REMARK  status: ('A' for Active; 'I' for Inactive)
ROOT
ATOM      1  C   UNL d   1       0.847  -0.210  -0.793  0.00  0.00     0.078 C 
ATOM      2  C1  UNL d   1       0.076   0.963  -0.265  0.00  0.00    -0.077 A 
ATOM      3  C2  UNL d   1       0.137   2.210  -0.898  0.00  0.00    -0.001 A 
ATOM      4  C3  UNL d   1      -0.578   3.295  -0.389  0.00  0.00     0.003 A 
ATOM      5  C4  UNL d   1      -1.359   3.145   0.755  0.00  0.00    -0.005 A 
ATOM      6  C5  UNL d   1      -1.425   1.907   1.392  0.00  0.00     0.003 A 
ATOM      7  C6  UNL d   1      -0.710   0.821   0.885  0.00  0.00    -0.001 A 
ENDROOT
TORSDOF 0
ENDMDL
