MODEL 1
REMARK minimizedAffinity -5.695333
REMARK minimizedRMSD -1
REMARK  0 active torsions:
REMARK  status: ('A' for Active; 'I' for Inactive)
ROOT
ATOM      1  C   UNL d   1       0.656  -0.377  -0.282  0.00  0.00     0.078 C 
ATOM      2  C1  UNL d   1      -0.164   0.800   0.155  0.00  0.00    -0.077 A 
ATOM      3  C2  UNL d   1      -0.080   2.026  -0.516  0.00  0.00    -0.001 A 
ATOM      4  C3  UNL d   1      -0.843   3.116  -0.093  0.00  0.00     0.003 A 
ATOM      5  C4  UNL d   1      -1.693   2.991   1.004  0.00  0.00    -0.005 A 
ATOM      6  C5  UNL d   1      -1.781   1.775   1.680  0.00  0.00     0.003 A 
ATOM      7  C6  UNL d   1      -1.020   0.684   1.257  0.00  0.00    -0.001 A 
ENDROOT
TORSDOF 0
ENDMDL
