MODEL 1
REMARK minimizedAffinity -3.79712987
REMARK minimizedRMSD -1
REMARK  0 active torsions:
REMARK  status: ('A' for Active; 'I' for Inactive)
ROOT
ATOM      1  C   UNL d   1      -1.207   1.821   1.922  0.00  0.00     0.078 C 
ATOM      2  C1  UNL d   1      -0.415   1.332   0.746  0.00  0.00    -0.077 A 
ATOM      3  C2  UNL d   1       0.103   0.031   0.716  0.00  0.00    -0.001 A 
ATOM      4  C3  UNL d   1       0.847  -0.407  -0.381  0.00  0.00     0.003 A 
ATOM      5  C4  UNL d   1       1.081   0.450  -1.455  0.00  0.00    -0.005 A 
ATOM      6  C5  UNL d   1       0.572   1.746  -1.432  0.00  0.00     0.003 A 
ATOM      7  C6  UNL d   1      -0.172   2.186  -0.336  0.00  0.00    -0.001 A 
ENDROOT
TORSDOF 0
ENDMDL
