MODEL 1
REMARK minimizedAffinity -3.45306158
REMARK minimizedRMSD -1
REMARK  0 active torsions:
REMARK  status: ('A' for Active; 'I' for Inactive)
ROOT
ATOM      1  C   UNL d   1      -0.205  -0.126  -0.110  0.00  0.00     0.078 C 
ATOM      2  C1  UNL d   1      -0.125  -1.239  -1.112  0.00  0.00    -0.077 A 
ATOM      3  C2  UNL d   1      -0.244  -2.577  -0.715  0.00  0.00    -0.001 A 
ATOM      4  C3  UNL d   1      -0.157  -3.603  -1.657  0.00  0.00     0.003 A 
ATOM      5  C4  UNL d   1       0.050  -3.303  -3.002  0.00  0.00    -0.005 A 
ATOM      6  C5  UNL d   1       0.172  -1.975  -3.406  0.00  0.00     0.003 A 
ATOM      7  C6  UNL d   1       0.086  -0.948  -2.465  0.00  0.00    -0.001 A 
ENDROOT
TORSDOF 0
ENDMDL
