MODEL 1
REMARK minimizedAffinity -5.40076208
REMARK minimizedRMSD -1
REMARK  0 active torsions:
REMARK  status: ('A' for Active; 'I' for Inactive)
ROOT
ATOM      1  C   UNL d   1      -0.485  -0.329   1.514  0.00  0.00     0.078 C 
ATOM      2  C1  UNL d   1      -0.868   1.034   1.019  0.00  0.00    -0.077 A 
ATOM      3  C2  UNL d   1      -0.372   1.525  -0.195  0.00  0.00    -0.001 A 
ATOM      4  C3  UNL d   1      -0.729   2.799  -0.639  0.00  0.00     0.003 A 
ATOM      5  C4  UNL d   1      -1.582   3.593   0.125  0.00  0.00    -0.005 A 
ATOM      6  C5  UNL d   1      -2.078   3.114   1.336  0.00  0.00     0.003 A 
ATOM      7  C6  UNL d   1      -1.722   1.840   1.781  0.00  0.00    -0.001 A 
ENDROOT
TORSDOF 0
ENDMDL
