MODEL 1
REMARK minimizedAffinity -4.87411928
REMARK minimizedRMSD -1
REMARK  0 active torsions:
REMARK  status: ('A' for Active; 'I' for Inactive)
ROOT
ATOM      1  C   UNL d   1       0.210   3.325  -0.669  0.00  0.00     0.078 C 
ATOM      2  C1  UNL d   1      -0.107   2.077   0.099  0.00  0.00    -0.077 A 
ATOM      3  C2  UNL d   1      -0.987   2.104   1.188  0.00  0.00    -0.001 A 
ATOM      4  C3  UNL d   1      -1.265   0.936   1.900  0.00  0.00     0.003 A 
ATOM      5  C4  UNL d   1      -0.666  -0.267   1.532  0.00  0.00    -0.005 A 
ATOM      6  C5  UNL d   1       0.213  -0.303   0.451  0.00  0.00     0.003 A 
ATOM      7  C6  UNL d   1       0.492   0.864  -0.262  0.00  0.00    -0.001 A 
ENDROOT
TORSDOF 0
ENDMDL
