MODEL 1
REMARK minimizedAffinity -5.38591623
REMARK minimizedRMSD -1
REMARK  0 active torsions:
REMARK  status: ('A' for Active; 'I' for Inactive)
ROOT
ATOM      1  C   UNL d   1       0.622  -0.638   0.455  0.00  0.00     0.078 C 
ATOM      2  C1  UNL d   1       0.479  -1.725  -0.568  0.00  0.00    -0.077 A 
ATOM      3  C2  UNL d   1       0.434  -1.427  -1.936  0.00  0.00    -0.001 A 
ATOM      4  C3  UNL d   1       0.292  -2.448  -2.876  0.00  0.00     0.003 A 
ATOM      5  C4  UNL d   1       0.192  -3.774  -2.460  0.00  0.00    -0.005 A 
ATOM      6  C5  UNL d   1       0.234  -4.080  -1.101  0.00  0.00     0.003 A 
ATOM      7  C6  UNL d   1       0.376  -3.060  -0.159  0.00  0.00    -0.001 A 
ENDROOT
TORSDOF 0
ENDMDL
