MODEL 1
REMARK minimizedAffinity -5.424191
REMARK minimizedRMSD -1
REMARK  0 active torsions:
REMARK  status: ('A' for Active; 'I' for Inactive)
ROOT
ATOM      1  C   UNL d   1       0.695  -0.588  -0.517  0.00  0.00     0.078 C 
ATOM      2  C1  UNL d   1      -0.261   0.339   0.174  0.00  0.00    -0.077 A 
ATOM      3  C2  UNL d   1      -1.029   1.255  -0.554  0.00  0.00    -0.001 A 
ATOM      4  C3  UNL d   1      -1.907   2.119   0.102  0.00  0.00     0.003 A 
ATOM      5  C4  UNL d   1      -2.025   2.075   1.490  0.00  0.00    -0.005 A 
ATOM      6  C5  UNL d   1      -1.263   1.167   2.223  0.00  0.00     0.003 A 
ATOM      7  C6  UNL d   1      -0.384   0.303   1.568  0.00  0.00    -0.001 A 
ENDROOT
TORSDOF 0
ENDMDL
