MODEL 1
REMARK minimizedAffinity -4.82231188
REMARK minimizedRMSD -1
REMARK  0 active torsions:
REMARK  status: ('A' for Active; 'I' for Inactive)
ROOT
ATOM      1  C   UNL d   1       0.717  -1.248  -0.029  0.00  0.00     0.078 C 
ATOM      2  C1  UNL d   1      -0.083  -0.049   0.382  0.00  0.00    -0.077 A 
ATOM      3  C2  UNL d   1      -0.101   1.110  -0.404  0.00  0.00    -0.001 A 
ATOM      4  C3  UNL d   1      -0.842   2.223  -0.005  0.00  0.00     0.003 A 
ATOM      5  C4  UNL d   1      -1.571   2.189   1.183  0.00  0.00    -0.005 A 
ATOM      6  C5  UNL d   1      -1.557   1.041   1.973  0.00  0.00     0.003 A 
ATOM      7  C6  UNL d   1      -0.816  -0.073   1.575  0.00  0.00    -0.001 A 
ENDROOT
TORSDOF 0
ENDMDL
