MODEL 1
REMARK minimizedAffinity -4.38511801
REMARK minimizedRMSD -1
REMARK  0 active torsions:
REMARK  status: ('A' for Active; 'I' for Inactive)
ROOT
ATOM      1  C   UNL d   1      -1.630   2.585   1.147  0.00  0.00     0.078 C 
ATOM      2  C1  UNL d   1      -0.790   1.596   0.396  0.00  0.00    -0.077 A 
ATOM      3  C2  UNL d   1      -0.211   1.929  -0.835  0.00  0.00    -0.001 A 
ATOM      4  C3  UNL d   1       0.560   0.996  -1.528  0.00  0.00     0.003 A 
ATOM      5  C4  UNL d   1       0.759  -0.279  -1.000  0.00  0.00    -0.005 A 
ATOM      6  C5  UNL d   1       0.185  -0.620   0.222  0.00  0.00     0.003 A 
ATOM      7  C6  UNL d   1      -0.587   0.312   0.917  0.00  0.00    -0.001 A 
ENDROOT
TORSDOF 0
ENDMDL
