MODEL 1
REMARK minimizedAffinity 1.4955759
REMARK minimizedRMSD -1
REMARK  0 active torsions:
REMARK  status: ('A' for Active; 'I' for Inactive)
ROOT
ATOM      1  C2' OXE d   1       1.383  -4.280   4.953  0.00  0.00     0.078 C 
ATOM      2  C1' OXE d   1       3.603  -4.467   3.245  0.00  0.00     0.078 C 
ATOM      3  C1  OXE d   1       2.813  -3.183   3.233  0.00  0.00    -0.078 A 
ATOM      4  C2  OXE d   1       1.700  -3.117   4.038  0.00  0.00    -0.078 A 
ATOM      5  C3  OXE d   1       0.967  -1.936   4.106  0.00  0.00     0.003 A 
ATOM      6  C4  OXE d   1       1.262  -0.869   3.249  0.00  0.00    -0.002 A 
ATOM      7  C5  OXE d   1       2.367  -0.929   2.393  0.00  0.00    -0.002 A 
ATOM      8  C6  OXE d   1       3.176  -2.060   2.404  0.00  0.00     0.003 A 
ENDROOT
TORSDOF 0
ENDMDL
