MODEL 1
REMARK minimizedAffinity 7.9884572
REMARK minimizedRMSD -1
REMARK  0 active torsions:
REMARK  status: ('A' for Active; 'I' for Inactive)
ROOT
ATOM      1  C2' OXE d   1       1.924  -5.133   5.155  0.00  0.00     0.078 C 
ATOM      2  C1' OXE d   1       1.127  -5.173   2.464  0.00  0.00     0.078 C 
ATOM      3  C1  OXE d   1       1.592  -3.859   3.040  0.00  0.00    -0.078 A 
ATOM      4  C2  OXE d   1       1.936  -3.838   4.371  0.00  0.00    -0.078 A 
ATOM      5  C3  OXE d   1       2.423  -2.665   4.939  0.00  0.00     0.003 A 
ATOM      6  C4  OXE d   1       2.421  -1.470   4.209  0.00  0.00    -0.002 A 
ATOM      7  C5  OXE d   1       2.037  -1.460   2.864  0.00  0.00    -0.002 A 
ATOM      8  C6  OXE d   1       1.661  -2.652   2.254  0.00  0.00     0.003 A 
ENDROOT
TORSDOF 0
ENDMDL
