MODEL 1
REMARK minimizedAffinity 4.4824872
REMARK minimizedRMSD -1
REMARK  0 active torsions:
REMARK  status: ('A' for Active; 'I' for Inactive)
ROOT
ATOM      1  C2' OXE d   1       5.400  -2.881   3.757  0.00  0.00     0.078 C 
ATOM      2  C1' OXE d   1       3.227  -2.175   2.125  0.00  0.00     0.078 C 
ATOM      3  C1  OXE d   1       2.971  -3.132   3.262  0.00  0.00    -0.078 A 
ATOM      4  C2  OXE d   1       4.049  -3.509   4.027  0.00  0.00    -0.078 A 
ATOM      5  C3  OXE d   1       3.859  -4.347   5.121  0.00  0.00     0.003 A 
ATOM      6  C4  OXE d   1       2.609  -4.932   5.358  0.00  0.00    -0.002 A 
ATOM      7  C5  OXE d   1       1.506  -4.593   4.567  0.00  0.00    -0.002 A 
ATOM      8  C6  OXE d   1       1.660  -3.664   3.544  0.00  0.00     0.003 A 
ENDROOT
TORSDOF 0
ENDMDL
