MODEL 1
REMARK minimizedAffinity 8.40126228
REMARK minimizedRMSD -1
REMARK  0 active torsions:
REMARK  status: ('A' for Active; 'I' for Inactive)
ROOT
ATOM      1  C2' OXE d   1       0.709  -1.006   4.094  0.00  0.00     0.078 C 
ATOM      2  C1' OXE d   1      -0.503  -3.532   3.917  0.00  0.00     0.078 C 
ATOM      3  C1  OXE d   1       0.903  -3.388   3.391  0.00  0.00    -0.078 A 
ATOM      4  C2  OXE d   1       1.471  -2.137   3.438  0.00  0.00    -0.078 A 
ATOM      5  C3  OXE d   1       2.786  -1.960   3.016  0.00  0.00     0.003 A 
ATOM      6  C4  OXE d   1       3.480  -3.010   2.403  0.00  0.00    -0.002 A 
ATOM      7  C5  OXE d   1       2.905  -4.282   2.308  0.00  0.00    -0.002 A 
ATOM      8  C6  OXE d   1       1.637  -4.497   2.834  0.00  0.00     0.003 A 
ENDROOT
TORSDOF 0
ENDMDL
