MODEL 1
REMARK minimizedAffinity 10.1862717
REMARK minimizedRMSD -1
REMARK  0 active torsions:
REMARK  status: ('A' for Active; 'I' for Inactive)
ROOT
ATOM      1  C2' OXE d   1       3.046   1.917   0.711  0.00  0.00     0.078 C 
ATOM      2  C1' OXE d   1       1.633   2.656   3.022  0.00  0.00     0.078 C 
ATOM      3  C1  OXE d   1       1.694   1.190   2.673  0.00  0.00    -0.078 A 
ATOM      4  C2  OXE d   1       2.348   0.842   1.516  0.00  0.00    -0.078 A 
ATOM      5  C3  OXE d   1       2.481  -0.502   1.176  0.00  0.00     0.003 A 
ATOM      6  C4  OXE d   1       1.824  -1.489   1.921  0.00  0.00    -0.002 A 
ATOM      7  C5  OXE d   1       1.119  -1.153   3.081  0.00  0.00    -0.002 A 
ATOM      8  C6  OXE d   1       1.080   0.175   3.494  0.00  0.00     0.003 A 
ENDROOT
TORSDOF 0
ENDMDL
