MODEL 1
REMARK minimizedAffinity 4.92155838
REMARK minimizedRMSD -1
REMARK  0 active torsions:
REMARK  status: ('A' for Active; 'I' for Inactive)
ROOT
ATOM      1  C2' OXE d   1       5.199  -2.975   3.702  0.00  0.00     0.078 C 
ATOM      2  C1' OXE d   1       3.105  -4.443   4.862  0.00  0.00     0.078 C 
ATOM      3  C1  OXE d   1       2.745  -3.376   3.858  0.00  0.00    -0.078 A 
ATOM      4  C2  OXE d   1       3.773  -2.631   3.330  0.00  0.00    -0.078 A 
ATOM      5  C3  OXE d   1       3.501  -1.672   2.359  0.00  0.00     0.003 A 
ATOM      6  C4  OXE d   1       2.178  -1.353   2.028  0.00  0.00    -0.002 A 
ATOM      7  C5  OXE d   1       1.114  -2.073   2.584  0.00  0.00    -0.002 A 
ATOM      8  C6  OXE d   1       1.382  -3.113   3.466  0.00  0.00     0.003 A 
ENDROOT
TORSDOF 0
ENDMDL
