MODEL 1
REMARK minimizedAffinity 2.90195537
REMARK minimizedRMSD -1
REMARK  0 active torsions:
REMARK  status: ('A' for Active; 'I' for Inactive)
ROOT
ATOM      1  C2' OXE d   1       2.708  -0.425   1.723  0.00  0.00     0.078 C 
ATOM      2  C1' OXE d   1       1.280   0.072   4.088  0.00  0.00     0.078 C 
ATOM      3  C1  OXE d   1       1.564  -1.364   3.726  0.00  0.00    -0.078 A 
ATOM      4  C2  OXE d   1       2.223  -1.600   2.544  0.00  0.00    -0.078 A 
ATOM      5  C3  OXE d   1       2.559  -2.904   2.190  0.00  0.00     0.003 A 
ATOM      6  C4  OXE d   1       2.098  -3.986   2.949  0.00  0.00    -0.002 A 
ATOM      7  C5  OXE d   1       1.391  -3.769   4.137  0.00  0.00    -0.002 A 
ATOM      8  C6  OXE d   1       1.153  -2.467   4.561  0.00  0.00     0.003 A 
ENDROOT
TORSDOF 0
ENDMDL
