MODEL 1
REMARK minimizedAffinity 12.2595701
REMARK minimizedRMSD -1
REMARK  0 active torsions:
REMARK  status: ('A' for Active; 'I' for Inactive)
ROOT
ATOM      1  C2' OXE d   1       1.367  -5.994  -3.203  0.00  0.00     0.078 C 
ATOM      2  C1' OXE d   1       2.067  -5.954  -5.921  0.00  0.00     0.078 C 
ATOM      3  C1  OXE d   1       3.183  -5.961  -4.907  0.00  0.00    -0.078 A 
ATOM      4  C2  OXE d   1       2.831  -5.933  -3.579  0.00  0.00    -0.078 A 
ATOM      5  C3  OXE d   1       3.821  -5.994  -2.602  0.00  0.00     0.003 A 
ATOM      6  C4  OXE d   1       5.174  -5.927  -2.959  0.00  0.00    -0.002 A 
ATOM      7  C5  OXE d   1       5.553  -5.915  -4.305  0.00  0.00    -0.002 A 
ATOM      8  C6  OXE d   1       4.574  -5.974  -5.290  0.00  0.00     0.003 A 
ENDROOT
TORSDOF 0
ENDMDL
