MODEL 1
REMARK minimizedAffinity 4.88100863
REMARK minimizedRMSD -1
REMARK  0 active torsions:
REMARK  status: ('A' for Active; 'I' for Inactive)
ROOT
ATOM      1  C2' OXE d   1       1.546  -0.728   5.089  0.00  0.00     0.078 C 
ATOM      2  C1' OXE d   1       1.741  -0.351   2.314  0.00  0.00     0.078 C 
ATOM      3  C1  OXE d   1       1.853  -1.759   2.843  0.00  0.00    -0.078 A 
ATOM      4  C2  OXE d   1       1.804  -1.929   4.205  0.00  0.00    -0.078 A 
ATOM      5  C3  OXE d   1       1.847  -3.212   4.742  0.00  0.00     0.003 A 
ATOM      6  C4  OXE d   1       2.096  -4.317   3.918  0.00  0.00    -0.002 A 
ATOM      7  C5  OXE d   1       2.189  -4.161   2.531  0.00  0.00    -0.002 A 
ATOM      8  C6  OXE d   1       2.028  -2.897   1.975  0.00  0.00     0.003 A 
ENDROOT
TORSDOF 0
ENDMDL
