MODEL 1
REMARK minimizedAffinity 0.87778914
REMARK minimizedRMSD -1
REMARK  0 active torsions:
REMARK  status: ('A' for Active; 'I' for Inactive)
ROOT
ATOM      1  C2' OXE d   1       4.522  -6.000  -1.804  0.00  0.00     0.078 C 
ATOM      2  C1' OXE d   1       1.768  -5.979  -2.349  0.00  0.00     0.078 C 
ATOM      3  C1  OXE d   1       2.718  -5.981  -3.521  0.00  0.00    -0.078 A 
ATOM      4  C2  OXE d   1       4.063  -5.944  -3.245  0.00  0.00    -0.078 A 
ATOM      5  C3  OXE d   1       4.983  -6.000  -4.288  0.00  0.00     0.003 A 
ATOM      6  C4  OXE d   1       4.550  -5.938  -5.618  0.00  0.00    -0.002 A 
ATOM      7  C5  OXE d   1       3.185  -5.935  -5.922  0.00  0.00    -0.002 A 
ATOM      8  C6  OXE d   1       2.257  -6.000  -4.888  0.00  0.00     0.003 A 
ENDROOT
TORSDOF 0
ENDMDL
