MODEL 1
REMARK minimizedAffinity 10.180295
REMARK minimizedRMSD -1
REMARK  0 active torsions:
REMARK  status: ('A' for Active; 'I' for Inactive)
ROOT
ATOM      1  C2' OXE d   1       2.917   2.662   3.178  0.00  0.00     0.078 C 
ATOM      2  C1' OXE d   1       3.074   2.004   0.454  0.00  0.00     0.078 C 
ATOM      3  C1  OXE d   1       2.605   0.936   1.410  0.00  0.00    -0.078 A 
ATOM      4  C2  OXE d   1       2.576   1.252   2.746  0.00  0.00    -0.078 A 
ATOM      5  C3  OXE d   1       2.099   0.322   3.665  0.00  0.00     0.003 A 
ATOM      6  C4  OXE d   1       1.795  -0.983   3.259  0.00  0.00    -0.002 A 
ATOM      7  C5  OXE d   1       1.855  -1.339   1.907  0.00  0.00    -0.002 A 
ATOM      8  C6  OXE d   1       2.217  -0.381   0.967  0.00  0.00     0.003 A 
ENDROOT
TORSDOF 0
ENDMDL
