MODEL 1
REMARK minimizedAffinity 15.848362
REMARK minimizedRMSD -1
REMARK  0 active torsions:
REMARK  status: ('A' for Active; 'I' for Inactive)
ROOT
ATOM      1  C2' OXE d   1      -4.696   2.668  -3.971  0.00  0.00     0.078 C 
ATOM      2  C1' OXE d   1      -2.844   3.071  -1.900  0.00  0.00     0.078 C 
ATOM      3  C1  OXE d   1      -3.031   1.665  -2.413  0.00  0.00    -0.078 A 
ATOM      4  C2  OXE d   1      -3.973   1.470  -3.394  0.00  0.00    -0.078 A 
ATOM      5  C3  OXE d   1      -4.147   0.202  -3.941  0.00  0.00     0.003 A 
ATOM      6  C4  OXE d   1      -3.481  -0.903  -3.395  0.00  0.00    -0.002 A 
ATOM      7  C5  OXE d   1      -2.546  -0.732  -2.368  0.00  0.00    -0.002 A 
ATOM      8  C6  OXE d   1      -2.279   0.548  -1.896  0.00  0.00     0.003 A 
ENDROOT
TORSDOF 0
ENDMDL
