MODEL 1
REMARK minimizedAffinity 7.86697626
REMARK minimizedRMSD -1
REMARK  0 active torsions:
REMARK  status: ('A' for Active; 'I' for Inactive)
ROOT
ATOM      1  C2' OXE d   1       2.608   2.651   3.801  0.00  0.00     0.078 C 
ATOM      2  C1' OXE d   1       3.431   2.187   1.158  0.00  0.00     0.078 C 
ATOM      3  C1  OXE d   1       2.666   1.092   1.859  0.00  0.00    -0.078 A 
ATOM      4  C2  OXE d   1       2.308   1.310   3.168  0.00  0.00    -0.078 A 
ATOM      5  C3  OXE d   1       1.554   0.355   3.844  0.00  0.00     0.003 A 
ATOM      6  C4  OXE d   1       1.289  -0.887   3.254  0.00  0.00    -0.002 A 
ATOM      7  C5  OXE d   1       1.680  -1.145   1.936  0.00  0.00    -0.002 A 
ATOM      8  C6  OXE d   1       2.331  -0.152   1.211  0.00  0.00     0.003 A 
ENDROOT
TORSDOF 0
ENDMDL
