MODEL 1
REMARK minimizedAffinity -2.46687269
REMARK minimizedRMSD -1
REMARK  0 active torsions:
REMARK  status: ('A' for Active; 'I' for Inactive)
ROOT
ATOM      1  C   UNL d   1      -2.181   1.253  -3.008  0.00  0.00     0.172 C 
ATOM      2  N   UNL d   1      -1.471   0.877  -1.808  0.00  0.00    -0.070 N 
ATOM      3  C1  UNL d   1      -0.824  -0.312  -1.603  0.00  0.00    -0.004 A 
ATOM      4  C2  UNL d   1      -0.274  -0.280  -0.339  0.00  0.00    -0.047 A 
ATOM      5  C3  UNL d   1      -0.603   0.971   0.235  0.00  0.00    -0.047 A 
ATOM      6  C4  UNL d   1      -1.344   1.667  -0.696  0.00  0.00    -0.004 A 
ENDROOT
TORSDOF 0
ENDMDL
