MODEL 1
REMARK minimizedAffinity -2.05340123
REMARK minimizedRMSD -1
REMARK  0 active torsions:
REMARK  status: ('A' for Active; 'I' for Inactive)
ROOT
ATOM      1  C   UNL d   1      -0.021   0.077   0.135  0.00  0.00     0.172 C 
ATOM      2  N   UNL d   1       0.681  -0.963   0.849  0.00  0.00    -0.070 N 
ATOM      3  C1  UNL d   1       0.307  -1.496   2.054  0.00  0.00    -0.004 A 
ATOM      4  C2  UNL d   1       1.234  -2.457   2.396  0.00  0.00    -0.047 A 
ATOM      5  C3  UNL d   1       2.198  -2.503   1.361  0.00  0.00    -0.047 A 
ATOM      6  C4  UNL d   1       1.831  -1.568   0.416  0.00  0.00    -0.004 A 
ENDROOT
TORSDOF 0
ENDMDL
