MODEL 1
REMARK minimizedAffinity -4.38292933
REMARK minimizedRMSD -1
REMARK  0 active torsions:
REMARK  status: ('A' for Active; 'I' for Inactive)
ROOT
ATOM      1  C   UNL d   1      -0.007  -0.049  -0.248  0.00  0.00     0.172 C 
ATOM      2  N   UNL d   1       0.218  -1.053   0.764  0.00  0.00    -0.070 N 
ATOM      3  C1  UNL d   1      -0.580  -1.283   1.853  0.00  0.00    -0.004 A 
ATOM      4  C2  UNL d   1      -0.025  -2.319   2.572  0.00  0.00    -0.047 A 
ATOM      5  C3  UNL d   1       1.148  -2.726   1.893  0.00  0.00    -0.047 A 
ATOM      6  C4  UNL d   1       1.275  -1.925   0.777  0.00  0.00    -0.004 A 
ENDROOT
TORSDOF 0
ENDMDL
