MODEL 1
REMARK minimizedAffinity -3.4354558
REMARK minimizedRMSD -1
REMARK  0 active torsions:
REMARK  status: ('A' for Active; 'I' for Inactive)
ROOT
ATOM      1  C   UNL d   1      -0.008   0.024  -0.348  0.00  0.00     0.172 C 
ATOM      2  N   UNL d   1       0.265  -0.937   0.695  0.00  0.00    -0.070 N 
ATOM      3  C1  UNL d   1      -0.459  -1.093   1.847  0.00  0.00    -0.004 A 
ATOM      4  C2  UNL d   1       0.120  -2.109   2.576  0.00  0.00    -0.047 A 
ATOM      5  C3  UNL d   1       1.231  -2.580   1.837  0.00  0.00    -0.047 A 
ATOM      6  C4  UNL d   1       1.298  -1.837   0.677  0.00  0.00    -0.004 A 
ENDROOT
TORSDOF 0
ENDMDL
