MODEL 1
REMARK minimizedAffinity -3.5903635
REMARK minimizedRMSD -1
REMARK  0 active torsions:
REMARK  status: ('A' for Active; 'I' for Inactive)
ROOT
ATOM      1  C   UNL d   1      -0.384  -0.043  -0.007  0.00  0.00     0.172 C 
ATOM      2  N   UNL d   1       0.408  -1.098   0.581  0.00  0.00    -0.070 N 
ATOM      3  C1  UNL d   1       1.582  -1.591   0.078  0.00  0.00    -0.004 A 
ATOM      4  C2  UNL d   1       2.022  -2.584   0.927  0.00  0.00    -0.047 A 
ATOM      5  C3  UNL d   1       1.079  -2.692   1.976  0.00  0.00    -0.047 A 
ATOM      6  C4  UNL d   1       0.090  -1.761   1.737  0.00  0.00    -0.004 A 
ENDROOT
TORSDOF 0
ENDMDL
