MODEL 1
REMARK minimizedAffinity -1.71510684
REMARK minimizedRMSD -1
REMARK  0 active torsions:
REMARK  status: ('A' for Active; 'I' for Inactive)
ROOT
ATOM      1  C   UNL d   1       2.154  -1.844   1.283  0.00  0.00     0.172 C 
ATOM      2  N   UNL d   1       1.148  -0.925   0.807  0.00  0.00    -0.070 N 
ATOM      3  C1  UNL d   1       1.270  -0.099  -0.279  0.00  0.00    -0.004 A 
ATOM      4  C2  UNL d   1       0.098   0.615  -0.400  0.00  0.00    -0.047 A 
ATOM      5  C3  UNL d   1      -0.758   0.206   0.649  0.00  0.00    -0.047 A 
ATOM      6  C4  UNL d   1      -0.083  -0.748   1.381  0.00  0.00    -0.004 A 
ENDROOT
TORSDOF 0
ENDMDL
