MODEL 1
REMARK minimizedAffinity -2.68936825
REMARK minimizedRMSD -1
REMARK  0 active torsions:
REMARK  status: ('A' for Active; 'I' for Inactive)
ROOT
ATOM      1  C   UNL d   1      -0.344   0.636   0.022  0.00  0.00     0.172 C 
ATOM      2  N   UNL d   1       0.606  -0.383   0.402  0.00  0.00    -0.070 N 
ATOM      3  C1  UNL d   1       1.727  -0.732  -0.303  0.00  0.00    -0.004 A 
ATOM      4  C2  UNL d   1       2.365  -1.739   0.390  0.00  0.00    -0.047 A 
ATOM      5  C3  UNL d   1       1.600  -2.004   1.551  0.00  0.00    -0.047 A 
ATOM      6  C4  UNL d   1       0.517  -1.151   1.533  0.00  0.00    -0.004 A 
ENDROOT
TORSDOF 0
ENDMDL
