MODEL 1
REMARK minimizedAffinity -3.43658471
REMARK minimizedRMSD -1
REMARK  0 active torsions:
REMARK  status: ('A' for Active; 'I' for Inactive)
ROOT
ATOM      1  C   UNL d   1       0.148   0.019  -0.158  0.00  0.00     0.172 C 
ATOM      2  N   UNL d   1       0.531  -1.140   0.615  0.00  0.00    -0.070 N 
ATOM      3  C1  UNL d   1       1.541  -2.010   0.303  0.00  0.00    -0.004 A 
ATOM      4  C2  UNL d   1       1.586  -2.974   1.286  0.00  0.00    -0.047 A 
ATOM      5  C3  UNL d   1       0.566  -2.675   2.220  0.00  0.00    -0.047 A 
ATOM      6  C4  UNL d   1      -0.071  -1.534   1.781  0.00  0.00    -0.004 A 
ENDROOT
TORSDOF 0
ENDMDL
