MODEL 1
REMARK minimizedAffinity -3.60899782
REMARK minimizedRMSD -1
REMARK  0 active torsions:
REMARK  status: ('A' for Active; 'I' for Inactive)
ROOT
ATOM      1  C   UNL d   1       0.504  -2.134   2.300  0.00  0.00     0.172 C 
ATOM      2  N   UNL d   1       0.679  -1.340   1.107  0.00  0.00    -0.070 N 
ATOM      3  C1  UNL d   1      -0.292  -0.594   0.494  0.00  0.00    -0.004 A 
ATOM      4  C2  UNL d   1       0.273   0.011  -0.608  0.00  0.00    -0.047 A 
ATOM      5  C3  UNL d   1       1.631  -0.386  -0.660  0.00  0.00    -0.047 A 
ATOM      6  C4  UNL d   1       1.855  -1.223   0.413  0.00  0.00    -0.004 A 
ENDROOT
TORSDOF 0
ENDMDL
