MODEL 1
REMARK minimizedAffinity -2.78536177
REMARK minimizedRMSD -1
REMARK  0 active torsions:
REMARK  status: ('A' for Active; 'I' for Inactive)
ROOT
ATOM      1  C   UNL d   1      -1.066   1.359  -0.622  0.00  0.00     0.172 C 
ATOM      2  N   UNL d   1      -0.324   0.159  -0.313  0.00  0.00    -0.070 N 
ATOM      3  C1  UNL d   1      -0.868  -1.046   0.046  0.00  0.00    -0.004 A 
ATOM      4  C2  UNL d   1       0.168  -1.931   0.254  0.00  0.00    -0.047 A 
ATOM      5  C3  UNL d   1       1.376  -1.234   0.012  0.00  0.00    -0.047 A 
ATOM      6  C4  UNL d   1       1.042   0.057  -0.338  0.00  0.00    -0.004 A 
ENDROOT
TORSDOF 0
ENDMDL
