MODEL 1
REMARK minimizedAffinity -1.94314897
REMARK minimizedRMSD -1
REMARK  0 active torsions:
REMARK  status: ('A' for Active; 'I' for Inactive)
ROOT
ATOM      1  C   UNL d   1       1.838  -1.794   1.326  0.00  0.00     0.172 C 
ATOM      2  N   UNL d   1       1.187  -0.622   0.790  0.00  0.00    -0.070 N 
ATOM      3  C1  UNL d   1      -0.128  -0.285   0.973  0.00  0.00    -0.004 A 
ATOM      4  C2  UNL d   1      -0.357   0.899   0.306  0.00  0.00    -0.047 A 
ATOM      5  C3  UNL d   1       0.861   1.286  -0.300  0.00  0.00    -0.047 A 
ATOM      6  C4  UNL d   1       1.800   0.327   0.016  0.00  0.00    -0.004 A 
ENDROOT
TORSDOF 0
ENDMDL
