MODEL 1
REMARK minimizedAffinity -3.33244133
REMARK minimizedRMSD -1
REMARK  0 active torsions:
REMARK  status: ('A' for Active; 'I' for Inactive)
ROOT
ATOM      1  C   UNL d   1      -0.717   0.492   0.125  0.00  0.00     0.172 C 
ATOM      2  N   UNL d   1      -0.145  -0.711   0.683  0.00  0.00    -0.070 N 
ATOM      3  C1  UNL d   1      -0.709  -1.482   1.665  0.00  0.00    -0.004 A 
ATOM      4  C2  UNL d   1       0.143  -2.535   1.917  0.00  0.00    -0.047 A 
ATOM      5  C3  UNL d   1       1.258  -2.392   1.057  0.00  0.00    -0.047 A 
ATOM      6  C4  UNL d   1       1.054  -1.255   0.305  0.00  0.00    -0.004 A 
ENDROOT
TORSDOF 0
ENDMDL
