MODEL 1
REMARK minimizedAffinity -3.43962669
REMARK minimizedRMSD -1
REMARK  0 active torsions:
REMARK  status: ('A' for Active; 'I' for Inactive)
ROOT
ATOM      1  C   UNL d   1      -0.672  -0.113  -0.151  0.00  0.00     0.172 C 
ATOM      2  N   UNL d   1      -0.308  -1.041   0.894  0.00  0.00    -0.070 N 
ATOM      3  C1  UNL d   1       0.782  -1.868   0.882  0.00  0.00    -0.004 A 
ATOM      4  C2  UNL d   1       0.776  -2.592   2.055  0.00  0.00    -0.047 A 
ATOM      5  C3  UNL d   1      -0.358  -2.186   2.797  0.00  0.00    -0.047 A 
ATOM      6  C4  UNL d   1      -1.012  -1.224   2.055  0.00  0.00    -0.004 A 
ENDROOT
TORSDOF 0
ENDMDL
