MODEL 1
REMARK minimizedAffinity 0.866149008
REMARK minimizedRMSD -1
REMARK  0 active torsions:
REMARK  status: ('A' for Active; 'I' for Inactive)
ROOT
ATOM      1  C   UNL d   1      -1.162   0.911   0.306  0.00  0.00     0.023 A 
ATOM      2  C1  UNL d   1      -2.425   1.457   0.071  0.00  0.00     0.003 A 
ATOM      3  C2  UNL d   1      -3.449   0.656  -0.438  0.00  0.00     0.048 A 
ATOM      4  C3  UNL d   1      -3.205  -0.690  -0.708  0.00  0.00     0.023 A 
ATOM      5  C4  UNL d   1      -1.944  -1.240  -0.473  0.00  0.00     0.048 A 
ATOM      6  C5  UNL d   1      -0.923  -0.436   0.034  0.00  0.00     0.003 A 
ATOM      7  I   UNL d   1      -4.729  -1.884  -1.465  0.00  0.00    -0.146 I 
ENDROOT
TORSDOF 0
ENDMDL
