MODEL 1
REMARK minimizedAffinity -5.20240498
REMARK minimizedRMSD -1
REMARK  0 active torsions:
REMARK  status: ('A' for Active; 'I' for Inactive)
ROOT
ATOM      1  C   UNL d   1      -0.050   1.243   3.852  0.00  0.00     0.023 A 
ATOM      2  C1  UNL d   1      -1.049   1.276   2.879  0.00  0.00     0.003 A 
ATOM      3  C2  UNL d   1      -0.814   0.726   1.617  0.00  0.00     0.048 A 
ATOM      4  C3  UNL d   1       0.421   0.144   1.335  0.00  0.00     0.023 A 
ATOM      5  C4  UNL d   1       1.424   0.109   2.306  0.00  0.00     0.048 A 
ATOM      6  C5  UNL d   1       1.185   0.660   3.566  0.00  0.00     0.003 A 
ATOM      7  I   UNL d   1       0.773  -0.675  -0.542  0.00  0.00    -0.146 I 
ENDROOT
TORSDOF 0
ENDMDL
