MODEL 1
REMARK minimizedAffinity 1.08476317
REMARK minimizedRMSD -1
REMARK  0 active torsions:
REMARK  status: ('A' for Active; 'I' for Inactive)
ROOT
ATOM      1  C   UNL d   1      -1.606   0.810   2.248  0.00  0.00     0.023 A 
ATOM      2  C1  UNL d   1      -2.283   1.257   1.113  0.00  0.00     0.003 A 
ATOM      3  C2  UNL d   1      -1.872   0.842  -0.156  0.00  0.00     0.048 A 
ATOM      4  C3  UNL d   1      -0.784  -0.020  -0.282  0.00  0.00     0.023 A 
ATOM      5  C4  UNL d   1      -0.103  -0.470   0.850  0.00  0.00     0.048 A 
ATOM      6  C5  UNL d   1      -0.517  -0.052   2.116  0.00  0.00     0.003 A 
ATOM      7  I   UNL d   1      -0.171  -0.639  -2.169  0.00  0.00    -0.146 I 
ENDROOT
TORSDOF 0
ENDMDL
