MODEL 1
REMARK minimizedAffinity -4.39276648
REMARK minimizedRMSD -1
REMARK  0 active torsions:
REMARK  status: ('A' for Active; 'I' for Inactive)
ROOT
ATOM      1  C   UNL d   1      -1.252   1.756   2.305  0.00  0.00     0.023 A 
ATOM      2  C1  UNL d   1       0.088   1.927   1.957  0.00  0.00     0.003 A 
ATOM      3  C2  UNL d   1       0.660   1.128   0.965  0.00  0.00     0.048 A 
ATOM      4  C3  UNL d   1      -0.114   0.160   0.325  0.00  0.00     0.023 A 
ATOM      5  C4  UNL d   1      -1.455  -0.013   0.670  0.00  0.00     0.048 A 
ATOM      6  C5  UNL d   1      -2.023   0.787   1.662  0.00  0.00     0.003 A 
ATOM      7  I   UNL d   1       0.736  -1.030  -1.152  0.00  0.00    -0.146 I 
ENDROOT
TORSDOF 0
ENDMDL
