MODEL 1
REMARK minimizedAffinity -1.68896568
REMARK minimizedRMSD -1
REMARK  0 active torsions:
REMARK  status: ('A' for Active; 'I' for Inactive)
ROOT
ATOM      1  C   UNL d   1       1.729   0.004  -3.285  0.00  0.00     0.023 A 
ATOM      2  C1  UNL d   1       0.616   0.826  -3.464  0.00  0.00     0.003 A 
ATOM      3  C2  UNL d   1      -0.425   0.806  -2.533  0.00  0.00     0.048 A 
ATOM      4  C3  UNL d   1      -0.346  -0.037  -1.425  0.00  0.00     0.023 A 
ATOM      5  C4  UNL d   1       0.766  -0.860  -1.241  0.00  0.00     0.048 A 
ATOM      6  C5  UNL d   1       1.804  -0.838  -2.175  0.00  0.00     0.003 A 
ATOM      7  I   UNL d   1      -1.894  -0.068  -0.038  0.00  0.00    -0.146 I 
ENDROOT
TORSDOF 0
ENDMDL
