MODEL 1
REMARK minimizedAffinity -3.80200148
REMARK minimizedRMSD -1
REMARK  0 active torsions:
REMARK  status: ('A' for Active; 'I' for Inactive)
ROOT
ATOM      1  C   UNL d   1       0.029   0.044  -1.695  0.00  0.00     0.023 A 
ATOM      2  C1  UNL d   1      -0.952  -0.624  -0.962  0.00  0.00     0.003 A 
ATOM      3  C2  UNL d   1      -1.015  -0.470   0.425  0.00  0.00     0.048 A 
ATOM      4  C3  UNL d   1      -0.095   0.355   1.071  0.00  0.00     0.023 A 
ATOM      5  C4  UNL d   1       0.887   1.026   0.341  0.00  0.00     0.048 A 
ATOM      6  C5  UNL d   1       0.947   0.868  -1.045  0.00  0.00     0.003 A 
ATOM      7  I   UNL d   1      -0.187   0.586   3.135  0.00  0.00    -0.146 I 
ENDROOT
TORSDOF 0
ENDMDL
