MODEL 1
REMARK minimizedAffinity -3.15298343
REMARK minimizedRMSD -1
REMARK  0 active torsions:
REMARK  status: ('A' for Active; 'I' for Inactive)
ROOT
ATOM      1  C   UNL d   1       1.551   0.055   2.213  0.00  0.00     0.023 A 
ATOM      2  C1  UNL d   1       0.353   0.598   2.678  0.00  0.00     0.003 A 
ATOM      3  C2  UNL d   1      -0.828   0.404   1.959  0.00  0.00     0.048 A 
ATOM      4  C3  UNL d   1      -0.805  -0.334   0.777  0.00  0.00     0.023 A 
ATOM      5  C4  UNL d   1       0.391  -0.880   0.308  0.00  0.00     0.048 A 
ATOM      6  C5  UNL d   1       1.570  -0.683   1.029  0.00  0.00     0.003 A 
ATOM      7  I   UNL d   1      -2.562  -0.624  -0.295  0.00  0.00    -0.146 I 
ENDROOT
TORSDOF 0
ENDMDL
