MODEL 1
REMARK minimizedAffinity -3.55741525
REMARK minimizedRMSD -1
REMARK  0 active torsions:
REMARK  status: ('A' for Active; 'I' for Inactive)
ROOT
ATOM      1  C   UNL d   1      -0.939   1.106   2.527  0.00  0.00     0.023 A 
ATOM      2  C1  UNL d   1      -1.710   0.503   1.533  0.00  0.00     0.003 A 
ATOM      3  C2  UNL d   1      -1.115   0.097   0.337  0.00  0.00     0.048 A 
ATOM      4  C3  UNL d   1       0.251   0.295   0.141  0.00  0.00     0.023 A 
ATOM      5  C4  UNL d   1       1.027   0.897   1.134  0.00  0.00     0.048 A 
ATOM      6  C5  UNL d   1       0.428   1.302   2.328  0.00  0.00     0.003 A 
ATOM      7  I   UNL d   1       1.138  -0.309  -1.639  0.00  0.00    -0.146 I 
ENDROOT
TORSDOF 0
ENDMDL
