MODEL 1
REMARK minimizedAffinity -3.86875629
REMARK minimizedRMSD -1
REMARK  0 active torsions:
REMARK  status: ('A' for Active; 'I' for Inactive)
ROOT
ATOM      1  C   UNL d   1      -1.719   0.346   1.065  0.00  0.00     0.023 A 
ATOM      2  C1  UNL d   1      -1.107  -0.412   0.066  0.00  0.00     0.003 A 
ATOM      3  C2  UNL d   1       0.261  -0.681   0.132  0.00  0.00     0.048 A 
ATOM      4  C3  UNL d   1       1.012  -0.191   1.200  0.00  0.00     0.023 A 
ATOM      5  C4  UNL d   1       0.404   0.567   2.202  0.00  0.00     0.048 A 
ATOM      6  C5  UNL d   1      -0.964   0.834   2.131  0.00  0.00     0.003 A 
ATOM      7  I   UNL d   1       3.049  -0.591   1.300  0.00  0.00    -0.146 I 
ENDROOT
TORSDOF 0
ENDMDL
