MODEL 1
REMARK minimizedAffinity -3.37949419
REMARK minimizedRMSD -1
REMARK  0 active torsions:
REMARK  status: ('A' for Active; 'I' for Inactive)
ROOT
ATOM      1  C   UNL d   1       1.095  -0.852  -1.160  0.00  0.00     0.023 A 
ATOM      2  C1  UNL d   1       1.863  -0.699  -0.006  0.00  0.00     0.003 A 
ATOM      3  C2  UNL d   1       1.319  -0.074   1.118  0.00  0.00     0.048 A 
ATOM      4  C3  UNL d   1       0.006   0.395   1.081  0.00  0.00     0.023 A 
ATOM      5  C4  UNL d   1      -0.766   0.243  -0.072  0.00  0.00     0.048 A 
ATOM      6  C5  UNL d   1      -0.218  -0.382  -1.194  0.00  0.00     0.003 A 
ATOM      7  I   UNL d   1      -0.807   1.325   2.752  0.00  0.00    -0.146 I 
ENDROOT
TORSDOF 0
ENDMDL
