MODEL 1
REMARK minimizedAffinity 12.6472874
REMARK minimizedRMSD -1
REMARK  0 active torsions:
REMARK  status: ('A' for Active; 'I' for Inactive)
ROOT
ATOM      1  C   UNL d   1      -5.411  -5.577  -5.996  0.00  0.00    -0.002 A 
ATOM      2  C1  UNL d   1      -4.421  -6.000  -5.120  0.00  0.00     0.010 A 
ATOM      3  C2  UNL d   1      -3.964  -5.157  -4.105  0.00  0.00     0.041 A 
ATOM      4  C3  UNL d   1      -4.524  -3.870  -3.983  0.00  0.00    -0.075 A 
ATOM      5  S   UNL d   1      -4.121  -2.667  -2.817  0.00  0.00     0.015 SA
ATOM      6  C4  UNL d   1      -5.253  -1.564  -3.453  0.00  0.00     0.022 A 
ATOM      7  C5  UNL d   1      -5.931  -2.084  -4.530  0.00  0.00     0.026 A 
ATOM      8  C6  UNL d   1      -5.523  -3.422  -4.853  0.00  0.00    -0.082 A 
ATOM      9  C7  UNL d   1      -5.965  -4.300  -5.872  0.00  0.00     0.045 A 
ENDROOT
TORSDOF 0
ENDMDL
