MODEL 1
REMARK minimizedAffinity 0.237523347
REMARK minimizedRMSD -1
REMARK  0 active torsions:
REMARK  status: ('A' for Active; 'I' for Inactive)
ROOT
ATOM      1  C   UNL d   1       2.737   4.364  -1.803  0.00  0.00    -0.002 A 
ATOM      2  C1  UNL d   1       3.853   4.889  -1.168  0.00  0.00     0.010 A 
ATOM      3  C2  UNL d   1       4.911   5.416  -1.912  0.00  0.00     0.041 A 
ATOM      4  C3  UNL d   1       4.826   5.407  -3.318  0.00  0.00    -0.075 A 
ATOM      5  S   UNL d   1       6.000   5.999  -4.434  0.00  0.00     0.015 SA
ATOM      6  C4  UNL d   1       5.046   5.570  -5.780  0.00  0.00     0.022 A 
ATOM      7  C5  UNL d   1       3.858   4.988  -5.405  0.00  0.00     0.026 A 
ATOM      8  C6  UNL d   1       3.712   4.885  -3.981  0.00  0.00    -0.082 A 
ATOM      9  C7  UNL d   1       2.656   4.358  -3.198  0.00  0.00     0.045 A 
ENDROOT
TORSDOF 0
ENDMDL
