MODEL 1
REMARK minimizedAffinity 15.8564816
REMARK minimizedRMSD -1
REMARK  0 active torsions:
REMARK  status: ('A' for Active; 'I' for Inactive)
ROOT
ATOM      1  C   UNL d   1      -5.333  -1.902  -3.777  0.00  0.00    -0.002 A 
ATOM      2  C1  UNL d   1      -5.977  -2.140  -4.983  0.00  0.00     0.010 A 
ATOM      3  C2  UNL d   1      -5.681  -3.280  -5.734  0.00  0.00     0.041 A 
ATOM      4  C3  UNL d   1      -4.719  -4.186  -5.246  0.00  0.00    -0.075 A 
ATOM      5  S   UNL d   1      -4.196  -5.649  -5.993  0.00  0.00     0.015 SA
ATOM      6  C4  UNL d   1      -3.107  -5.993  -4.729  0.00  0.00     0.022 A 
ATOM      7  C5  UNL d   1      -3.128  -5.026  -3.752  0.00  0.00     0.026 A 
ATOM      8  C6  UNL d   1      -4.058  -3.969  -4.034  0.00  0.00    -0.082 A 
ATOM      9  C7  UNL d   1      -4.379  -2.804  -3.297  0.00  0.00     0.045 A 
ENDROOT
TORSDOF 0
ENDMDL
