MODEL 1
REMARK minimizedAffinity 4.59902859
REMARK minimizedRMSD -1
REMARK  0 active torsions:
REMARK  status: ('A' for Active; 'I' for Inactive)
ROOT
ATOM      1  C   UNL d   1       2.042  -2.760   2.859  0.00  0.00    -0.002 A 
ATOM      2  C1  UNL d   1       2.018  -2.064   1.659  0.00  0.00     0.010 A 
ATOM      3  C2  UNL d   1       1.822  -0.682   1.644  0.00  0.00     0.041 A 
ATOM      4  C3  UNL d   1       1.651  -0.004   2.867  0.00  0.00    -0.075 A 
ATOM      5  S   UNL d   1       1.398   1.687   3.092  0.00  0.00     0.015 SA
ATOM      6  C4  UNL d   1       1.318   1.525   4.786  0.00  0.00     0.022 A 
ATOM      7  C5  UNL d   1       1.478   0.220   5.188  0.00  0.00     0.026 A 
ATOM      8  C6  UNL d   1       1.674  -0.682   4.088  0.00  0.00    -0.082 A 
ATOM      9  C7  UNL d   1       1.873  -2.084   4.071  0.00  0.00     0.045 A 
ENDROOT
TORSDOF 0
ENDMDL
