MODEL 1
REMARK minimizedAffinity 7.00209236
REMARK minimizedRMSD -1
REMARK  0 active torsions:
REMARK  status: ('A' for Active; 'I' for Inactive)
ROOT
ATOM      1  C   UNL d   1       1.516  -3.550   5.787  0.00  0.00    -0.002 A 
ATOM      2  C1  UNL d   1       0.602  -2.527   5.999  0.00  0.00     0.010 A 
ATOM      3  C2  UNL d   1       0.446  -1.508   5.058  0.00  0.00     0.041 A 
ATOM      4  C3  UNL d   1       1.230  -1.534   3.888  0.00  0.00    -0.075 A 
ATOM      5  S   UNL d   1       1.209  -0.392   2.596  0.00  0.00     0.015 SA
ATOM      6  C4  UNL d   1       2.412  -1.236   1.732  0.00  0.00     0.022 A 
ATOM      7  C5  UNL d   1       2.831  -2.363   2.398  0.00  0.00     0.026 A 
ATOM      8  C6  UNL d   1       2.156  -2.554   3.651  0.00  0.00    -0.082 A 
ATOM      9  C7  UNL d   1       2.292  -3.573   4.625  0.00  0.00     0.045 A 
ENDROOT
TORSDOF 0
ENDMDL
