MODEL 1
REMARK minimizedAffinity -3.89082217
REMARK minimizedRMSD -1
REMARK  0 active torsions:
REMARK  status: ('A' for Active; 'I' for Inactive)
ROOT
ATOM      1  C   UNL d   1      -1.926   2.127   0.546  0.00  0.00     0.020 A 
ATOM      2  C1  UNL d   1      -1.596   0.782   0.383  0.00  0.00     0.020 A 
ATOM      3  C2  UNL d   1      -0.260   0.406   0.226  0.00  0.00     0.034 A 
ATOM      4  C3  UNL d   1       0.750   1.375   0.230  0.00  0.00     0.017 A 
ATOM      5  C4  UNL d   1       0.417   2.724   0.393  0.00  0.00     0.017 A 
ATOM      6  C5  UNL d   1      -0.922   3.096   0.550  0.00  0.00     0.034 A 
ATOM      7 Cl   UNL d   1       1.607   3.977   0.409  0.00  0.00    -0.070 Cl
ATOM      8 Cl1  UNL d   1       2.380   0.838   0.030  0.00  0.00    -0.070 Cl
ENDROOT
TORSDOF 0
ENDMDL
