MODEL 1
REMARK minimizedAffinity -3.72118616
REMARK minimizedRMSD -1
REMARK  0 active torsions:
REMARK  status: ('A' for Active; 'I' for Inactive)
ROOT
ATOM      1  C   UNL d   1      -1.289   3.033   1.364  0.00  0.00     0.020 A 
ATOM      2  C1  UNL d   1      -1.734   1.901   0.684  0.00  0.00     0.020 A 
ATOM      3  C2  UNL d   1      -0.839   0.873   0.378  0.00  0.00     0.034 A 
ATOM      4  C3  UNL d   1       0.505   0.976   0.754  0.00  0.00     0.017 A 
ATOM      5  C4  UNL d   1       0.951   2.113   1.437  0.00  0.00     0.017 A 
ATOM      6  C5  UNL d   1       0.051   3.139   1.741  0.00  0.00     0.034 A 
ATOM      7 Cl   UNL d   1       2.595   2.312   1.934  0.00  0.00    -0.070 Cl
ATOM      8 Cl1  UNL d   1       1.556  -0.333   0.344  0.00  0.00    -0.070 Cl
ENDROOT
TORSDOF 0
ENDMDL
