MODEL 1
REMARK minimizedAffinity -4.03512526
REMARK minimizedRMSD -1
REMARK  0 active torsions:
REMARK  status: ('A' for Active; 'I' for Inactive)
ROOT
ATOM      1  C   UNL d   1       0.238  -0.667   0.302  0.00  0.00     0.020 A 
ATOM      2  C1  UNL d   1      -0.813   0.234   0.470  0.00  0.00     0.020 A 
ATOM      3  C2  UNL d   1      -1.765   0.017   1.468  0.00  0.00     0.034 A 
ATOM      4  C3  UNL d   1      -1.670  -1.103   2.302  0.00  0.00     0.017 A 
ATOM      5  C4  UNL d   1      -0.615  -2.007   2.132  0.00  0.00     0.017 A 
ATOM      6  C5  UNL d   1       0.337  -1.785   1.132  0.00  0.00     0.034 A 
ATOM      7 Cl   UNL d   1      -0.430  -3.412   3.122  0.00  0.00    -0.070 Cl
ATOM      8 Cl1  UNL d   1      -2.883  -1.308   3.515  0.00  0.00    -0.070 Cl
ENDROOT
TORSDOF 0
ENDMDL
