MODEL 1
REMARK minimizedAffinity -4.41884565
REMARK minimizedRMSD -1
REMARK  0 active torsions:
REMARK  status: ('A' for Active; 'I' for Inactive)
ROOT
ATOM      1  C   UNL d   1       2.447   2.909   0.688  0.00  0.00     0.020 A 
ATOM      2  C1  UNL d   1       2.953   1.630   0.462  0.00  0.00     0.020 A 
ATOM      3  C2  UNL d   1       2.081   0.564   0.231  0.00  0.00     0.034 A 
ATOM      4  C3  UNL d   1       0.697   0.776   0.225  0.00  0.00     0.017 A 
ATOM      5  C4  UNL d   1       0.190   2.060   0.452  0.00  0.00     0.017 A 
ATOM      6  C5  UNL d   1       1.068   3.124   0.683  0.00  0.00     0.034 A 
ATOM      7 Cl   UNL d   1      -1.505   2.399   0.459  0.00  0.00    -0.070 Cl
ATOM      8 Cl1  UNL d   1      -0.323  -0.588  -0.068  0.00  0.00    -0.070 Cl
ENDROOT
TORSDOF 0
ENDMDL
