MODEL 1
REMARK minimizedAffinity -4.17166758
REMARK minimizedRMSD -1
REMARK  0 active torsions:
REMARK  status: ('A' for Active; 'I' for Inactive)
ROOT
ATOM      1  C   UNL d   1      -1.830   0.687   0.436  0.00  0.00     0.020 A 
ATOM      2  C1  UNL d   1      -0.623  -0.010   0.465  0.00  0.00     0.020 A 
ATOM      3  C2  UNL d   1      -0.427  -1.028   1.402  0.00  0.00     0.034 A 
ATOM      4  C3  UNL d   1      -1.439  -1.350   2.312  0.00  0.00     0.017 A 
ATOM      5  C4  UNL d   1      -2.650  -0.650   2.282  0.00  0.00     0.017 A 
ATOM      6  C5  UNL d   1      -2.841   0.368   1.342  0.00  0.00     0.034 A 
ATOM      7 Cl   UNL d   1      -3.946  -0.991   3.374  0.00  0.00    -0.070 Cl
ATOM      8 Cl1  UNL d   1      -1.129  -2.620   3.443  0.00  0.00    -0.070 Cl
ENDROOT
TORSDOF 0
ENDMDL
