MODEL 1
REMARK minimizedAffinity -3.93769097
REMARK minimizedRMSD -1
REMARK  0 active torsions:
REMARK  status: ('A' for Active; 'I' for Inactive)
ROOT
ATOM      1  C   UNL d   1      -0.299   3.007   0.299  0.00  0.00     0.020 A 
ATOM      2  C1  UNL d   1       0.754   2.369  -0.355  0.00  0.00     0.020 A 
ATOM      3  C2  UNL d   1       0.833   0.975  -0.355  0.00  0.00     0.034 A 
ATOM      4  C3  UNL d   1      -0.142   0.215   0.300  0.00  0.00     0.017 A 
ATOM      5  C4  UNL d   1      -1.198   0.856   0.957  0.00  0.00     0.017 A 
ATOM      6  C5  UNL d   1      -1.273   2.252   0.954  0.00  0.00     0.034 A 
ATOM      7 Cl   UNL d   1      -2.439  -0.015   1.787  0.00  0.00    -0.070 Cl
ATOM      8 Cl1  UNL d   1       0.019  -1.505   0.259  0.00  0.00    -0.070 Cl
ENDROOT
TORSDOF 0
ENDMDL
