MODEL 1
REMARK minimizedAffinity -5.10026979
REMARK minimizedRMSD -1
REMARK  0 active torsions:
REMARK  status: ('A' for Active; 'I' for Inactive)
ROOT
ATOM      1  C   UNL d   1       0.073   2.349  -0.864  0.00  0.00     0.020 A 
ATOM      2  C1  UNL d   1      -1.226   2.360  -0.357  0.00  0.00     0.020 A 
ATOM      3  C2  UNL d   1      -1.650   1.341   0.500  0.00  0.00     0.034 A 
ATOM      4  C3  UNL d   1      -0.774   0.307   0.851  0.00  0.00     0.017 A 
ATOM      5  C4  UNL d   1       0.529   0.298   0.341  0.00  0.00     0.017 A 
ATOM      6  C5  UNL d   1       0.948   1.320  -0.516  0.00  0.00     0.034 A 
ATOM      7 Cl   UNL d   1       1.667  -0.944   0.730  0.00  0.00    -0.070 Cl
ATOM      8 Cl1  UNL d   1      -1.365  -0.919   1.915  0.00  0.00    -0.070 Cl
ENDROOT
TORSDOF 0
ENDMDL
