MODEL 1
REMARK minimizedAffinity -3.94666719
REMARK minimizedRMSD -1
REMARK  0 active torsions:
REMARK  status: ('A' for Active; 'I' for Inactive)
ROOT
ATOM      1  C   UNL d   1       1.073   2.262  -0.448  0.00  0.00     0.020 A 
ATOM      2  C1  UNL d   1       0.214   3.188   0.143  0.00  0.00     0.020 A 
ATOM      3  C2  UNL d   1      -1.000   2.765   0.688  0.00  0.00     0.034 A 
ATOM      4  C3  UNL d   1      -1.358   1.413   0.644  0.00  0.00     0.017 A 
ATOM      5  C4  UNL d   1      -0.495   0.484   0.051  0.00  0.00     0.017 A 
ATOM      6  C5  UNL d   1       0.719   0.913  -0.494  0.00  0.00     0.034 A 
ATOM      7 Cl   UNL d   1      -0.869  -1.201  -0.042  0.00  0.00    -0.070 Cl
ATOM      8 Cl1  UNL d   1      -2.875   0.960   1.338  0.00  0.00    -0.070 Cl
ENDROOT
TORSDOF 0
ENDMDL
