MODEL 1
REMARK minimizedAffinity -2.20220041
REMARK minimizedRMSD -1
REMARK  0 active torsions:
REMARK  status: ('A' for Active; 'I' for Inactive)
ROOT
ATOM      1  C   UNL d   1      -1.832   1.741   0.577  0.00  0.00     0.020 A 
ATOM      2  C1  UNL d   1      -0.848   2.710   0.770  0.00  0.00     0.020 A 
ATOM      3  C2  UNL d   1       0.501   2.365   0.674  0.00  0.00     0.034 A 
ATOM      4  C3  UNL d   1       0.871   1.046   0.384  0.00  0.00     0.017 A 
ATOM      5  C4  UNL d   1      -0.117   0.074   0.190  0.00  0.00     0.017 A 
ATOM      6  C5  UNL d   1      -1.467   0.426   0.287  0.00  0.00     0.034 A 
ATOM      7 Cl   UNL d   1       0.262  -1.573  -0.171  0.00  0.00    -0.070 Cl
ATOM      8 Cl1  UNL d   1       2.559   0.690   0.280  0.00  0.00    -0.070 Cl
ENDROOT
TORSDOF 0
ENDMDL
