MODEL 1
REMARK minimizedAffinity -1.06996822
REMARK minimizedRMSD -1
REMARK  0 active torsions:
REMARK  status: ('A' for Active; 'I' for Inactive)
ROOT
ATOM      1  C   UNL d   1      -2.465  -4.575  -0.827  0.00  0.00     0.020 A 
ATOM      2  C1  UNL d   1      -1.748  -3.912  -1.823  0.00  0.00     0.020 A 
ATOM      3  C2  UNL d   1      -0.923  -2.836  -1.490  0.00  0.00     0.034 A 
ATOM      4  C3  UNL d   1      -0.811  -2.420  -0.158  0.00  0.00     0.017 A 
ATOM      5  C4  UNL d   1      -1.531  -3.086   0.841  0.00  0.00     0.017 A 
ATOM      6  C5  UNL d   1      -2.356  -4.163   0.502  0.00  0.00     0.034 A 
ATOM      7 Cl   UNL d   1      -1.445  -2.631   2.506  0.00  0.00    -0.070 Cl
ATOM      8 Cl1  UNL d   1       0.228  -1.082   0.182  0.00  0.00    -0.070 Cl
ENDROOT
TORSDOF 0
ENDMDL
