MODEL 1
REMARK minimizedAffinity -3.3937099
REMARK minimizedRMSD -1
REMARK  0 active torsions:
REMARK  status: ('A' for Active; 'I' for Inactive)
ROOT
ATOM      1  C   UNL d   1       1.022  -1.152   0.289  0.00  0.00     0.020 A 
ATOM      2  C1  UNL d   1       2.003  -0.189   0.517  0.00  0.00     0.020 A 
ATOM      3  C2  UNL d   1       1.636   1.129   0.799  0.00  0.00     0.034 A 
ATOM      4  C3  UNL d   1       0.284   1.486   0.854  0.00  0.00     0.017 A 
ATOM      5  C4  UNL d   1      -0.701   0.518   0.625  0.00  0.00     0.017 A 
ATOM      6  C5  UNL d   1      -0.327  -0.799   0.343  0.00  0.00     0.034 A 
ATOM      7 Cl   UNL d   1      -2.389   0.884   0.676  0.00  0.00    -0.070 Cl
ATOM      8 Cl1  UNL d   1      -0.098   3.134   1.208  0.00  0.00    -0.070 Cl
ENDROOT
TORSDOF 0
ENDMDL
