MODEL 1
REMARK minimizedAffinity 10.2321148
REMARK minimizedRMSD -1
REMARK  0 active torsions:
REMARK  status: ('A' for Active; 'I' for Inactive)
ROOT
ATOM      1  C   UNL d   1       5.005   4.194  -2.156  0.00  0.00     0.020 A 
ATOM      2  C1  UNL d   1       5.995   4.282  -3.135  0.00  0.00     0.020 A 
ATOM      3  C2  UNL d   1       5.997   3.388  -4.207  0.00  0.00     0.034 A 
ATOM      4  C3  UNL d   1       5.010   2.401  -4.303  0.00  0.00     0.017 A 
ATOM      5  C4  UNL d   1       4.017   2.313  -3.320  0.00  0.00     0.017 A 
ATOM      6  C5  UNL d   1       4.019   3.212  -2.248  0.00  0.00     0.034 A 
ATOM      7 Cl   UNL d   1       2.765   1.123  -3.370  0.00  0.00    -0.070 Cl
ATOM      8 Cl1  UNL d   1       5.074   1.328  -5.655  0.00  0.00    -0.070 Cl
ENDROOT
TORSDOF 0
ENDMDL
