MODEL 1
REMARK minimizedAffinity -3.21000147
REMARK minimizedRMSD -1
REMARK  0 active torsions:
REMARK  status: ('A' for Active; 'I' for Inactive)
ROOT
ATOM      1  C   UNL d   1       1.200   4.059  -0.713  0.00  0.00     0.020 A 
ATOM      2  C1  UNL d   1       0.855   2.957  -1.495  0.00  0.00     0.020 A 
ATOM      3  C2  UNL d   1       0.120   1.909  -0.939  0.00  0.00     0.034 A 
ATOM      4  C3  UNL d   1      -0.272   1.959   0.404  0.00  0.00     0.017 A 
ATOM      5  C4  UNL d   1       0.074   3.066   1.188  0.00  0.00     0.017 A 
ATOM      6  C5  UNL d   1       0.810   4.113   0.625  0.00  0.00     0.034 A 
ATOM      7 Cl   UNL d   1      -0.374   3.199   2.852  0.00  0.00    -0.070 Cl
ATOM      8 Cl1  UNL d   1      -1.179   0.627   1.027  0.00  0.00    -0.070 Cl
ENDROOT
TORSDOF 0
ENDMDL
