MODEL 1
REMARK minimizedAffinity 1.82236516
REMARK minimizedRMSD -1
REMARK  0 active torsions:
REMARK  status: ('A' for Active; 'I' for Inactive)
ROOT
ATOM      1  C   UNL d   1       1.760   5.807   4.018  0.00  0.00     0.020 A 
ATOM      2  C1  UNL d   1       2.660   5.461   3.011  0.00  0.00     0.020 A 
ATOM      3  C2  UNL d   1       2.545   4.229   2.364  0.00  0.00     0.034 A 
ATOM      4  C3  UNL d   1       1.528   3.338   2.723  0.00  0.00     0.017 A 
ATOM      5  C4  UNL d   1       0.625   3.685   3.734  0.00  0.00     0.017 A 
ATOM      6  C5  UNL d   1       0.744   4.920   4.379  0.00  0.00     0.034 A 
ATOM      7 Cl   UNL d   1      -0.657   2.638   4.232  0.00  0.00    -0.070 Cl
ATOM      8 Cl1  UNL d   1       1.445   1.832   1.881  0.00  0.00    -0.070 Cl
ENDROOT
TORSDOF 0
ENDMDL
