MODEL 1
REMARK minimizedAffinity 3.21771622
REMARK minimizedRMSD -1
REMARK  0 active torsions:
REMARK  status: ('A' for Active; 'I' for Inactive)
ROOT
ATOM      1  C   UNL d   1      -0.314   2.847  -5.990  0.00  0.00     0.020 A 
ATOM      2  C1  UNL d   1       0.598   3.902  -5.986  0.00  0.00     0.020 A 
ATOM      3  C2  UNL d   1       1.970   3.638  -5.986  0.00  0.00     0.034 A 
ATOM      4  C3  UNL d   1       2.432   2.317  -5.990  0.00  0.00     0.017 A 
ATOM      5  C4  UNL d   1       1.516   1.260  -5.994  0.00  0.00     0.017 A 
ATOM      6  C5  UNL d   1       0.144   1.529  -5.994  0.00  0.00     0.034 A 
ATOM      7 Cl   UNL d   1       2.011  -0.396  -5.999  0.00  0.00    -0.070 Cl
ATOM      8 Cl1  UNL d   1       4.142   2.065  -5.991  0.00  0.00    -0.070 Cl
ENDROOT
TORSDOF 0
ENDMDL
