MODEL 1
REMARK minimizedAffinity 0.879026532
REMARK minimizedRMSD -1
REMARK  0 active torsions:
REMARK  status: ('A' for Active; 'I' for Inactive)
ROOT
ATOM      1  C   UNL d   1      -4.176   5.211  -4.452  0.00  0.00     0.020 A 
ATOM      2  C1  UNL d   1      -4.502   4.400  -5.538  0.00  0.00     0.020 A 
ATOM      3  C2  UNL d   1      -3.589   3.451  -6.000  0.00  0.00     0.034 A 
ATOM      4  C3  UNL d   1      -2.344   3.309  -5.376  0.00  0.00     0.017 A 
ATOM      5  C4  UNL d   1      -2.017   4.123  -4.285  0.00  0.00     0.017 A 
ATOM      6  C5  UNL d   1      -2.936   5.073  -3.827  0.00  0.00     0.034 A 
ATOM      7 Cl   UNL d   1      -0.501   4.007  -3.464  0.00  0.00    -0.070 Cl
ATOM      8 Cl1  UNL d   1      -1.263   2.114  -5.999  0.00  0.00    -0.070 Cl
ENDROOT
TORSDOF 0
ENDMDL
