MODEL 1
REMARK minimizedAffinity -2.27790141
REMARK minimizedRMSD -1
REMARK  0 active torsions:
REMARK  status: ('A' for Active; 'I' for Inactive)
ROOT
ATOM      1  C   UNL d   1       3.430   1.901  -5.408  0.00  0.00     0.020 A 
ATOM      2  C1  UNL d   1       3.553   1.893  -4.019  0.00  0.00     0.020 A 
ATOM      3  C2  UNL d   1       2.456   2.221  -3.219  0.00  0.00     0.034 A 
ATOM      4  C3  UNL d   1       1.232   2.559  -3.806  0.00  0.00     0.017 A 
ATOM      5  C4  UNL d   1       1.109   2.567  -5.201  0.00  0.00     0.017 A 
ATOM      6  C5  UNL d   1       2.210   2.238  -5.997  0.00  0.00     0.034 A 
ATOM      7 Cl   UNL d   1      -0.369   2.973  -5.999  0.00  0.00    -0.070 Cl
ATOM      8 Cl1  UNL d   1      -0.082   2.954  -2.756  0.00  0.00    -0.070 Cl
ENDROOT
TORSDOF 0
ENDMDL
