MODEL 1
REMARK minimizedAffinity 7.33547354
REMARK minimizedRMSD -1
REMARK  0 active torsions:
REMARK  status: ('A' for Active; 'I' for Inactive)
ROOT
ATOM      1  C   UNL d   1      -3.630   2.998  -5.425  0.00  0.00     0.020 A 
ATOM      2  C1  UNL d   1      -3.767   3.227  -4.056  0.00  0.00     0.020 A 
ATOM      3  C2  UNL d   1      -2.634   3.413  -3.262  0.00  0.00     0.034 A 
ATOM      4  C3  UNL d   1      -1.358   3.370  -3.836  0.00  0.00     0.017 A 
ATOM      5  C4  UNL d   1      -1.221   3.140  -5.209  0.00  0.00     0.017 A 
ATOM      6  C5  UNL d   1      -2.359   2.955  -6.000  0.00  0.00     0.034 A 
ATOM      7 Cl   UNL d   1       0.320   3.074  -5.989  0.00  0.00    -0.070 Cl
ATOM      8 Cl1  UNL d   1      -0.000   3.609  -2.794  0.00  0.00    -0.070 Cl
ENDROOT
TORSDOF 0
ENDMDL
