MODEL 1
REMARK minimizedAffinity -3.77260661
REMARK minimizedRMSD -1
REMARK  0 active torsions:
REMARK  status: ('A' for Active; 'I' for Inactive)
ROOT
ATOM      1  C   UNL d   1      -1.487   2.721   0.189  0.00  0.00     0.020 A 
ATOM      2  C1  UNL d   1      -0.334   3.275   0.744  0.00  0.00     0.020 A 
ATOM      3  C2  UNL d   1       0.851   2.537   0.772  0.00  0.00     0.034 A 
ATOM      4  C3  UNL d   1       0.886   1.241   0.245  0.00  0.00     0.017 A 
ATOM      5  C4  UNL d   1      -0.272   0.686  -0.312  0.00  0.00     0.017 A 
ATOM      6  C5  UNL d   1      -1.456   1.429  -0.338  0.00  0.00     0.034 A 
ATOM      7 Cl   UNL d   1      -0.307  -0.907  -0.982  0.00  0.00    -0.070 Cl
ATOM      8 Cl1  UNL d   1       2.386   0.385   0.314  0.00  0.00    -0.070 Cl
ENDROOT
TORSDOF 0
ENDMDL
