MODEL 1
REMARK minimizedAffinity 6.87669563
REMARK minimizedRMSD -1
REMARK  0 active torsions:
REMARK  status: ('A' for Active; 'I' for Inactive)
ROOT
ATOM      1  C   UNL d   1      -5.962  -1.104   5.990  0.00  0.00     0.020 A 
ATOM      2  C1  UNL d   1      -5.963  -0.054   5.073  0.00  0.00     0.020 A 
ATOM      3  C2  UNL d   1      -5.974  -0.323   3.703  0.00  0.00     0.034 A 
ATOM      4  C3  UNL d   1      -5.985  -1.646   3.246  0.00  0.00     0.017 A 
ATOM      5  C4  UNL d   1      -5.985  -2.700   4.167  0.00  0.00     0.017 A 
ATOM      6  C5  UNL d   1      -5.974  -2.424   5.538  0.00  0.00     0.034 A 
ATOM      7 Cl   UNL d   1      -5.999  -4.358   3.678  0.00  0.00    -0.070 Cl
ATOM      8 Cl1  UNL d   1      -6.000  -1.905   1.537  0.00  0.00    -0.070 Cl
ENDROOT
TORSDOF 0
ENDMDL
