MODEL 1
REMARK minimizedAffinity 10.9641724
REMARK minimizedRMSD -1
REMARK  0 active torsions:
REMARK  status: ('A' for Active; 'I' for Inactive)
ROOT
ATOM      1  C   UNL d   1       2.421   4.684   3.043  0.00  0.00     0.020 A 
ATOM      2  C1  UNL d   1       2.314   3.374   3.509  0.00  0.00     0.020 A 
ATOM      3  C2  UNL d   1       1.581   2.432   2.784  0.00  0.00     0.034 A 
ATOM      4  C3  UNL d   1       0.950   2.799   1.590  0.00  0.00     0.017 A 
ATOM      5  C4  UNL d   1       1.058   4.114   1.123  0.00  0.00     0.017 A 
ATOM      6  C5  UNL d   1       1.794   5.053   1.852  0.00  0.00     0.034 A 
ATOM      7 Cl   UNL d   1       0.308   4.641  -0.343  0.00  0.00    -0.070 Cl
ATOM      8 Cl1  UNL d   1       0.059   1.583   0.745  0.00  0.00    -0.070 Cl
ENDROOT
TORSDOF 0
ENDMDL
