MODEL 1
REMARK minimizedAffinity 17.0934124
REMARK minimizedRMSD -1
REMARK  0 active torsions:
REMARK  status: ('A' for Active; 'I' for Inactive)
ROOT
ATOM      1  C   UNL d   1      -5.730  -2.225   2.088  0.00  0.00     0.020 A 
ATOM      2  C1  UNL d   1      -4.981  -1.049   2.124  0.00  0.00     0.020 A 
ATOM      3  C2  UNL d   1      -4.501  -0.564   3.342  0.00  0.00     0.034 A 
ATOM      4  C3  UNL d   1      -4.769  -1.254   4.530  0.00  0.00     0.017 A 
ATOM      5  C4  UNL d   1      -5.521  -2.434   4.493  0.00  0.00     0.017 A 
ATOM      6  C5  UNL d   1      -5.999  -2.916   3.270  0.00  0.00     0.034 A 
ATOM      7 Cl   UNL d   1      -5.892  -3.341   5.916  0.00  0.00    -0.070 Cl
ATOM      8 Cl1  UNL d   1      -4.144  -0.597   6.000  0.00  0.00    -0.070 Cl
ENDROOT
TORSDOF 0
ENDMDL
