MODEL 1
REMARK minimizedAffinity 8.71188736
REMARK minimizedRMSD -1
REMARK  0 active torsions:
REMARK  status: ('A' for Active; 'I' for Inactive)
ROOT
ATOM      1  C   UNL d   1       2.791   3.492   4.058  0.00  0.00     0.020 A 
ATOM      2  C1  UNL d   1       2.473   2.139   4.163  0.00  0.00     0.020 A 
ATOM      3  C2  UNL d   1       1.547   1.570   3.286  0.00  0.00     0.034 A 
ATOM      4  C3  UNL d   1       0.936   2.354   2.302  0.00  0.00     0.017 A 
ATOM      5  C4  UNL d   1       1.255   3.713   2.198  0.00  0.00     0.017 A 
ATOM      6  C5  UNL d   1       2.183   4.278   3.078  0.00  0.00     0.034 A 
ATOM      7 Cl   UNL d   1       0.542   4.744   1.008  0.00  0.00    -0.070 Cl
ATOM      8 Cl1  UNL d   1      -0.200   1.584   1.252  0.00  0.00    -0.070 Cl
ENDROOT
TORSDOF 0
ENDMDL
