MODEL 1
REMARK minimizedAffinity -5.28430557
REMARK minimizedRMSD -1
REMARK  0 active torsions:
REMARK  status: ('A' for Active; 'I' for Inactive)
ROOT
ATOM      1  C   UNL d   1      -2.195   1.994   0.613  0.00  0.00     0.020 A 
ATOM      2  C1  UNL d   1      -1.778   3.048  -0.200  0.00  0.00     0.020 A 
ATOM      3  C2  UNL d   1      -1.089   2.785  -1.386  0.00  0.00     0.034 A 
ATOM      4  C3  UNL d   1      -0.816   1.465  -1.763  0.00  0.00     0.017 A 
ATOM      5  C4  UNL d   1      -1.235   0.408  -0.947  0.00  0.00     0.017 A 
ATOM      6  C5  UNL d   1      -1.924   0.677   0.240  0.00  0.00     0.034 A 
ATOM      7 Cl   UNL d   1      -0.934  -1.247  -1.346  0.00  0.00    -0.070 Cl
ATOM      8 Cl1  UNL d   1       0.040   1.213  -3.243  0.00  0.00    -0.070 Cl
ENDROOT
TORSDOF 0
ENDMDL
