MODEL 1
REMARK minimizedAffinity -3.11822057
REMARK minimizedRMSD -1
REMARK  0 active torsions:
REMARK  status: ('A' for Active; 'I' for Inactive)
ROOT
ATOM      1  C   UNL d   1      -1.189   3.260  -0.666  0.00  0.00     0.020 A 
ATOM      2  C1  UNL d   1      -1.117   3.422   0.717  0.00  0.00     0.020 A 
ATOM      3  C2  UNL d   1      -0.645   2.380   1.519  0.00  0.00     0.034 A 
ATOM      4  C3  UNL d   1      -0.243   1.172   0.938  0.00  0.00     0.017 A 
ATOM      5  C4  UNL d   1      -0.315   1.010  -0.450  0.00  0.00     0.017 A 
ATOM      6  C5  UNL d   1      -0.789   2.056  -1.248  0.00  0.00     0.034 A 
ATOM      7 Cl   UNL d   1       0.163  -0.451  -1.239  0.00  0.00    -0.070 Cl
ATOM      8 Cl1  UNL d   1       0.331  -0.073   1.990  0.00  0.00    -0.070 Cl
ENDROOT
TORSDOF 0
ENDMDL
