MODEL 1
REMARK minimizedAffinity 4.11075926
REMARK minimizedRMSD -1
REMARK  0 active torsions:
REMARK  status: ('A' for Active; 'I' for Inactive)
ROOT
ATOM      1  C   UNL d   1      -0.550   0.466  -1.425  0.00  0.00     0.020 A 
ATOM      2  C1  UNL d   1      -0.818   0.255  -0.073  0.00  0.00     0.020 A 
ATOM      3  C2  UNL d   1       0.170  -0.275   0.760  0.00  0.00     0.034 A 
ATOM      4  C3  UNL d   1       1.430  -0.597   0.241  0.00  0.00     0.017 A 
ATOM      5  C4  UNL d   1       1.697  -0.384  -1.116  0.00  0.00     0.017 A 
ATOM      6  C5  UNL d   1       0.705   0.147  -1.945  0.00  0.00     0.034 A 
ATOM      7 Cl   UNL d   1       3.228  -0.756  -1.828  0.00  0.00    -0.070 Cl
ATOM      8 Cl1  UNL d   1       2.603  -1.249   1.329  0.00  0.00    -0.070 Cl
ENDROOT
TORSDOF 0
ENDMDL
