MODEL 1
REMARK minimizedAffinity 2.34382319
REMARK minimizedRMSD -1
REMARK  0 active torsions:
REMARK  status: ('A' for Active; 'I' for Inactive)
ROOT
ATOM      1  C   UNL d   1      -0.054  -3.784  -0.685  0.00  0.00     0.020 A 
ATOM      2  C1  UNL d   1      -1.261  -3.589  -1.355  0.00  0.00     0.020 A 
ATOM      3  C2  UNL d   1      -1.768  -2.298  -1.519  0.00  0.00     0.034 A 
ATOM      4  C3  UNL d   1      -1.067  -1.197  -1.013  0.00  0.00     0.017 A 
ATOM      5  C4  UNL d   1       0.145  -1.394  -0.341  0.00  0.00     0.017 A 
ATOM      6  C5  UNL d   1       0.647  -2.689  -0.179  0.00  0.00     0.034 A 
ATOM      7 Cl   UNL d   1       1.066  -0.085   0.312  0.00  0.00    -0.070 Cl
ATOM      8 Cl1  UNL d   1      -1.752   0.371  -1.253  0.00  0.00    -0.070 Cl
ENDROOT
TORSDOF 0
ENDMDL
