MODEL 1
REMARK minimizedAffinity -3.15994549
REMARK minimizedRMSD -1
REMARK  1 active torsions:
REMARK  status: ('A' for Active; 'I' for Inactive)
REMARK    1  A    between atoms: C3_4  and  O_7 
ROOT
ATOM      1  C   UNL d   1      -0.019  -0.274   0.018  0.00  0.00    -0.033 A 
ATOM      2  C1  UNL d   1      -0.810  -0.622   1.115  0.00  0.00     0.039 A 
ATOM      3  C2  UNL d   1      -1.739   0.288   1.624  0.00  0.00    -0.080 A 
ATOM      4  C3  UNL d   1      -1.868   1.539   1.027  0.00  0.00     0.150 A 
ATOM      5  C4  UNL d   1      -1.085   1.890  -0.068  0.00  0.00    -0.007 A 
ATOM      6  C5  UNL d   1      -0.157   0.981  -0.574  0.00  0.00     0.039 A 
ENDROOT
BRANCH   4   7
ATOM      7  O   UNL d   1      -2.757   2.462   1.492  0.00  0.00    -0.526 OA
ATOM      8  H5  UNL d   1      -3.208   2.091   2.269  0.00  0.00     0.418 HD
ENDBRANCH   4   7
TORSDOF 1
ENDMDL
