MODEL 1
REMARK minimizedAffinity -2.6171701
REMARK minimizedRMSD -1
REMARK  1 active torsions:
REMARK  status: ('A' for Active; 'I' for Inactive)
REMARK    1  A    between atoms: C3_4  and  O_7 
ROOT
ATOM      1  C   UNL d   1       0.936  -0.614  -1.021  0.00  0.00    -0.033 A 
ATOM      2  C1  UNL d   1       0.266  -1.258   0.021  0.00  0.00     0.039 A 
ATOM      3  C2  UNL d   1      -0.723  -0.584   0.740  0.00  0.00    -0.080 A 
ATOM      4  C3  UNL d   1      -1.034   0.731   0.406  0.00  0.00     0.150 A 
ATOM      5  C4  UNL d   1      -0.373   1.378  -0.634  0.00  0.00    -0.007 A 
ATOM      6  C5  UNL d   1       0.615   0.703  -1.350  0.00  0.00     0.039 A 
ENDROOT
BRANCH   4   7
ATOM      7  O   UNL d   1      -1.988   1.432   1.081  0.00  0.00    -0.526 OA
ATOM      8  H5  UNL d   1      -2.339   0.868   1.791  0.00  0.00     0.418 HD
ENDBRANCH   4   7
TORSDOF 1
ENDMDL
