MODEL 1
REMARK minimizedAffinity -2.0738647
REMARK minimizedRMSD -1
REMARK  1 active torsions:
REMARK  status: ('A' for Active; 'I' for Inactive)
REMARK    1  A    between atoms: C3_4  and  O_7 
ROOT
ATOM      1  C   UNL d   1       0.514  -0.739   0.091  0.00  0.00    -0.033 A 
ATOM      2  C1  UNL d   1       0.031  -1.311   1.270  0.00  0.00     0.039 A 
ATOM      3  C2  UNL d   1      -0.819  -0.583   2.104  0.00  0.00    -0.080 A 
ATOM      4  C3  UNL d   1      -1.180   0.714   1.748  0.00  0.00     0.150 A 
ATOM      5  C4  UNL d   1      -0.705   1.289   0.574  0.00  0.00    -0.007 A 
ATOM      6  C5  UNL d   1       0.144   0.560  -0.258  0.00  0.00     0.039 A 
ENDROOT
BRANCH   4   7
ATOM      7  O   UNL d   1      -2.003   1.465   2.533  0.00  0.00    -0.526 OA
ATOM      8  H5  UNL d   1      -2.229   0.949   3.325  0.00  0.00     0.418 HD
ENDBRANCH   4   7
TORSDOF 1
ENDMDL
