MODEL 1
REMARK minimizedAffinity -5.29501963
REMARK minimizedRMSD -1
REMARK  1 active torsions:
REMARK  status: ('A' for Active; 'I' for Inactive)
REMARK    1  A    between atoms: C3_4  and  O_7 
ROOT
ATOM      1  C   UNL d   1      -1.937   1.531   1.285  0.00  0.00    -0.033 A 
ATOM      2  C1  UNL d   1      -1.700   1.478  -0.090  0.00  0.00     0.039 A 
ATOM      3  C2  UNL d   1      -0.798   0.547  -0.609  0.00  0.00    -0.080 A 
ATOM      4  C3  UNL d   1      -0.141  -0.324   0.256  0.00  0.00     0.150 A 
ATOM      5  C4  UNL d   1      -0.376  -0.279   1.626  0.00  0.00    -0.007 A 
ATOM      6  C5  UNL d   1      -1.276   0.652   2.143  0.00  0.00     0.039 A 
ENDROOT
BRANCH   4   7
ATOM      7  O   UNL d   1       0.751  -1.246  -0.203  0.00  0.00    -0.526 OA
ATOM      8  H5  UNL d   1       0.834  -1.142  -1.166  0.00  0.00     0.418 HD
ENDBRANCH   4   7
TORSDOF 1
ENDMDL
