MODEL 1
REMARK minimizedAffinity -4.94264936
REMARK minimizedRMSD -1
REMARK  1 active torsions:
REMARK  status: ('A' for Active; 'I' for Inactive)
REMARK    1  A    between atoms: C3_4  and  O_7 
ROOT
ATOM      1  C   UNL d   1      -1.997   1.427   1.454  0.00  0.00    -0.033 A 
ATOM      2  C1  UNL d   1      -1.671   1.764   0.139  0.00  0.00     0.039 A 
ATOM      3  C2  UNL d   1      -0.725   1.012  -0.562  0.00  0.00    -0.080 A 
ATOM      4  C3  UNL d   1      -0.115  -0.072   0.063  0.00  0.00     0.150 A 
ATOM      5  C4  UNL d   1      -0.437  -0.415   1.372  0.00  0.00    -0.007 A 
ATOM      6  C5  UNL d   1      -1.381   0.337   2.070  0.00  0.00     0.039 A 
ENDROOT
BRANCH   4   7
ATOM      7  O   UNL d   1       0.818  -0.832  -0.579  0.00  0.00    -0.526 OA
ATOM      8  H5  UNL d   1       0.960  -0.460  -1.465  0.00  0.00     0.418 HD
ENDBRANCH   4   7
TORSDOF 1
ENDMDL
