MODEL 1
REMARK minimizedAffinity -5.38959694
REMARK minimizedRMSD -1
REMARK  1 active torsions:
REMARK  status: ('A' for Active; 'I' for Inactive)
REMARK    1  A    between atoms: C3_4  and  O_7 
ROOT
ATOM      1  C   UNL d   1      -2.142   1.331   1.970  0.00  0.00    -0.033 A 
ATOM      2  C1  UNL d   1      -1.928   1.770   0.662  0.00  0.00     0.039 A 
ATOM      3  C2  UNL d   1      -1.031   1.092  -0.166  0.00  0.00    -0.080 A 
ATOM      4  C3  UNL d   1      -0.356  -0.022   0.326  0.00  0.00     0.150 A 
ATOM      5  C4  UNL d   1      -0.567  -0.467   1.627  0.00  0.00    -0.007 A 
ATOM      6  C5  UNL d   1      -1.462   0.212   2.452  0.00  0.00     0.039 A 
ENDROOT
BRANCH   4   7
ATOM      7  O   UNL d   1       0.532  -0.714  -0.443  0.00  0.00    -0.526 OA
ATOM      8  H5  UNL d   1       0.597  -0.275  -1.308  0.00  0.00     0.418 HD
ENDBRANCH   4   7
TORSDOF 1
ENDMDL
