MODEL 1
REMARK minimizedAffinity -4.9772048
REMARK minimizedRMSD -1
REMARK  1 active torsions:
REMARK  status: ('A' for Active; 'I' for Inactive)
REMARK    1  A    between atoms: C3_4  and  O_7 
ROOT
ATOM      1  C   UNL d   1      -1.525   1.807   1.481  0.00  0.00    -0.033 A 
ATOM      2  C1  UNL d   1      -1.200   0.556   2.010  0.00  0.00     0.039 A 
ATOM      3  C2  UNL d   1      -0.461  -0.354   1.251  0.00  0.00    -0.080 A 
ATOM      4  C3  UNL d   1      -0.052  -0.001  -0.032  0.00  0.00     0.150 A 
ATOM      5  C4  UNL d   1      -0.369   1.246  -0.563  0.00  0.00    -0.007 A 
ATOM      6  C5  UNL d   1      -1.107   2.153   0.196  0.00  0.00     0.039 A 
ENDROOT
BRANCH   4   7
ATOM      7  O   UNL d   1       0.666  -0.857  -0.811  0.00  0.00    -0.526 OA
ATOM      8  H5  UNL d   1       0.786  -1.690  -0.325  0.00  0.00     0.418 HD
ENDBRANCH   4   7
TORSDOF 1
ENDMDL
