MODEL 1
REMARK minimizedAffinity -4.25077724
REMARK minimizedRMSD -1
REMARK  1 active torsions:
REMARK  status: ('A' for Active; 'I' for Inactive)
REMARK    1  A    between atoms: C3_4  and  O_7 
ROOT
ATOM      1  C   UNL d   1      -1.203   2.755  -0.682  0.00  0.00    -0.033 A 
ATOM      2  C1  UNL d   1      -2.035   2.117   0.240  0.00  0.00     0.039 A 
ATOM      3  C2  UNL d   1      -1.693   0.858   0.737  0.00  0.00    -0.080 A 
ATOM      4  C3  UNL d   1      -0.518   0.249   0.305  0.00  0.00     0.150 A 
ATOM      5  C4  UNL d   1       0.318   0.881  -0.610  0.00  0.00    -0.007 A 
ATOM      6  C5  UNL d   1      -0.026   2.138  -1.105  0.00  0.00     0.039 A 
ENDROOT
BRANCH   4   7
ATOM      7  O   UNL d   1      -0.144  -0.981   0.759  0.00  0.00    -0.526 OA
ATOM      8  H5  UNL d   1      -0.832  -1.308   1.363  0.00  0.00     0.418 HD
ENDBRANCH   4   7
TORSDOF 1
ENDMDL
