MODEL 1
REMARK minimizedAffinity -5.47561312
REMARK minimizedRMSD -1
REMARK  1 active torsions:
REMARK  status: ('A' for Active; 'I' for Inactive)
REMARK    1  A    between atoms: C3_4  and  O_7 
ROOT
ATOM      1  C   UNL d   1       0.484   0.036  -0.470  0.00  0.00    -0.033 A 
ATOM      2  C1  UNL d   1      -0.083  -0.505   0.686  0.00  0.00     0.039 A 
ATOM      3  C2  UNL d   1      -1.007   0.236   1.425  0.00  0.00    -0.080 A 
ATOM      4  C3  UNL d   1      -1.355   1.515   0.999  0.00  0.00     0.150 A 
ATOM      5  C4  UNL d   1      -0.797   2.059  -0.154  0.00  0.00    -0.007 A 
ATOM      6  C5  UNL d   1       0.126   1.318  -0.890  0.00  0.00     0.039 A 
ENDROOT
BRANCH   4   7
ATOM      7  O   UNL d   1      -2.249   2.278   1.690  0.00  0.00    -0.526 OA
ATOM      8  H5  UNL d   1      -2.529   1.785   2.479  0.00  0.00     0.418 HD
ENDBRANCH   4   7
TORSDOF 1
ENDMDL
