MODEL 1
REMARK minimizedAffinity -4.75289774
REMARK minimizedRMSD -1
REMARK  1 active torsions:
REMARK  status: ('A' for Active; 'I' for Inactive)
REMARK    1  A    between atoms: C3_4  and  O_7 
ROOT
ATOM      1  C   UNL d   1       0.537  -0.247   0.054  0.00  0.00    -0.033 A 
ATOM      2  C1  UNL d   1       0.138  -0.423   1.381  0.00  0.00     0.039 A 
ATOM      3  C2  UNL d   1      -0.978   0.258   1.872  0.00  0.00    -0.080 A 
ATOM      4  C3  UNL d   1      -1.686   1.109   1.027  0.00  0.00     0.150 A 
ATOM      5  C4  UNL d   1      -1.296   1.286  -0.296  0.00  0.00    -0.007 A 
ATOM      6  C5  UNL d   1      -0.180   0.606  -0.785  0.00  0.00     0.039 A 
ENDROOT
BRANCH   4   7
ATOM      7  O   UNL d   1      -2.778   1.798   1.462  0.00  0.00    -0.526 OA
ATOM      8  H5  UNL d   1      -2.912   1.599   2.404  0.00  0.00     0.418 HD
ENDBRANCH   4   7
TORSDOF 1
ENDMDL
