MODEL 1
REMARK minimizedAffinity -4.20873165
REMARK minimizedRMSD -1
REMARK  1 active torsions:
REMARK  status: ('A' for Active; 'I' for Inactive)
REMARK    1  A    between atoms: C3_4  and  O_7 
ROOT
ATOM      1  C   UNL d   1       0.788  -4.867  -1.482  0.00  0.00    -0.033 A 
ATOM      2  C1  UNL d   1       1.857  -4.416  -0.706  0.00  0.00     0.039 A 
ATOM      3  C2  UNL d   1       2.021  -3.050  -0.465  0.00  0.00    -0.080 A 
ATOM      4  C3  UNL d   1       1.108  -2.147  -1.004  0.00  0.00     0.150 A 
ATOM      5  C4  UNL d   1       0.038  -2.590  -1.775  0.00  0.00    -0.007 A 
ATOM      6  C5  UNL d   1      -0.123  -3.954  -2.015  0.00  0.00     0.039 A 
ENDROOT
BRANCH   4   7
ATOM      7  O   UNL d   1       1.229  -0.805  -0.800  0.00  0.00    -0.526 OA
ATOM      8  H5  UNL d   1       2.030  -0.644  -0.274  0.00  0.00     0.418 HD
ENDBRANCH   4   7
TORSDOF 1
ENDMDL
