MODEL 1
REMARK minimizedAffinity -4.10654497
REMARK minimizedRMSD -1
REMARK  1 active torsions:
REMARK  status: ('A' for Active; 'I' for Inactive)
REMARK    1  A    between atoms: C3_4  and  O_7 
ROOT
ATOM      1  C   UNL d   1       0.393  -0.036   0.107  0.00  0.00    -0.033 A 
ATOM      2  C1  UNL d   1      -0.101   1.002  -0.686  0.00  0.00     0.039 A 
ATOM      3  C2  UNL d   1      -1.148   1.800  -0.222  0.00  0.00    -0.080 A 
ATOM      4  C3  UNL d   1      -1.692   1.551   1.035  0.00  0.00     0.150 A 
ATOM      5  C4  UNL d   1      -1.202   0.521   1.832  0.00  0.00    -0.007 A 
ATOM      6  C5  UNL d   1      -0.157  -0.275   1.367  0.00  0.00     0.039 A 
ENDROOT
BRANCH   4   7
ATOM      7  O   UNL d   1      -2.718   2.300   1.529  0.00  0.00    -0.526 OA
ATOM      8  H5  UNL d   1      -2.972   2.955   0.858  0.00  0.00     0.418 HD
ENDBRANCH   4   7
TORSDOF 1
ENDMDL
