MODEL 1
REMARK minimizedAffinity -4.71439505
REMARK minimizedRMSD -1
REMARK  1 active torsions:
REMARK  status: ('A' for Active; 'I' for Inactive)
REMARK    1  A    between atoms: C3_4  and  O_7 
ROOT
ATOM      1  C   UNL d   1      -2.126   1.115   1.339  0.00  0.00    -0.033 A 
ATOM      2  C1  UNL d   1      -1.230   0.292   2.024  0.00  0.00     0.039 A 
ATOM      3  C2  UNL d   1      -0.025  -0.082   1.424  0.00  0.00    -0.080 A 
ATOM      4  C3  UNL d   1       0.271   0.375   0.143  0.00  0.00     0.150 A 
ATOM      5  C4  UNL d   1      -0.616   1.198  -0.543  0.00  0.00    -0.007 A 
ATOM      6  C5  UNL d   1      -1.819   1.569   0.057  0.00  0.00     0.039 A 
ENDROOT
BRANCH   4   7
ATOM      7  O   UNL d   1       1.431   0.033  -0.485  0.00  0.00    -0.526 OA
ATOM      8  H5  UNL d   1       1.932  -0.563   0.097  0.00  0.00     0.418 HD
ENDBRANCH   4   7
TORSDOF 1
ENDMDL
