MODEL 1
REMARK minimizedAffinity -5.16819477
REMARK minimizedRMSD -1
REMARK  1 active torsions:
REMARK  status: ('A' for Active; 'I' for Inactive)
REMARK    1  A    between atoms: C3_4  and  O_7 
ROOT
ATOM      1  C   UNL d   1      -0.076  -0.314   0.218  0.00  0.00    -0.033 A 
ATOM      2  C1  UNL d   1      -0.575  -0.417   1.518  0.00  0.00     0.039 A 
ATOM      3  C2  UNL d   1      -1.604   0.426   1.942  0.00  0.00    -0.080 A 
ATOM      4  C3  UNL d   1      -2.124   1.367   1.057  0.00  0.00     0.150 A 
ATOM      5  C4  UNL d   1      -1.635   1.472  -0.241  0.00  0.00    -0.007 A 
ATOM      6  C5  UNL d   1      -0.607   0.629  -0.662  0.00  0.00     0.039 A 
ENDROOT
BRANCH   4   7
ATOM      7  O   UNL d   1      -3.125   2.215   1.427  0.00  0.00    -0.526 OA
ATOM      8  H5  UNL d   1      -3.343   2.047   2.358  0.00  0.00     0.418 HD
ENDBRANCH   4   7
TORSDOF 1
ENDMDL
