MODEL 1
REMARK minimizedAffinity -3.05295491
REMARK minimizedRMSD -1
REMARK  1 active torsions:
REMARK  status: ('A' for Active; 'I' for Inactive)
REMARK    1  A    between atoms: C3_4  and  O_7 
ROOT
ATOM      1  C   UNL d   1       0.808   0.246  -0.689  0.00  0.00    -0.033 A 
ATOM      2  C1  UNL d   1       0.502   1.577  -0.980  0.00  0.00     0.039 A 
ATOM      3  C2  UNL d   1      -0.531   2.224  -0.299  0.00  0.00    -0.080 A 
ATOM      4  C3  UNL d   1      -1.249   1.530   0.671  0.00  0.00     0.150 A 
ATOM      5  C4  UNL d   1      -0.948   0.205   0.969  0.00  0.00    -0.007 A 
ATOM      6  C5  UNL d   1       0.084  -0.439   0.287  0.00  0.00     0.039 A 
ENDROOT
BRANCH   4   7
ATOM      7  O   UNL d   1      -2.269   2.117   1.358  0.00  0.00    -0.526 OA
ATOM      8  H5  UNL d   1      -2.382   3.024   1.026  0.00  0.00     0.418 HD
ENDBRANCH   4   7
TORSDOF 1
ENDMDL
