MODEL 1
REMARK minimizedAffinity -3.67294025
REMARK minimizedRMSD -1
REMARK  1 active torsions:
REMARK  status: ('A' for Active; 'I' for Inactive)
REMARK    1  A    between atoms: C3_4  and  O_7 
ROOT
ATOM      1  C   UNL d   1      -0.021  -0.252   0.404  0.00  0.00    -0.033 A 
ATOM      2  C1  UNL d   1      -0.561  -0.229   1.692  0.00  0.00     0.039 A 
ATOM      3  C2  UNL d   1      -1.409   0.811   2.076  0.00  0.00    -0.080 A 
ATOM      4  C3  UNL d   1      -1.710   1.820   1.165  0.00  0.00     0.150 A 
ATOM      5  C4  UNL d   1      -1.178   1.801  -0.120  0.00  0.00    -0.007 A 
ATOM      6  C5  UNL d   1      -0.330   0.762  -0.502  0.00  0.00     0.039 A 
ENDROOT
BRANCH   4   7
ATOM      7  O   UNL d   1      -2.529   2.858   1.496  0.00  0.00    -0.526 OA
ATOM      8  H5  UNL d   1      -2.798   2.754   2.424  0.00  0.00     0.418 HD
ENDBRANCH   4   7
TORSDOF 1
ENDMDL
