MODEL 1
REMARK minimizedAffinity -3.89574146
REMARK minimizedRMSD -1
REMARK  0 active torsions:
REMARK  status: ('A' for Active; 'I' for Inactive)
ROOT
ATOM      1  O1  BZF d   1       3.256   1.112   0.920  0.00  0.00    -0.204 OA
ATOM      2  C2  BZF d   1       2.415   1.991   0.265  0.00  0.00     0.174 A 
ATOM      3  C3  BZF d   1       1.197   1.442   0.083  0.00  0.00    -0.012 A 
ATOM      4  C3A BZF d   1       1.253   0.173   0.742  0.00  0.00    -0.107 A 
ATOM      5  C4  BZF d   1       0.347  -0.832   0.923  0.00  0.00     0.055 A 
ATOM      6  C5  BZF d   1       0.741  -1.972   1.550  0.00  0.00    -0.016 A 
ATOM      7  C6  BZF d   1       2.032  -2.142   2.004  0.00  0.00     0.022 A 
ATOM      8  C7  BZF d   1       2.966  -1.171   1.851  0.00  0.00     0.029 A 
ATOM      9  C7A BZF d   1       2.562  -0.005   1.247  0.00  0.00     0.058 A 
ENDROOT
TORSDOF 0
ENDMDL
