MODEL 1
REMARK minimizedAffinity 1.51262987
REMARK minimizedRMSD -1
REMARK  0 active torsions:
REMARK  status: ('A' for Active; 'I' for Inactive)
ROOT
ATOM      1  O1  BZF d   1      -1.429  -1.764  -3.090  0.00  0.00    -0.204 OA
ATOM      2  C2  BZF d   1      -2.712  -1.356  -2.777  0.00  0.00     0.174 A 
ATOM      3  C3  BZF d   1      -2.951  -1.502  -1.458  0.00  0.00    -0.012 A 
ATOM      4  C3A BZF d   1      -1.712  -1.946  -0.897  0.00  0.00    -0.107 A 
ATOM      5  C4  BZF d   1      -1.311  -2.251   0.372  0.00  0.00     0.055 A 
ATOM      6  C5  BZF d   1      -0.054  -2.726   0.572  0.00  0.00    -0.016 A 
ATOM      7  C6  BZF d   1       0.826  -2.914  -0.474  0.00  0.00     0.022 A 
ATOM      8  C7  BZF d   1       0.476  -2.621  -1.750  0.00  0.00     0.029 A 
ATOM      9  C7A BZF d   1      -0.783  -2.110  -1.951  0.00  0.00     0.058 A 
ENDROOT
TORSDOF 0
ENDMDL
