MODEL 1
REMARK minimizedAffinity 4.91732693
REMARK minimizedRMSD -1
REMARK  0 active torsions:
REMARK  status: ('A' for Active; 'I' for Inactive)
ROOT
ATOM      1  O1  BZF d   1      -1.894  -0.930  -3.445  0.00  0.00    -0.204 OA
ATOM      2  C2  BZF d   1      -3.080  -0.417  -2.957  0.00  0.00     0.174 A 
ATOM      3  C3  BZF d   1      -3.141  -0.546  -1.615  0.00  0.00    -0.012 A 
ATOM      4  C3A BZF d   1      -1.876  -1.095  -1.233  0.00  0.00    -0.107 A 
ATOM      5  C4  BZF d   1      -1.325  -1.436  -0.031  0.00  0.00     0.055 A 
ATOM      6  C5  BZF d   1      -0.097  -2.016  -0.008  0.00  0.00    -0.016 A 
ATOM      7  C6  BZF d   1       0.606  -2.274  -1.166  0.00  0.00     0.022 A 
ATOM      8  C7  BZF d   1       0.104  -1.949  -2.382  0.00  0.00     0.029 A 
ATOM      9  C7A BZF d   1      -1.124  -1.332  -2.407  0.00  0.00     0.058 A 
ENDROOT
TORSDOF 0
ENDMDL
