MODEL 1
REMARK minimizedAffinity 2.542624
REMARK minimizedRMSD -1
REMARK  0 active torsions:
REMARK  status: ('A' for Active; 'I' for Inactive)
ROOT
ATOM      1  O1  BZF d   1       0.571  -2.114  -3.079  0.00  0.00    -0.204 OA
ATOM      2  C2  BZF d   1       1.729  -1.492  -2.655  0.00  0.00     0.174 A 
ATOM      3  C3  BZF d   1       1.681  -1.244  -1.330  0.00  0.00    -0.012 A 
ATOM      4  C3A BZF d   1       0.453  -1.826  -0.882  0.00  0.00    -0.107 A 
ATOM      5  C4  BZF d   1      -0.150  -1.922   0.339  0.00  0.00     0.055 A 
ATOM      6  C5  BZF d   1      -1.382  -2.489   0.424  0.00  0.00    -0.016 A 
ATOM      7  C6  BZF d   1      -2.042  -2.964  -0.690  0.00  0.00     0.022 A 
ATOM      8  C7  BZF d   1      -1.481  -2.896  -1.923  0.00  0.00     0.029 A 
ATOM      9  C7A BZF d   1      -0.222  -2.353  -2.007  0.00  0.00     0.058 A 
ENDROOT
TORSDOF 0
ENDMDL
