MODEL 1
REMARK minimizedAffinity 0.0317719318
REMARK minimizedRMSD -1
REMARK  0 active torsions:
REMARK  status: ('A' for Active; 'I' for Inactive)
ROOT
ATOM      1  O1  BZF d   1       2.920   4.041  -1.032  0.00  0.00    -0.204 OA
ATOM      2  C2  BZF d   1       2.029   5.032  -1.397  0.00  0.00     0.174 A 
ATOM      3  C3  BZF d   1       0.778   4.719  -1.003  0.00  0.00    -0.012 A 
ATOM      4  C3A BZF d   1       0.908   3.498  -0.270  0.00  0.00    -0.107 A 
ATOM      5  C4  BZF d   1       0.018   2.696   0.386  0.00  0.00     0.055 A 
ATOM      6  C5  BZF d   1       0.457   1.535   0.938  0.00  0.00    -0.016 A 
ATOM      7  C6  BZF d   1       1.776   1.142   0.850  0.00  0.00     0.022 A 
ATOM      8  C7  BZF d   1       2.697   1.906   0.215  0.00  0.00     0.029 A 
ATOM      9  C7A BZF d   1       2.264   3.097  -0.316  0.00  0.00     0.058 A 
ENDROOT
TORSDOF 0
ENDMDL
