MODEL 1
REMARK minimizedAffinity 14.6109018
REMARK minimizedRMSD -1
REMARK  0 active torsions:
REMARK  status: ('A' for Active; 'I' for Inactive)
ROOT
ATOM      1  O1  BZF d   1      -0.564  -2.246   1.461  0.00  0.00    -0.204 OA
ATOM      2  C2  BZF d   1      -1.501  -1.529   0.742  0.00  0.00     0.174 A 
ATOM      3  C3  BZF d   1      -1.129  -0.237   0.627  0.00  0.00    -0.012 A 
ATOM      4  C3A BZF d   1       0.162  -0.161   1.238  0.00  0.00    -0.107 A 
ATOM      5  C4  BZF d   1       1.055   0.855   1.424  0.00  0.00     0.055 A 
ATOM      6  C5  BZF d   1       2.195   0.614   2.123  0.00  0.00    -0.016 A 
ATOM      7  C6  BZF d   1       2.471  -0.629   2.656  0.00  0.00     0.022 A 
ATOM      8  C7  BZF d   1       1.618  -1.669   2.494  0.00  0.00     0.029 A 
ATOM      9  C7A BZF d   1       0.481  -1.437   1.759  0.00  0.00     0.058 A 
ENDROOT
TORSDOF 0
ENDMDL
