MODEL 1
REMARK minimizedAffinity 0.75931412
REMARK minimizedRMSD -1
REMARK  0 active torsions:
REMARK  status: ('A' for Active; 'I' for Inactive)
ROOT
ATOM      1  O1  BZF d   1       3.098   1.175   1.314  0.00  0.00    -0.204 OA
ATOM      2  C2  BZF d   1       2.757   2.168   0.416  0.00  0.00     0.174 A 
ATOM      3  C3  BZF d   1       1.476   2.032   0.017  0.00  0.00    -0.012 A 
ATOM      4  C3A BZF d   1       0.958   0.938   0.779  0.00  0.00    -0.107 A 
ATOM      5  C4  BZF d   1      -0.265   0.332   0.842  0.00  0.00     0.055 A 
ATOM      6  C5  BZF d   1      -0.422  -0.759   1.637  0.00  0.00    -0.016 A 
ATOM      7  C6  BZF d   1       0.622  -1.274   2.377  0.00  0.00     0.022 A 
ATOM      8  C7  BZF d   1       1.852  -0.704   2.352  0.00  0.00     0.029 A 
ATOM      9  C7A BZF d   1       2.005   0.418   1.575  0.00  0.00     0.058 A 
ENDROOT
TORSDOF 0
ENDMDL
