MODEL 1
REMARK minimizedAffinity 3.15978837
REMARK minimizedRMSD -1
REMARK  0 active torsions:
REMARK  status: ('A' for Active; 'I' for Inactive)
ROOT
ATOM      1  O1  BZF d   1       2.883   0.549   2.199  0.00  0.00    -0.204 OA
ATOM      2  C2  BZF d   1       2.495   1.517   1.293  0.00  0.00     0.174 A 
ATOM      3  C3  BZF d   1       1.403   1.122   0.608  0.00  0.00    -0.012 A 
ATOM      4  C3A BZF d   1       1.034  -0.136   1.181  0.00  0.00    -0.107 A 
ATOM      5  C4  BZF d   1       0.021  -1.019   0.936  0.00  0.00     0.055 A 
ATOM      6  C5  BZF d   1      -0.014  -2.191   1.623  0.00  0.00    -0.016 A 
ATOM      7  C6  BZF d   1       0.948  -2.514   2.557  0.00  0.00     0.022 A 
ATOM      8  C7  BZF d   1       1.969  -1.669   2.837  0.00  0.00     0.029 A 
ATOM      9  C7A BZF d   1       1.990  -0.469   2.169  0.00  0.00     0.058 A 
ENDROOT
TORSDOF 0
ENDMDL
