MODEL 1
REMARK minimizedAffinity 6.82565928
REMARK minimizedRMSD -1
REMARK  1 active torsions:
REMARK  status: ('A' for Active; 'I' for Inactive)
REMARK    1  A    between atoms: C1_2  and  C2_3 
ROOT
ATOM      1  C2  UNL d   1       5.058   4.728  -4.220  0.00  0.00    -0.076 A 
ATOM      2  C3  UNL d   1       5.995   5.629  -3.685  0.00  0.00     0.004 A 
ATOM      3  C4  UNL d   1       5.966   5.976  -2.335  0.00  0.00    -0.003 A 
ATOM      4  C5  UNL d   1       5.000   5.427  -1.499  0.00  0.00     0.000 A 
ATOM      5  C6  UNL d   1       4.073   4.519  -2.010  0.00  0.00     0.000 A 
ATOM      6  C7  UNL d   1       4.099   4.146  -3.364  0.00  0.00    -0.073 A 
ATOM      7  C8  UNL d   1       3.072   3.166  -3.863  0.00  0.00     0.078 C 
ENDROOT
BRANCH   1   8
ATOM      8  C1  UNL d   1       5.121   4.410  -5.697  0.00  0.00     0.053 C 
ATOM      9  C   UNL d   1       5.947   3.167  -5.991  0.00  0.00     0.018 C 
ENDBRANCH   1   8
TORSDOF 1
ENDMDL
