MODEL 1
REMARK minimizedAffinity 4.53540945
REMARK minimizedRMSD -1
REMARK  1 active torsions:
REMARK  status: ('A' for Active; 'I' for Inactive)
REMARK    1  A    between atoms: C1_2  and  C2_3 
ROOT
ATOM      1  C2  UNL d   1       0.375  -2.227  -2.210  0.00  0.00    -0.076 A 
ATOM      2  C3  UNL d   1      -0.722  -3.008  -2.614  0.00  0.00     0.004 A 
ATOM      3  C4  UNL d   1      -0.684  -3.741  -3.798  0.00  0.00    -0.003 A 
ATOM      4  C5  UNL d   1       0.452  -3.705  -4.599  0.00  0.00     0.000 A 
ATOM      5  C6  UNL d   1       1.556  -2.950  -4.206  0.00  0.00     0.000 A 
ATOM      6  C7  UNL d   1       1.540  -2.218  -3.006  0.00  0.00    -0.073 A 
ATOM      7  C8  UNL d   1       2.757  -1.416  -2.633  0.00  0.00     0.078 C 
ENDROOT
BRANCH   1   8
ATOM      8  C1  UNL d   1       0.265  -1.432  -0.929  0.00  0.00     0.053 C 
ATOM      9  C   UNL d   1      -0.418  -2.211   0.184  0.00  0.00     0.018 C 
ENDBRANCH   1   8
TORSDOF 1
ENDMDL
