MODEL 1
REMARK minimizedAffinity 4.83220816
REMARK minimizedRMSD -1
REMARK  1 active torsions:
REMARK  status: ('A' for Active; 'I' for Inactive)
REMARK    1  A    between atoms: C1_2  and  C2_3 
ROOT
ATOM      1  C2  UNL d   1       4.881  -1.690   4.346  0.00  0.00    -0.076 A 
ATOM      2  C3  UNL d   1       4.520  -1.010   3.170  0.00  0.00     0.004 A 
ATOM      3  C4  UNL d   1       4.878  -1.504   1.917  0.00  0.00    -0.003 A 
ATOM      4  C5  UNL d   1       5.603  -2.687   1.820  0.00  0.00     0.000 A 
ATOM      5  C6  UNL d   1       5.955  -3.384   2.975  0.00  0.00     0.000 A 
ATOM      6  C7  UNL d   1       5.587  -2.908   4.246  0.00  0.00    -0.073 A 
ATOM      7  C8  UNL d   1       5.998  -3.697   5.459  0.00  0.00     0.078 C 
ENDROOT
BRANCH   1   8
ATOM      8  C1  UNL d   1       4.488  -1.092   5.679  0.00  0.00     0.053 C 
ATOM      9  C   UNL d   1       3.016  -1.299   5.999  0.00  0.00     0.018 C 
ENDBRANCH   1   8
TORSDOF 1
ENDMDL
