MODEL 1
REMARK minimizedAffinity 2.74370503
REMARK minimizedRMSD -1
REMARK  1 active torsions:
REMARK  status: ('A' for Active; 'I' for Inactive)
REMARK    1  A    between atoms: C1_2  and  C2_3 
ROOT
ATOM      1  C2  UNL d   1       4.805   4.872  -3.681  0.00  0.00    -0.076 A 
ATOM      2  C3  UNL d   1       3.690   5.453  -3.051  0.00  0.00     0.004 A 
ATOM      3  C4  UNL d   1       2.648   6.000  -3.798  0.00  0.00    -0.003 A 
ATOM      4  C5  UNL d   1       2.705   5.975  -5.188  0.00  0.00     0.000 A 
ATOM      5  C6  UNL d   1       3.795   5.388  -5.829  0.00  0.00     0.000 A 
ATOM      6  C7  UNL d   1       4.845   4.817  -5.090  0.00  0.00    -0.073 A 
ATOM      7  C8  UNL d   1       6.000   4.203  -5.834  0.00  0.00     0.078 C 
ENDROOT
BRANCH   1   8
ATOM      8  C1  UNL d   1       5.917   4.319  -2.818  0.00  0.00     0.053 C 
ATOM      9  C   UNL d   1       5.977   4.980  -1.450  0.00  0.00     0.018 C 
ENDBRANCH   1   8
TORSDOF 1
ENDMDL
