MODEL 1
REMARK minimizedAffinity 5.44853354
REMARK minimizedRMSD -1
REMARK  1 active torsions:
REMARK  status: ('A' for Active; 'I' for Inactive)
REMARK    1  A    between atoms: C1_2  and  C2_3 
ROOT
ATOM      1  C2  UNL d   1       4.811   5.393  -3.197  0.00  0.00    -0.076 A 
ATOM      2  C3  UNL d   1       5.992   5.257  -3.948  0.00  0.00     0.004 A 
ATOM      3  C4  UNL d   1       5.997   5.479  -5.324  0.00  0.00    -0.003 A 
ATOM      4  C5  UNL d   1       4.821   5.842  -5.971  0.00  0.00     0.000 A 
ATOM      5  C6  UNL d   1       3.644   5.999  -5.240  0.00  0.00     0.000 A 
ATOM      6  C7  UNL d   1       3.626   5.794  -3.849  0.00  0.00    -0.073 A 
ATOM      7  C8  UNL d   1       2.327   5.971  -3.111  0.00  0.00     0.078 C 
ENDROOT
BRANCH   1   8
ATOM      8  C1  UNL d   1       4.860   5.112  -1.712  0.00  0.00     0.053 C 
ATOM      9  C   UNL d   1       5.997   4.175  -1.334  0.00  0.00     0.018 C 
ENDBRANCH   1   8
TORSDOF 1
ENDMDL
