MODEL 1
REMARK minimizedAffinity 1.62832963
REMARK minimizedRMSD -1
REMARK  1 active torsions:
REMARK  status: ('A' for Active; 'I' for Inactive)
REMARK    1  A    between atoms: C1_2  and  C2_3 
ROOT
ATOM      1  C2  UNL d   1       4.866  -1.432   4.249  0.00  0.00    -0.076 A 
ATOM      2  C3  UNL d   1       4.510  -0.855   3.017  0.00  0.00     0.004 A 
ATOM      3  C4  UNL d   1       4.895  -1.441   1.813  0.00  0.00    -0.003 A 
ATOM      4  C5  UNL d   1       5.640  -2.615   1.820  0.00  0.00     0.000 A 
ATOM      5  C6  UNL d   1       5.987  -3.210   3.032  0.00  0.00     0.000 A 
ATOM      6  C7  UNL d   1       5.593  -2.641   4.255  0.00  0.00    -0.073 A 
ATOM      7  C8  UNL d   1       6.000  -3.323   5.533  0.00  0.00     0.078 C 
ENDROOT
BRANCH   1   8
ATOM      8  C1  UNL d   1       4.444  -0.736   5.523  0.00  0.00     0.053 C 
ATOM      9  C   UNL d   1       3.055  -1.153   5.982  0.00  0.00     0.018 C 
ENDBRANCH   1   8
TORSDOF 1
ENDMDL
