MODEL 1
REMARK minimizedAffinity 7.65474176
REMARK minimizedRMSD -1
REMARK  1 active torsions:
REMARK  status: ('A' for Active; 'I' for Inactive)
REMARK    1  A    between atoms: C1_2  and  C2_3 
ROOT
ATOM      1  C2  UNL d   1       0.630  -3.072  -2.198  0.00  0.00    -0.076 A 
ATOM      2  C3  UNL d   1       0.524  -3.189  -0.801  0.00  0.00     0.004 A 
ATOM      3  C4  UNL d   1      -0.645  -2.822  -0.137  0.00  0.00    -0.003 A 
ATOM      4  C5  UNL d   1      -1.728  -2.332  -0.860  0.00  0.00     0.000 A 
ATOM      5  C6  UNL d   1      -1.646  -2.226  -2.248  0.00  0.00     0.000 A 
ATOM      6  C7  UNL d   1      -0.480  -2.607  -2.934  0.00  0.00    -0.073 A 
ATOM      7  C8  UNL d   1      -0.445  -2.465  -4.431  0.00  0.00     0.078 C 
ENDROOT
BRANCH   1   8
ATOM      8  C1  UNL d   1       1.933  -3.460  -2.860  0.00  0.00     0.053 C 
ATOM      9  C   UNL d   1       2.924  -2.308  -2.916  0.00  0.00     0.018 C 
ENDBRANCH   1   8
TORSDOF 1
ENDMDL
