MODEL 1
REMARK minimizedAffinity 10.7359982
REMARK minimizedRMSD -1
REMARK  1 active torsions:
REMARK  status: ('A' for Active; 'I' for Inactive)
REMARK    1  A    between atoms: C1_2  and  C2_3 
ROOT
ATOM      1  C2  UNL d   1       5.127   4.488  -4.078  0.00  0.00    -0.076 A 
ATOM      2  C3  UNL d   1       5.161   3.452  -5.028  0.00  0.00     0.004 A 
ATOM      3  C4  UNL d   1       5.560   2.165  -4.672  0.00  0.00    -0.003 A 
ATOM      4  C5  UNL d   1       5.931   1.893  -3.360  0.00  0.00     0.000 A 
ATOM      5  C6  UNL d   1       5.887   2.904  -2.401  0.00  0.00     0.000 A 
ATOM      6  C7  UNL d   1       5.471   4.203  -2.740  0.00  0.00    -0.073 A 
ATOM      7  C8  UNL d   1       5.448   5.257  -1.666  0.00  0.00     0.078 C 
ENDROOT
BRANCH   1   8
ATOM      8  C1  UNL d   1       4.712   5.870  -4.529  0.00  0.00     0.053 C 
ATOM      9  C   UNL d   1       3.220   5.968  -4.811  0.00  0.00     0.018 C 
ENDBRANCH   1   8
TORSDOF 1
ENDMDL
