MODEL 1
REMARK minimizedAffinity 6.7458353
REMARK minimizedRMSD -1
REMARK  1 active torsions:
REMARK  status: ('A' for Active; 'I' for Inactive)
REMARK    1  A    between atoms: C1_2  and  C2_3 
ROOT
ATOM      1  C2  UNL d   1       5.121   4.845  -3.057  0.00  0.00    -0.076 A 
ATOM      2  C3  UNL d   1       5.998   3.748  -3.123  0.00  0.00     0.004 A 
ATOM      3  C4  UNL d   1       5.719   2.654  -3.939  0.00  0.00    -0.003 A 
ATOM      4  C5  UNL d   1       4.557   2.638  -4.704  0.00  0.00     0.000 A 
ATOM      5  C6  UNL d   1       3.684   3.724  -4.664  0.00  0.00     0.000 A 
ATOM      6  C7  UNL d   1       3.959   4.843  -3.859  0.00  0.00    -0.073 A 
ATOM      7  C8  UNL d   1       2.980   5.985  -3.850  0.00  0.00     0.078 C 
ENDROOT
BRANCH   1   8
ATOM      8  C1  UNL d   1       5.463   5.992  -2.133  0.00  0.00     0.053 C 
ATOM      9  C   UNL d   1       5.715   5.534  -0.705  0.00  0.00     0.018 C 
ENDBRANCH   1   8
TORSDOF 1
ENDMDL
