MODEL 1
REMARK minimizedAffinity 8.28349686
REMARK minimizedRMSD -1
REMARK  1 active torsions:
REMARK  status: ('A' for Active; 'I' for Inactive)
REMARK    1  A    between atoms: C1_2  and  C2_3 
ROOT
ATOM      1  C2  UNL d   1       0.829  -1.893  -2.447  0.00  0.00    -0.076 A 
ATOM      2  C3  UNL d   1       0.482  -1.664  -1.104  0.00  0.00     0.004 A 
ATOM      3  C4  UNL d   1      -0.694  -2.185  -0.568  0.00  0.00    -0.003 A 
ATOM      4  C5  UNL d   1      -1.543  -2.943  -1.366  0.00  0.00     0.000 A 
ATOM      5  C6  UNL d   1      -1.207  -3.195  -2.696  0.00  0.00     0.000 A 
ATOM      6  C7  UNL d   1      -0.016  -2.691  -3.247  0.00  0.00    -0.073 A 
ATOM      7  C8  UNL d   1       0.294  -2.989  -4.689  0.00  0.00     0.078 C 
ENDROOT
BRANCH   1   8
ATOM      8  C1  UNL d   1       2.104  -1.281  -2.980  0.00  0.00     0.053 C 
ATOM      9  C   UNL d   1       3.347  -1.848  -2.312  0.00  0.00     0.018 C 
ENDBRANCH   1   8
TORSDOF 1
ENDMDL
