MODEL 1
REMARK minimizedAffinity 1.93245518
REMARK minimizedRMSD -1
REMARK  1 active torsions:
REMARK  status: ('A' for Active; 'I' for Inactive)
REMARK    1  A    between atoms: C1_2  and  C2_3 
ROOT
ATOM      1  C2  UNL d   1      -0.473  -2.858  -2.232  0.00  0.00    -0.076 A 
ATOM      2  C3  UNL d   1       0.282  -1.707  -1.946  0.00  0.00     0.004 A 
ATOM      3  C4  UNL d   1       1.569  -1.548  -2.456  0.00  0.00    -0.003 A 
ATOM      4  C5  UNL d   1       2.122  -2.537  -3.262  0.00  0.00     0.000 A 
ATOM      5  C6  UNL d   1       1.381  -3.677  -3.571  0.00  0.00     0.000 A 
ATOM      6  C7  UNL d   1       0.076  -3.846  -3.078  0.00  0.00    -0.073 A 
ATOM      7  C8  UNL d   1      -0.676  -5.098  -3.438  0.00  0.00     0.078 C 
ENDROOT
BRANCH   1   8
ATOM      8  C1  UNL d   1      -1.853  -2.988  -1.628  0.00  0.00     0.053 C 
ATOM      9  C   UNL d   1      -1.850  -2.789  -0.120  0.00  0.00     0.018 C 
ENDBRANCH   1   8
TORSDOF 1
ENDMDL
