MODEL 1
REMARK minimizedAffinity 5.54284811
REMARK minimizedRMSD -1
REMARK  1 active torsions:
REMARK  status: ('A' for Active; 'I' for Inactive)
REMARK    1  A    between atoms: C1_2  and  C2_3 
ROOT
ATOM      1  C2  UNL d   1       5.214  -1.735   3.988  0.00  0.00    -0.076 A 
ATOM      2  C3  UNL d   1       6.000  -1.452   2.857  0.00  0.00     0.004 A 
ATOM      3  C4  UNL d   1       5.489  -1.612   1.570  0.00  0.00    -0.003 A 
ATOM      4  C5  UNL d   1       4.184  -2.058   1.393  0.00  0.00     0.000 A 
ATOM      5  C6  UNL d   1       3.385  -2.327   2.503  0.00  0.00     0.000 A 
ATOM      6  C7  UNL d   1       3.879  -2.155   3.807  0.00  0.00    -0.073 A 
ATOM      7  C8  UNL d   1       2.975  -2.466   4.969  0.00  0.00     0.078 C 
ENDROOT
BRANCH   1   8
ATOM      8  C1  UNL d   1       5.830  -1.569   5.358  0.00  0.00     0.053 C 
ATOM      9  C   UNL d   1       5.474  -0.237   5.999  0.00  0.00     0.018 C 
ENDBRANCH   1   8
TORSDOF 1
ENDMDL
