MODEL 1
REMARK minimizedAffinity -0.387705535
REMARK minimizedRMSD -1
REMARK  1 active torsions:
REMARK  status: ('A' for Active; 'I' for Inactive)
REMARK    1  A    between atoms: N_2  and  C1_3 
ROOT
ATOM      1  C1  UNL d   1      -5.545   2.820  -4.510  0.00  0.00     0.143 A 
ATOM      2  C2  UNL d   1      -4.778   3.990  -4.514  0.00  0.00    -0.057 A 
ATOM      3  C3  UNL d   1      -4.437   4.639  -3.322  0.00  0.00     0.033 A 
ATOM      4  C4  UNL d   1      -4.883   4.144  -2.101  0.00  0.00    -0.042 A 
ATOM      5  C5  UNL d   1      -5.667   2.996  -2.074  0.00  0.00     0.033 A 
ATOM      6  C6  UNL d   1      -5.999   2.348  -3.268  0.00  0.00    -0.057 A 
ENDROOT
BRANCH   1   7
ATOM      7  N   UNL d   1      -5.999   2.183  -5.667  0.00  0.00    -0.732 N 
ATOM      8  C   UNL d   1      -5.976   0.740  -5.772  0.00  0.00     0.284 C 
ATOM      9  H3  UNL d   1      -6.841   2.614  -6.042  0.00  0.00     0.395 HD
ENDBRANCH   1   7
TORSDOF 1
ENDMDL
