MODEL 1
REMARK minimizedAffinity 9.25606251
REMARK minimizedRMSD -1
REMARK  1 active torsions:
REMARK  status: ('A' for Active; 'I' for Inactive)
REMARK    1  A    between atoms: N_2  and  C1_3 
ROOT
ATOM      1  C1  UNL d   1      -0.154  -3.844  -3.718  0.00  0.00     0.143 A 
ATOM      2  C2  UNL d   1       0.625  -4.272  -2.638  0.00  0.00    -0.057 A 
ATOM      3  C3  UNL d   1       0.452  -3.731  -1.358  0.00  0.00     0.033 A 
ATOM      4  C4  UNL d   1      -0.487  -2.729  -1.142  0.00  0.00    -0.042 A 
ATOM      5  C5  UNL d   1      -1.256  -2.270  -2.206  0.00  0.00     0.033 A 
ATOM      6  C6  UNL d   1      -1.082  -2.818  -3.480  0.00  0.00    -0.057 A 
ENDROOT
BRANCH   1   7
ATOM      7  N   UNL d   1       0.038  -4.272  -5.034  0.00  0.00    -0.732 N 
ATOM      8  C   UNL d   1       1.307  -4.064  -5.699  0.00  0.00     0.284 C 
ATOM      9  H3  UNL d   1      -0.380  -5.182  -5.211  0.00  0.00     0.395 HD
ENDBRANCH   1   7
TORSDOF 1
ENDMDL
