MODEL 1
REMARK minimizedAffinity 0.704451442
REMARK minimizedRMSD -1
REMARK  1 active torsions:
REMARK  status: ('A' for Active; 'I' for Inactive)
REMARK    1  A    between atoms: N_2  and  C1_3 
ROOT
ATOM      1  C1  UNL d   1       0.879   3.418   1.570  0.00  0.00     0.143 A 
ATOM      2  C2  UNL d   1      -0.115   2.528   1.990  0.00  0.00    -0.057 A 
ATOM      3  C3  UNL d   1       0.062   1.724   3.122  0.00  0.00     0.033 A 
ATOM      4  C4  UNL d   1       1.253   1.776   3.840  0.00  0.00    -0.042 A 
ATOM      5  C5  UNL d   1       2.264   2.635   3.427  0.00  0.00     0.033 A 
ATOM      6  C6  UNL d   1       2.079   3.441   2.299  0.00  0.00    -0.057 A 
ENDROOT
BRANCH   1   7
ATOM      7  N   UNL d   1       0.803   4.172   0.396  0.00  0.00    -0.732 N 
ATOM      8  C   UNL d   1      -0.005   3.722  -0.717  0.00  0.00     0.284 C 
ATOM      9  H3  UNL d   1       0.739   5.171   0.579  0.00  0.00     0.395 HD
ENDBRANCH   1   7
TORSDOF 1
ENDMDL
