MODEL 1
REMARK minimizedAffinity 2.37522388
REMARK minimizedRMSD -1
REMARK  1 active torsions:
REMARK  status: ('A' for Active; 'I' for Inactive)
REMARK    1  A    between atoms: N_2  and  C1_3 
ROOT
ATOM      1  C1  UNL d   1      -0.184   3.962  -0.922  0.00  0.00     0.143 A 
ATOM      2  C2  UNL d   1      -0.061   4.120  -2.306  0.00  0.00    -0.057 A 
ATOM      3  C3  UNL d   1      -0.753   5.130  -2.986  0.00  0.00     0.033 A 
ATOM      4  C4  UNL d   1      -1.606   5.984  -2.295  0.00  0.00    -0.042 A 
ATOM      5  C5  UNL d   1      -1.762   5.830  -0.922  0.00  0.00     0.033 A 
ATOM      6  C6  UNL d   1      -1.064   4.824  -0.248  0.00  0.00    -0.057 A 
ENDROOT
BRANCH   1   7
ATOM      7  N   UNL d   1       0.400   2.916  -0.203  0.00  0.00    -0.732 N 
ATOM      8  C   UNL d   1      -0.097   2.554   1.107  0.00  0.00     0.284 C 
ATOM      9  H3  UNL d   1       0.633   2.121  -0.794  0.00  0.00     0.395 HD
ENDBRANCH   1   7
TORSDOF 1
ENDMDL
