MODEL 1
REMARK minimizedAffinity 5.0637846
REMARK minimizedRMSD -1
REMARK  1 active torsions:
REMARK  status: ('A' for Active; 'I' for Inactive)
REMARK    1  A    between atoms: N_2  and  C1_3 
ROOT
ATOM      1  C1  UNL d   1      -5.920   1.471  -4.419  0.00  0.00     0.143 A 
ATOM      2  C2  UNL d   1      -5.945   2.865  -4.534  0.00  0.00    -0.057 A 
ATOM      3  C3  UNL d   1      -5.969   3.687  -3.401  0.00  0.00     0.033 A 
ATOM      4  C4  UNL d   1      -5.998   3.127  -2.128  0.00  0.00    -0.042 A 
ATOM      5  C5  UNL d   1      -6.000   1.743  -1.990  0.00  0.00     0.033 A 
ATOM      6  C6  UNL d   1      -5.969   0.928  -3.126  0.00  0.00    -0.057 A 
ENDROOT
BRANCH   1   7
ATOM      7  N   UNL d   1      -5.995   0.599  -5.508  0.00  0.00    -0.732 N 
ATOM      8  C   UNL d   1      -4.810  -0.071  -5.999  0.00  0.00     0.284 C 
ATOM      9  H3  UNL d   1      -6.823   0.009  -5.477  0.00  0.00     0.395 HD
ENDBRANCH   1   7
TORSDOF 1
ENDMDL
