MODEL 1
REMARK minimizedAffinity -4.89283657
REMARK minimizedRMSD -1
REMARK  0 active torsions:
REMARK  status: ('A' for Active; 'I' for Inactive)
ROOT
ATOM      1  C2' OXE d   1       1.046   2.652  -0.009  0.00  0.00     0.078 C 
ATOM      2  C1' OXE d   1      -0.887   0.631  -0.246  0.00  0.00     0.078 C 
ATOM      3  C1  OXE d   1       0.526   0.218   0.080  0.00  0.00    -0.078 A 
ATOM      4  C2  OXE d   1       1.475   1.209   0.148  0.00  0.00    -0.078 A 
ATOM      5  C3  OXE d   1       2.783   0.889   0.499  0.00  0.00     0.003 A 
ATOM      6  C4  OXE d   1       3.174  -0.449   0.633  0.00  0.00    -0.002 A 
ATOM      7  C5  OXE d   1       2.231  -1.478   0.528  0.00  0.00    -0.002 A 
ATOM      8  C6  OXE d   1       0.898  -1.159   0.295  0.00  0.00     0.003 A 
ENDROOT
TORSDOF 0
ENDMDL
