MODEL 1
REMARK minimizedAffinity -4.37309313
REMARK minimizedRMSD -1
REMARK  0 active torsions:
REMARK  status: ('A' for Active; 'I' for Inactive)
ROOT
ATOM      1  C2' OXE d   1       0.712   2.501   0.066  0.00  0.00     0.078 C 
ATOM      2  C1' OXE d   1      -0.754   0.158  -0.427  0.00  0.00     0.078 C 
ATOM      3  C1  OXE d   1       0.646   0.011   0.114  0.00  0.00    -0.078 A 
ATOM      4  C2  OXE d   1       1.373   1.161   0.308  0.00  0.00    -0.078 A 
ATOM      5  C3  OXE d   1       2.650   1.086   0.858  0.00  0.00     0.003 A 
ATOM      6  C4  OXE d   1       3.258  -0.158   1.069  0.00  0.00    -0.002 A 
ATOM      7  C5  OXE d   1       2.550  -1.342   0.840  0.00  0.00    -0.002 A 
ATOM      8  C6  OXE d   1       1.231  -1.275   0.404  0.00  0.00     0.003 A 
ENDROOT
TORSDOF 0
ENDMDL
