MODEL 1
REMARK minimizedAffinity 3.39170575
REMARK minimizedRMSD -1
REMARK  0 active torsions:
REMARK  status: ('A' for Active; 'I' for Inactive)
ROOT
ATOM      1  C2' OXE d   1       0.774  -1.101   1.827  0.00  0.00     0.078 C 
ATOM      2  C1' OXE d   1       2.933  -2.513   0.719  0.00  0.00     0.078 C 
ATOM      3  C1  OXE d   1       2.897  -1.018   0.525  0.00  0.00    -0.078 A 
ATOM      4  C2  OXE d   1       1.813  -0.341   1.030  0.00  0.00    -0.078 A 
ATOM      5  C3  OXE d   1       1.757   1.046   0.927  0.00  0.00     0.003 A 
ATOM      6  C4  OXE d   1       2.716   1.740   0.180  0.00  0.00    -0.002 A 
ATOM      7  C5  OXE d   1       3.808   1.065  -0.377  0.00  0.00    -0.002 A 
ATOM      8  C6  OXE d   1       3.935  -0.305  -0.178  0.00  0.00     0.003 A 
ENDROOT
TORSDOF 0
ENDMDL
