MODEL 1
REMARK minimizedAffinity -2.59016156
REMARK minimizedRMSD -1
REMARK  0 active torsions:
REMARK  status: ('A' for Active; 'I' for Inactive)
ROOT
ATOM      1  C2' OXE d   1       3.001   0.634   1.193  0.00  0.00     0.078 C 
ATOM      2  C1' OXE d   1       1.446   2.650   0.009  0.00  0.00     0.078 C 
ATOM      3  C1  OXE d   1       0.807   1.300   0.218  0.00  0.00    -0.078 A 
ATOM      4  C2  OXE d   1       1.590   0.306   0.755  0.00  0.00    -0.078 A 
ATOM      5  C3  OXE d   1       1.033  -0.942   1.019  0.00  0.00     0.003 A 
ATOM      6  C4  OXE d   1      -0.270  -1.240   0.602  0.00  0.00    -0.002 A 
ATOM      7  C5  OXE d   1      -1.071  -0.254   0.017  0.00  0.00    -0.002 A 
ATOM      8  C6  OXE d   1      -0.563   1.031  -0.143  0.00  0.00     0.003 A 
ENDROOT
TORSDOF 0
ENDMDL
