MODEL 1
REMARK minimizedAffinity -3.18341184
REMARK minimizedRMSD -1
REMARK  0 active torsions:
REMARK  status: ('A' for Active; 'I' for Inactive)
ROOT
ATOM      1  C2' OXE d   1      -1.621  -0.119  -0.089  0.00  0.00     0.078 C 
ATOM      2  C1' OXE d   1       0.306  -1.776   1.103  0.00  0.00     0.078 C 
ATOM      3  C1  OXE d   1       0.691  -0.348   0.808  0.00  0.00    -0.078 A 
ATOM      4  C2  OXE d   1      -0.242   0.443   0.182  0.00  0.00    -0.078 A 
ATOM      5  C3  OXE d   1       0.043   1.783  -0.063  0.00  0.00     0.003 A 
ATOM      6  C4  OXE d   1       1.324   2.291   0.182  0.00  0.00    -0.002 A 
ATOM      7  C5  OXE d   1       2.303   1.491   0.782  0.00  0.00    -0.002 A 
ATOM      8  C6  OXE d   1       1.990   0.185   1.140  0.00  0.00     0.003 A 
ENDROOT
TORSDOF 0
ENDMDL
