MODEL 1
REMARK minimizedAffinity -6.09530973
REMARK minimizedRMSD -1
REMARK  0 active torsions:
REMARK  status: ('A' for Active; 'I' for Inactive)
ROOT
ATOM      1  C2' OXE d   1       0.312   2.677   0.334  0.00  0.00     0.078 C 
ATOM      2  C1' OXE d   1      -1.074   0.311  -0.267  0.00  0.00     0.078 C 
ATOM      3  C1  OXE d   1       0.370   0.193   0.154  0.00  0.00    -0.078 A 
ATOM      4  C2  OXE d   1       1.053   1.359   0.402  0.00  0.00    -0.078 A 
ATOM      5  C3  OXE d   1       2.371   1.305   0.846  0.00  0.00     0.003 A 
ATOM      6  C4  OXE d   1       3.052   0.082   0.896  0.00  0.00    -0.002 A 
ATOM      7  C5  OXE d   1       2.386  -1.114   0.610  0.00  0.00    -0.002 A 
ATOM      8  C6  OXE d   1       1.036  -1.080   0.279  0.00  0.00     0.003 A 
ENDROOT
TORSDOF 0
ENDMDL
