MODEL 1
REMARK minimizedAffinity 8.28931522
REMARK minimizedRMSD -1
REMARK  1 active torsions:
REMARK  status: ('A' for Active; 'I' for Inactive)
REMARK    1  A    between atoms: C1_2  and  C2_3 
ROOT
ATOM      1  C2  UNL d   1       3.375   3.668   1.088  0.00  0.00    -0.081 A 
ATOM      2  C3  UNL d   1       3.726   2.320   1.224  0.00  0.00     0.006 A 
ATOM      3  C4  UNL d   1       2.754   1.321   1.121  0.00  0.00     0.002 A 
ATOM      4  C5  UNL d   1       1.418   1.654   0.874  0.00  0.00    -0.080 A 
ATOM      5  C6  UNL d   1       0.371   0.590   0.731  0.00  0.00     0.076 C 
ATOM      6  C7  UNL d   1       1.065   3.002   0.755  0.00  0.00     0.002 A 
ATOM      7  C8  UNL d   1       2.035   4.001   0.858  0.00  0.00     0.006 A 
ENDROOT
BRANCH   1   8
ATOM      8  C1  UNL d   1       4.431   4.743   1.133  0.00  0.00     0.054 C 
ATOM      9  C   UNL d   1       3.972   6.000   0.407  0.00  0.00     0.018 C 
ENDBRANCH   1   8
TORSDOF 1
ENDMDL
