MODEL 1
REMARK minimizedAffinity 7.89817858
REMARK minimizedRMSD -1
REMARK  1 active torsions:
REMARK  status: ('A' for Active; 'I' for Inactive)
REMARK    1  A    between atoms: C1_2  and  C2_3 
ROOT
ATOM      1  C2  UNL d   1       5.127  -4.224  -4.467  0.00  0.00    -0.081 A 
ATOM      2  C3  UNL d   1       4.047  -4.799  -3.786  0.00  0.00     0.006 A 
ATOM      3  C4  UNL d   1       3.744  -4.407  -2.480  0.00  0.00     0.002 A 
ATOM      4  C5  UNL d   1       4.510  -3.430  -1.836  0.00  0.00    -0.080 A 
ATOM      5  C6  UNL d   1       4.177  -2.979  -0.445  0.00  0.00     0.076 C 
ATOM      6  C7  UNL d   1       5.600  -2.868  -2.510  0.00  0.00     0.002 A 
ATOM      7  C8  UNL d   1       5.904  -3.259  -3.816  0.00  0.00     0.006 A 
ENDROOT
BRANCH   1   8
ATOM      8  C1  UNL d   1       5.417  -4.597  -5.899  0.00  0.00     0.054 C 
ATOM      9  C   UNL d   1       5.999  -5.999  -5.998  0.00  0.00     0.018 C 
ENDBRANCH   1   8
TORSDOF 1
ENDMDL
