MODEL 1
REMARK minimizedAffinity 16.9560337
REMARK minimizedRMSD -1
REMARK  1 active torsions:
REMARK  status: ('A' for Active; 'I' for Inactive)
REMARK    1  A    between atoms: C1_2  and  C2_3 
ROOT
ATOM      1  C2  UNL d   1      -1.666  -1.790   0.959  0.00  0.00    -0.081 A 
ATOM      2  C3  UNL d   1      -1.975  -1.594  -0.393  0.00  0.00     0.006 A 
ATOM      3  C4  UNL d   1      -1.956  -2.668  -1.286  0.00  0.00     0.002 A 
ATOM      4  C5  UNL d   1      -1.635  -3.955  -0.842  0.00  0.00    -0.080 A 
ATOM      5  C6  UNL d   1      -1.640  -5.121  -1.785  0.00  0.00     0.076 C 
ATOM      6  C7  UNL d   1      -1.309  -4.147   0.505  0.00  0.00     0.002 A 
ATOM      7  C8  UNL d   1      -1.327  -3.074   1.398  0.00  0.00     0.006 A 
ENDROOT
BRANCH   1   8
ATOM      8  C1  UNL d   1      -1.749  -0.646   1.937  0.00  0.00     0.054 C 
ATOM      9  C   UNL d   1      -1.122   0.618   1.366  0.00  0.00     0.018 C 
ENDBRANCH   1   8
TORSDOF 1
ENDMDL
