MODEL 1
REMARK minimizedAffinity 18.1584568
REMARK minimizedRMSD -1
REMARK  1 active torsions:
REMARK  status: ('A' for Active; 'I' for Inactive)
REMARK    1  A    between atoms: C1_2  and  C2_3 
ROOT
ATOM      1  C2  UNL d   1       0.054   1.958   1.992  0.00  0.00    -0.081 A 
ATOM      2  C3  UNL d   1      -0.177   2.238   0.640  0.00  0.00     0.006 A 
ATOM      3  C4  UNL d   1       0.844   2.083  -0.301  0.00  0.00     0.002 A 
ATOM      4  C5  UNL d   1       2.110   1.638   0.093  0.00  0.00    -0.080 A 
ATOM      5  C6  UNL d   1       3.206   1.438  -0.911  0.00  0.00     0.076 C 
ATOM      6  C7  UNL d   1       2.347   1.375   1.447  0.00  0.00     0.002 A 
ATOM      7  C8  UNL d   1       1.327   1.531   2.388  0.00  0.00     0.006 A 
ENDROOT
BRANCH   1   8
ATOM      8  C1  UNL d   1      -1.063   2.062   2.999  0.00  0.00     0.054 C 
ATOM      9  C   UNL d   1      -1.945   0.822   2.976  0.00  0.00     0.018 C 
ENDBRANCH   1   8
TORSDOF 1
ENDMDL
