MODEL 1
REMARK minimizedAffinity 13.4291134
REMARK minimizedRMSD -1
REMARK  1 active torsions:
REMARK  status: ('A' for Active; 'I' for Inactive)
REMARK    1  A    between atoms: C1_2  and  C2_3 
ROOT
ATOM      1  C2  UNL d   1       2.780   1.745   1.328  0.00  0.00    -0.081 A 
ATOM      2  C3  UNL d   1       2.450   1.915   2.678  0.00  0.00     0.006 A 
ATOM      3  C4  UNL d   1       1.123   2.120   3.063  0.00  0.00     0.002 A 
ATOM      4  C5  UNL d   1       0.103   2.150   2.106  0.00  0.00    -0.080 A 
ATOM      5  C6  UNL d   1      -1.329   2.339   2.509  0.00  0.00     0.076 C 
ATOM      6  C7  UNL d   1       0.434   1.997   0.756  0.00  0.00     0.002 A 
ATOM      7  C8  UNL d   1       1.761   1.793   0.370  0.00  0.00     0.006 A 
ENDROOT
BRANCH   1   8
ATOM      8  C1  UNL d   1       4.201   1.459   0.916  0.00  0.00     0.054 C 
ATOM      9  C   UNL d   1       4.349   1.461  -0.599  0.00  0.00     0.018 C 
ENDBRANCH   1   8
TORSDOF 1
ENDMDL
