MODEL 1
REMARK minimizedAffinity 12.9523926
REMARK minimizedRMSD -1
REMARK  1 active torsions:
REMARK  status: ('A' for Active; 'I' for Inactive)
REMARK    1  A    between atoms: C1_2  and  C2_3 
ROOT
ATOM      1  C2  UNL d   1       0.750   1.550   2.579  0.00  0.00    -0.081 A 
ATOM      2  C3  UNL d   1       0.306   1.465   1.253  0.00  0.00     0.006 A 
ATOM      3  C4  UNL d   1       1.222   1.464   0.199  0.00  0.00     0.002 A 
ATOM      4  C5  UNL d   1       2.596   1.539   0.452  0.00  0.00    -0.080 A 
ATOM      5  C6  UNL d   1       3.592   1.508  -0.670  0.00  0.00     0.076 C 
ATOM      6  C7  UNL d   1       3.039   1.641   1.775  0.00  0.00     0.002 A 
ATOM      7  C8  UNL d   1       2.123   1.643   2.830  0.00  0.00     0.006 A 
ENDROOT
BRANCH   1   8
ATOM      8  C1  UNL d   1      -0.232   1.486   3.721  0.00  0.00     0.054 C 
ATOM      9  C   UNL d   1      -1.668   1.514   3.218  0.00  0.00     0.018 C 
ENDBRANCH   1   8
TORSDOF 1
ENDMDL
