MODEL 1
REMARK minimizedAffinity -0.65168494
REMARK minimizedRMSD -1
REMARK  1 active torsions:
REMARK  status: ('A' for Active; 'I' for Inactive)
REMARK    1  A    between atoms: C1_2  and  C2_3 
ROOT
ATOM      1  C2  UNL d   1       3.391  -5.179  -2.620  0.00  0.00    -0.081 A 
ATOM      2  C3  UNL d   1       2.862  -5.745  -3.787  0.00  0.00     0.006 A 
ATOM      3  C4  UNL d   1       3.686  -5.999  -4.887  0.00  0.00     0.002 A 
ATOM      4  C5  UNL d   1       5.051  -5.699  -4.835  0.00  0.00    -0.080 A 
ATOM      5  C6  UNL d   1       5.952  -5.995  -5.997  0.00  0.00     0.076 C 
ATOM      6  C7  UNL d   1       5.576  -5.118  -3.676  0.00  0.00     0.002 A 
ATOM      7  C8  UNL d   1       4.753  -4.863  -2.576  0.00  0.00     0.006 A 
ENDROOT
BRANCH   1   8
ATOM      8  C1  UNL d   1       2.518  -4.964  -1.410  0.00  0.00     0.054 C 
ATOM      9  C   UNL d   1       1.098  -5.453  -1.657  0.00  0.00     0.018 C 
ENDBRANCH   1   8
TORSDOF 1
ENDMDL
