MODEL 1
REMARK minimizedAffinity 8.38132572
REMARK minimizedRMSD -1
REMARK  1 active torsions:
REMARK  status: ('A' for Active; 'I' for Inactive)
REMARK    1  A    between atoms: C1_2  and  C2_3 
ROOT
ATOM      1  C2  UNL d   1       1.444   1.515   0.680  0.00  0.00    -0.081 A 
ATOM      2  C3  UNL d   1       2.411   1.899   1.617  0.00  0.00     0.006 A 
ATOM      3  C4  UNL d   1       3.698   2.250   1.203  0.00  0.00     0.002 A 
ATOM      4  C5  UNL d   1       4.037   2.231  -0.154  0.00  0.00    -0.080 A 
ATOM      5  C6  UNL d   1       5.407   2.635  -0.614  0.00  0.00     0.076 C 
ATOM      6  C7  UNL d   1       3.076   1.832  -1.089  0.00  0.00     0.002 A 
ATOM      7  C8  UNL d   1       1.790   1.480  -0.676  0.00  0.00     0.006 A 
ENDROOT
BRANCH   1   8
ATOM      8  C1  UNL d   1       0.037   1.199   1.116  0.00  0.00     0.054 C 
ATOM      9  C   UNL d   1      -0.775   2.468   1.332  0.00  0.00     0.018 C 
ENDBRANCH   1   8
TORSDOF 1
ENDMDL
