MODEL 1
REMARK minimizedAffinity 15.5946102
REMARK minimizedRMSD -1
REMARK  1 active torsions:
REMARK  status: ('A' for Active; 'I' for Inactive)
REMARK    1  A    between atoms: C1_2  and  C2_3 
ROOT
ATOM      1  C2  UNL d   1       0.975   2.102   0.992  0.00  0.00    -0.081 A 
ATOM      2  C3  UNL d   1      -0.342   2.517   0.759  0.00  0.00     0.006 A 
ATOM      3  C4  UNL d   1      -1.159   2.911   1.821  0.00  0.00     0.002 A 
ATOM      4  C5  UNL d   1      -0.671   2.904   3.132  0.00  0.00    -0.080 A 
ATOM      5  C6  UNL d   1      -1.528   3.353   4.278  0.00  0.00     0.076 C 
ATOM      6  C7  UNL d   1       0.639   2.472   3.367  0.00  0.00     0.002 A 
ATOM      7  C8  UNL d   1       1.456   2.077   2.305  0.00  0.00     0.006 A 
ENDROOT
BRANCH   1   8
ATOM      8  C1  UNL d   1       1.878   1.738  -0.158  0.00  0.00     0.054 C 
ATOM      9  C   UNL d   1       3.338   2.004   0.180  0.00  0.00     0.018 C 
ENDBRANCH   1   8
TORSDOF 1
ENDMDL
