MODEL 1
REMARK minimizedAffinity 6.38637877
REMARK minimizedRMSD -1
REMARK  1 active torsions:
REMARK  status: ('A' for Active; 'I' for Inactive)
REMARK    1  A    between atoms: C1_2  and  C2_3 
ROOT
ATOM      1  C2  UNL d   1      -0.014  -4.880   2.969  0.00  0.00    -0.081 A 
ATOM      2  C3  UNL d   1      -0.734  -6.000   2.536  0.00  0.00     0.006 A 
ATOM      3  C4  UNL d   1      -1.387  -5.988   1.301  0.00  0.00     0.002 A 
ATOM      4  C5  UNL d   1      -1.324  -4.860   0.476  0.00  0.00    -0.080 A 
ATOM      5  C6  UNL d   1      -1.995  -4.845  -0.866  0.00  0.00     0.076 C 
ATOM      6  C7  UNL d   1      -0.619  -3.735   0.916  0.00  0.00     0.002 A 
ATOM      7  C8  UNL d   1       0.033  -3.746   2.151  0.00  0.00     0.006 A 
ENDROOT
BRANCH   1   8
ATOM      8  C1  UNL d   1       0.745  -4.914   4.271  0.00  0.00     0.054 C 
ATOM      9  C   UNL d   1       0.212  -6.000   5.194  0.00  0.00     0.018 C 
ENDBRANCH   1   8
TORSDOF 1
ENDMDL
