MODEL 1
REMARK minimizedAffinity 13.6003218
REMARK minimizedRMSD -1
REMARK  1 active torsions:
REMARK  status: ('A' for Active; 'I' for Inactive)
REMARK    1  A    between atoms: C1_2  and  C2_3 
ROOT
ATOM      1  C2  UNL d   1      -2.207  -3.560  -1.965  0.00  0.00    -0.081 A 
ATOM      2  C3  UNL d   1      -1.265  -3.672  -0.935  0.00  0.00     0.006 A 
ATOM      3  C4  UNL d   1      -1.581  -4.353   0.243  0.00  0.00     0.002 A 
ATOM      4  C5  UNL d   1      -2.840  -4.940   0.408  0.00  0.00    -0.080 A 
ATOM      5  C6  UNL d   1      -3.182  -5.700   1.655  0.00  0.00     0.076 C 
ATOM      6  C7  UNL d   1      -3.788  -4.813  -0.614  0.00  0.00     0.002 A 
ATOM      7  C8  UNL d   1      -3.472  -4.132  -1.792  0.00  0.00     0.006 A 
ENDROOT
BRANCH   1   8
ATOM      8  C1  UNL d   1      -1.847  -2.882  -3.262  0.00  0.00     0.054 C 
ATOM      9  C   UNL d   1      -1.847  -1.367  -3.114  0.00  0.00     0.018 C 
ENDBRANCH   1   8
TORSDOF 1
ENDMDL
