MODEL 1
REMARK minimizedAffinity 12.1949186
REMARK minimizedRMSD -1
REMARK  1 active torsions:
REMARK  status: ('A' for Active; 'I' for Inactive)
REMARK    1  A    between atoms: C1_2  and  C2_3 
ROOT
ATOM      1  C2  UNL d   1       0.558  -4.029   1.111  0.00  0.00    -0.081 A 
ATOM      2  C3  UNL d   1      -0.542  -3.987   1.977  0.00  0.00     0.006 A 
ATOM      3  C4  UNL d   1      -1.837  -3.863   1.469  0.00  0.00     0.002 A 
ATOM      4  C5  UNL d   1      -2.055  -3.787   0.090  0.00  0.00    -0.080 A 
ATOM      5  C6  UNL d   1      -3.443  -3.684  -0.469  0.00  0.00     0.076 C 
ATOM      6  C7  UNL d   1      -0.955  -3.812  -0.774  0.00  0.00     0.002 A 
ATOM      7  C8  UNL d   1       0.341  -3.936  -0.268  0.00  0.00     0.006 A 
ENDROOT
BRANCH   1   8
ATOM      8  C1  UNL d   1       1.951  -4.228   1.652  0.00  0.00     0.054 C 
ATOM      9  C   UNL d   1       2.977  -4.288   0.529  0.00  0.00     0.018 C 
ENDBRANCH   1   8
TORSDOF 1
ENDMDL
