MODEL 1
REMARK minimizedAffinity 6.22253275
REMARK minimizedRMSD -1
REMARK  1 active torsions:
REMARK  status: ('A' for Active; 'I' for Inactive)
REMARK    1  A    between atoms: C1_2  and  C2_3 
ROOT
ATOM      1  C2  UNL d   1       2.068   1.812  -0.491  0.00  0.00    -0.081 A 
ATOM      2  C3  UNL d   1       1.804   1.456  -1.819  0.00  0.00     0.006 A 
ATOM      3  C4  UNL d   1       2.033   0.151  -2.262  0.00  0.00     0.002 A 
ATOM      4  C5  UNL d   1       2.521  -0.821  -1.382  0.00  0.00    -0.080 A 
ATOM      5  C6  UNL d   1       2.742  -2.233  -1.836  0.00  0.00     0.076 C 
ATOM      6  C7  UNL d   1       2.801  -0.462  -0.060  0.00  0.00     0.002 A 
ATOM      7  C8  UNL d   1       2.574   0.843   0.383  0.00  0.00     0.006 A 
ENDROOT
BRANCH   1   8
ATOM      8  C1  UNL d   1       1.762   3.202   0.005  0.00  0.00     0.054 C 
ATOM      9  C   UNL d   1       0.288   3.354   0.349  0.00  0.00     0.018 C 
ENDBRANCH   1   8
TORSDOF 1
ENDMDL
