MODEL 1
REMARK minimizedAffinity 11.6134062
REMARK minimizedRMSD -1
REMARK  1 active torsions:
REMARK  status: ('A' for Active; 'I' for Inactive)
REMARK    1  A    between atoms: C1_2  and  C2_3 
ROOT
ATOM      1  C2  UNL d   1       0.089   3.050   0.051  0.00  0.00    -0.081 A 
ATOM      2  C3  UNL d   1       1.315   3.585  -0.364  0.00  0.00     0.006 A 
ATOM      3  C4  UNL d   1       2.508   3.163   0.228  0.00  0.00     0.002 A 
ATOM      4  C5  UNL d   1       2.496   2.195   1.238  0.00  0.00    -0.080 A 
ATOM      5  C6  UNL d   1       3.772   1.711   1.860  0.00  0.00     0.076 C 
ATOM      6  C7  UNL d   1       1.270   1.673   1.664  0.00  0.00     0.002 A 
ATOM      7  C8  UNL d   1       0.077   2.095   1.073  0.00  0.00     0.006 A 
ENDROOT
BRANCH   1   8
ATOM      8  C1  UNL d   1      -1.193   3.455  -0.630  0.00  0.00     0.054 C 
ATOM      9  C   UNL d   1      -1.011   3.557  -2.137  0.00  0.00     0.018 C 
ENDBRANCH   1   8
TORSDOF 1
ENDMDL
