MODEL 1
REMARK minimizedAffinity -3.25846052
REMARK minimizedRMSD -1
REMARK  0 active torsions:
REMARK  status: ('A' for Active; 'I' for Inactive)
ROOT
ATOM      1  C   UNL d   1      -2.034   0.733   0.862  0.00  0.00    -0.002 A 
ATOM      2  C1  UNL d   1      -1.148   0.446  -0.166  0.00  0.00     0.010 A 
ATOM      3  C2  UNL d   1       0.173   0.089   0.113  0.00  0.00     0.041 A 
ATOM      4  C3  UNL d   1       0.591   0.021   1.457  0.00  0.00    -0.075 A 
ATOM      5  S   UNL d   1       2.160  -0.395   2.038  0.00  0.00     0.015 SA
ATOM      6  C4  UNL d   1       1.690  -0.203   3.665  0.00  0.00     0.022 A 
ATOM      7  C5  UNL d   1       0.372   0.169   3.780  0.00  0.00     0.026 A 
ATOM      8  C6  UNL d   1      -0.284   0.305   2.510  0.00  0.00    -0.082 A 
ATOM      9  C7  UNL d   1      -1.616   0.665   2.194  0.00  0.00     0.045 A 
ENDROOT
TORSDOF 0
ENDMDL
