MODEL 1
REMARK minimizedAffinity -2.38295579
REMARK minimizedRMSD -1
REMARK  0 active torsions:
REMARK  status: ('A' for Active; 'I' for Inactive)
ROOT
ATOM      1  C   UNL d   1      -0.303   0.399   3.658  0.00  0.00    -0.002 A 
ATOM      2  C1  UNL d   1       0.965  -0.106   3.913  0.00  0.00     0.010 A 
ATOM      3  C2  UNL d   1       1.748  -0.617   2.875  0.00  0.00     0.041 A 
ATOM      4  C3  UNL d   1       1.231  -0.609   1.565  0.00  0.00    -0.075 A 
ATOM      5  S   UNL d   1       2.011  -1.182   0.137  0.00  0.00     0.015 SA
ATOM      6  C4  UNL d   1       0.681  -0.769  -0.845  0.00  0.00     0.022 A 
ATOM      7  C5  UNL d   1      -0.342  -0.207  -0.118  0.00  0.00     0.026 A 
ATOM      8  C6  UNL d   1      -0.041  -0.105   1.283  0.00  0.00    -0.082 A 
ATOM      9  C7  UNL d   1      -0.811   0.405   2.356  0.00  0.00     0.045 A 
ENDROOT
TORSDOF 0
ENDMDL
