MODEL 1
REMARK minimizedAffinity -2.86625314
REMARK minimizedRMSD -1
REMARK  0 active torsions:
REMARK  status: ('A' for Active; 'I' for Inactive)
ROOT
ATOM      1  C4' PXY d   1       0.826  -1.810  -2.093  0.00  0.00     0.077 C 
ATOM      2  C1' PXY d   1      -1.093   1.611   2.153  0.00  0.00     0.077 C 
ATOM      3  C1  PXY d   1      -0.578   0.718   1.041  0.00  0.00    -0.082 A 
ATOM      4  C2  PXY d   1      -1.403   0.319   0.087  0.00  0.00     0.003 A 
ATOM      5  C3  PXY d   1      -0.961  -0.514  -0.908  0.00  0.00     0.003 A 
ATOM      6  C4  PXY d   1       0.351  -0.901  -0.957  0.00  0.00    -0.082 A 
ATOM      7  C5  PXY d   1       1.202  -0.489   0.007  0.00  0.00     0.003 A 
ATOM      8  C6  PXY d   1       0.724   0.323   1.032  0.00  0.00     0.003 A 
ENDROOT
TORSDOF 0
ENDMDL
