MODEL 1
REMARK minimizedAffinity -5.25962973
REMARK minimizedRMSD -1
REMARK  0 active torsions:
REMARK  status: ('A' for Active; 'I' for Inactive)
ROOT
ATOM      1  C4' PXY d   1       1.102  -1.120  -0.485  0.00  0.00     0.077 C 
ATOM      2  C1' PXY d   1      -2.446   3.178   1.050  0.00  0.00     0.077 C 
ATOM      3  C1  PXY d   1      -1.516   2.046   0.660  0.00  0.00    -0.082 A 
ATOM      4  C2  PXY d   1      -0.720   2.185  -0.389  0.00  0.00     0.003 A 
ATOM      5  C3  PXY d   1       0.104   1.160  -0.774  0.00  0.00     0.003 A 
ATOM      6  C4  PXY d   1       0.153  -0.000  -0.049  0.00  0.00    -0.082 A 
ATOM      7  C5  PXY d   1      -0.648  -0.146   1.028  0.00  0.00     0.003 A 
ATOM      8  C6  PXY d   1      -1.507   0.892   1.379  0.00  0.00     0.003 A 
ENDROOT
TORSDOF 0
ENDMDL
