MODEL 1
REMARK minimizedAffinity -3.33065391
REMARK minimizedRMSD -1
REMARK  0 active torsions:
REMARK  status: ('A' for Active; 'I' for Inactive)
ROOT
ATOM      1  C4' PXY d   1       0.758  -1.492  -0.469  0.00  0.00     0.077 C 
ATOM      2  C1' PXY d   1      -2.814   2.709   1.263  0.00  0.00     0.077 C 
ATOM      3  C1  PXY d   1      -1.868   1.613   0.816  0.00  0.00    -0.082 A 
ATOM      4  C2  PXY d   1      -2.101   0.969  -0.316  0.00  0.00     0.003 A 
ATOM      5  C3  PXY d   1      -1.273  -0.047  -0.719  0.00  0.00     0.003 A 
ATOM      6  C4  PXY d   1      -0.165  -0.372   0.017  0.00  0.00    -0.082 A 
ATOM      7  C5  PXY d   1       0.086   0.288   1.167  0.00  0.00     0.003 A 
ATOM      8  C6  PXY d   1      -0.790   1.288   1.580  0.00  0.00     0.003 A 
ENDROOT
TORSDOF 0
ENDMDL
