MODEL 1
REMARK minimizedAffinity -2.80750537
REMARK minimizedRMSD -1
REMARK  0 active torsions:
REMARK  status: ('A' for Active; 'I' for Inactive)
ROOT
ATOM      1  C4' PXY d   1       1.181  -2.797  -1.630  0.00  0.00     0.077 C 
ATOM      2  C1' PXY d   1      -1.177   1.471   1.475  0.00  0.00     0.077 C 
ATOM      3  C1  PXY d   1      -0.550   0.360   0.655  0.00  0.00    -0.082 A 
ATOM      4  C2  PXY d   1      -1.258  -0.721   0.369  0.00  0.00     0.003 A 
ATOM      5  C3  PXY d   1      -0.696  -1.749  -0.344  0.00  0.00     0.003 A 
ATOM      6  C4  PXY d   1       0.586  -1.646  -0.814  0.00  0.00    -0.082 A 
ATOM      7  C5  PXY d   1       1.311  -0.542  -0.535  0.00  0.00     0.003 A 
ATOM      8  C6  PXY d   1       0.736   0.472   0.225  0.00  0.00     0.003 A 
ENDROOT
TORSDOF 0
ENDMDL
