MODEL 1
REMARK minimizedAffinity -3.59108925
REMARK minimizedRMSD -1
REMARK  0 active torsions:
REMARK  status: ('A' for Active; 'I' for Inactive)
ROOT
ATOM      1  C4' PXY d   1       0.683  -1.444  -0.839  0.00  0.00     0.077 C 
ATOM      2  C1' PXY d   1      -1.969   3.024   1.696  0.00  0.00     0.077 C 
ATOM      3  C1  PXY d   1      -1.274   1.846   1.043  0.00  0.00    -0.082 A 
ATOM      4  C2  PXY d   1      -0.528   2.041  -0.032  0.00  0.00     0.003 A 
ATOM      5  C3  PXY d   1       0.082   0.982  -0.655  0.00  0.00     0.003 A 
ATOM      6  C4  PXY d   1      -0.030  -0.282  -0.140  0.00  0.00    -0.082 A 
ATOM      7  C5  PXY d   1      -0.781  -0.488   0.963  0.00  0.00     0.003 A 
ATOM      8  C6  PXY d   1      -1.425   0.594   1.555  0.00  0.00     0.003 A 
ENDROOT
TORSDOF 0
ENDMDL
