MODEL 1
REMARK minimizedAffinity -5.00856304
REMARK minimizedRMSD -1
REMARK  0 active torsions:
REMARK  status: ('A' for Active; 'I' for Inactive)
ROOT
ATOM      1  C4' PXY d   1      -2.537   2.674   1.718  0.00  0.00     0.077 C 
ATOM      2  C1' PXY d   1       1.784   0.392  -1.370  0.00  0.00     0.077 C 
ATOM      3  C1  PXY d   1       0.655   1.003  -0.563  0.00  0.00    -0.082 A 
ATOM      4  C2  PXY d   1       0.095   0.303   0.410  0.00  0.00     0.003 A 
ATOM      5  C3  PXY d   1      -0.949   0.828   1.128  0.00  0.00     0.003 A 
ATOM      6  C4  PXY d   1      -1.387   2.101   0.884  0.00  0.00    -0.082 A 
ATOM      7  C5  PXY d   1      -0.813   2.826  -0.100  0.00  0.00     0.003 A 
ATOM      8  C6  PXY d   1       0.217   2.260  -0.845  0.00  0.00     0.003 A 
ENDROOT
TORSDOF 0
ENDMDL
