MODEL 1
REMARK minimizedAffinity -5.18346357
REMARK minimizedRMSD -1
REMARK  0 active torsions:
REMARK  status: ('A' for Active; 'I' for Inactive)
ROOT
ATOM      1  C4' PXY d   1      -0.791   3.768  -0.790  0.00  0.00     0.077 C 
ATOM      2  C1' PXY d   1      -0.581  -0.971   2.513  0.00  0.00     0.077 C 
ATOM      3  C1  PXY d   1      -0.647   0.275   1.653  0.00  0.00    -0.082 A 
ATOM      4  C2  PXY d   1      -0.082   0.275   0.457  0.00  0.00     0.003 A 
ATOM      5  C3  PXY d   1      -0.104   1.404  -0.321  0.00  0.00     0.003 A 
ATOM      6  C4  PXY d   1      -0.758   2.528   0.108  0.00  0.00    -0.082 A 
ATOM      7  C5  PXY d   1      -1.346   2.533   1.323  0.00  0.00     0.003 A 
ATOM      8  C6  PXY d   1      -1.277   1.390   2.115  0.00  0.00     0.003 A 
ENDROOT
TORSDOF 0
ENDMDL
