MODEL 1
REMARK minimizedAffinity -4.2598958
REMARK minimizedRMSD -1
REMARK  0 active torsions:
REMARK  status: ('A' for Active; 'I' for Inactive)
ROOT
ATOM      1  C4' PXY d   1      -1.246   3.042   2.075  0.00  0.00     0.077 C 
ATOM      2  C1' PXY d   1       1.025  -0.449  -1.933  0.00  0.00     0.077 C 
ATOM      3  C1  PXY d   1       0.436   0.476  -0.887  0.00  0.00    -0.082 A 
ATOM      4  C2  PXY d   1       0.023  -0.020   0.267  0.00  0.00     0.003 A 
ATOM      5  C3  PXY d   1      -0.542   0.798   1.212  0.00  0.00     0.003 A 
ATOM      6  C4  PXY d   1      -0.636   2.146   0.993  0.00  0.00    -0.082 A 
ATOM      7  C5  PXY d   1      -0.208   2.662  -0.178  0.00  0.00     0.003 A 
ATOM      8  C6  PXY d   1       0.325   1.809  -1.140  0.00  0.00     0.003 A 
ENDROOT
TORSDOF 0
ENDMDL
