MODEL 1
REMARK minimizedAffinity -3.21397877
REMARK minimizedRMSD -1
REMARK  0 active torsions:
REMARK  status: ('A' for Active; 'I' for Inactive)
ROOT
ATOM      1  C4' PXY d   1      -0.578   1.372   1.558  0.00  0.00     0.077 C 
ATOM      2  C1' PXY d   1       0.141  -2.046  -3.049  0.00  0.00     0.077 C 
ATOM      3  C1  PXY d   1      -0.037  -1.142  -1.844  0.00  0.00    -0.082 A 
ATOM      4  C2  PXY d   1      -0.654  -1.602  -0.768  0.00  0.00     0.003 A 
ATOM      5  C3  PXY d   1      -0.852  -0.788   0.318  0.00  0.00     0.003 A 
ATOM      6  C4  PXY d   1      -0.367   0.492   0.322  0.00  0.00    -0.082 A 
ATOM      7  C5  PXY d   1       0.273   0.965  -0.768  0.00  0.00     0.003 A 
ATOM      8  C6  PXY d   1       0.427   0.136  -1.876  0.00  0.00     0.003 A 
ENDROOT
TORSDOF 0
ENDMDL
