MODEL 1
REMARK minimizedAffinity -3.82655358
REMARK minimizedRMSD -1
REMARK  0 active torsions:
REMARK  status: ('A' for Active; 'I' for Inactive)
ROOT
ATOM      1  C4' PXY d   1       0.802  -1.277  -0.274  0.00  0.00     0.077 C 
ATOM      2  C1' PXY d   1      -2.390   3.327   1.152  0.00  0.00     0.077 C 
ATOM      3  C1  PXY d   1      -1.550   2.117   0.791  0.00  0.00    -0.082 A 
ATOM      4  C2  PXY d   1      -1.015   2.030  -0.416  0.00  0.00     0.003 A 
ATOM      5  C3  PXY d   1      -0.279   0.928  -0.770  0.00  0.00     0.003 A 
ATOM      6  C4  PXY d   1      -0.045  -0.070   0.138  0.00  0.00    -0.082 A 
ATOM      7  C5  PXY d   1      -0.579   0.017   1.374  0.00  0.00     0.003 A 
ATOM      8  C6  PXY d   1      -1.356   1.124   1.701  0.00  0.00     0.003 A 
ENDROOT
TORSDOF 0
ENDMDL
