MODEL 1
REMARK minimizedAffinity -4.85421944
REMARK minimizedRMSD -1
REMARK  0 active torsions:
REMARK  status: ('A' for Active; 'I' for Inactive)
ROOT
ATOM      1  C4' PXY d   1      -2.550   4.005   1.392  0.00  0.00     0.077 C 
ATOM      2  C1' PXY d   1       0.763  -0.313  -0.555  0.00  0.00     0.077 C 
ATOM      3  C1  PXY d   1      -0.098   0.828  -0.050  0.00  0.00    -0.082 A 
ATOM      4  C2  PXY d   1      -0.827   0.664   1.041  0.00  0.00     0.003 A 
ATOM      5  C3  PXY d   1      -1.636   1.675   1.493  0.00  0.00     0.003 A 
ATOM      6  C4  PXY d   1      -1.658   2.884   0.851  0.00  0.00    -0.082 A 
ATOM      7  C5  PXY d   1      -0.909   3.063  -0.257  0.00  0.00     0.003 A 
ATOM      8  C6  PXY d   1      -0.126   2.011  -0.723  0.00  0.00     0.003 A 
ENDROOT
TORSDOF 0
ENDMDL
