MODEL 1
REMARK minimizedAffinity -4.3998847
REMARK minimizedRMSD -1
REMARK  0 active torsions:
REMARK  status: ('A' for Active; 'I' for Inactive)
ROOT
ATOM      1  C4' PXY d   1      -2.307   2.772   1.279  0.00  0.00     0.077 C 
ATOM      2  C1' PXY d   1       1.946  -0.729  -0.474  0.00  0.00     0.077 C 
ATOM      3  C1  PXY d   1       0.834   0.198  -0.024  0.00  0.00    -0.082 A 
ATOM      4  C2  PXY d   1       0.364   0.104   1.210  0.00  0.00     0.003 A 
ATOM      5  C3  PXY d   1      -0.663   0.913   1.624  0.00  0.00     0.003 A 
ATOM      6  C4  PXY d   1      -1.179   1.863   0.783  0.00  0.00    -0.082 A 
ATOM      7  C5  PXY d   1      -0.697   1.972  -0.473  0.00  0.00     0.003 A 
ATOM      8  C6  PXY d   1       0.318   1.114  -0.887  0.00  0.00     0.003 A 
ENDROOT
TORSDOF 0
ENDMDL
