MODEL 1
REMARK minimizedAffinity -4.73088026
REMARK minimizedRMSD -1
REMARK  0 active torsions:
REMARK  status: ('A' for Active; 'I' for Inactive)
ROOT
ATOM      1  C4' PXY d   1      -1.044  -1.104   2.520  0.00  0.00     0.077 C 
ATOM      2  C1' PXY d   1       0.276   3.386  -0.874  0.00  0.00     0.077 C 
ATOM      3  C1  PXY d   1      -0.068   2.200   0.006  0.00  0.00    -0.082 A 
ATOM      4  C2  PXY d   1      -0.816   2.380   1.083  0.00  0.00     0.003 A 
ATOM      5  C3  PXY d   1      -1.110   1.324   1.907  0.00  0.00     0.003 A 
ATOM      6  C4  PXY d   1      -0.679   0.062   1.597  0.00  0.00    -0.082 A 
ATOM      7  C5  PXY d   1       0.076  -0.131   0.495  0.00  0.00     0.003 A 
ATOM      8  C6  PXY d   1       0.398   0.960  -0.306  0.00  0.00     0.003 A 
ENDROOT
TORSDOF 0
ENDMDL
