MODEL 1
REMARK minimizedAffinity -5.01088905
REMARK minimizedRMSD -1
REMARK  0 active torsions:
REMARK  status: ('A' for Active; 'I' for Inactive)
ROOT
ATOM      1  C4' PXY d   1       0.697  -4.413  -0.294  0.00  0.00     0.077 C 
ATOM      2  C1' PXY d   1      -0.076   1.292  -0.810  0.00  0.00     0.077 C 
ATOM      3  C1  PXY d   1       0.124  -0.205  -0.687  0.00  0.00    -0.082 A 
ATOM      4  C2  PXY d   1      -0.048  -0.795   0.485  0.00  0.00     0.003 A 
ATOM      5  C3  PXY d   1       0.160  -2.143   0.620  0.00  0.00     0.003 A 
ATOM      6  C4  PXY d   1       0.496  -2.905  -0.467  0.00  0.00    -0.082 A 
ATOM      7  C5  PXY d   1       0.663  -2.313  -1.668  0.00  0.00     0.003 A 
ATOM      8  C6  PXY d   1       0.487  -0.936  -1.776  0.00  0.00     0.003 A 
ENDROOT
TORSDOF 0
ENDMDL
