MODEL 1
REMARK minimizedAffinity -3.99625278
REMARK minimizedRMSD -1
REMARK  0 active torsions:
REMARK  status: ('A' for Active; 'I' for Inactive)
ROOT
ATOM      1  C4' PXY d   1      -2.260   2.608   1.249  0.00  0.00     0.077 C 
ATOM      2  C1' PXY d   1       1.052  -1.624  -0.881  0.00  0.00     0.077 C 
ATOM      3  C1  PXY d   1       0.193  -0.505  -0.324  0.00  0.00    -0.082 A 
ATOM      4  C2  PXY d   1      -0.833  -0.797   0.459  0.00  0.00     0.003 A 
ATOM      5  C3  PXY d   1      -1.639   0.200   0.945  0.00  0.00     0.003 A 
ATOM      6  C4  PXY d   1      -1.360   1.512   0.671  0.00  0.00    -0.082 A 
ATOM      7  C5  PXY d   1      -0.308   1.818  -0.117  0.00  0.00     0.003 A 
ATOM      8  C6  PXY d   1       0.473   0.789  -0.635  0.00  0.00     0.003 A 
ENDROOT
TORSDOF 0
ENDMDL
