MODEL 1
REMARK minimizedAffinity -5.00573826
REMARK minimizedRMSD -1
REMARK  0 active torsions:
REMARK  status: ('A' for Active; 'I' for Inactive)
ROOT
ATOM      1  C4' PXY d   1       1.015  -2.088  -0.125  0.00  0.00     0.077 C 
ATOM      2  C1' PXY d   1      -1.654   2.900   1.064  0.00  0.00     0.077 C 
ATOM      3  C1  PXY d   1      -0.957   1.594   0.739  0.00  0.00    -0.082 A 
ATOM      4  C2  PXY d   1      -0.850   0.660   1.671  0.00  0.00     0.003 A 
ATOM      5  C3  PXY d   1      -0.194  -0.514   1.404  0.00  0.00     0.003 A 
ATOM      6  C4  PXY d   1       0.311  -0.757   0.155  0.00  0.00    -0.082 A 
ATOM      7  C5  PXY d   1       0.196   0.186  -0.804  0.00  0.00     0.003 A 
ATOM      8  C6  PXY d   1      -0.437   1.388  -0.501  0.00  0.00     0.003 A 
ENDROOT
TORSDOF 0
ENDMDL
