MODEL 1
REMARK minimizedAffinity -4.0095706
REMARK minimizedRMSD -1
REMARK  0 active torsions:
REMARK  status: ('A' for Active; 'I' for Inactive)
ROOT
ATOM      1  C4' PXY d   1       1.218  -0.717  -0.506  0.00  0.00     0.077 C 
ATOM      2  C1' PXY d   1      -2.857   3.035   1.145  0.00  0.00     0.077 C 
ATOM      3  C1  PXY d   1      -1.785   2.049   0.724  0.00  0.00    -0.082 A 
ATOM      4  C2  PXY d   1      -1.263   2.129  -0.488  0.00  0.00     0.003 A 
ATOM      5  C3  PXY d   1      -0.315   1.225  -0.896  0.00  0.00     0.003 A 
ATOM      6  C4  PXY d   1       0.140   0.263  -0.036  0.00  0.00    -0.082 A 
ATOM      7  C5  PXY d   1      -0.381   0.181   1.207  0.00  0.00     0.003 A 
ATOM      8  C6  PXY d   1      -1.371   1.082   1.588  0.00  0.00     0.003 A 
ENDROOT
TORSDOF 0
ENDMDL
