MODEL 1
REMARK minimizedAffinity -4.3148036
REMARK minimizedRMSD -1
REMARK  0 active torsions:
REMARK  status: ('A' for Active; 'I' for Inactive)
ROOT
ATOM      1  C4' PXY d   1      -0.464  -0.853   1.902  0.00  0.00     0.077 C 
ATOM      2  C1' PXY d   1      -1.500   4.215  -0.677  0.00  0.00     0.077 C 
ATOM      3  C1  PXY d   1      -1.229   2.892   0.011  0.00  0.00    -0.082 A 
ATOM      4  C2  PXY d   1      -0.652   1.910  -0.664  0.00  0.00     0.003 A 
ATOM      5  C3  PXY d   1      -0.428   0.697  -0.066  0.00  0.00     0.003 A 
ATOM      6  C4  PXY d   1      -0.749   0.503   1.251  0.00  0.00    -0.082 A 
ATOM      7  C5  PXY d   1      -1.328   1.503   1.948  0.00  0.00     0.003 A 
ATOM      8  C6  PXY d   1      -1.585   2.714   1.312  0.00  0.00     0.003 A 
ENDROOT
TORSDOF 0
ENDMDL
