MODEL 1
REMARK minimizedAffinity -3.60378265
REMARK minimizedRMSD -1
REMARK  0 active torsions:
REMARK  status: ('A' for Active; 'I' for Inactive)
ROOT
ATOM      1  C4' PXY d   1      -1.338   2.670   0.958  0.00  0.00     0.077 C 
ATOM      2  C1' PXY d   1       1.079  -2.094  -1.250  0.00  0.00     0.077 C 
ATOM      3  C1  PXY d   1       0.453  -0.837  -0.679  0.00  0.00    -0.082 A 
ATOM      4  C2  PXY d   1      -0.092  -0.868   0.527  0.00  0.00     0.003 A 
ATOM      5  C3  PXY d   1      -0.692   0.251   1.046  0.00  0.00     0.003 A 
ATOM      6  C4  PXY d   1      -0.686   1.428   0.345  0.00  0.00    -0.082 A 
ATOM      7  C5  PXY d   1      -0.123   1.470  -0.881  0.00  0.00     0.003 A 
ATOM      8  C6  PXY d   1       0.444   0.313  -1.407  0.00  0.00     0.003 A 
ENDROOT
TORSDOF 0
ENDMDL
