MODEL 1
REMARK minimizedAffinity -2.34407449
REMARK minimizedRMSD -1
REMARK  0 active torsions:
REMARK  status: ('A' for Active; 'I' for Inactive)
ROOT
ATOM      1  C4' PXY d   1       0.315   2.635  -0.894  0.00  0.00     0.077 C 
ATOM      2  C1' PXY d   1      -0.883  -1.609   2.842  0.00  0.00     0.077 C 
ATOM      3  C1  PXY d   1      -0.580  -0.490   1.865  0.00  0.00    -0.082 A 
ATOM      4  C2  PXY d   1       0.244  -0.711   0.854  0.00  0.00     0.003 A 
ATOM      5  C3  PXY d   1       0.554   0.299  -0.021  0.00  0.00     0.003 A 
ATOM      6  C4  PXY d   1      -0.027   1.532   0.111  0.00  0.00    -0.082 A 
ATOM      7  C5  PXY d   1      -0.877   1.761   1.134  0.00  0.00     0.003 A 
ATOM      8  C6  PXY d   1      -1.147   0.735   2.035  0.00  0.00     0.003 A 
ENDROOT
TORSDOF 0
ENDMDL
