MODEL 1
REMARK minimizedAffinity -1.69681287
REMARK minimizedRMSD -1
REMARK  1 active torsions:
REMARK  status: ('A' for Active; 'I' for Inactive)
REMARK    1  A    between atoms: C1_2  and  C2_3 
ROOT
ATOM      1  C2  UNL d   1       3.091   2.521  -3.899  0.00  0.00    -0.077 A 
ATOM      2  C3  UNL d   1       4.225   1.696  -3.934  0.00  0.00     0.002 A 
ATOM      3  C4  UNL d   1       5.487   2.217  -3.641  0.00  0.00     0.002 A 
ATOM      4  C5  UNL d   1       5.626   3.563  -3.307  0.00  0.00    -0.004 A 
ATOM      5  C6  UNL d   1       4.505   4.392  -3.272  0.00  0.00     0.002 A 
ATOM      6  C7  UNL d   1       3.244   3.873  -3.566  0.00  0.00     0.002 A 
ENDROOT
BRANCH   1   7
ATOM      7  C1  UNL d   1       1.723   1.950  -4.167  0.00  0.00     0.055 C 
ATOM      8  C   UNL d   1       1.088   1.415  -2.892  0.00  0.00     0.019 C 
ENDBRANCH   1   7
TORSDOF 1
ENDMDL
