MODEL 1
REMARK minimizedAffinity 7.42344809
REMARK minimizedRMSD -1
REMARK  1 active torsions:
REMARK  status: ('A' for Active; 'I' for Inactive)
REMARK    1  A    between atoms: C1_2  and  C2_3 
ROOT
ATOM      1  C2  UNL d   1      -4.323  -4.845  -1.121  0.00  0.00    -0.077 A 
ATOM      2  C3  UNL d   1      -3.068  -5.377  -0.793  0.00  0.00     0.002 A 
ATOM      3  C4  UNL d   1      -1.946  -4.549  -0.725  0.00  0.00     0.002 A 
ATOM      4  C5  UNL d   1      -2.068  -3.185  -0.980  0.00  0.00    -0.004 A 
ATOM      5  C6  UNL d   1      -3.311  -2.646  -1.309  0.00  0.00     0.002 A 
ATOM      6  C7  UNL d   1      -4.434  -3.472  -1.379  0.00  0.00     0.002 A 
ENDROOT
BRANCH   1   7
ATOM      7  C1  UNL d   1      -5.543  -5.727  -1.147  0.00  0.00     0.055 C 
ATOM      8  C   UNL d   1      -6.000  -6.000  -2.573  0.00  0.00     0.019 C 
ENDBRANCH   1   7
TORSDOF 1
ENDMDL
