MODEL 1
REMARK minimizedAffinity 3.55389237
REMARK minimizedRMSD -1
REMARK  1 active torsions:
REMARK  status: ('A' for Active; 'I' for Inactive)
REMARK    1  A    between atoms: C1_2  and  C2_3 
ROOT
ATOM      1  C2  UNL d   1       1.355   2.082   0.117  0.00  0.00    -0.077 A 
ATOM      2  C3  UNL d   1       0.072   1.891   0.650  0.00  0.00     0.002 A 
ATOM      3  C4  UNL d   1      -0.854   1.082  -0.010  0.00  0.00     0.002 A 
ATOM      4  C5  UNL d   1      -0.507   0.455  -1.205  0.00  0.00    -0.004 A 
ATOM      5  C6  UNL d   1       0.765   0.640  -1.745  0.00  0.00     0.002 A 
ATOM      6  C7  UNL d   1       1.692   1.450  -1.087  0.00  0.00     0.002 A 
ENDROOT
BRANCH   1   7
ATOM      7  C1  UNL d   1       2.371   2.915   0.853  0.00  0.00     0.055 C 
ATOM      8  C   UNL d   1       3.080   2.102   1.927  0.00  0.00     0.019 C 
ENDBRANCH   1   7
TORSDOF 1
ENDMDL
