MODEL 1
REMARK minimizedAffinity -1.01193333
REMARK minimizedRMSD -1
REMARK  1 active torsions:
REMARK  status: ('A' for Active; 'I' for Inactive)
REMARK    1  A    between atoms: C1_2  and  C2_3 
ROOT
ATOM      1  C2  UNL d   1       1.019  -0.045  -2.495  0.00  0.00    -0.077 A 
ATOM      2  C3  UNL d   1       1.589  -1.325  -2.455  0.00  0.00     0.002 A 
ATOM      3  C4  UNL d   1       1.310  -2.189  -1.394  0.00  0.00     0.002 A 
ATOM      4  C5  UNL d   1       0.459  -1.785  -0.369  0.00  0.00    -0.004 A 
ATOM      5  C6  UNL d   1      -0.111  -0.512  -0.398  0.00  0.00     0.002 A 
ATOM      6  C7  UNL d   1       0.167   0.353  -1.456  0.00  0.00     0.002 A 
ENDROOT
BRANCH   1   7
ATOM      7  C1  UNL d   1       1.279   0.871  -3.663  0.00  0.00     0.055 C 
ATOM      8  C   UNL d   1       1.003   0.172  -4.986  0.00  0.00     0.019 C 
ENDBRANCH   1   7
TORSDOF 1
ENDMDL
