MODEL 1
REMARK minimizedAffinity -0.464095801
REMARK minimizedRMSD -1
REMARK  1 active torsions:
REMARK  status: ('A' for Active; 'I' for Inactive)
REMARK    1  A    between atoms: C1_2  and  C2_3 
ROOT
ATOM      1  C2  UNL d   1       1.451  -0.776  -2.623  0.00  0.00    -0.077 A 
ATOM      2  C3  UNL d   1       1.769  -2.030  -2.083  0.00  0.00     0.002 A 
ATOM      3  C4  UNL d   1       1.248  -2.420  -0.848  0.00  0.00     0.002 A 
ATOM      4  C5  UNL d   1       0.403  -1.564  -0.145  0.00  0.00    -0.004 A 
ATOM      5  C6  UNL d   1       0.082  -0.314  -0.672  0.00  0.00     0.002 A 
ATOM      6  C7  UNL d   1       0.603   0.078  -1.907  0.00  0.00     0.002 A 
ENDROOT
BRANCH   1   7
ATOM      7  C1  UNL d   1       1.972  -0.373  -3.978  0.00  0.00     0.055 C 
ATOM      8  C   UNL d   1       1.307   0.904  -4.470  0.00  0.00     0.019 C 
ENDBRANCH   1   7
TORSDOF 1
ENDMDL
