MODEL 1
REMARK minimizedAffinity -3.68601012
REMARK minimizedRMSD -1
REMARK  1 active torsions:
REMARK  status: ('A' for Active; 'I' for Inactive)
REMARK    1  A    between atoms: C1_2  and  C2_3 
ROOT
ATOM      1  C2  UNL d   1       0.133  -0.447  -0.309  0.00  0.00    -0.077 A 
ATOM      2  C3  UNL d   1       0.033   0.234  -1.530  0.00  0.00     0.002 A 
ATOM      3  C4  UNL d   1       0.039   1.630  -1.563  0.00  0.00     0.002 A 
ATOM      4  C5  UNL d   1       0.149   2.356  -0.379  0.00  0.00    -0.004 A 
ATOM      5  C6  UNL d   1       0.246   1.688   0.841  0.00  0.00     0.002 A 
ATOM      6  C7  UNL d   1       0.239   0.293   0.876  0.00  0.00     0.002 A 
ENDROOT
BRANCH   1   7
ATOM      7  C1  UNL d   1       0.176  -1.952  -0.275  0.00  0.00     0.055 C 
ATOM      8  C   UNL d   1       1.275  -2.494  -1.177  0.00  0.00     0.019 C 
ENDBRANCH   1   7
TORSDOF 1
ENDMDL
