MODEL 1
REMARK minimizedAffinity -3.97592711
REMARK minimizedRMSD -1
REMARK  1 active torsions:
REMARK  status: ('A' for Active; 'I' for Inactive)
REMARK    1  A    between atoms: C1_2  and  C2_3 
ROOT
ATOM      1  C2  UNL d   1       5.292   1.273   3.985  0.00  0.00    -0.077 A 
ATOM      2  C3  UNL d   1       5.264   1.168   5.383  0.00  0.00     0.002 A 
ATOM      3  C4  UNL d   1       5.383  -0.079   6.000  0.00  0.00     0.002 A 
ATOM      4  C5  UNL d   1       5.534  -1.228   5.228  0.00  0.00    -0.004 A 
ATOM      5  C6  UNL d   1       5.561  -1.134   3.837  0.00  0.00     0.002 A 
ATOM      6  C7  UNL d   1       5.441   0.111   3.218  0.00  0.00     0.002 A 
ENDROOT
BRANCH   1   7
ATOM      7  C1  UNL d   1       5.214   2.622   3.319  0.00  0.00     0.055 C 
ATOM      8  C   UNL d   1       5.999   3.669   4.095  0.00  0.00     0.019 C 
ENDBRANCH   1   7
TORSDOF 1
ENDMDL
