MODEL 1
REMARK minimizedAffinity -3.54995608
REMARK minimizedRMSD -1
REMARK  1 active torsions:
REMARK  status: ('A' for Active; 'I' for Inactive)
REMARK    1  A    between atoms: C1_2  and  C2_3 
ROOT
ATOM      1  C2  UNL d   1      -0.175   0.395  -1.344  0.00  0.00    -0.077 A 
ATOM      2  C3  UNL d   1      -0.875  -0.289  -0.342  0.00  0.00     0.002 A 
ATOM      3  C4  UNL d   1      -0.464  -1.560   0.066  0.00  0.00     0.002 A 
ATOM      4  C5  UNL d   1       0.652  -2.154  -0.520  0.00  0.00    -0.004 A 
ATOM      5  C6  UNL d   1       1.354  -1.482  -1.520  0.00  0.00     0.002 A 
ATOM      6  C7  UNL d   1       0.943  -0.213  -1.929  0.00  0.00     0.002 A 
ENDROOT
BRANCH   1   7
ATOM      7  C1  UNL d   1      -0.587   1.786  -1.751  0.00  0.00     0.055 C 
ATOM      8  C   UNL d   1       0.068   2.838  -0.868  0.00  0.00     0.019 C 
ENDBRANCH   1   7
TORSDOF 1
ENDMDL
