MODEL 1
REMARK minimizedAffinity -3.76148367
REMARK minimizedRMSD -1
REMARK  1 active torsions:
REMARK  status: ('A' for Active; 'I' for Inactive)
REMARK    1  A    between atoms: C1_2  and  C2_3 
ROOT
ATOM      1  C2  UNL d   1       1.452  -0.323  -3.012  0.00  0.00    -0.077 A 
ATOM      2  C3  UNL d   1       0.269  -0.109  -2.292  0.00  0.00     0.002 A 
ATOM      3  C4  UNL d   1       0.139  -0.588  -0.987  0.00  0.00     0.002 A 
ATOM      4  C5  UNL d   1       1.191  -1.280  -0.389  0.00  0.00    -0.004 A 
ATOM      5  C6  UNL d   1       2.371  -1.499  -1.097  0.00  0.00     0.002 A 
ATOM      6  C7  UNL d   1       2.502  -1.022  -2.402  0.00  0.00     0.002 A 
ENDROOT
BRANCH   1   7
ATOM      7  C1  UNL d   1       1.612   0.235  -4.402  0.00  0.00     0.055 C 
ATOM      8  C   UNL d   1       2.908   1.022  -4.536  0.00  0.00     0.019 C 
ENDBRANCH   1   7
TORSDOF 1
ENDMDL
