MODEL 1
REMARK minimizedAffinity 7.30426979
REMARK minimizedRMSD -1
REMARK  2 active torsions:
REMARK  status: ('A' for Active; 'I' for Inactive)
REMARK    1  A    between atoms: C2'_3  and  C1'_4 
REMARK    2  A    between atoms: C1'_4  and  C1_5 
ROOT
ATOM      1  C1  I4B d   1      -4.083   0.405  -2.783  0.00  0.00    -0.075 A 
ATOM      2  C2  I4B d   1      -5.080   0.251  -3.714  0.00  0.00     0.003 A 
ATOM      3  C3  I4B d   1      -5.510  -1.044  -4.090  0.00  0.00     0.002 A 
ATOM      4  C4  I4B d   1      -4.885  -2.151  -3.552  0.00  0.00    -0.004 A 
ATOM      5  C5  I4B d   1      -3.891  -1.993  -2.592  0.00  0.00     0.002 A 
ATOM      6  C6  I4B d   1      -3.495  -0.708  -2.195  0.00  0.00     0.003 A 
ENDROOT
BRANCH   1   7
ATOM      7  C1' I4B d   1      -3.631   1.787  -2.432  0.00  0.00     0.060 C 
BRANCH   7   8
ATOM      8  C2' I4B d   1      -3.679   2.627  -3.692  0.00  0.00    -0.013 C 
ATOM      9  C4' I4B d   1      -4.036   4.057  -3.380  0.00  0.00     0.013 C 
ATOM     10  C3' I4B d   1      -2.340   2.537  -4.361  0.00  0.00     0.013 C 
ENDBRANCH   7   8
ENDBRANCH   1   7
TORSDOF 2
ENDMDL
