MODEL 1
REMARK minimizedAffinity 12.3312073
REMARK minimizedRMSD -1
REMARK  2 active torsions:
REMARK  status: ('A' for Active; 'I' for Inactive)
REMARK    1  A    between atoms: C2'_3  and  C1'_4 
REMARK    2  A    between atoms: C1'_4  and  C1_5 
ROOT
ATOM      1  C1  I4B d   1       3.044  -2.040   3.166  0.00  0.00    -0.075 A 
ATOM      2  C2  I4B d   1       4.042  -2.531   2.362  0.00  0.00     0.003 A 
ATOM      3  C3  I4B d   1       3.760  -2.914   1.029  0.00  0.00     0.002 A 
ATOM      4  C4  I4B d   1       2.465  -2.837   0.559  0.00  0.00    -0.004 A 
ATOM      5  C5  I4B d   1       1.458  -2.317   1.368  0.00  0.00     0.002 A 
ATOM      6  C6  I4B d   1       1.752  -1.904   2.676  0.00  0.00     0.003 A 
ENDROOT
BRANCH   1   7
ATOM      7  C1' I4B d   1       3.371  -1.676   4.580  0.00  0.00     0.060 C 
BRANCH   7   8
ATOM      8  C2' I4B d   1       4.569  -2.499   5.009  0.00  0.00    -0.013 C 
ATOM      9  C4' I4B d   1       5.645  -1.628   5.601  0.00  0.00     0.013 C 
ATOM     10  C3' I4B d   1       4.097  -3.523   5.997  0.00  0.00     0.013 C 
ENDBRANCH   7   8
ENDBRANCH   1   7
TORSDOF 2
ENDMDL
