MODEL 1
REMARK minimizedAffinity 9.73371315
REMARK minimizedRMSD -1
REMARK  2 active torsions:
REMARK  status: ('A' for Active; 'I' for Inactive)
REMARK    1  A    between atoms: C2'_3  and  C1'_4 
REMARK    2  A    between atoms: C1'_4  and  C1_5 
ROOT
ATOM      1  C1  I4B d   1       3.649  -2.841   2.730  0.00  0.00    -0.075 A 
ATOM      2  C2  I4B d   1       2.751  -1.956   3.275  0.00  0.00     0.003 A 
ATOM      3  C3  I4B d   1       1.635  -1.519   2.523  0.00  0.00     0.002 A 
ATOM      4  C4  I4B d   1       1.482  -1.949   1.220  0.00  0.00    -0.004 A 
ATOM      5  C5  I4B d   1       2.380  -2.864   0.677  0.00  0.00     0.002 A 
ATOM      6  C6  I4B d   1       3.463  -3.322   1.441  0.00  0.00     0.003 A 
ENDROOT
BRANCH   1   7
ATOM      7  C1' I4B d   1       4.835  -3.256   3.541  0.00  0.00     0.060 C 
BRANCH   7   8
ATOM      8  C2' I4B d   1       4.713  -2.615   4.909  0.00  0.00    -0.013 C 
ATOM      9  C4' I4B d   1       4.719  -3.654   6.000  0.00  0.00     0.013 C 
ATOM     10  C3' I4B d   1       5.850  -1.652   5.072  0.00  0.00     0.013 C 
ENDBRANCH   7   8
ENDBRANCH   1   7
TORSDOF 2
ENDMDL
