MODEL 1
REMARK minimizedAffinity 1.86087954
REMARK minimizedRMSD -1
REMARK  2 active torsions:
REMARK  status: ('A' for Active; 'I' for Inactive)
REMARK    1  A    between atoms: C2'_3  and  C1'_4 
REMARK    2  A    between atoms: C1'_4  and  C1_5 
ROOT
ATOM      1  C1  I4B d   1       3.334  -3.092   2.686  0.00  0.00    -0.075 A 
ATOM      2  C2  I4B d   1       2.450  -2.197   3.235  0.00  0.00     0.003 A 
ATOM      3  C3  I4B d   1       1.426  -1.627   2.441  0.00  0.00     0.002 A 
ATOM      4  C4  I4B d   1       1.354  -1.939   1.099  0.00  0.00    -0.004 A 
ATOM      5  C5  I4B d   1       2.236  -2.864   0.548  0.00  0.00     0.002 A 
ATOM      6  C6  I4B d   1       3.225  -3.454   1.349  0.00  0.00     0.003 A 
ENDROOT
BRANCH   1   7
ATOM      7  C1' I4B d   1       4.424  -3.649   3.545  0.00  0.00     0.060 C 
BRANCH   7   8
ATOM      8  C2' I4B d   1       4.696  -2.656   4.656  0.00  0.00    -0.013 C 
ATOM      9  C4' I4B d   1       4.730  -3.336   6.000  0.00  0.00     0.013 C 
ATOM     10  C3' I4B d   1       5.999  -1.976   4.360  0.00  0.00     0.013 C 
ENDBRANCH   7   8
ENDBRANCH   1   7
TORSDOF 2
ENDMDL
