MODEL 1
REMARK minimizedAffinity 23.0743866
REMARK minimizedRMSD -1
REMARK  2 active torsions:
REMARK  status: ('A' for Active; 'I' for Inactive)
REMARK    1  A    between atoms: C2'_3  and  C1'_4 
REMARK    2  A    between atoms: C1'_4  and  C1_5 
ROOT
ATOM      1  C1  I4B d   1      -4.052  -0.574  -2.342  0.00  0.00    -0.075 A 
ATOM      2  C2  I4B d   1      -4.909   0.324  -2.927  0.00  0.00     0.003 A 
ATOM      3  C3  I4B d   1      -5.896  -0.123  -3.839  0.00  0.00     0.002 A 
ATOM      4  C4  I4B d   1      -5.957  -1.461  -4.173  0.00  0.00    -0.004 A 
ATOM      5  C5  I4B d   1      -5.102  -2.373  -3.561  0.00  0.00     0.002 A 
ATOM      6  C6  I4B d   1      -4.152  -1.929  -2.630  0.00  0.00     0.003 A 
ENDROOT
BRANCH   1   7
ATOM      7  C1' I4B d   1      -3.000  -0.064  -1.409  0.00  0.00     0.060 C 
BRANCH   7   8
ATOM      8  C2' I4B d   1      -2.401  -1.253  -0.685  0.00  0.00    -0.013 C 
ATOM      9  C4' I4B d   1      -0.935  -1.043  -0.412  0.00  0.00     0.013 C 
ATOM     10  C3' I4B d   1      -3.167  -1.454   0.589  0.00  0.00     0.013 C 
ENDBRANCH   7   8
ENDBRANCH   1   7
TORSDOF 2
ENDMDL
