MODEL 1
REMARK minimizedAffinity 3.30923009
REMARK minimizedRMSD -1
REMARK  2 active torsions:
REMARK  status: ('A' for Active; 'I' for Inactive)
REMARK    1  A    between atoms: C2'_3  and  C1'_4 
REMARK    2  A    between atoms: C1'_4  and  C1_5 
ROOT
ATOM      1  C1  I4B d   1       2.989   4.497  -5.924  0.00  0.00    -0.075 A 
ATOM      2  C2  I4B d   1       3.798   3.389  -5.956  0.00  0.00     0.003 A 
ATOM      3  C3  I4B d   1       5.206   3.534  -5.969  0.00  0.00     0.002 A 
ATOM      4  C4  I4B d   1       5.759   4.798  -6.000  0.00  0.00    -0.004 A 
ATOM      5  C5  I4B d   1       4.938   5.921  -5.944  0.00  0.00     0.002 A 
ATOM      6  C6  I4B d   1       3.545   5.770  -5.893  0.00  0.00     0.003 A 
ENDROOT
BRANCH   1   7
ATOM      7  C1' I4B d   1       1.505   4.308  -5.944  0.00  0.00     0.060 C 
BRANCH   7   8
ATOM      8  C2' I4B d   1       1.182   3.069  -5.134  0.00  0.00    -0.013 C 
ATOM      9  C4' I4B d   1       0.455   3.424  -3.863  0.00  0.00     0.013 C 
ATOM     10  C3' I4B d   1       0.359   2.156  -5.992  0.00  0.00     0.013 C 
ENDBRANCH   7   8
ENDBRANCH   1   7
TORSDOF 2
ENDMDL
