MODEL 1
REMARK minimizedAffinity 8.52585506
REMARK minimizedRMSD -1
REMARK  2 active torsions:
REMARK  status: ('A' for Active; 'I' for Inactive)
REMARK    1  A    between atoms: C2'_3  and  C1'_4 
REMARK    2  A    between atoms: C1'_4  and  C1_5 
ROOT
ATOM      1  C1  I4B d   1       2.982  -2.883   2.863  0.00  0.00    -0.075 A 
ATOM      2  C2  I4B d   1       3.455  -4.092   2.416  0.00  0.00     0.003 A 
ATOM      3  C3  I4B d   1       3.164  -4.529   1.101  0.00  0.00     0.002 A 
ATOM      4  C4  I4B d   1       2.360  -3.754   0.289  0.00  0.00    -0.004 A 
ATOM      5  C5  I4B d   1       1.900  -2.518   0.736  0.00  0.00     0.002 A 
ATOM      6  C6  I4B d   1       2.223  -2.074   2.027  0.00  0.00     0.003 A 
ENDROOT
BRANCH   1   7
ATOM      7  C1' I4B d   1       3.281  -2.468   4.268  0.00  0.00     0.060 C 
BRANCH   7   8
ATOM      8  C2' I4B d   1       4.550  -3.172   4.703  0.00  0.00    -0.013 C 
ATOM      9  C4' I4B d   1       5.669  -2.189   4.927  0.00  0.00     0.013 C 
ATOM     10  C3' I4B d   1       4.247  -3.941   5.954  0.00  0.00     0.013 C 
ENDBRANCH   7   8
ENDBRANCH   1   7
TORSDOF 2
ENDMDL
