MODEL 1
REMARK minimizedAffinity 6.89726114
REMARK minimizedRMSD -1
REMARK  2 active torsions:
REMARK  status: ('A' for Active; 'I' for Inactive)
REMARK    1  A    between atoms: C2'_3  and  C1'_4 
REMARK    2  A    between atoms: C1'_4  and  C1_5 
ROOT
ATOM      1  C1  I4B d   1       3.078  -2.978   1.392  0.00  0.00    -0.075 A 
ATOM      2  C2  I4B d   1       3.337  -3.485   2.640  0.00  0.00     0.003 A 
ATOM      3  C3  I4B d   1       4.649  -3.893   2.986  0.00  0.00     0.002 A 
ATOM      4  C4  I4B d   1       5.653  -3.824   2.042  0.00  0.00    -0.004 A 
ATOM      5  C5  I4B d   1       5.393  -3.288   0.784  0.00  0.00     0.002 A 
ATOM      6  C6  I4B d   1       4.100  -2.851   0.460  0.00  0.00     0.003 A 
ENDROOT
BRANCH   1   7
ATOM      7  C1' I4B d   1       1.675  -2.588   1.050  0.00  0.00     0.060 C 
BRANCH   7   8
ATOM      8  C2' I4B d   1       1.026  -2.034   2.302  0.00  0.00    -0.013 C 
ATOM      9  C4' I4B d   1       1.173  -0.537   2.376  0.00  0.00     0.013 C 
ATOM     10  C3' I4B d   1      -0.419  -2.437   2.291  0.00  0.00     0.013 C 
ENDBRANCH   7   8
ENDBRANCH   1   7
TORSDOF 2
ENDMDL
