MODEL 1
REMARK minimizedAffinity 8.20970821
REMARK minimizedRMSD -1
REMARK  0 active torsions:
REMARK  status: ('A' for Active; 'I' for Inactive)
ROOT
ATOM      1  C4' PXY d   1       0.759   2.675   0.549  0.00  0.00     0.077 C 
ATOM      2  C1' PXY d   1       1.124  -2.800  -1.270  0.00  0.00     0.077 C 
ATOM      3  C1  PXY d   1       1.017  -1.363  -0.799  0.00  0.00    -0.082 A 
ATOM      4  C2  PXY d   1       2.117  -0.676  -0.537  0.00  0.00     0.003 A 
ATOM      5  C3  PXY d   1       2.037   0.614  -0.079  0.00  0.00     0.003 A 
ATOM      6  C4  PXY d   1       0.820   1.224   0.062  0.00  0.00    -0.082 A 
ATOM      7  C5  PXY d   1      -0.307   0.534  -0.213  0.00  0.00     0.003 A 
ATOM      8  C6  PXY d   1      -0.206  -0.788  -0.638  0.00  0.00     0.003 A 
ENDROOT
TORSDOF 0
ENDMDL
