MODEL 1
REMARK minimizedAffinity 5.89471817
REMARK minimizedRMSD -1
REMARK  0 active torsions:
REMARK  status: ('A' for Active; 'I' for Inactive)
ROOT
ATOM      1  C4' PXY d   1      -5.789  -1.557  -3.141  0.00  0.00     0.077 C 
ATOM      2  C1' PXY d   1      -3.717   0.777   1.724  0.00  0.00     0.077 C 
ATOM      3  C1  PXY d   1      -4.266   0.156   0.455  0.00  0.00    -0.082 A 
ATOM      4  C2  PXY d   1      -3.688   0.420  -0.705  0.00  0.00     0.003 A 
ATOM      5  C3  PXY d   1      -4.190  -0.109  -1.867  0.00  0.00     0.003 A 
ATOM      6  C4  PXY d   1      -5.263  -0.958  -1.833  0.00  0.00    -0.082 A 
ATOM      7  C5  PXY d   1      -5.852  -1.241  -0.652  0.00  0.00     0.003 A 
ATOM      8  C6  PXY d   1      -5.352  -0.662   0.511  0.00  0.00     0.003 A 
ENDROOT
TORSDOF 0
ENDMDL
