MODEL 1
REMARK minimizedAffinity 0.739812016
REMARK minimizedRMSD -1
REMARK  0 active torsions:
REMARK  status: ('A' for Active; 'I' for Inactive)
ROOT
ATOM      1  C4' PXY d   1       4.824   1.061  -0.719  0.00  0.00     0.077 C 
ATOM      2  C1' PXY d   1       0.546  -2.820  -0.484  0.00  0.00     0.077 C 
ATOM      3  C1  PXY d   1       1.677  -1.812  -0.544  0.00  0.00    -0.082 A 
ATOM      4  C2  PXY d   1       1.437  -0.543  -0.257  0.00  0.00     0.003 A 
ATOM      5  C3  PXY d   1       2.441   0.388  -0.337  0.00  0.00     0.003 A 
ATOM      6  C4  PXY d   1       3.715   0.007  -0.663  0.00  0.00    -0.082 A 
ATOM      7  C5  PXY d   1       3.970  -1.288  -0.946  0.00  0.00     0.003 A 
ATOM      8  C6  PXY d   1       2.928  -2.211  -0.899  0.00  0.00     0.003 A 
ENDROOT
TORSDOF 0
ENDMDL
