MODEL 1
REMARK minimizedAffinity 7.61890078
REMARK minimizedRMSD -1
REMARK  0 active torsions:
REMARK  status: ('A' for Active; 'I' for Inactive)
ROOT
ATOM      1  C4' PXY d   1      -1.946  -0.722  -2.284  0.00  0.00     0.077 C 
ATOM      2  C1' PXY d   1       1.636  -0.906   2.249  0.00  0.00     0.077 C 
ATOM      3  C1  PXY d   1       0.691  -0.869   1.064  0.00  0.00    -0.082 A 
ATOM      4  C2  PXY d   1       1.018  -0.171  -0.012  0.00  0.00     0.003 A 
ATOM      5  C3  PXY d   1       0.161  -0.100  -1.080  0.00  0.00     0.003 A 
ATOM      6  C4  PXY d   1      -1.019  -0.795  -1.068  0.00  0.00    -0.082 A 
ATOM      7  C5  PXY d   1      -1.354  -1.519   0.021  0.00  0.00     0.003 A 
ATOM      8  C6  PXY d   1      -0.489  -1.544   1.111  0.00  0.00     0.003 A 
ENDROOT
TORSDOF 0
ENDMDL
