MODEL 1
REMARK minimizedAffinity 9.7521019
REMARK minimizedRMSD -1
REMARK  0 active torsions:
REMARK  status: ('A' for Active; 'I' for Inactive)
ROOT
ATOM      1  C4' PXY d   1      -4.221  -0.004   0.303  0.00  0.00     0.077 C 
ATOM      2  C1' PXY d   1       1.025  -2.111  -0.901  0.00  0.00     0.077 C 
ATOM      3  C1  PXY d   1      -0.355  -1.571  -0.585  0.00  0.00    -0.082 A 
ATOM      4  C2  PXY d   1      -0.668  -0.332  -0.930  0.00  0.00     0.003 A 
ATOM      5  C3  PXY d   1      -1.901   0.183  -0.624  0.00  0.00     0.003 A 
ATOM      6  C4  PXY d   1      -2.842  -0.595  -0.004  0.00  0.00    -0.082 A 
ATOM      7  C5  PXY d   1      -2.535  -1.862   0.342  0.00  0.00     0.003 A 
ATOM      8  C6  PXY d   1      -1.263  -2.353   0.059  0.00  0.00     0.003 A 
ENDROOT
TORSDOF 0
ENDMDL
