MODEL 1
REMARK minimizedAffinity -3.60585856
REMARK minimizedRMSD -1
REMARK  0 active torsions:
REMARK  status: ('A' for Active; 'I' for Inactive)
ROOT
ATOM      1  C4' PXY d   1       4.236   0.636   0.244  0.00  0.00     0.077 C 
ATOM      2  C1' PXY d   1      -0.639  -2.359  -0.578  0.00  0.00     0.077 C 
ATOM      3  C1  PXY d   1       0.634  -1.563  -0.366  0.00  0.00    -0.082 A 
ATOM      4  C2  PXY d   1       1.803  -2.182  -0.378  0.00  0.00     0.003 A 
ATOM      5  C3  PXY d   1       2.961  -1.483  -0.157  0.00  0.00     0.003 A 
ATOM      6  C4  PXY d   1       2.927  -0.126   0.025  0.00  0.00    -0.082 A 
ATOM      7  C5  PXY d   1       1.739   0.515   0.029  0.00  0.00     0.003 A 
ATOM      8  C6  PXY d   1       0.571  -0.220  -0.157  0.00  0.00     0.003 A 
ENDROOT
TORSDOF 0
ENDMDL
