MODEL 1
REMARK minimizedAffinity -2.88667464
REMARK minimizedRMSD -1
REMARK  0 active torsions:
REMARK  status: ('A' for Active; 'I' for Inactive)
ROOT
ATOM      1  C4' PXY d   1      -2.139   1.207   0.409  0.00  0.00     0.077 C 
ATOM      2  C1' PXY d   1       2.848  -1.606  -0.388  0.00  0.00     0.077 C 
ATOM      3  C1  PXY d   1       1.547  -0.859  -0.172  0.00  0.00    -0.082 A 
ATOM      4  C2  PXY d   1       0.401  -1.521  -0.194  0.00  0.00     0.003 A 
ATOM      5  C3  PXY d   1      -0.787  -0.856  -0.033  0.00  0.00     0.003 A 
ATOM      6  C4  PXY d   1      -0.800   0.492   0.206  0.00  0.00    -0.082 A 
ATOM      7  C5  PXY d   1       0.365   1.173   0.240  0.00  0.00     0.003 A 
ATOM      8  C6  PXY d   1       1.558   0.486   0.033  0.00  0.00     0.003 A 
ENDROOT
TORSDOF 0
ENDMDL
