MODEL 1
REMARK minimizedAffinity 0.626794755
REMARK minimizedRMSD -1
REMARK  0 active torsions:
REMARK  status: ('A' for Active; 'I' for Inactive)
ROOT
ATOM      1  C4' PXY d   1       4.135   2.395  -0.156  0.00  0.00     0.077 C 
ATOM      2  C1' PXY d   1       1.109  -2.529  -0.039  0.00  0.00     0.077 C 
ATOM      3  C1  PXY d   1       1.914  -1.245  -0.072  0.00  0.00    -0.082 A 
ATOM      4  C2  PXY d   1       1.497  -0.194   0.615  0.00  0.00     0.003 A 
ATOM      5  C3  PXY d   1       2.195   0.986   0.570  0.00  0.00     0.003 A 
ATOM      6  C4  PXY d   1       3.360   1.074  -0.143  0.00  0.00    -0.082 A 
ATOM      7  C5  PXY d   1       3.797   0.003  -0.839  0.00  0.00     0.003 A 
ATOM      8  C6  PXY d   1       3.052  -1.172  -0.814  0.00  0.00     0.003 A 
ENDROOT
TORSDOF 0
ENDMDL
