MODEL 1
REMARK minimizedAffinity 8.16798401
REMARK minimizedRMSD -1
REMARK  0 active torsions:
REMARK  status: ('A' for Active; 'I' for Inactive)
ROOT
ATOM      1  C4' PXY d   1       4.949  -0.693  -2.211  0.00  0.00     0.077 C 
ATOM      2  C1' PXY d   1       0.030  -3.365  -0.766  0.00  0.00     0.077 C 
ATOM      3  C1  PXY d   1       1.326  -2.676  -1.147  0.00  0.00    -0.082 A 
ATOM      4  C2  PXY d   1       1.596  -1.476  -0.661  0.00  0.00     0.003 A 
ATOM      5  C3  PXY d   1       2.748  -0.824  -1.021  0.00  0.00     0.003 A 
ATOM      6  C4  PXY d   1       3.657  -1.431  -1.845  0.00  0.00    -0.082 A 
ATOM      7  C5  PXY d   1       3.394  -2.660  -2.337  0.00  0.00     0.003 A 
ATOM      8  C6  PXY d   1       2.200  -3.287  -1.992  0.00  0.00     0.003 A 
ENDROOT
TORSDOF 0
ENDMDL
