MODEL 1
REMARK minimizedAffinity 5.43073511
REMARK minimizedRMSD -1
REMARK  0 active torsions:
REMARK  status: ('A' for Active; 'I' for Inactive)
ROOT
ATOM      1  C4' PXY d   1      -1.471  -5.871   5.967  0.00  0.00     0.077 C 
ATOM      2  C1' PXY d   1       0.806  -0.558   5.997  0.00  0.00     0.077 C 
ATOM      3  C1  PXY d   1       0.220  -1.956   5.984  0.00  0.00    -0.082 A 
ATOM      4  C2  PXY d   1      -1.094  -2.114   5.980  0.00  0.00     0.003 A 
ATOM      5  C3  PXY d   1      -1.641  -3.371   6.000  0.00  0.00     0.003 A 
ATOM      6  C4  PXY d   1      -0.835  -4.478   5.971  0.00  0.00    -0.082 A 
ATOM      7  C5  PXY d   1       0.506  -4.325   5.964  0.00  0.00     0.003 A 
ATOM      8  C6  PXY d   1       1.042  -3.040   5.985  0.00  0.00     0.003 A 
ENDROOT
TORSDOF 0
ENDMDL
