MODEL 1
REMARK minimizedAffinity 2.93752265
REMARK minimizedRMSD -1
REMARK  0 active torsions:
REMARK  status: ('A' for Active; 'I' for Inactive)
ROOT
ATOM      1  C4' PXY d   1       4.389   1.915  -0.114  0.00  0.00     0.077 C 
ATOM      2  C1' PXY d   1       0.387  -2.243  -0.431  0.00  0.00     0.077 C 
ATOM      3  C1  PXY d   1       1.446  -1.162  -0.349  0.00  0.00    -0.082 A 
ATOM      4  C2  PXY d   1       1.162  -0.011   0.240  0.00  0.00     0.003 A 
ATOM      5  C3  PXY d   1       2.097   0.989   0.294  0.00  0.00     0.003 A 
ATOM      6  C4  PXY d   1       3.354   0.791  -0.212  0.00  0.00    -0.082 A 
ATOM      7  C5  PXY d   1       3.655  -0.384  -0.805  0.00  0.00     0.003 A 
ATOM      8  C6  PXY d   1       2.678  -1.372  -0.886  0.00  0.00     0.003 A 
ENDROOT
TORSDOF 0
ENDMDL
