MODEL 1
REMARK minimizedAffinity 5.28433466
REMARK minimizedRMSD -1
REMARK  0 active torsions:
REMARK  status: ('A' for Active; 'I' for Inactive)
ROOT
ATOM      1  C4' PXY d   1      -0.253  -1.987  -0.264  0.00  0.00     0.077 C 
ATOM      2  C1' PXY d   1       5.072  -0.632  -2.059  0.00  0.00     0.077 C 
ATOM      3  C1  PXY d   1       3.676  -0.977  -1.580  0.00  0.00    -0.082 A 
ATOM      4  C2  PXY d   1       3.221  -2.211  -1.726  0.00  0.00     0.003 A 
ATOM      5  C3  PXY d   1       1.949  -2.533  -1.328  0.00  0.00     0.003 A 
ATOM      6  C4  PXY d   1       1.154  -1.595  -0.724  0.00  0.00    -0.082 A 
ATOM      7  C5  PXY d   1       1.615  -0.337  -0.562  0.00  0.00     0.003 A 
ATOM      8  C6  PXY d   1       2.894  -0.020  -1.010  0.00  0.00     0.003 A 
ENDROOT
TORSDOF 0
ENDMDL
