MODEL 1
REMARK minimizedAffinity 9.05085182
REMARK minimizedRMSD -1
REMARK  0 active torsions:
REMARK  status: ('A' for Active; 'I' for Inactive)
ROOT
ATOM      1  C4' PXY d   1       0.463   2.576   3.782  0.00  0.00     0.077 C 
ATOM      2  C1' PXY d   1       1.209  -3.067   4.790  0.00  0.00     0.077 C 
ATOM      3  C1  PXY d   1       1.017  -1.584   4.538  0.00  0.00    -0.082 A 
ATOM      4  C2  PXY d   1       0.205  -1.185   3.573  0.00  0.00     0.003 A 
ATOM      5  C3  PXY d   1       0.044   0.152   3.311  0.00  0.00     0.003 A 
ATOM      6  C4  PXY d   1       0.681   1.090   4.079  0.00  0.00    -0.082 A 
ATOM      7  C5  PXY d   1       1.503   0.690   5.072  0.00  0.00     0.003 A 
ATOM      8  C6  PXY d   1       1.684  -0.672   5.295  0.00  0.00     0.003 A 
ENDROOT
TORSDOF 0
ENDMDL
