MODEL 1
REMARK minimizedAffinity -5.44035006
REMARK minimizedRMSD -1
REMARK  0 active torsions:
REMARK  status: ('A' for Active; 'I' for Inactive)
ROOT
ATOM      1  C   UNL d   1      -1.874  -1.501  -6.000  0.00  0.00     0.077 C 
ATOM      2  C1  UNL d   1      -0.838  -0.877  -5.113  0.00  0.00    -0.074 A 
ATOM      3  C2  UNL d   1       0.176  -0.075  -5.645  0.00  0.00    -0.005 A 
ATOM      4  C3  UNL d   1       1.127   0.507  -4.807  0.00  0.00     0.006 A 
ATOM      5  C4  UNL d   1       1.073   0.292  -3.429  0.00  0.00    -0.005 A 
ATOM      6  C5  UNL d   1       0.066  -0.506  -2.878  0.00  0.00    -0.074 A 
ATOM      7  C6  UNL d   1      -0.012  -0.739  -1.398  0.00  0.00     0.077 C 
ATOM      8  C7  UNL d   1      -0.890  -1.082  -3.727  0.00  0.00    -0.001 A 
ENDROOT
TORSDOF 0
ENDMDL
