MODEL 1
REMARK minimizedAffinity -2.91687632
REMARK minimizedRMSD -1
REMARK  0 active torsions:
REMARK  status: ('A' for Active; 'I' for Inactive)
ROOT
ATOM      1  C   UNL d   1       0.362  -0.362  -1.701  0.00  0.00     0.077 C 
ATOM      2  C1  UNL d   1      -0.055  -0.050  -0.294  0.00  0.00    -0.074 A 
ATOM      3  C2  UNL d   1      -1.317   0.486  -0.021  0.00  0.00    -0.005 A 
ATOM      4  C3  UNL d   1      -1.695   0.762   1.293  0.00  0.00     0.006 A 
ATOM      5  C4  UNL d   1      -0.815   0.506   2.345  0.00  0.00    -0.005 A 
ATOM      6  C5  UNL d   1       0.451  -0.031   2.091  0.00  0.00    -0.074 A 
ATOM      7  C6  UNL d   1       1.405  -0.322   3.211  0.00  0.00     0.077 C 
ATOM      8  C7  UNL d   1       0.820  -0.312   0.769  0.00  0.00    -0.001 A 
ENDROOT
TORSDOF 0
ENDMDL
