MODEL 1
REMARK minimizedAffinity -3.3193264
REMARK minimizedRMSD -1
REMARK  0 active torsions:
REMARK  status: ('A' for Active; 'I' for Inactive)
ROOT
ATOM      1  C   UNL d   1       0.792  -0.891  -1.120  0.00  0.00     0.077 C 
ATOM      2  C1  UNL d   1       0.823  -0.412  -2.541  0.00  0.00    -0.074 A 
ATOM      3  C2  UNL d   1       1.910   0.321  -3.028  0.00  0.00    -0.005 A 
ATOM      4  C3  UNL d   1       1.929   0.753  -4.354  0.00  0.00     0.006 A 
ATOM      5  C4  UNL d   1       0.864   0.456  -5.205  0.00  0.00    -0.005 A 
ATOM      6  C5  UNL d   1      -0.231  -0.276  -4.736  0.00  0.00    -0.074 A 
ATOM      7  C6  UNL d   1      -1.380  -0.612  -5.640  0.00  0.00     0.077 C 
ATOM      8  C7  UNL d   1      -0.240  -0.712  -3.404  0.00  0.00    -0.001 A 
ENDROOT
TORSDOF 0
ENDMDL
