MODEL 1
REMARK minimizedAffinity -2.40871739
REMARK minimizedRMSD -1
REMARK  0 active torsions:
REMARK  status: ('A' for Active; 'I' for Inactive)
ROOT
ATOM      1  C   UNL d   1       0.181  -0.889  -2.253  0.00  0.00     0.077 C 
ATOM      2  C1  UNL d   1       0.491  -0.783  -0.789  0.00  0.00    -0.074 A 
ATOM      3  C2  UNL d   1       1.725  -1.205  -0.284  0.00  0.00    -0.005 A 
ATOM      4  C3  UNL d   1       2.003  -1.091   1.078  0.00  0.00     0.006 A 
ATOM      5  C4  UNL d   1       1.051  -0.554   1.947  0.00  0.00    -0.005 A 
ATOM      6  C5  UNL d   1      -0.187  -0.126   1.459  0.00  0.00    -0.074 A 
ATOM      7  C6  UNL d   1      -1.217   0.462   2.378  0.00  0.00     0.077 C 
ATOM      8  C7  UNL d   1      -0.457  -0.238   0.088  0.00  0.00    -0.001 A 
ENDROOT
TORSDOF 0
ENDMDL
