MODEL 1
REMARK minimizedAffinity -1.5643549
REMARK minimizedRMSD -1
REMARK  0 active torsions:
REMARK  status: ('A' for Active; 'I' for Inactive)
ROOT
ATOM      1  C   UNL d   1       0.131  -0.371   2.926  0.00  0.00     0.077 C 
ATOM      2  C1  UNL d   1      -0.605  -0.047   1.660  0.00  0.00    -0.074 A 
ATOM      3  C2  UNL d   1      -1.851   0.587   1.695  0.00  0.00    -0.005 A 
ATOM      4  C3  UNL d   1      -2.519   0.891   0.509  0.00  0.00     0.006 A 
ATOM      5  C4  UNL d   1      -1.949   0.563  -0.722  0.00  0.00    -0.005 A 
ATOM      6  C5  UNL d   1      -0.704  -0.071  -0.777  0.00  0.00    -0.074 A 
ATOM      7  C6  UNL d   1      -0.073  -0.421  -2.092  0.00  0.00     0.077 C 
ATOM      8  C7  UNL d   1      -0.035  -0.366   0.419  0.00  0.00    -0.001 A 
ENDROOT
TORSDOF 0
ENDMDL
