MODEL 1
REMARK minimizedAffinity -3.43095493
REMARK minimizedRMSD -1
REMARK  0 active torsions:
REMARK  status: ('A' for Active; 'I' for Inactive)
ROOT
ATOM      1  C1  BNZ d   1      -3.701  -3.051  -4.846  0.00  0.00     0.000 A 
ATOM      2  C2  BNZ d   1      -3.394  -1.718  -4.779  0.00  0.00     0.000 A 
ATOM      3  C3  BNZ d   1      -4.381  -0.775  -4.711  0.00  0.00     0.000 A 
ATOM      4  C4  BNZ d   1      -5.672  -1.163  -4.751  0.00  0.00     0.000 A 
ATOM      5  C5  BNZ d   1      -5.998  -2.502  -4.828  0.00  0.00     0.000 A 
ATOM      6  C6  BNZ d   1      -5.002  -3.451  -4.857  0.00  0.00     0.000 A 
ENDROOT
TORSDOF 0
ENDMDL
