MODEL 1
REMARK minimizedAffinity -2.66940498
REMARK minimizedRMSD -1
REMARK  0 active torsions:
REMARK  status: ('A' for Active; 'I' for Inactive)
ROOT
ATOM      1  C1  BNZ d   1      -5.999  -4.611  -5.647  0.00  0.00     0.000 A 
ATOM      2  C2  BNZ d   1      -5.873  -3.257  -5.811  0.00  0.00     0.000 A 
ATOM      3  C3  BNZ d   1      -4.646  -2.686  -6.000  0.00  0.00     0.000 A 
ATOM      4  C4  BNZ d   1      -3.544  -3.464  -5.985  0.00  0.00     0.000 A 
ATOM      5  C5  BNZ d   1      -3.654  -4.829  -5.812  0.00  0.00     0.000 A 
ATOM      6  C6  BNZ d   1      -4.894  -5.405  -5.661  0.00  0.00     0.000 A 
ENDROOT
TORSDOF 0
ENDMDL
