MODEL 1
REMARK minimizedAffinity -2.80075407
REMARK minimizedRMSD -1
REMARK  0 active torsions:
REMARK  status: ('A' for Active; 'I' for Inactive)
ROOT
ATOM      1  C1  BNZ d   1      -2.606  -0.451  -0.550  0.00  0.00     0.000 A 
ATOM      2  C2  BNZ d   1      -3.041  -1.533   0.168  0.00  0.00     0.000 A 
ATOM      3  C3  BNZ d   1      -2.385  -1.932   1.299  0.00  0.00     0.000 A 
ATOM      4  C4  BNZ d   1      -1.274  -1.274   1.688  0.00  0.00     0.000 A 
ATOM      5  C5  BNZ d   1      -0.818  -0.187   0.970  0.00  0.00     0.000 A 
ATOM      6  C6  BNZ d   1      -1.503   0.235  -0.147  0.00  0.00     0.000 A 
ENDROOT
TORSDOF 0
ENDMDL
