MODEL 1
REMARK minimizedAffinity 0.537169039
REMARK minimizedRMSD -1
REMARK  0 active torsions:
REMARK  status: ('A' for Active; 'I' for Inactive)
ROOT
ATOM      1  C1  BNZ d   1      -2.165  -5.996  -3.777  0.00  0.00     0.000 A 
ATOM      2  C2  BNZ d   1      -1.374  -5.994  -4.895  0.00  0.00     0.000 A 
ATOM      3  C3  BNZ d   1      -1.725  -5.268  -5.999  0.00  0.00     0.000 A 
ATOM      4  C4  BNZ d   1      -2.885  -4.580  -5.998  0.00  0.00     0.000 A 
ATOM      5  C5  BNZ d   1      -3.698  -4.580  -4.883  0.00  0.00     0.000 A 
ATOM      6  C6  BNZ d   1      -3.322  -5.280  -3.759  0.00  0.00     0.000 A 
ENDROOT
TORSDOF 0
ENDMDL
