MODEL 1
REMARK minimizedAffinity -1.50415683
REMARK minimizedRMSD -1
REMARK  0 active torsions:
REMARK  status: ('A' for Active; 'I' for Inactive)
ROOT
ATOM      1  C1  BNZ d   1      -1.065  -1.134   2.886  0.00  0.00     0.000 A 
ATOM      2  C2  BNZ d   1      -0.194  -1.704   1.996  0.00  0.00     0.000 A 
ATOM      3  C3  BNZ d   1      -0.610  -2.070   0.746  0.00  0.00     0.000 A 
ATOM      4  C4  BNZ d   1      -1.903  -1.903   0.402  0.00  0.00     0.000 A 
ATOM      5  C5  BNZ d   1      -2.796  -1.338   1.292  0.00  0.00     0.000 A 
ATOM      6  C6  BNZ d   1      -2.365  -0.935   2.535  0.00  0.00     0.000 A 
ENDROOT
TORSDOF 0
ENDMDL
