MODEL 1
REMARK minimizedAffinity -3.15939164
REMARK minimizedRMSD -1
REMARK  0 active torsions:
REMARK  status: ('A' for Active; 'I' for Inactive)
ROOT
ATOM      1  C1  BNZ d   1      -3.123  -3.860  -5.329  0.00  0.00     0.000 A 
ATOM      2  C2  BNZ d   1      -3.938  -2.764  -5.434  0.00  0.00     0.000 A 
ATOM      3  C3  BNZ d   1      -5.291  -2.908  -5.568  0.00  0.00     0.000 A 
ATOM      4  C4  BNZ d   1      -5.822  -4.146  -5.637  0.00  0.00     0.000 A 
ATOM      5  C5  BNZ d   1      -5.013  -5.260  -5.542  0.00  0.00     0.000 A 
ATOM      6  C6  BNZ d   1      -3.656  -5.112  -5.368  0.00  0.00     0.000 A 
ENDROOT
TORSDOF 0
ENDMDL
