MODEL 1
REMARK minimizedAffinity -0.840077043
REMARK minimizedRMSD -1
REMARK  0 active torsions:
REMARK  status: ('A' for Active; 'I' for Inactive)
ROOT
ATOM      1  C1  BNZ d   1      -4.117  -5.337  -4.833  0.00  0.00     0.000 A 
ATOM      2  C2  BNZ d   1      -5.067  -5.438  -5.814  0.00  0.00     0.000 A 
ATOM      3  C3  BNZ d   1      -5.996  -4.452  -5.992  0.00  0.00     0.000 A 
ATOM      4  C4  BNZ d   1      -6.000  -3.387  -5.165  0.00  0.00     0.000 A 
ATOM      5  C5  BNZ d   1      -5.055  -3.276  -4.165  0.00  0.00     0.000 A 
ATOM      6  C6  BNZ d   1      -4.096  -4.251  -4.013  0.00  0.00     0.000 A 
ENDROOT
TORSDOF 0
ENDMDL
