MODEL 1
REMARK minimizedAffinity -3.05907798
REMARK minimizedRMSD -1
REMARK  0 active torsions:
REMARK  status: ('A' for Active; 'I' for Inactive)
ROOT
ATOM      1  C1  BNZ d   1      -4.852  -2.280  -5.988  0.00  0.00     0.000 A 
ATOM      2  C2  BNZ d   1      -3.699  -2.925  -5.626  0.00  0.00     0.000 A 
ATOM      3  C3  BNZ d   1      -3.683  -3.789  -4.567  0.00  0.00     0.000 A 
ATOM      4  C4  BNZ d   1      -4.808  -3.975  -3.847  0.00  0.00     0.000 A 
ATOM      5  C5  BNZ d   1      -5.976  -3.325  -4.193  0.00  0.00     0.000 A 
ATOM      6  C6  BNZ d   1      -5.998  -2.487  -5.284  0.00  0.00     0.000 A 
ENDROOT
TORSDOF 0
ENDMDL
