MODEL 1
REMARK minimizedAffinity -2.33965635
REMARK minimizedRMSD -1
REMARK  0 active torsions:
REMARK  status: ('A' for Active; 'I' for Inactive)
ROOT
ATOM      1  C1  BNZ d   1      -3.714  -3.374  -3.755  0.00  0.00     0.000 A 
ATOM      2  C2  BNZ d   1      -2.610  -4.185  -3.753  0.00  0.00     0.000 A 
ATOM      3  C3  BNZ d   1      -2.247  -4.874  -4.877  0.00  0.00     0.000 A 
ATOM      4  C4  BNZ d   1      -3.008  -4.783  -5.986  0.00  0.00     0.000 A 
ATOM      5  C5  BNZ d   1      -4.129  -3.977  -6.000  0.00  0.00     0.000 A 
ATOM      6  C6  BNZ d   1      -4.470  -3.254  -4.880  0.00  0.00     0.000 A 
ENDROOT
TORSDOF 0
ENDMDL
