MODEL 1
REMARK minimizedAffinity -2.76797891
REMARK minimizedRMSD -1
REMARK  0 active torsions:
REMARK  status: ('A' for Active; 'I' for Inactive)
ROOT
ATOM      1  C1  BNZ d   1      -2.560  -5.214  -4.882  0.00  0.00     0.000 A 
ATOM      2  C2  BNZ d   1      -3.003  -4.559  -6.000  0.00  0.00     0.000 A 
ATOM      3  C3  BNZ d   1      -4.202  -3.904  -5.998  0.00  0.00     0.000 A 
ATOM      4  C4  BNZ d   1      -4.975  -3.938  -4.894  0.00  0.00     0.000 A 
ATOM      5  C5  BNZ d   1      -4.548  -4.603  -3.762  0.00  0.00     0.000 A 
ATOM      6  C6  BNZ d   1      -3.322  -5.228  -3.754  0.00  0.00     0.000 A 
ENDROOT
TORSDOF 0
ENDMDL
