MODEL 1
REMARK minimizedAffinity -2.99252558
REMARK minimizedRMSD -1
REMARK  0 active torsions:
REMARK  status: ('A' for Active; 'I' for Inactive)
ROOT
ATOM      1  C1  BNZ d   1      -2.002  -4.723  -5.592  0.00  0.00     0.000 A 
ATOM      2  C2  BNZ d   1      -3.203  -4.204  -5.998  0.00  0.00     0.000 A 
ATOM      3  C3  BNZ d   1      -4.311  -4.303  -5.204  0.00  0.00     0.000 A 
ATOM      4  C4  BNZ d   1      -4.228  -4.953  -4.026  0.00  0.00     0.000 A 
ATOM      5  C5  BNZ d   1      -3.027  -5.490  -3.607  0.00  0.00     0.000 A 
ATOM      6  C6  BNZ d   1      -1.904  -5.355  -4.391  0.00  0.00     0.000 A 
ENDROOT
TORSDOF 0
ENDMDL
