MODEL 1
REMARK minimizedAffinity -3.82911706
REMARK minimizedRMSD -1
REMARK  0 active torsions:
REMARK  status: ('A' for Active; 'I' for Inactive)
ROOT
ATOM      1  C1  BNZ d   1      -3.160  -4.158  -5.219  0.00  0.00     0.000 A 
ATOM      2  C2  BNZ d   1      -2.102  -4.879  -5.704  0.00  0.00     0.000 A 
ATOM      3  C3  BNZ d   1      -1.198  -5.454  -4.854  0.00  0.00     0.000 A 
ATOM      4  C4  BNZ d   1      -1.331  -5.273  -3.524  0.00  0.00     0.000 A 
ATOM      5  C5  BNZ d   1      -2.387  -4.541  -3.020  0.00  0.00     0.000 A 
ATOM      6  C6  BNZ d   1      -3.317  -3.997  -3.876  0.00  0.00     0.000 A 
ENDROOT
TORSDOF 0
ENDMDL
