MODEL 1
REMARK minimizedAffinity 11.4873533
REMARK minimizedRMSD -1
REMARK  0 active torsions:
REMARK  status: ('A' for Active; 'I' for Inactive)
ROOT
ATOM      1  C4' PXY d   1      -1.061   1.197  -0.114  0.00  0.00     0.077 C 
ATOM      2  C1' PXY d   1      -2.726  -1.249   4.851  0.00  0.00     0.077 C 
ATOM      3  C1  PXY d   1      -2.299  -0.614   3.543  0.00  0.00    -0.082 A 
ATOM      4  C2  PXY d   1      -1.046  -0.219   3.385  0.00  0.00     0.003 A 
ATOM      5  C3  PXY d   1      -0.650   0.387   2.220  0.00  0.00     0.003 A 
ATOM      6  C4  PXY d   1      -1.534   0.542   1.186  0.00  0.00    -0.082 A 
ATOM      7  C5  PXY d   1      -2.811   0.133   1.335  0.00  0.00     0.003 A 
ATOM      8  C6  PXY d   1      -3.203  -0.442   2.541  0.00  0.00     0.003 A 
ENDROOT
TORSDOF 0
ENDMDL
