MODEL 1
REMARK minimizedAffinity 21.0737991
REMARK minimizedRMSD -1
REMARK  0 active torsions:
REMARK  status: ('A' for Active; 'I' for Inactive)
ROOT
ATOM      1  C4' PXY d   1      -3.857  -1.404   0.095  0.00  0.00     0.077 C 
ATOM      2  C1' PXY d   1       0.344   1.594   2.699  0.00  0.00     0.077 C 
ATOM      3  C1  PXY d   1      -0.758   0.816   2.006  0.00  0.00    -0.082 A 
ATOM      4  C2  PXY d   1      -1.567   0.050   2.720  0.00  0.00     0.003 A 
ATOM      5  C3  PXY d   1      -2.548  -0.684   2.106  0.00  0.00     0.003 A 
ATOM      6  C4  PXY d   1      -2.737  -0.594   0.753  0.00  0.00    -0.082 A 
ATOM      7  C5  PXY d   1      -1.923   0.193   0.019  0.00  0.00     0.003 A 
ATOM      8  C6  PXY d   1      -0.906   0.899   0.656  0.00  0.00     0.003 A 
ENDROOT
TORSDOF 0
ENDMDL
