MODEL 1
REMARK minimizedAffinity 3.36921358
REMARK minimizedRMSD -1
REMARK  0 active torsions:
REMARK  status: ('A' for Active; 'I' for Inactive)
ROOT
ATOM      1  C4' PXY d   1      -6.000  -3.331  -5.706  0.00  0.00     0.077 C 
ATOM      2  C1' PXY d   1      -5.457  -2.062  -0.093  0.00  0.00     0.077 C 
ATOM      3  C1  PXY d   1      -5.603  -2.382  -1.567  0.00  0.00    -0.082 A 
ATOM      4  C2  PXY d   1      -5.801  -3.634  -1.948  0.00  0.00     0.003 A 
ATOM      5  C3  PXY d   1      -5.903  -3.946  -3.279  0.00  0.00     0.003 A 
ATOM      6  C4  PXY d   1      -5.856  -2.959  -4.228  0.00  0.00    -0.082 A 
ATOM      7  C5  PXY d   1      -5.665  -1.678  -3.846  0.00  0.00     0.003 A 
ATOM      8  C6  PXY d   1      -5.522  -1.388  -2.493  0.00  0.00     0.003 A 
ENDROOT
TORSDOF 0
ENDMDL
