MODEL 1
REMARK minimizedAffinity 12.1992035
REMARK minimizedRMSD -1
REMARK  0 active torsions:
REMARK  status: ('A' for Active; 'I' for Inactive)
ROOT
ATOM      1  C4' PXY d   1      -5.038  -4.903  -6.000  0.00  0.00     0.077 C 
ATOM      2  C1' PXY d   1      -5.999  -1.003  -1.843  0.00  0.00     0.077 C 
ATOM      3  C1  PXY d   1      -5.745  -2.035  -2.924  0.00  0.00    -0.082 A 
ATOM      4  C2  PXY d   1      -5.289  -1.648  -4.104  0.00  0.00     0.003 A 
ATOM      5  C3  PXY d   1      -5.084  -2.564  -5.103  0.00  0.00     0.003 A 
ATOM      6  C4  PXY d   1      -5.299  -3.897  -4.876  0.00  0.00    -0.082 A 
ATOM      7  C5  PXY d   1      -5.755  -4.301  -3.671  0.00  0.00     0.003 A 
ATOM      8  C6  PXY d   1      -5.995  -3.351  -2.683  0.00  0.00     0.003 A 
ENDROOT
TORSDOF 0
ENDMDL
