MODEL 1
REMARK minimizedAffinity 7.49228001
REMARK minimizedRMSD -1
REMARK  0 active torsions:
REMARK  status: ('A' for Active; 'I' for Inactive)
ROOT
ATOM      1  C4' PXY d   1      -5.977  -2.460  -0.295  0.00  0.00     0.077 C 
ATOM      2  C1' PXY d   1      -5.094  -2.760  -6.000  0.00  0.00     0.077 C 
ATOM      3  C1  PXY d   1      -5.326  -2.694  -4.503  0.00  0.00    -0.082 A 
ATOM      4  C2  PXY d   1      -5.813  -1.588  -3.965  0.00  0.00     0.003 A 
ATOM      5  C3  PXY d   1      -6.000  -1.500  -2.609  0.00  0.00     0.003 A 
ATOM      6  C4  PXY d   1      -5.735  -2.574  -1.803  0.00  0.00    -0.082 A 
ATOM      7  C5  PXY d   1      -5.248  -3.710  -2.346  0.00  0.00     0.003 A 
ATOM      8  C6  PXY d   1      -5.027  -3.765  -3.719  0.00  0.00     0.003 A 
ENDROOT
TORSDOF 0
ENDMDL
