MODEL 1
REMARK minimizedAffinity 7.02076483
REMARK minimizedRMSD -1
REMARK  0 active torsions:
REMARK  status: ('A' for Active; 'I' for Inactive)
ROOT
ATOM      1  C4' PXY d   1      -5.468  -1.231  -0.784  0.00  0.00     0.077 C 
ATOM      2  C1' PXY d   1      -5.603  -3.718  -6.000  0.00  0.00     0.077 C 
ATOM      3  C1  PXY d   1      -5.558  -3.058  -4.636  0.00  0.00    -0.082 A 
ATOM      4  C2  PXY d   1      -6.000  -3.715  -3.576  0.00  0.00     0.003 A 
ATOM      5  C3  PXY d   1      -5.996  -3.121  -2.340  0.00  0.00     0.003 A 
ATOM      6  C4  PXY d   1      -5.485  -1.861  -2.179  0.00  0.00    -0.082 A 
ATOM      7  C5  PXY d   1      -5.023  -1.188  -3.253  0.00  0.00     0.003 A 
ATOM      8  C6  PXY d   1      -5.073  -1.793  -4.506  0.00  0.00     0.003 A 
ENDROOT
TORSDOF 0
ENDMDL
