MODEL 1
REMARK minimizedAffinity 7.77358103
REMARK minimizedRMSD -1
REMARK  0 active torsions:
REMARK  status: ('A' for Active; 'I' for Inactive)
ROOT
ATOM      1  C4' PXY d   1      -5.364  -2.091  -0.030  0.00  0.00     0.077 C 
ATOM      2  C1' PXY d   1      -5.997  -3.430  -5.618  0.00  0.00     0.077 C 
ATOM      3  C1  PXY d   1      -5.833  -3.091  -4.149  0.00  0.00    -0.082 A 
ATOM      4  C2  PXY d   1      -6.000  -1.842  -3.744  0.00  0.00     0.003 A 
ATOM      5  C3  PXY d   1      -5.824  -1.513  -2.424  0.00  0.00     0.003 A 
ATOM      6  C4  PXY d   1      -5.528  -2.480  -1.502  0.00  0.00    -0.082 A 
ATOM      7  C5  PXY d   1      -5.367  -3.758  -1.906  0.00  0.00     0.003 A 
ATOM      8  C6  PXY d   1      -5.509  -4.065  -3.256  0.00  0.00     0.003 A 
ENDROOT
TORSDOF 0
ENDMDL
