MODEL 1
REMARK minimizedAffinity 6.23330116
REMARK minimizedRMSD -1
REMARK  0 active torsions:
REMARK  status: ('A' for Active; 'I' for Inactive)
ROOT
ATOM      1  C4' PXY d   1      -1.098   1.859   2.293  0.00  0.00     0.077 C 
ATOM      2  C1' PXY d   1      -3.048  -2.545  -0.904  0.00  0.00     0.077 C 
ATOM      3  C1  PXY d   1      -2.528  -1.387  -0.076  0.00  0.00    -0.082 A 
ATOM      4  C2  PXY d   1      -2.616  -1.435   1.244  0.00  0.00     0.003 A 
ATOM      5  C3  PXY d   1      -2.181  -0.382   2.007  0.00  0.00     0.003 A 
ATOM      6  C4  PXY d   1      -1.601   0.708   1.417  0.00  0.00    -0.082 A 
ATOM      7  C5  PXY d   1      -1.497   0.760   0.072  0.00  0.00     0.003 A 
ATOM      8  C6  PXY d   1      -1.983  -0.300  -0.687  0.00  0.00     0.003 A 
ENDROOT
TORSDOF 0
ENDMDL
