MODEL 1
REMARK minimizedAffinity 14.249218
REMARK minimizedRMSD -1
REMARK  0 active torsions:
REMARK  status: ('A' for Active; 'I' for Inactive)
ROOT
ATOM      1  C4' PXY d   1      -4.360  -5.676   0.740  0.00  0.00     0.077 C 
ATOM      2  C1' PXY d   1      -5.977  -0.126   0.674  0.00  0.00     0.077 C 
ATOM      3  C1  PXY d   1      -5.561  -1.584   0.681  0.00  0.00    -0.082 A 
ATOM      4  C2  PXY d   1      -5.099  -2.127   1.796  0.00  0.00     0.003 A 
ATOM      5  C3  PXY d   1      -4.688  -3.435   1.812  0.00  0.00     0.003 A 
ATOM      6  C4  PXY d   1      -4.801  -4.210   0.689  0.00  0.00    -0.082 A 
ATOM      7  C5  PXY d   1      -5.281  -3.667  -0.450  0.00  0.00     0.003 A 
ATOM      8  C6  PXY d   1      -5.654  -2.326  -0.456  0.00  0.00     0.003 A 
ENDROOT
TORSDOF 0
ENDMDL
