MODEL 1
REMARK minimizedAffinity 8.8446579
REMARK minimizedRMSD -1
REMARK  0 active torsions:
REMARK  status: ('A' for Active; 'I' for Inactive)
ROOT
ATOM      1  C4' PXY d   1      -5.285  -3.025   3.494  0.00  0.00     0.077 C 
ATOM      2  C1' PXY d   1      -5.358  -2.113  -2.214  0.00  0.00     0.077 C 
ATOM      3  C1  PXY d   1      -5.341  -2.339  -0.715  0.00  0.00    -0.082 A 
ATOM      4  C2  PXY d   1      -4.690  -3.378  -0.218  0.00  0.00     0.003 A 
ATOM      5  C3  PXY d   1      -4.691  -3.616   1.133  0.00  0.00     0.003 A 
ATOM      6  C4  PXY d   1      -5.321  -2.752   1.988  0.00  0.00    -0.082 A 
ATOM      7  C5  PXY d   1      -5.979  -1.683   1.489  0.00  0.00     0.003 A 
ATOM      8  C6  PXY d   1      -6.000  -1.483   0.112  0.00  0.00     0.003 A 
ENDROOT
TORSDOF 0
ENDMDL
