MODEL 1
REMARK minimizedAffinity 1.72215986
REMARK minimizedRMSD -1
REMARK  0 active torsions:
REMARK  status: ('A' for Active; 'I' for Inactive)
ROOT
ATOM      1  C4' PXY d   1      -1.550  -0.345   2.301  0.00  0.00     0.077 C 
ATOM      2  C1' PXY d   1      -5.451   3.839   1.475  0.00  0.00     0.077 C 
ATOM      3  C1  PXY d   1      -4.438   2.733   1.694  0.00  0.00    -0.082 A 
ATOM      4  C2  PXY d   1      -3.200   3.041   2.048  0.00  0.00     0.003 A 
ATOM      5  C3  PXY d   1      -2.263   2.055   2.219  0.00  0.00     0.003 A 
ATOM      6  C4  PXY d   1      -2.609   0.738   2.078  0.00  0.00    -0.082 A 
ATOM      7  C5  PXY d   1      -3.872   0.415   1.728  0.00  0.00     0.003 A 
ATOM      8  C6  PXY d   1      -4.798   1.433   1.519  0.00  0.00     0.003 A 
ENDROOT
TORSDOF 0
ENDMDL
