MODEL 1
REMARK minimizedAffinity 9.10915089
REMARK minimizedRMSD -1
REMARK  0 active torsions:
REMARK  status: ('A' for Active; 'I' for Inactive)
ROOT
ATOM      1  C4' PXY d   1      -5.782  -0.766   1.504  0.00  0.00     0.077 C 
ATOM      2  C1' PXY d   1      -5.821  -3.660  -3.500  0.00  0.00     0.077 C 
ATOM      3  C1  PXY d   1      -5.814  -2.912  -2.181  0.00  0.00    -0.082 A 
ATOM      4  C2  PXY d   1      -6.000  -1.602  -2.172  0.00  0.00     0.003 A 
ATOM      5  C3  PXY d   1      -5.965  -0.906  -0.991  0.00  0.00     0.003 A 
ATOM      6  C4  PXY d   1      -5.791  -1.564   0.197  0.00  0.00    -0.082 A 
ATOM      7  C5  PXY d   1      -5.612  -2.902   0.196  0.00  0.00     0.003 A 
ATOM      8  C6  PXY d   1      -5.609  -3.585  -1.017  0.00  0.00     0.003 A 
ENDROOT
TORSDOF 0
ENDMDL
