MODEL 1
REMARK minimizedAffinity 6.84520769
REMARK minimizedRMSD -1
REMARK  0 active torsions:
REMARK  status: ('A' for Active; 'I' for Inactive)
ROOT
ATOM      1  C4' PXY d   1       2.867  -1.225  -3.776  0.00  0.00     0.077 C 
ATOM      2  C1' PXY d   1      -1.530   2.244  -2.346  0.00  0.00     0.077 C 
ATOM      3  C1  PXY d   1      -0.369   1.345  -2.720  0.00  0.00    -0.082 A 
ATOM      4  C2  PXY d   1      -0.591   0.252  -3.433  0.00  0.00     0.003 A 
ATOM      5  C3  PXY d   1       0.443  -0.589  -3.752  0.00  0.00     0.003 A 
ATOM      6  C4  PXY d   1       1.726  -0.282  -3.384  0.00  0.00    -0.082 A 
ATOM      7  C5  PXY d   1       1.962   0.836  -2.666  0.00  0.00     0.003 A 
ATOM      8  C6  PXY d   1       0.893   1.656  -2.316  0.00  0.00     0.003 A 
ENDROOT
TORSDOF 0
ENDMDL
