MODEL 1
REMARK minimizedAffinity 7.80443525
REMARK minimizedRMSD -1
REMARK  0 active torsions:
REMARK  status: ('A' for Active; 'I' for Inactive)
ROOT
ATOM      1  C4' PXY d   1      -0.169  -0.784   2.631  0.00  0.00     0.077 C 
ATOM      2  C1' PXY d   1      -5.751   0.682   2.960  0.00  0.00     0.077 C 
ATOM      3  C1  PXY d   1      -4.287   0.298   2.860  0.00  0.00    -0.082 A 
ATOM      4  C2  PXY d   1      -3.721  -0.382   3.844  0.00  0.00     0.003 A 
ATOM      5  C3  PXY d   1      -2.391  -0.710   3.785  0.00  0.00     0.003 A 
ATOM      6  C4  PXY d   1      -1.646  -0.384   2.684  0.00  0.00    -0.082 A 
ATOM      7  C5  PXY d   1      -2.218   0.301   1.672  0.00  0.00     0.003 A 
ATOM      8  C6  PXY d   1      -3.560   0.660   1.769  0.00  0.00     0.003 A 
ENDROOT
TORSDOF 0
ENDMDL
