MODEL 1
REMARK minimizedAffinity 11.2206297
REMARK minimizedRMSD -1
REMARK  0 active torsions:
REMARK  status: ('A' for Active; 'I' for Inactive)
ROOT
ATOM      1  C4' PXY d   1       5.998   4.675  -5.817  0.00  0.00     0.077 C 
ATOM      2  C1' PXY d   1       3.910  -0.414  -4.042  0.00  0.00     0.077 C 
ATOM      3  C1  PXY d   1       4.462   0.923  -4.495  0.00  0.00    -0.082 A 
ATOM      4  C2  PXY d   1       3.944   1.518  -5.557  0.00  0.00     0.003 A 
ATOM      5  C3  PXY d   1       4.452   2.712  -5.999  0.00  0.00     0.003 A 
ATOM      6  C4  PXY d   1       5.466   3.329  -5.317  0.00  0.00    -0.082 A 
ATOM      7  C5  PXY d   1       5.994   2.733  -4.227  0.00  0.00     0.003 A 
ATOM      8  C6  PXY d   1       5.491   1.501  -3.818  0.00  0.00     0.003 A 
ENDROOT
TORSDOF 0
ENDMDL
