MODEL 1
REMARK minimizedAffinity 2.11494946
REMARK minimizedRMSD -1
REMARK  0 active torsions:
REMARK  status: ('A' for Active; 'I' for Inactive)
ROOT
ATOM      1  C4' PXY d   1       2.637   2.357  -0.311  0.00  0.00     0.077 C 
ATOM      2  C1' PXY d   1       6.000  -0.802   3.172  0.00  0.00     0.077 C 
ATOM      3  C1  PXY d   1       5.128   0.034   2.256  0.00  0.00    -0.082 A 
ATOM      4  C2  PXY d   1       3.815   0.028   2.418  0.00  0.00     0.003 A 
ATOM      5  C3  PXY d   1       3.009   0.754   1.578  0.00  0.00     0.003 A 
ATOM      6  C4  PXY d   1       3.557   1.535   0.596  0.00  0.00    -0.082 A 
ATOM      7  C5  PXY d   1       4.897   1.555   0.432  0.00  0.00     0.003 A 
ATOM      8  C6  PXY d   1       5.694   0.780   1.268  0.00  0.00     0.003 A 
ENDROOT
TORSDOF 0
ENDMDL
