MODEL 1
REMARK minimizedAffinity 1.18954194
REMARK minimizedRMSD -1
REMARK  0 active torsions:
REMARK  status: ('A' for Active; 'I' for Inactive)
ROOT
ATOM      1  C4' PXY d   1       0.962   0.004   2.467  0.00  0.00     0.077 C 
ATOM      2  C1' PXY d   1      -4.662   1.134   1.751  0.00  0.00     0.077 C 
ATOM      3  C1  PXY d   1      -3.185   0.837   1.926  0.00  0.00    -0.082 A 
ATOM      4  C2  PXY d   1      -2.754   0.309   3.060  0.00  0.00     0.003 A 
ATOM      5  C3  PXY d   1      -1.418   0.063   3.247  0.00  0.00     0.003 A 
ATOM      6  C4  PXY d   1      -0.521   0.312   2.243  0.00  0.00    -0.082 A 
ATOM      7  C5  PXY d   1      -0.954   0.841   1.079  0.00  0.00     0.003 A 
ATOM      8  C6  PXY d   1      -2.309   1.121   0.924  0.00  0.00     0.003 A 
ENDROOT
TORSDOF 0
ENDMDL
