MODEL 1
REMARK minimizedAffinity 8.47398663
REMARK minimizedRMSD -1
REMARK  0 active torsions:
REMARK  status: ('A' for Active; 'I' for Inactive)
ROOT
ATOM      1  C4' PXY d   1      -0.508   1.495   1.649  0.00  0.00     0.077 C 
ATOM      2  C1' PXY d   1      -5.999   0.042   2.723  0.00  0.00     0.077 C 
ATOM      3  C1  PXY d   1      -4.558   0.413   2.433  0.00  0.00    -0.082 A 
ATOM      4  C2  PXY d   1      -3.876   1.125   3.315  0.00  0.00     0.003 A 
ATOM      5  C3  PXY d   1      -2.582   1.496   3.055  0.00  0.00     0.003 A 
ATOM      6  C4  PXY d   1      -1.963   1.089   1.904  0.00  0.00    -0.082 A 
ATOM      7  C5  PXY d   1      -2.649   0.354   1.003  0.00  0.00     0.003 A 
ATOM      8  C6  PXY d   1      -3.974   0.022   1.268  0.00  0.00     0.003 A 
ENDROOT
TORSDOF 0
ENDMDL
