MODEL 1
REMARK minimizedAffinity 6.4983449
REMARK minimizedRMSD -1
REMARK  0 active torsions:
REMARK  status: ('A' for Active; 'I' for Inactive)
ROOT
ATOM      1  C4' PXY d   1       3.020  -2.840  -3.481  0.00  0.00     0.077 C 
ATOM      2  C1' PXY d   1       2.376   2.384  -5.870  0.00  0.00     0.077 C 
ATOM      3  C1  PXY d   1       2.533   1.011  -5.247  0.00  0.00    -0.082 A 
ATOM      4  C2  PXY d   1       3.442   0.820  -4.305  0.00  0.00     0.003 A 
ATOM      5  C3  PXY d   1       3.619  -0.422  -3.753  0.00  0.00     0.003 A 
ATOM      6  C4  PXY d   1       2.820  -1.468  -4.131  0.00  0.00    -0.082 A 
ATOM      7  C5  PXY d   1       1.883  -1.279  -5.084  0.00  0.00     0.003 A 
ATOM      8  C6  PXY d   1       1.747  -0.020  -5.661  0.00  0.00     0.003 A 
ENDROOT
TORSDOF 0
ENDMDL
