MODEL 1
REMARK minimizedAffinity -2.85437155
REMARK minimizedRMSD -1
REMARK  0 active torsions:
REMARK  status: ('A' for Active; 'I' for Inactive)
ROOT
ATOM      1  C1  DEN d   1      -0.033   0.386   1.446  0.00  0.00     0.130 A 
ATOM      2  C2  DEN d   1      -1.464   0.096   1.484  0.00  0.00    -0.031 A 
ATOM      3  C3  DEN d   1      -1.672  -1.254   0.924  0.00  0.00     0.027 A 
ATOM      4  C4  DEN d   1       0.075  -2.918   0.009  0.00  0.00     0.027 A 
ATOM      5  C5  DEN d   1       1.415  -3.114  -0.241  0.00  0.00    -0.003 A 
ATOM      6  C6  DEN d   1       2.355  -2.152   0.019  0.00  0.00     0.001 A 
ATOM      7  C7  DEN d   1       1.972  -0.966   0.589  0.00  0.00     0.017 A 
ATOM      8  C8  DEN d   1       0.622  -0.758   0.837  0.00  0.00    -0.094 A 
ATOM      9  C9  DEN d   1      -0.311  -1.748   0.578  0.00  0.00    -0.072 A 
ENDROOT
TORSDOF 0
ENDMDL
