MODEL 1
REMARK minimizedAffinity 0.0369290821
REMARK minimizedRMSD -1
REMARK  0 active torsions:
REMARK  status: ('A' for Active; 'I' for Inactive)
ROOT
ATOM      1  C1  DEN d   1      -1.256  -1.399   0.999  0.00  0.00     0.130 A 
ATOM      2  C2  DEN d   1      -0.942  -0.124   1.637  0.00  0.00    -0.031 A 
ATOM      3  C3  DEN d   1       0.519   0.079   1.558  0.00  0.00     0.027 A 
ATOM      4  C4  DEN d   1       2.315  -1.449   0.513  0.00  0.00     0.027 A 
ATOM      5  C5  DEN d   1       2.532  -2.644  -0.137  0.00  0.00    -0.003 A 
ATOM      6  C6  DEN d   1       1.515  -3.516  -0.421  0.00  0.00     0.001 A 
ATOM      7  C7  DEN d   1       0.226  -3.186  -0.095  0.00  0.00     0.017 A 
ATOM      8  C8  DEN d   1       0.000  -1.986   0.567  0.00  0.00    -0.094 A 
ATOM      9  C9  DEN d   1       1.040  -1.112   0.835  0.00  0.00    -0.072 A 
ENDROOT
TORSDOF 0
ENDMDL
