MODEL 1
REMARK minimizedAffinity -1.12136126
REMARK minimizedRMSD -1
REMARK  0 active torsions:
REMARK  status: ('A' for Active; 'I' for Inactive)
ROOT
ATOM      1  C1  DEN d   1       0.179  -3.333  -0.403  0.00  0.00     0.130 A 
ATOM      2  C2  DEN d   1       1.601  -3.561  -0.646  0.00  0.00    -0.031 A 
ATOM      3  C3  DEN d   1       2.349  -2.414  -0.095  0.00  0.00     0.027 A 
ATOM      4  C4  DEN d   1       1.448  -0.318   1.110  0.00  0.00     0.027 A 
ATOM      5  C5  DEN d   1       0.310   0.327   1.540  0.00  0.00    -0.003 A 
ATOM      6  C6  DEN d   1      -0.943  -0.181   1.324  0.00  0.00     0.001 A 
ATOM      7  C7  DEN d   1      -1.086  -1.393   0.700  0.00  0.00     0.017 A 
ATOM      8  C8  DEN d   1       0.056  -2.046   0.257  0.00  0.00    -0.094 A 
ATOM      9  C9  DEN d   1       1.315  -1.521   0.496  0.00  0.00    -0.072 A 
ENDROOT
TORSDOF 0
ENDMDL
