MODEL 1
REMARK minimizedAffinity -1.38854659
REMARK minimizedRMSD -1
REMARK  0 active torsions:
REMARK  status: ('A' for Active; 'I' for Inactive)
ROOT
ATOM      1  C1  DEN d   1       4.036   2.564  -1.165  0.00  0.00     0.130 A 
ATOM      2  C2  DEN d   1       4.894   2.985  -2.269  0.00  0.00    -0.031 A 
ATOM      3  C3  DEN d   1       5.552   4.249  -1.880  0.00  0.00     0.027 A 
ATOM      4  C4  DEN d   1       5.331   5.585   0.315  0.00  0.00     0.027 A 
ATOM      5  C5  DEN d   1       4.711   5.629   1.544  0.00  0.00    -0.003 A 
ATOM      6  C6  DEN d   1       3.804   4.682   1.940  0.00  0.00     0.001 A 
ATOM      7  C7  DEN d   1       3.526   3.623   1.116  0.00  0.00     0.017 A 
ATOM      8  C8  DEN d   1       4.141   3.575  -0.128  0.00  0.00    -0.094 A 
ATOM      9  C9  DEN d   1       5.064   4.536  -0.504  0.00  0.00    -0.072 A 
ENDROOT
TORSDOF 0
ENDMDL
