MODEL 1
REMARK minimizedAffinity -4.40564632
REMARK minimizedRMSD -1
REMARK  0 active torsions:
REMARK  status: ('A' for Active; 'I' for Inactive)
ROOT
ATOM      1  C1  DEN d   1       1.376  -0.375  -0.157  0.00  0.00     0.130 A 
ATOM      2  C2  DEN d   1       1.875  -1.747  -0.165  0.00  0.00    -0.031 A 
ATOM      3  C3  DEN d   1       1.034  -2.544   0.750  0.00  0.00     0.027 A 
ATOM      4  C4  DEN d   1      -0.986  -1.792   2.167  0.00  0.00     0.027 A 
ATOM      5  C5  DEN d   1      -1.777  -0.719   2.513  0.00  0.00    -0.003 A 
ATOM      6  C6  DEN d   1      -1.553   0.541   2.024  0.00  0.00     0.001 A 
ATOM      7  C7  DEN d   1      -0.541   0.750   1.125  0.00  0.00     0.017 A 
ATOM      8  C8  DEN d   1       0.266  -0.326   0.777  0.00  0.00    -0.094 A 
ATOM      9  C9  DEN d   1       0.016  -1.594   1.273  0.00  0.00    -0.072 A 
ENDROOT
TORSDOF 0
ENDMDL
