MODEL 1
REMARK minimizedAffinity -1.53129315
REMARK minimizedRMSD -1
REMARK  0 active torsions:
REMARK  status: ('A' for Active; 'I' for Inactive)
ROOT
ATOM      1  C1  DEN d   1       2.312  -0.364   0.020  0.00  0.00     0.130 A 
ATOM      2  C2  DEN d   1       3.248   0.173   1.004  0.00  0.00    -0.031 A 
ATOM      3  C3  DEN d   1       2.569   0.191   2.316  0.00  0.00     0.027 A 
ATOM      4  C4  DEN d   1       0.176  -0.560   2.915  0.00  0.00     0.027 A 
ATOM      5  C5  DEN d   1      -0.999  -1.075   2.412  0.00  0.00    -0.003 A 
ATOM      6  C6  DEN d   1      -1.162  -1.354   1.081  0.00  0.00     0.001 A 
ATOM      7  C7  DEN d   1      -0.118  -1.163   0.214  0.00  0.00     0.017 A 
ATOM      8  C8  DEN d   1       1.066  -0.637   0.713  0.00  0.00    -0.094 A 
ATOM      9  C9  DEN d   1       1.216  -0.373   2.064  0.00  0.00    -0.072 A 
ENDROOT
TORSDOF 0
ENDMDL
