MODEL 1
REMARK minimizedAffinity 0.369005889
REMARK minimizedRMSD -1
REMARK  0 active torsions:
REMARK  status: ('A' for Active; 'I' for Inactive)
ROOT
ATOM      1  C1  DEN d   1      -0.009   0.113   1.984  0.00  0.00     0.130 A 
ATOM      2  C2  DEN d   1       1.353   0.634   2.072  0.00  0.00    -0.031 A 
ATOM      3  C3  DEN d   1       2.221  -0.212   1.229  0.00  0.00     0.027 A 
ATOM      4  C4  DEN d   1       1.592  -2.264  -0.202  0.00  0.00     0.027 A 
ATOM      5  C5  DEN d   1       0.560  -3.091  -0.585  0.00  0.00    -0.003 A 
ATOM      6  C6  DEN d   1      -0.717  -2.931  -0.116  0.00  0.00     0.001 A 
ATOM      7  C7  DEN d   1      -1.004  -1.892   0.729  0.00  0.00     0.017 A 
ATOM      8  C8  DEN d   1       0.033  -1.057   1.126  0.00  0.00    -0.094 A 
ATOM      9  C9  DEN d   1       1.314  -1.229   0.631  0.00  0.00    -0.072 A 
ENDROOT
TORSDOF 0
ENDMDL
