MODEL 1
REMARK minimizedAffinity -2.96545172
REMARK minimizedRMSD -1
REMARK  0 active torsions:
REMARK  status: ('A' for Active; 'I' for Inactive)
ROOT
ATOM      1  C1  DEN d   1       0.987  -1.388   3.727  0.00  0.00     0.130 A 
ATOM      2  C2  DEN d   1       0.312  -0.353   4.506  0.00  0.00    -0.031 A 
ATOM      3  C3  DEN d   1      -0.762   0.220   3.671  0.00  0.00     0.027 A 
ATOM      4  C4  DEN d   1      -1.445  -0.394   1.260  0.00  0.00     0.027 A 
ATOM      5  C5  DEN d   1      -1.157  -1.203   0.184  0.00  0.00    -0.003 A 
ATOM      6  C6  DEN d   1      -0.122  -2.100   0.201  0.00  0.00     0.001 A 
ATOM      7  C7  DEN d   1       0.636  -2.241   1.333  0.00  0.00     0.017 A 
ATOM      8  C8  DEN d   1       0.357  -1.422   2.420  0.00  0.00    -0.094 A 
ATOM      9  C9  DEN d   1      -0.702  -0.531   2.388  0.00  0.00    -0.072 A 
ENDROOT
TORSDOF 0
ENDMDL
