MODEL 1
REMARK minimizedAffinity -2.36128235
REMARK minimizedRMSD -1
REMARK  0 active torsions:
REMARK  status: ('A' for Active; 'I' for Inactive)
ROOT
ATOM      1  C1  DEN d   1      -0.701  -1.344   0.473  0.00  0.00     0.130 A 
ATOM      2  C2  DEN d   1      -0.219  -0.015   0.837  0.00  0.00    -0.031 A 
ATOM      3  C3  DEN d   1       1.255  -0.020   0.734  0.00  0.00     0.027 A 
ATOM      4  C4  DEN d   1       2.827  -1.945   0.047  0.00  0.00     0.027 A 
ATOM      5  C5  DEN d   1       2.882  -3.266  -0.340  0.00  0.00    -0.003 A 
ATOM      6  C6  DEN d   1       1.758  -4.042  -0.449  0.00  0.00     0.001 A 
ATOM      7  C7  DEN d   1       0.527  -3.491  -0.212  0.00  0.00     0.017 A 
ATOM      8  C8  DEN d   1       0.464  -2.162   0.186  0.00  0.00    -0.094 A 
ATOM      9  C9  DEN d   1       1.610  -1.391   0.278  0.00  0.00    -0.072 A 
ENDROOT
TORSDOF 0
ENDMDL
