MODEL 1
REMARK minimizedAffinity 4.4643507
REMARK minimizedRMSD -1
REMARK  0 active torsions:
REMARK  status: ('A' for Active; 'I' for Inactive)
ROOT
ATOM      1  C1  DEN d   1      -1.804  -0.993   0.993  0.00  0.00     0.130 A 
ATOM      2  C2  DEN d   1      -1.762   0.096   1.965  0.00  0.00    -0.031 A 
ATOM      3  C3  DEN d   1      -0.346   0.399   2.252  0.00  0.00     0.027 A 
ATOM      4  C4  DEN d   1       1.777  -0.705   1.287  0.00  0.00     0.027 A 
ATOM      5  C5  DEN d   1       2.247  -1.681   0.436  0.00  0.00    -0.003 A 
ATOM      6  C6  DEN d   1       1.407  -2.512  -0.257  0.00  0.00     0.001 A 
ATOM      7  C7  DEN d   1       0.051  -2.352  -0.146  0.00  0.00     0.017 A 
ATOM      8  C8  DEN d   1      -0.431  -1.375   0.715  0.00  0.00    -0.094 A 
ATOM      9  C9  DEN d   1       0.435  -0.537   1.398  0.00  0.00    -0.072 A 
ENDROOT
TORSDOF 0
ENDMDL
