MODEL 1
REMARK minimizedAffinity -1.52593505
REMARK minimizedRMSD -1
REMARK  0 active torsions:
REMARK  status: ('A' for Active; 'I' for Inactive)
ROOT
ATOM      1  C1  DEN d   1       0.743  -0.244   1.637  0.00  0.00     0.130 A 
ATOM      2  C2  DEN d   1      -0.690  -0.499   1.756  0.00  0.00    -0.031 A 
ATOM      3  C3  DEN d   1      -0.992  -1.748   1.028  0.00  0.00     0.027 A 
ATOM      4  C4  DEN d   1       0.611  -3.306  -0.259  0.00  0.00     0.027 A 
ATOM      5  C5  DEN d   1       1.918  -3.497  -0.648  0.00  0.00    -0.003 A 
ATOM      6  C6  DEN d   1       2.911  -2.608  -0.334  0.00  0.00     0.001 A 
ATOM      7  C7  DEN d   1       2.621  -1.507   0.428  0.00  0.00     0.017 A 
ATOM      8  C8  DEN d   1       1.304  -1.304   0.818  0.00  0.00    -0.094 A 
ATOM      9  C9  DEN d   1       0.316  -2.221   0.501  0.00  0.00    -0.072 A 
ENDROOT
TORSDOF 0
ENDMDL
