MODEL 1
REMARK minimizedAffinity -1.11662221
REMARK minimizedRMSD -1
REMARK  0 active torsions:
REMARK  status: ('A' for Active; 'I' for Inactive)
ROOT
ATOM      1  C1  DEN d   1      -1.116  -1.933   0.708  0.00  0.00     0.130 A 
ATOM      2  C2  DEN d   1      -1.133  -0.539   1.146  0.00  0.00    -0.031 A 
ATOM      3  C3  DEN d   1       0.214   0.025   0.925  0.00  0.00     0.027 A 
ATOM      4  C4  DEN d   1       2.312  -1.116  -0.050  0.00  0.00     0.027 A 
ATOM      5  C5  DEN d   1       2.817  -2.294  -0.552  0.00  0.00    -0.003 A 
ATOM      6  C6  DEN d   1       2.064  -3.435  -0.637  0.00  0.00     0.001 A 
ATOM      7  C7  DEN d   1       0.748  -3.409  -0.255  0.00  0.00     0.017 A 
ATOM      8  C8  DEN d   1       0.233  -2.227   0.259  0.00  0.00    -0.094 A 
ATOM      9  C9  DEN d   1       1.008  -1.081   0.326  0.00  0.00    -0.072 A 
ENDROOT
TORSDOF 0
ENDMDL
