MODEL 1
REMARK minimizedAffinity 0.232383043
REMARK minimizedRMSD -1
REMARK  0 active torsions:
REMARK  status: ('A' for Active; 'I' for Inactive)
ROOT
ATOM      1  C1  DEN d   1       0.927  -0.070   1.374  0.00  0.00     0.130 A 
ATOM      2  C2  DEN d   1      -0.533  -0.037   1.362  0.00  0.00    -0.031 A 
ATOM      3  C3  DEN d   1      -1.009  -1.234   0.639  0.00  0.00     0.027 A 
ATOM      4  C4  DEN d   1       0.364  -3.126  -0.451  0.00  0.00     0.027 A 
ATOM      5  C5  DEN d   1       1.637  -3.584  -0.708  0.00  0.00    -0.003 A 
ATOM      6  C6  DEN d   1       2.754  -2.891  -0.322  0.00  0.00     0.001 A 
ATOM      7  C7  DEN d   1       2.619  -1.724   0.382  0.00  0.00     0.017 A 
ATOM      8  C8  DEN d   1       1.339  -1.252   0.639  0.00  0.00    -0.094 A 
ATOM      9  C9  DEN d   1       0.222  -1.973   0.251  0.00  0.00    -0.072 A 
ENDROOT
TORSDOF 0
ENDMDL
