MODEL 1
REMARK minimizedAffinity -1.92339146
REMARK minimizedRMSD -1
REMARK  0 active torsions:
REMARK  status: ('A' for Active; 'I' for Inactive)
ROOT
ATOM      1  C1  DEN d   1       3.583  -1.870  -0.121  0.00  0.00     0.130 A 
ATOM      2  C2  DEN d   1       3.716  -3.281  -0.474  0.00  0.00    -0.031 A 
ATOM      3  C3  DEN d   1       2.375  -3.896  -0.405  0.00  0.00     0.027 A 
ATOM      4  C4  DEN d   1       0.118  -2.806   0.204  0.00  0.00     0.027 A 
ATOM      5  C5  DEN d   1      -0.494  -1.633   0.588  0.00  0.00    -0.003 A 
ATOM      6  C6  DEN d   1       0.208  -0.475   0.793  0.00  0.00     0.001 A 
ATOM      7  C7  DEN d   1       1.560  -0.453   0.572  0.00  0.00     0.017 A 
ATOM      8  C8  DEN d   1       2.186  -1.633   0.192  0.00  0.00    -0.094 A 
ATOM      9  C9  DEN d   1       1.456  -2.790  -0.022  0.00  0.00    -0.072 A 
ENDROOT
TORSDOF 0
ENDMDL
