MODEL 1
REMARK minimizedAffinity 9.35764408
REMARK minimizedRMSD -1
REMARK  0 active torsions:
REMARK  status: ('A' for Active; 'I' for Inactive)
ROOT
ATOM      1  C1  DEN d   1       0.429  -0.304   3.437  0.00  0.00     0.130 A 
ATOM      2  C2  DEN d   1       1.833  -0.044   3.743  0.00  0.00    -0.031 A 
ATOM      3  C3  DEN d   1       2.629  -0.355   2.539  0.00  0.00     0.027 A 
ATOM      4  C4  DEN d   1       1.827  -1.207   0.240  0.00  0.00     0.027 A 
ATOM      5  C5  DEN d   1       0.726  -1.588  -0.494  0.00  0.00    -0.003 A 
ATOM      6  C6  DEN d   1      -0.537  -1.600   0.036  0.00  0.00     0.001 A 
ATOM      7  C7  DEN d   1      -0.736  -1.181   1.325  0.00  0.00     0.017 A 
ATOM      8  C8  DEN d   1       0.371  -0.802   2.074  0.00  0.00    -0.094 A 
ATOM      9  C9  DEN d   1       1.638  -0.785   1.516  0.00  0.00    -0.072 A 
ENDROOT
TORSDOF 0
ENDMDL
