MODEL 1
REMARK minimizedAffinity 1.51742625
REMARK minimizedRMSD -1
REMARK  0 active torsions:
REMARK  status: ('A' for Active; 'I' for Inactive)
ROOT
ATOM      1  C1  DEN d   1       2.762   3.259  -3.015  0.00  0.00     0.130 A 
ATOM      2  C2  DEN d   1       3.750   2.939  -4.042  0.00  0.00    -0.031 A 
ATOM      3  C3  DEN d   1       3.426   3.727  -5.248  0.00  0.00     0.027 A 
ATOM      4  C4  DEN d   1       1.504   5.407  -5.621  0.00  0.00     0.027 A 
ATOM      5  C5  DEN d   1       0.404   6.000  -5.043  0.00  0.00    -0.003 A 
ATOM      6  C6  DEN d   1      -0.005   5.698  -3.771  0.00  0.00     0.001 A 
ATOM      7  C7  DEN d   1       0.719   4.812  -3.018  0.00  0.00     0.017 A 
ATOM      8  C8  DEN d   1       1.826   4.204  -3.596  0.00  0.00    -0.094 A 
ATOM      9  C9  DEN d   1       2.230   4.532  -4.880  0.00  0.00    -0.072 A 
ENDROOT
TORSDOF 0
ENDMDL
