MODEL 1
REMARK minimizedAffinity -3.51283693
REMARK minimizedRMSD -1
REMARK  2 active torsions:
REMARK  status: ('A' for Active; 'I' for Inactive)
REMARK    1  A    between atoms: C1_2  and  C2_3 
REMARK    2  A    between atoms: C2_3  and  C3_4 
ROOT
ATOM      1  C3  UNL d   1      -0.368   1.128  -0.213  0.00  0.00    -0.075 A 
ATOM      2  C4  UNL d   1      -1.078   0.579   0.865  0.00  0.00     0.002 A 
ATOM      3  C5  UNL d   1      -1.727   1.408   1.780  0.00  0.00     0.002 A 
ATOM      4  C6  UNL d   1      -1.667   2.792   1.636  0.00  0.00    -0.004 A 
ATOM      5  C7  UNL d   1      -0.951   3.349   0.579  0.00  0.00     0.002 A 
ATOM      6  C8  UNL d   1      -0.304   2.522  -0.341  0.00  0.00     0.002 A 
ENDROOT
BRANCH   1   7
ATOM      7  C2  UNL d   1       0.312   0.236  -1.224  0.00  0.00     0.056 C 
BRANCH   7   8
ATOM      8  C1  UNL d   1       1.005  -0.986  -0.612  0.00  0.00     0.007 C 
ATOM      9  C   UNL d   1       0.909  -2.230  -1.484  0.00  0.00     0.009 C 
ENDBRANCH   7   8
ENDBRANCH   1   7
TORSDOF 2
ENDMDL
