MODEL 1
REMARK minimizedAffinity -5.40746403
REMARK minimizedRMSD -1
REMARK  2 active torsions:
REMARK  status: ('A' for Active; 'I' for Inactive)
REMARK    1  A    between atoms: C1_2  and  C2_3 
REMARK    2  A    between atoms: C2_3  and  C3_4 
ROOT
ATOM      1  C3  UNL d   1      -0.156  -0.200  -0.045  0.00  0.00    -0.075 A 
ATOM      2  C4  UNL d   1      -0.475   0.994  -0.707  0.00  0.00     0.002 A 
ATOM      3  C5  UNL d   1      -1.223   1.982  -0.065  0.00  0.00     0.002 A 
ATOM      4  C6  UNL d   1      -1.669   1.784   1.240  0.00  0.00    -0.004 A 
ATOM      5  C7  UNL d   1      -1.373   0.595   1.901  0.00  0.00     0.002 A 
ATOM      6  C8  UNL d   1      -0.621  -0.393   1.263  0.00  0.00     0.002 A 
ENDROOT
BRANCH   1   7
ATOM      7  C2  UNL d   1       0.678  -1.260  -0.723  0.00  0.00     0.056 C 
BRANCH   7   8
ATOM      8  C1  UNL d   1       0.018  -1.875  -1.962  0.00  0.00     0.007 C 
ATOM      9  C   UNL d   1       0.302  -3.363  -2.117  0.00  0.00     0.009 C 
ENDBRANCH   7   8
ENDBRANCH   1   7
TORSDOF 2
ENDMDL
