MODEL 1
REMARK minimizedAffinity -2.35968304
REMARK minimizedRMSD -1
REMARK  2 active torsions:
REMARK  status: ('A' for Active; 'I' for Inactive)
REMARK    1  A    between atoms: C1_2  and  C2_3 
REMARK    2  A    between atoms: C2_3  and  C3_4 
ROOT
ATOM      1  C3  UNL d   1       0.518  -0.660  -0.890  0.00  0.00    -0.075 A 
ATOM      2  C4  UNL d   1       0.580  -1.297   0.358  0.00  0.00     0.002 A 
ATOM      3  C5  UNL d   1      -0.001  -0.709   1.482  0.00  0.00     0.002 A 
ATOM      4  C6  UNL d   1      -0.640   0.524   1.376  0.00  0.00    -0.004 A 
ATOM      5  C7  UNL d   1      -0.693   1.173   0.145  0.00  0.00     0.002 A 
ATOM      6  C8  UNL d   1      -0.117   0.586  -0.983  0.00  0.00     0.002 A 
ENDROOT
BRANCH   1   7
ATOM      7  C2  UNL d   1       1.118  -1.304  -2.117  0.00  0.00     0.056 C 
BRANCH   7   8
ATOM      8  C1  UNL d   1       0.617  -2.728  -2.382  0.00  0.00     0.007 C 
ATOM      9  C   UNL d   1       0.396  -3.022  -3.860  0.00  0.00     0.009 C 
ENDBRANCH   7   8
ENDBRANCH   1   7
TORSDOF 2
ENDMDL
