MODEL 1
REMARK minimizedAffinity -4.76289892
REMARK minimizedRMSD -1
REMARK  2 active torsions:
REMARK  status: ('A' for Active; 'I' for Inactive)
REMARK    1  A    between atoms: C1_2  and  C2_3 
REMARK    2  A    between atoms: C2_3  and  C3_4 
ROOT
ATOM      1  C3  UNL d   1       0.160   0.335  -0.042  0.00  0.00    -0.075 A 
ATOM      2  C4  UNL d   1      -0.289  -0.230   1.161  0.00  0.00     0.002 A 
ATOM      3  C5  UNL d   1      -1.229   0.436   1.948  0.00  0.00     0.002 A 
ATOM      4  C6  UNL d   1      -1.724   1.675   1.549  0.00  0.00    -0.004 A 
ATOM      5  C7  UNL d   1      -1.273   2.253   0.365  0.00  0.00     0.002 A 
ATOM      6  C8  UNL d   1      -0.335   1.588  -0.427  0.00  0.00     0.002 A 
ENDROOT
BRANCH   1   7
ATOM      7  C2  UNL d   1       1.156  -0.393  -0.913  0.00  0.00     0.056 C 
BRANCH   7   8
ATOM      8  C1  UNL d   1       1.121  -1.917  -0.760  0.00  0.00     0.007 C 
ATOM      9  C   UNL d   1       0.463  -2.624  -1.938  0.00  0.00     0.009 C 
ENDBRANCH   7   8
ENDBRANCH   1   7
TORSDOF 2
ENDMDL
