MODEL 1
REMARK minimizedAffinity -2.17206216
REMARK minimizedRMSD -1
REMARK  2 active torsions:
REMARK  status: ('A' for Active; 'I' for Inactive)
REMARK    1  A    between atoms: C1_2  and  C2_3 
REMARK    2  A    between atoms: C2_3  and  C3_4 
ROOT
ATOM      1  C3  UNL d   1      -0.644   0.279  -0.103  0.00  0.00    -0.075 A 
ATOM      2  C4  UNL d   1       0.232   0.333   0.991  0.00  0.00     0.002 A 
ATOM      3  C5  UNL d   1      -0.028   1.183   2.065  0.00  0.00     0.002 A 
ATOM      4  C6  UNL d   1      -1.159   1.996   2.056  0.00  0.00    -0.004 A 
ATOM      5  C7  UNL d   1      -2.028   1.963   0.967  0.00  0.00     0.002 A 
ATOM      6  C8  UNL d   1      -1.772   1.110  -0.108  0.00  0.00     0.002 A 
ENDROOT
BRANCH   1   7
ATOM      7  C2  UNL d   1      -0.383  -0.661  -1.256  0.00  0.00     0.056 C 
BRANCH   7   8
ATOM      8  C1  UNL d   1      -0.198  -2.124  -0.839  0.00  0.00     0.007 C 
ATOM      9  C   UNL d   1      -0.654  -3.114  -1.902  0.00  0.00     0.009 C 
ENDBRANCH   7   8
ENDBRANCH   1   7
TORSDOF 2
ENDMDL
