MODEL 1
REMARK minimizedAffinity -2.68819046
REMARK minimizedRMSD -1
REMARK  2 active torsions:
REMARK  status: ('A' for Active; 'I' for Inactive)
REMARK    1  A    between atoms: C1_2  and  C2_3 
REMARK    2  A    between atoms: C2_3  and  C3_4 
ROOT
ATOM      1  C3  UNL d   1      -0.050   0.457   0.110  0.00  0.00    -0.075 A 
ATOM      2  C4  UNL d   1      -0.039   1.737  -0.463  0.00  0.00     0.002 A 
ATOM      3  C5  UNL d   1      -0.730   2.789   0.139  0.00  0.00     0.002 A 
ATOM      4  C6  UNL d   1      -1.448   2.573   1.313  0.00  0.00    -0.004 A 
ATOM      5  C7  UNL d   1      -1.480   1.302   1.882  0.00  0.00     0.002 A 
ATOM      6  C8  UNL d   1      -0.786   0.249   1.284  0.00  0.00     0.002 A 
ENDROOT
BRANCH   1   7
ATOM      7  C2  UNL d   1       0.720  -0.678  -0.520  0.00  0.00     0.056 C 
BRANCH   7   8
ATOM      8  C1  UNL d   1       0.171  -1.126  -1.879  0.00  0.00     0.007 C 
ATOM      9  C   UNL d   1       0.529  -2.565  -2.226  0.00  0.00     0.009 C 
ENDBRANCH   7   8
ENDBRANCH   1   7
TORSDOF 2
ENDMDL
