MODEL 1
REMARK minimizedAffinity -3.89883399
REMARK minimizedRMSD -1
REMARK  2 active torsions:
REMARK  status: ('A' for Active; 'I' for Inactive)
REMARK    1  A    between atoms: C1_2  and  C2_3 
REMARK    2  A    between atoms: C2_3  and  C3_4 
ROOT
ATOM      1  C3  UNL d   1      -0.199   0.240   0.579  0.00  0.00    -0.075 A 
ATOM      2  C4  UNL d   1      -0.985  -0.382   1.560  0.00  0.00     0.002 A 
ATOM      3  C5  UNL d   1      -2.011   0.320   2.196  0.00  0.00     0.002 A 
ATOM      4  C6  UNL d   1      -2.256   1.651   1.867  0.00  0.00    -0.004 A 
ATOM      5  C7  UNL d   1      -1.470   2.284   0.907  0.00  0.00     0.002 A 
ATOM      6  C8  UNL d   1      -0.446   1.584   0.266  0.00  0.00     0.002 A 
ENDROOT
BRANCH   1   7
ATOM      7  C2  UNL d   1       0.893  -0.521  -0.133  0.00  0.00     0.056 C 
BRANCH   7   8
ATOM      8  C1  UNL d   1       0.384  -1.684  -0.992  0.00  0.00     0.007 C 
ATOM      9  C   UNL d   1       1.502  -2.470  -1.663  0.00  0.00     0.009 C 
ENDBRANCH   7   8
ENDBRANCH   1   7
TORSDOF 2
ENDMDL
