MODEL 1
REMARK minimizedAffinity -3.7872014
REMARK minimizedRMSD -1
REMARK  2 active torsions:
REMARK  status: ('A' for Active; 'I' for Inactive)
REMARK    1  A    between atoms: C1_2  and  C2_3 
REMARK    2  A    between atoms: C2_3  and  C3_4 
ROOT
ATOM      1  C3  UNL d   1       0.874  -1.652  -1.287  0.00  0.00    -0.075 A 
ATOM      2  C4  UNL d   1       1.509  -2.866  -0.987  0.00  0.00     0.002 A 
ATOM      3  C5  UNL d   1       1.432  -3.943  -1.870  0.00  0.00     0.002 A 
ATOM      4  C6  UNL d   1       0.713  -3.824  -3.057  0.00  0.00    -0.004 A 
ATOM      5  C7  UNL d   1       0.065  -2.628  -3.358  0.00  0.00     0.002 A 
ATOM      6  C8  UNL d   1       0.144  -1.548  -2.479  0.00  0.00     0.002 A 
ENDROOT
BRANCH   1   7
ATOM      7  C2  UNL d   1       0.978  -0.473  -0.350  0.00  0.00     0.056 C 
BRANCH   7   8
ATOM      8  C1  UNL d   1      -0.291  -0.213   0.469  0.00  0.00     0.007 C 
ATOM      9  C   UNL d   1      -0.973   1.102   0.117  0.00  0.00     0.009 C 
ENDBRANCH   7   8
ENDBRANCH   1   7
TORSDOF 2
ENDMDL
