MODEL 1
REMARK minimizedAffinity -5.88659668
REMARK minimizedRMSD -1
REMARK  2 active torsions:
REMARK  status: ('A' for Active; 'I' for Inactive)
REMARK    1  A    between atoms: C1_2  and  C2_3 
REMARK    2  A    between atoms: C2_3  and  C3_4 
ROOT
ATOM      1  C3  UNL d   1       0.267  -0.109  -0.161  0.00  0.00    -0.075 A 
ATOM      2  C4  UNL d   1      -0.583   0.951  -0.508  0.00  0.00     0.002 A 
ATOM      3  C5  UNL d   1      -1.453   1.500   0.435  0.00  0.00     0.002 A 
ATOM      4  C6  UNL d   1      -1.491   0.990   1.731  0.00  0.00    -0.004 A 
ATOM      5  C7  UNL d   1      -0.664  -0.074   2.082  0.00  0.00     0.002 A 
ATOM      6  C8  UNL d   1       0.211  -0.622   1.142  0.00  0.00     0.002 A 
ENDROOT
BRANCH   1   7
ATOM      7  C2  UNL d   1       1.231  -0.688  -1.168  0.00  0.00     0.056 C 
BRANCH   7   8
ATOM      8  C1  UNL d   1       1.108  -2.204  -1.350  0.00  0.00     0.007 C 
ATOM      9  C   UNL d   1       0.828  -2.616  -2.789  0.00  0.00     0.009 C 
ENDBRANCH   7   8
ENDBRANCH   1   7
TORSDOF 2
ENDMDL
