MODEL 1
REMARK minimizedAffinity -4.60069942
REMARK minimizedRMSD -1
REMARK  2 active torsions:
REMARK  status: ('A' for Active; 'I' for Inactive)
REMARK    1  A    between atoms: C1_2  and  C2_3 
REMARK    2  A    between atoms: C2_3  and  C3_4 
ROOT
ATOM      1  C3  UNL d   1       0.394  -1.420  -0.807  0.00  0.00    -0.075 A 
ATOM      2  C4  UNL d   1      -0.837  -1.882  -1.295  0.00  0.00     0.002 A 
ATOM      3  C5  UNL d   1      -0.886  -2.931  -2.214  0.00  0.00     0.002 A 
ATOM      4  C6  UNL d   1       0.292  -3.524  -2.662  0.00  0.00    -0.004 A 
ATOM      5  C7  UNL d   1       1.521  -3.063  -2.196  0.00  0.00     0.002 A 
ATOM      6  C8  UNL d   1       1.573  -2.016  -1.274  0.00  0.00     0.002 A 
ENDROOT
BRANCH   1   7
ATOM      7  C2  UNL d   1       0.453  -0.305   0.210  0.00  0.00     0.056 C 
BRANCH   7   8
ATOM      8  C1  UNL d   1      -0.425  -0.539   1.444  0.00  0.00     0.007 C 
ATOM      9  C   UNL d   1      -1.198   0.701   1.874  0.00  0.00     0.009 C 
ENDBRANCH   7   8
ENDBRANCH   1   7
TORSDOF 2
ENDMDL
