MODEL 1
REMARK minimizedAffinity -5.24394226
REMARK minimizedRMSD -1
REMARK  2 active torsions:
REMARK  status: ('A' for Active; 'I' for Inactive)
REMARK    1  A    between atoms: C1_2  and  C2_3 
REMARK    2  A    between atoms: C2_3  and  C3_4 
ROOT
ATOM      1  C3  UNL d   1       0.236   0.114   0.041  0.00  0.00    -0.075 A 
ATOM      2  C4  UNL d   1      -0.176  -0.019   1.375  0.00  0.00     0.002 A 
ATOM      3  C5  UNL d   1      -1.070   0.894   1.935  0.00  0.00     0.002 A 
ATOM      4  C6  UNL d   1      -1.554   1.956   1.173  0.00  0.00    -0.004 A 
ATOM      5  C7  UNL d   1      -1.138   2.107  -0.148  0.00  0.00     0.002 A 
ATOM      6  C8  UNL d   1      -0.248   1.192  -0.712  0.00  0.00     0.002 A 
ENDROOT
BRANCH   1   7
ATOM      7  C2  UNL d   1       1.181  -0.888  -0.579  0.00  0.00     0.056 C 
BRANCH   7   8
ATOM      8  C1  UNL d   1       0.521  -1.815  -1.606  0.00  0.00     0.007 C 
ATOM      9  C   UNL d   1       0.860  -3.284  -1.394  0.00  0.00     0.009 C 
ENDBRANCH   7   8
ENDBRANCH   1   7
TORSDOF 2
ENDMDL
