MODEL 1
REMARK minimizedAffinity -3.43074942
REMARK minimizedRMSD -1
REMARK  2 active torsions:
REMARK  status: ('A' for Active; 'I' for Inactive)
REMARK    1  A    between atoms: C1_2  and  C2_3 
REMARK    2  A    between atoms: C2_3  and  C3_4 
ROOT
ATOM      1  C3  UNL d   1      -0.179   0.117   0.459  0.00  0.00    -0.075 A 
ATOM      2  C4  UNL d   1      -0.952  -0.798   1.190  0.00  0.00     0.002 A 
ATOM      3  C5  UNL d   1      -1.742  -0.365   2.255  0.00  0.00     0.002 A 
ATOM      4  C6  UNL d   1      -1.761   0.982   2.610  0.00  0.00    -0.004 A 
ATOM      5  C7  UNL d   1      -0.984   1.896   1.902  0.00  0.00     0.002 A 
ATOM      6  C8  UNL d   1      -0.197   1.467   0.833  0.00  0.00     0.002 A 
ENDROOT
BRANCH   1   7
ATOM      7  C2  UNL d   1       0.655  -0.340  -0.714  0.00  0.00     0.056 C 
BRANCH   7   8
ATOM      8  C1  UNL d   1       0.583  -1.847  -0.981  0.00  0.00     0.007 C 
ATOM      9  C   UNL d   1      -0.028  -2.189  -2.333  0.00  0.00     0.009 C 
ENDBRANCH   7   8
ENDBRANCH   1   7
TORSDOF 2
ENDMDL
