MODEL 1
REMARK minimizedAffinity 14.7255983
REMARK minimizedRMSD -1
REMARK  0 active torsions:
REMARK  status: ('A' for Active; 'I' for Inactive)
ROOT
ATOM      1  C2' OXE d   1      -1.981   3.141  -1.106  0.00  0.00     0.078 C 
ATOM      2  C1' OXE d   1      -2.311   2.654   1.639  0.00  0.00     0.078 C 
ATOM      3  C1  OXE d   1      -1.045   2.161   0.984  0.00  0.00    -0.078 A 
ATOM      4  C2  OXE d   1      -0.913   2.363  -0.369  0.00  0.00    -0.078 A 
ATOM      5  C3  OXE d   1       0.260   1.976  -1.012  0.00  0.00     0.003 A 
ATOM      6  C4  OXE d   1       1.238   1.248  -0.325  0.00  0.00    -0.002 A 
ATOM      7  C5  OXE d   1       1.106   0.997   1.045  0.00  0.00    -0.002 A 
ATOM      8  C6  OXE d   1      -0.008   1.483   1.722  0.00  0.00     0.003 A 
ENDROOT
TORSDOF 0
ENDMDL
