MODEL 1
REMARK minimizedAffinity 12.4022675
REMARK minimizedRMSD -1
REMARK  0 active torsions:
REMARK  status: ('A' for Active; 'I' for Inactive)
ROOT
ATOM      1  C2' OXE d   1       0.384   5.557  -1.566  0.00  0.00     0.078 C 
ATOM      2  C1' OXE d   1      -1.509   5.530   0.506  0.00  0.00     0.078 C 
ATOM      3  C1  OXE d   1      -0.824   4.231   0.163  0.00  0.00    -0.078 A 
ATOM      4  C2  OXE d   1       0.067   4.244  -0.883  0.00  0.00    -0.078 A 
ATOM      5  C3  OXE d   1       0.768   3.085  -1.206  0.00  0.00     0.003 A 
ATOM      6  C4  OXE d   1       0.461   1.873  -0.577  0.00  0.00    -0.002 A 
ATOM      7  C5  OXE d   1      -0.472   1.830   0.465  0.00  0.00    -0.002 A 
ATOM      8  C6  OXE d   1      -1.091   3.005   0.874  0.00  0.00     0.003 A 
ENDROOT
TORSDOF 0
ENDMDL
