MODEL 1
REMARK minimizedAffinity 14.2751245
REMARK minimizedRMSD -1
REMARK  0 active torsions:
REMARK  status: ('A' for Active; 'I' for Inactive)
ROOT
ATOM      1  C2' OXE d   1      -1.457   1.893   2.618  0.00  0.00     0.078 C 
ATOM      2  C1' OXE d   1       1.341   2.114   2.619  0.00  0.00     0.078 C 
ATOM      3  C1  OXE d   1       0.597   2.611   1.405  0.00  0.00    -0.078 A 
ATOM      4  C2  OXE d   1      -0.769   2.456   1.394  0.00  0.00    -0.078 A 
ATOM      5  C3  OXE d   1      -1.509   2.947   0.323  0.00  0.00     0.003 A 
ATOM      6  C4  OXE d   1      -0.864   3.458  -0.810  0.00  0.00    -0.002 A 
ATOM      7  C5  OXE d   1       0.528   3.589  -0.836  0.00  0.00    -0.002 A 
ATOM      8  C6  OXE d   1       1.269   3.210   0.279  0.00  0.00     0.003 A 
ENDROOT
TORSDOF 0
ENDMDL
