MODEL 1
REMARK minimizedAffinity 14.7019186
REMARK minimizedRMSD -1
REMARK  0 active torsions:
REMARK  status: ('A' for Active; 'I' for Inactive)
ROOT
ATOM      1  C2' OXE d   1       1.543  -4.093  -3.114  0.00  0.00     0.078 C 
ATOM      2  C1' OXE d   1       0.683  -5.768  -1.032  0.00  0.00     0.078 C 
ATOM      3  C1  OXE d   1       1.291  -4.439  -0.660  0.00  0.00    -0.078 A 
ATOM      4  C2  OXE d   1       1.752  -3.646  -1.683  0.00  0.00    -0.078 A 
ATOM      5  C3  OXE d   1       2.273  -2.387  -1.399  0.00  0.00     0.003 A 
ATOM      6  C4  OXE d   1       2.472  -1.985  -0.073  0.00  0.00    -0.002 A 
ATOM      7  C5  OXE d   1       2.046  -2.794   0.986  0.00  0.00    -0.002 A 
ATOM      8  C6  OXE d   1       1.417  -4.003   0.709  0.00  0.00     0.003 A 
ENDROOT
TORSDOF 0
ENDMDL
