MODEL 1
REMARK minimizedAffinity 9.62029934
REMARK minimizedRMSD -1
REMARK  0 active torsions:
REMARK  status: ('A' for Active; 'I' for Inactive)
ROOT
ATOM      1  C2' OXE d   1      -0.073   1.418   2.179  0.00  0.00     0.078 C 
ATOM      2  C1' OXE d   1       2.541   2.379   1.829  0.00  0.00     0.078 C 
ATOM      3  C1  OXE d   1       1.499   2.793   0.821  0.00  0.00    -0.078 A 
ATOM      4  C2  OXE d   1       0.233   2.281   0.974  0.00  0.00    -0.078 A 
ATOM      5  C3  OXE d   1      -0.780   2.674   0.103  0.00  0.00     0.003 A 
ATOM      6  C4  OXE d   1      -0.486   3.464  -1.015  0.00  0.00    -0.002 A 
ATOM      7  C5  OXE d   1       0.805   3.965  -1.211  0.00  0.00    -0.002 A 
ATOM      8  C6  OXE d   1       1.797   3.674  -0.281  0.00  0.00     0.003 A 
ENDROOT
TORSDOF 0
ENDMDL
