MODEL 1
REMARK minimizedAffinity 7.51213169
REMARK minimizedRMSD -1
REMARK  0 active torsions:
REMARK  status: ('A' for Active; 'I' for Inactive)
ROOT
ATOM      1  C2' OXE d   1      -1.709   3.594  -1.803  0.00  0.00     0.078 C 
ATOM      2  C1' OXE d   1       1.044   4.143  -1.818  0.00  0.00     0.078 C 
ATOM      3  C1  OXE d   1       0.526   3.171  -0.787  0.00  0.00    -0.078 A 
ATOM      4  C2  OXE d   1      -0.829   2.945  -0.757  0.00  0.00    -0.078 A 
ATOM      5  C3  OXE d   1      -1.353   2.016   0.138  0.00  0.00     0.003 A 
ATOM      6  C4  OXE d   1      -0.534   1.428   1.109  0.00  0.00    -0.002 A 
ATOM      7  C5  OXE d   1       0.843   1.676   1.122  0.00  0.00    -0.002 A 
ATOM      8  C6  OXE d   1       1.394   2.510   0.156  0.00  0.00     0.003 A 
ENDROOT
TORSDOF 0
ENDMDL
