MODEL 1
REMARK minimizedAffinity 21.9840164
REMARK minimizedRMSD -1
REMARK  0 active torsions:
REMARK  status: ('A' for Active; 'I' for Inactive)
ROOT
ATOM      1  C2' OXE d   1       1.055  -5.115  -1.020  0.00  0.00     0.078 C 
ATOM      2  C1' OXE d   1       3.846  -5.367  -1.172  0.00  0.00     0.078 C 
ATOM      3  C1  OXE d   1       3.286  -4.089  -0.599  0.00  0.00    -0.078 A 
ATOM      4  C2  OXE d   1       1.918  -3.956  -0.572  0.00  0.00    -0.078 A 
ATOM      5  C3  OXE d   1       1.348  -2.820  -0.003  0.00  0.00     0.003 A 
ATOM      6  C4  OXE d   1       2.153  -1.749   0.400  0.00  0.00    -0.002 A 
ATOM      7  C5  OXE d   1       3.548  -1.848   0.344  0.00  0.00    -0.002 A 
ATOM      8  C6  OXE d   1       4.129  -3.026  -0.113  0.00  0.00     0.003 A 
ENDROOT
TORSDOF 0
ENDMDL
