MODEL 1
REMARK minimizedAffinity 12.9664698
REMARK minimizedRMSD -1
REMARK  0 active torsions:
REMARK  status: ('A' for Active; 'I' for Inactive)
ROOT
ATOM      1  C2' OXE d   1       2.723   2.629   1.846  0.00  0.00     0.078 C 
ATOM      2  C1' OXE d   1       0.941   3.150  -0.260  0.00  0.00     0.078 C 
ATOM      3  C1  OXE d   1       0.379   2.551   1.005  0.00  0.00    -0.078 A 
ATOM      4  C2  OXE d   1       1.265   2.256   2.013  0.00  0.00    -0.078 A 
ATOM      5  C3  OXE d   1       0.792   1.754   3.222  0.00  0.00     0.003 A 
ATOM      6  C4  OXE d   1      -0.555   1.402   3.365  0.00  0.00    -0.002 A 
ATOM      7  C5  OXE d   1      -1.468   1.657   2.336  0.00  0.00    -0.002 A 
ATOM      8  C6  OXE d   1      -1.026   2.269   1.168  0.00  0.00     0.003 A 
ENDROOT
TORSDOF 0
ENDMDL
