MODEL 1
REMARK minimizedAffinity 19.0074444
REMARK minimizedRMSD -1
REMARK  0 active torsions:
REMARK  status: ('A' for Active; 'I' for Inactive)
ROOT
ATOM      1  C2' OXE d   1      -5.520   2.314  -2.621  0.00  0.00     0.078 C 
ATOM      2  C1' OXE d   1      -3.039   3.495  -3.196  0.00  0.00     0.078 C 
ATOM      3  C1  OXE d   1      -3.516   2.386  -4.100  0.00  0.00    -0.078 A 
ATOM      4  C2  OXE d   1      -4.710   1.782  -3.784  0.00  0.00    -0.078 A 
ATOM      5  C3  OXE d   1      -5.222   0.791  -4.616  0.00  0.00     0.003 A 
ATOM      6  C4  OXE d   1      -4.462   0.298  -5.683  0.00  0.00    -0.002 A 
ATOM      7  C5  OXE d   1      -3.226   0.872  -5.999  0.00  0.00    -0.002 A 
ATOM      8  C6  OXE d   1      -2.759   1.943  -5.245  0.00  0.00     0.003 A 
ENDROOT
TORSDOF 0
ENDMDL
