MODEL 1
REMARK minimizedAffinity 9.95820141
REMARK minimizedRMSD -1
REMARK  0 active torsions:
REMARK  status: ('A' for Active; 'I' for Inactive)
ROOT
ATOM      1  C2' OXE d   1       0.952  -3.740  -5.283  0.00  0.00     0.078 C 
ATOM      2  C1' OXE d   1       3.131  -5.415  -4.709  0.00  0.00     0.078 C 
ATOM      3  C1  OXE d   1       2.136  -5.151  -3.606  0.00  0.00    -0.078 A 
ATOM      4  C2  OXE d   1       1.099  -4.294  -3.882  0.00  0.00    -0.078 A 
ATOM      5  C3  OXE d   1       0.123  -4.059  -2.917  0.00  0.00     0.003 A 
ATOM      6  C4  OXE d   1       0.271  -4.567  -1.621  0.00  0.00    -0.002 A 
ATOM      7  C5  OXE d   1       1.342  -5.411  -1.307  0.00  0.00    -0.002 A 
ATOM      8  C6  OXE d   1       2.258  -5.746  -2.298  0.00  0.00     0.003 A 
ENDROOT
TORSDOF 0
ENDMDL
