MODEL 1
REMARK minimizedAffinity 7.99995136
REMARK minimizedRMSD -1
REMARK  0 active torsions:
REMARK  status: ('A' for Active; 'I' for Inactive)
ROOT
ATOM      1  C2' OXE d   1      -2.812   3.080  -1.328  0.00  0.00     0.078 C 
ATOM      2  C1' OXE d   1      -3.154   3.679   1.393  0.00  0.00     0.078 C 
ATOM      3  C1  OXE d   1      -1.849   3.053   0.969  0.00  0.00    -0.078 A 
ATOM      4  C2  OXE d   1      -1.708   2.720  -0.357  0.00  0.00    -0.078 A 
ATOM      5  C3  OXE d   1      -0.504   2.190  -0.811  0.00  0.00     0.003 A 
ATOM      6  C4  OXE d   1       0.508   1.851   0.096  0.00  0.00    -0.002 A 
ATOM      7  C5  OXE d   1       0.369   2.144   1.457  0.00  0.00    -0.002 A 
ATOM      8  C6  OXE d   1      -0.783   2.783   1.902  0.00  0.00     0.003 A 
ENDROOT
TORSDOF 0
ENDMDL
