MODEL 1
REMARK minimizedAffinity 8.04392147
REMARK minimizedRMSD -1
REMARK  0 active torsions:
REMARK  status: ('A' for Active; 'I' for Inactive)
ROOT
ATOM      1  C2' OXE d   1      -4.872   2.645   1.583  0.00  0.00     0.078 C 
ATOM      2  C1' OXE d   1      -5.087  -0.122   2.007  0.00  0.00     0.078 C 
ATOM      3  C1  OXE d   1      -4.514   0.346   0.693  0.00  0.00    -0.078 A 
ATOM      4  C2  OXE d   1      -4.456   1.702   0.475  0.00  0.00    -0.078 A 
ATOM      5  C3  OXE d   1      -3.885   2.188  -0.698  0.00  0.00     0.003 A 
ATOM      6  C4  OXE d   1      -3.511   1.308  -1.722  0.00  0.00    -0.002 A 
ATOM      7  C5  OXE d   1      -3.599  -0.075  -1.536  0.00  0.00    -0.002 A 
ATOM      8  C6  OXE d   1      -4.057  -0.572  -0.321  0.00  0.00     0.003 A 
ENDROOT
TORSDOF 0
ENDMDL
