MODEL 1
REMARK minimizedAffinity 0.506427646
REMARK minimizedRMSD -1
REMARK  1 active torsions:
REMARK  status: ('A' for Active; 'I' for Inactive)
REMARK    1  A    between atoms: C3_4  and  O_7 
ROOT
ATOM      1  C   UNL d   1       1.672   0.879   1.382  0.00  0.00    -0.033 A 
ATOM      2  C1  UNL d   1       0.409   1.464   1.274  0.00  0.00     0.039 A 
ATOM      3  C2  UNL d   1       0.220   2.575   0.449  0.00  0.00    -0.080 A 
ATOM      4  C3  UNL d   1       1.301   3.090  -0.261  0.00  0.00     0.150 A 
ATOM      5  C4  UNL d   1       2.561   2.510  -0.161  0.00  0.00    -0.007 A 
ATOM      6  C5  UNL d   1       2.748   1.401   0.664  0.00  0.00     0.039 A 
ENDROOT
BRANCH   4   7
ATOM      7  O   UNL d   1       1.166   4.176  -1.075  0.00  0.00    -0.526 OA
ATOM      8  H5  UNL d   1       0.248   4.487  -1.023  0.00  0.00     0.418 HD
ENDBRANCH   4   7
TORSDOF 1
ENDMDL
