MODEL 1
REMARK minimizedAffinity -1.05509925
REMARK minimizedRMSD -1
REMARK  1 active torsions:
REMARK  status: ('A' for Active; 'I' for Inactive)
REMARK    1  A    between atoms: C3_4  and  O_7 
ROOT
ATOM      1  C   UNL d   1      -0.175   4.263  -0.367  0.00  0.00    -0.033 A 
ATOM      2  C1  UNL d   1      -0.697   3.148   0.291  0.00  0.00     0.039 A 
ATOM      3  C2  UNL d   1       0.140   2.085   0.638  0.00  0.00    -0.080 A 
ATOM      4  C3  UNL d   1       1.494   2.151   0.322  0.00  0.00     0.150 A 
ATOM      5  C4  UNL d   1       2.021   3.261  -0.330  0.00  0.00    -0.007 A 
ATOM      6  C5  UNL d   1       1.184   4.321  -0.676  0.00  0.00     0.039 A 
ENDROOT
BRANCH   4   7
ATOM      7  O   UNL d   1       2.349   1.137   0.636  0.00  0.00    -0.526 OA
ATOM      8  H5  UNL d   1       1.840   0.424   1.058  0.00  0.00     0.418 HD
ENDBRANCH   4   7
TORSDOF 1
ENDMDL
