MODEL 1
REMARK minimizedAffinity -3.00156164
REMARK minimizedRMSD -1
REMARK  1 active torsions:
REMARK  status: ('A' for Active; 'I' for Inactive)
REMARK    1  A    between atoms: C3_4  and  O_7 
ROOT
ATOM      1  C   UNL d   1       0.911  -0.263   1.081  0.00  0.00    -0.033 A 
ATOM      2  C1  UNL d   1       1.785   0.284   2.023  0.00  0.00     0.039 A 
ATOM      3  C2  UNL d   1       1.946  -0.327   3.268  0.00  0.00    -0.080 A 
ATOM      4  C3  UNL d   1       1.228  -1.485   3.558  0.00  0.00     0.150 A 
ATOM      5  C4  UNL d   1       0.359  -2.037   2.623  0.00  0.00    -0.007 A 
ATOM      6  C5  UNL d   1       0.199  -1.425   1.381  0.00  0.00     0.039 A 
ENDROOT
BRANCH   4   7
ATOM      7  O   UNL d   1       1.348  -2.114   4.761  0.00  0.00    -0.526 OA
ATOM      8  H5  UNL d   1       1.961  -1.604   5.316  0.00  0.00     0.418 HD
ENDBRANCH   4   7
TORSDOF 1
ENDMDL
