MODEL 1
REMARK minimizedAffinity 7.72089386
REMARK minimizedRMSD -1
REMARK  0 active torsions:
REMARK  status: ('A' for Active; 'I' for Inactive)
ROOT
ATOM      1  N1  IND d   1      -4.516  -1.529   1.821  0.00  0.00    -0.196 N 
ATOM      2  C2  IND d   1      -4.904  -0.896   0.673  0.00  0.00     0.054 A 
ATOM      3  C3  IND d   1      -4.043   0.102   0.372  0.00  0.00    -0.031 A 
ATOM      4  C4  IND d   1      -1.875   0.807   1.567  0.00  0.00     0.051 A 
ATOM      5  C5  IND d   1      -1.126   0.549   2.681  0.00  0.00    -0.031 A 
ATOM      6  C6  IND d   1      -1.474  -0.437   3.582  0.00  0.00     0.015 A 
ATOM      7  C7  IND d   1      -2.584  -1.212   3.395  0.00  0.00    -0.016 A 
ATOM      8  C8  IND d   1      -3.350  -0.948   2.269  0.00  0.00    -0.047 A 
ATOM      9  C9  IND d   1      -3.025   0.079   1.374  0.00  0.00    -0.096 A 
ATOM     10  HN1 IND d   1      -4.931  -2.181   2.199  0.00  0.00     0.298 HD
ENDROOT
TORSDOF 0
ENDMDL
