MODEL 1
REMARK minimizedAffinity 9.67822456
REMARK minimizedRMSD -1
REMARK  0 active torsions:
REMARK  status: ('A' for Active; 'I' for Inactive)
ROOT
ATOM      1  N1  IND d   1      -4.560  -1.323   2.300  0.00  0.00    -0.196 N 
ATOM      2  C2  IND d   1      -3.294  -0.887   2.573  0.00  0.00     0.054 A 
ATOM      3  C3  IND d   1      -2.699  -0.434   1.447  0.00  0.00    -0.031 A 
ATOM      4  C4  IND d   1      -3.654  -0.218  -0.934  0.00  0.00     0.051 A 
ATOM      5  C5  IND d   1      -4.757  -0.519  -1.684  0.00  0.00    -0.031 A 
ATOM      6  C6  IND d   1      -5.873  -1.113  -1.132  0.00  0.00     0.015 A 
ATOM      7  C7  IND d   1      -5.934  -1.419   0.198  0.00  0.00    -0.016 A 
ATOM      8  C8  IND d   1      -4.814  -1.121   0.961  0.00  0.00    -0.047 A 
ATOM      9  C9  IND d   1      -3.662  -0.557   0.399  0.00  0.00    -0.096 A 
ATOM     10  HN1 IND d   1      -5.107  -1.665   2.869  0.00  0.00     0.298 HD
ENDROOT
TORSDOF 0
ENDMDL
