MODEL 1
REMARK minimizedAffinity 10.3600159
REMARK minimizedRMSD -1
REMARK  0 active torsions:
REMARK  status: ('A' for Active; 'I' for Inactive)
ROOT
ATOM      1  N1  IND d   1      -1.551  -4.672   2.072  0.00  0.00    -0.196 N 
ATOM      2  C2  IND d   1      -1.270  -5.165   0.828  0.00  0.00     0.054 A 
ATOM      3  C3  IND d   1      -1.403  -4.194  -0.104  0.00  0.00    -0.031 A 
ATOM      4  C4  IND d   1      -1.974  -1.702   0.200  0.00  0.00     0.051 A 
ATOM      5  C5  IND d   1      -2.349  -0.791   1.147  0.00  0.00    -0.031 A 
ATOM      6  C6  IND d   1      -2.477  -1.132   2.478  0.00  0.00     0.015 A 
ATOM      7  C7  IND d   1      -2.223  -2.401   2.915  0.00  0.00    -0.016 A 
ATOM      8  C8  IND d   1      -1.849  -3.332   1.955  0.00  0.00    -0.047 A 
ATOM      9  C9  IND d   1      -1.758  -3.001   0.597  0.00  0.00    -0.096 A 
ATOM     10  HN1 IND d   1      -1.544  -5.123   2.804  0.00  0.00     0.298 HD
ENDROOT
TORSDOF 0
ENDMDL
