MODEL 1
REMARK minimizedAffinity -2.64180255
REMARK minimizedRMSD -1
REMARK  0 active torsions:
REMARK  status: ('A' for Active; 'I' for Inactive)
ROOT
ATOM      1  N1  IND d   1      -2.940  -3.937   6.000  0.00  0.00    -0.196 N 
ATOM      2  C2  IND d   1      -3.137  -5.289   5.966  0.00  0.00     0.054 A 
ATOM      3  C3  IND d   1      -1.951  -5.936   5.915  0.00  0.00    -0.031 A 
ATOM      4  C4  IND d   1       0.438  -4.979   5.978  0.00  0.00     0.051 A 
ATOM      5  C5  IND d   1       1.126  -3.798   5.971  0.00  0.00    -0.031 A 
ATOM      6  C6  IND d   1       0.480  -2.578   5.976  0.00  0.00     0.015 A 
ATOM      7  C7  IND d   1      -0.883  -2.494   6.000  0.00  0.00    -0.016 A 
ATOM      8  C8  IND d   1      -1.585  -3.691   6.000  0.00  0.00    -0.047 A 
ATOM      9  C9  IND d   1      -0.936  -4.932   5.952  0.00  0.00    -0.096 A 
ATOM     10  HN1 IND d   1      -3.559  -3.340   6.018  0.00  0.00     0.298 HD
ENDROOT
TORSDOF 0
ENDMDL
