MODEL 1
REMARK minimizedAffinity 4.73320007
REMARK minimizedRMSD -1
REMARK  0 active torsions:
REMARK  status: ('A' for Active; 'I' for Inactive)
ROOT
ATOM      1  N1  IND d   1      -1.173  -5.108   0.317  0.00  0.00    -0.196 N 
ATOM      2  C2  IND d   1      -1.011  -5.995  -0.711  0.00  0.00     0.054 A 
ATOM      3  C3  IND d   1      -1.080  -5.355  -1.900  0.00  0.00    -0.031 A 
ATOM      4  C4  IND d   1      -1.351  -2.842  -2.391  0.00  0.00     0.051 A 
ATOM      5  C5  IND d   1      -1.573  -1.642  -1.776  0.00  0.00    -0.031 A 
ATOM      6  C6  IND d   1      -1.672  -1.533  -0.404  0.00  0.00     0.015 A 
ATOM      7  C7  IND d   1      -1.541  -2.624   0.408  0.00  0.00    -0.016 A 
ATOM      8  C8  IND d   1      -1.323  -3.845  -0.213  0.00  0.00    -0.047 A 
ATOM      9  C9  IND d   1      -1.264  -3.968  -1.607  0.00  0.00    -0.096 A 
ATOM     10  HN1 IND d   1      -1.180  -5.306   1.153  0.00  0.00     0.298 HD
ENDROOT
TORSDOF 0
ENDMDL
