MODEL 1
REMARK minimizedAffinity 7.03834772
REMARK minimizedRMSD -1
REMARK  0 active torsions:
REMARK  status: ('A' for Active; 'I' for Inactive)
ROOT
ATOM      1  N1  IND d   1      -4.169  -1.458   2.583  0.00  0.00    -0.196 N 
ATOM      2  C2  IND d   1      -4.384  -0.851   1.377  0.00  0.00     0.054 A 
ATOM      3  C3  IND d   1      -3.485   0.140   1.183  0.00  0.00    -0.031 A 
ATOM      4  C4  IND d   1      -1.512   0.873   2.666  0.00  0.00     0.051 A 
ATOM      5  C5  IND d   1      -0.935   0.640   3.883  0.00  0.00    -0.031 A 
ATOM      6  C6  IND d   1      -1.414  -0.325   4.745  0.00  0.00     0.015 A 
ATOM      7  C7  IND d   1      -2.486  -1.105   4.415  0.00  0.00    -0.016 A 
ATOM      8  C8  IND d   1      -3.080  -0.867   3.184  0.00  0.00    -0.047 A 
ATOM      9  C9  IND d   1      -2.624   0.140   2.323  0.00  0.00    -0.096 A 
ATOM     10  HN1 IND d   1      -4.637  -2.101   2.911  0.00  0.00     0.298 HD
ENDROOT
TORSDOF 0
ENDMDL
