MODEL 1
REMARK minimizedAffinity 8.46951294
REMARK minimizedRMSD -1
REMARK  0 active torsions:
REMARK  status: ('A' for Active; 'I' for Inactive)
ROOT
ATOM      1  N1  IND d   1      -4.521  -1.496   2.273  0.00  0.00    -0.196 N 
ATOM      2  C2  IND d   1      -3.296  -0.927   2.480  0.00  0.00     0.054 A 
ATOM      3  C3  IND d   1      -2.802  -0.438   1.320  0.00  0.00    -0.031 A 
ATOM      4  C4  IND d   1      -3.879  -0.373  -1.017  0.00  0.00     0.051 A 
ATOM      5  C5  IND d   1      -4.976  -0.803  -1.710  0.00  0.00    -0.031 A 
ATOM      6  C6  IND d   1      -5.999  -1.497  -1.098  0.00  0.00     0.015 A 
ATOM      7  C7  IND d   1      -5.969  -1.779   0.238  0.00  0.00    -0.016 A 
ATOM      8  C8  IND d   1      -4.853  -1.351   0.944  0.00  0.00    -0.047 A 
ATOM      9  C9  IND d   1      -3.792  -0.683   0.319  0.00  0.00    -0.096 A 
ATOM     10  HN1 IND d   1      -5.004  -1.881   2.872  0.00  0.00     0.298 HD
ENDROOT
TORSDOF 0
ENDMDL
