MODEL 1
REMARK minimizedAffinity -4.43006802
REMARK minimizedRMSD -1
REMARK  0 active torsions:
REMARK  status: ('A' for Active; 'I' for Inactive)
ROOT
ATOM      1  N1  IND d   1      -5.973   5.975   4.201  0.00  0.00    -0.196 N 
ATOM      2  C2  IND d   1      -5.372   5.946   5.429  0.00  0.00     0.054 A 
ATOM      3  C3  IND d   1      -4.027   5.911   5.294  0.00  0.00    -0.031 A 
ATOM      4  C4  IND d   1      -2.595   5.999   3.156  0.00  0.00     0.051 A 
ATOM      5  C5  IND d   1      -2.693   5.994   1.793  0.00  0.00    -0.031 A 
ATOM      6  C6  IND d   1      -3.914   5.985   1.150  0.00  0.00     0.015 A 
ATOM      7  C7  IND d   1      -5.088   5.993   1.849  0.00  0.00    -0.016 A 
ATOM      8  C8  IND d   1      -4.992   5.990   3.234  0.00  0.00    -0.047 A 
ATOM      9  C9  IND d   1      -3.756   5.956   3.892  0.00  0.00    -0.096 A 
ATOM     10  HN1 IND d   1      -6.820   5.983   4.057  0.00  0.00     0.298 HD
ENDROOT
TORSDOF 0
ENDMDL
