MODEL 1
REMARK minimizedAffinity 10.4349651
REMARK minimizedRMSD -1
REMARK  0 active torsions:
REMARK  status: ('A' for Active; 'I' for Inactive)
ROOT
ATOM      1  N1  IND d   1       1.982   1.558   0.279  0.00  0.00    -0.196 N 
ATOM      2  C2  IND d   1       2.374   0.269   0.047  0.00  0.00     0.054 A 
ATOM      3  C3  IND d   1       1.983  -0.531   1.063  0.00  0.00    -0.031 A 
ATOM      4  C4  IND d   1       0.601   0.042   3.158  0.00  0.00     0.051 A 
ATOM      5  C5  IND d   1       0.045   1.096   3.827  0.00  0.00    -0.031 A 
ATOM      6  C6  IND d   1       0.104   2.384   3.335  0.00  0.00     0.015 A 
ATOM      7  C7  IND d   1       0.716   2.665   2.146  0.00  0.00    -0.016 A 
ATOM      8  C8  IND d   1       1.288   1.598   1.468  0.00  0.00    -0.047 A 
ATOM      9  C9  IND d   1       1.268   0.295   1.983  0.00  0.00    -0.096 A 
ATOM     10  HN1 IND d   1       2.142   2.231  -0.232  0.00  0.00     0.298 HD
ENDROOT
TORSDOF 0
ENDMDL
