MODEL 1
REMARK minimizedAffinity 10.2214832
REMARK minimizedRMSD -1
REMARK  0 active torsions:
REMARK  status: ('A' for Active; 'I' for Inactive)
ROOT
ATOM      1  N1  IND d   1      -2.131  -4.881   5.992  0.00  0.00    -0.196 N 
ATOM      2  C2  IND d   1      -1.326  -5.986   5.969  0.00  0.00     0.054 A 
ATOM      3  C3  IND d   1      -0.025  -5.619   5.930  0.00  0.00    -0.031 A 
ATOM      4  C4  IND d   1       1.013  -3.264   6.000  0.00  0.00     0.051 A 
ATOM      5  C5  IND d   1       0.679  -1.939   5.986  0.00  0.00    -0.031 A 
ATOM      6  C6  IND d   1      -0.636  -1.518   5.977  0.00  0.00     0.015 A 
ATOM      7  C7  IND d   1      -1.669  -2.411   5.991  0.00  0.00    -0.016 A 
ATOM      8  C8  IND d   1      -1.334  -3.758   5.998  0.00  0.00    -0.047 A 
ATOM      9  C9  IND d   1      -0.002  -4.191   5.965  0.00  0.00    -0.096 A 
ATOM     10  HN1 IND d   1      -2.991  -4.887   6.001  0.00  0.00     0.298 HD
ENDROOT
TORSDOF 0
ENDMDL
