MODEL 1
REMARK minimizedAffinity 11.3337507
REMARK minimizedRMSD -1
REMARK  0 active torsions:
REMARK  status: ('A' for Active; 'I' for Inactive)
ROOT
ATOM      1  N1  IND d   1       1.448   1.361   0.156  0.00  0.00    -0.196 N 
ATOM      2  C2  IND d   1       2.813   1.299   0.116  0.00  0.00     0.054 A 
ATOM      3  C3  IND d   1       3.218   0.055  -0.225  0.00  0.00    -0.031 A 
ATOM      4  C4  IND d   1       1.812  -2.006  -0.861  0.00  0.00     0.051 A 
ATOM      5  C5  IND d   1       0.521  -2.448  -0.934  0.00  0.00    -0.031 A 
ATOM      6  C6  IND d   1      -0.549  -1.625  -0.644  0.00  0.00     0.015 A 
ATOM      7  C7  IND d   1      -0.367  -0.321  -0.280  0.00  0.00    -0.016 A 
ATOM      8  C8  IND d   1       0.943   0.129  -0.198  0.00  0.00    -0.047 A 
ATOM      9  C9  IND d   1       2.034  -0.713  -0.449  0.00  0.00    -0.096 A 
ATOM     10  HN1 IND d   1       0.983   2.052   0.368  0.00  0.00     0.298 HD
ENDROOT
TORSDOF 0
ENDMDL
