MODEL 1
REMARK minimizedAffinity 1.36736107
REMARK minimizedRMSD -1
REMARK  2 active torsions:
REMARK  status: ('A' for Active; 'I' for Inactive)
REMARK    1  A    between atoms: C1_2  and  C2_3 
REMARK    2  A    between atoms: C2_3  and  C3_4 
ROOT
ATOM      1  C3  UNL d   1       0.874  -3.568   0.657  0.00  0.00    -0.075 A 
ATOM      2  C4  UNL d   1       0.012  -2.616   1.221  0.00  0.00     0.002 A 
ATOM      3  C5  UNL d   1      -0.867  -1.891   0.417  0.00  0.00     0.002 A 
ATOM      4  C6  UNL d   1      -0.889  -2.099  -0.961  0.00  0.00    -0.004 A 
ATOM      5  C7  UNL d   1      -0.025  -3.030  -1.534  0.00  0.00     0.002 A 
ATOM      6  C8  UNL d   1       0.852  -3.760  -0.731  0.00  0.00     0.002 A 
ENDROOT
BRANCH   1   7
ATOM      7  C2  UNL d   1       1.806  -4.377   1.526  0.00  0.00     0.056 C 
BRANCH   7   8
ATOM      8  C1  UNL d   1       2.145  -5.760   0.958  0.00  0.00     0.007 C 
ATOM      9  C   UNL d   1       3.534  -5.831   0.340  0.00  0.00     0.009 C 
ENDBRANCH   7   8
ENDBRANCH   1   7
TORSDOF 2
ENDMDL
