MODEL 1
REMARK minimizedAffinity 11.7976036
REMARK minimizedRMSD -1
REMARK  2 active torsions:
REMARK  status: ('A' for Active; 'I' for Inactive)
REMARK    1  A    between atoms: C1_2  and  C2_3 
REMARK    2  A    between atoms: C2_3  and  C3_4 
ROOT
ATOM      1  C3  UNL d   1       1.507  -2.049   3.030  0.00  0.00    -0.075 A 
ATOM      2  C4  UNL d   1       0.665  -2.718   2.129  0.00  0.00     0.002 A 
ATOM      3  C5  UNL d   1       0.381  -2.164   0.881  0.00  0.00     0.002 A 
ATOM      4  C6  UNL d   1       0.924  -0.932   0.522  0.00  0.00    -0.004 A 
ATOM      5  C7  UNL d   1       1.748  -0.251   1.415  0.00  0.00     0.002 A 
ATOM      6  C8  UNL d   1       2.039  -0.805   2.663  0.00  0.00     0.002 A 
ENDROOT
BRANCH   1   7
ATOM      7  C2  UNL d   1       1.843  -2.657   4.371  0.00  0.00     0.056 C 
BRANCH   7   8
ATOM      8  C1  UNL d   1       2.947  -3.718   4.315  0.00  0.00     0.007 C 
ATOM      9  C   UNL d   1       4.062  -3.478   5.324  0.00  0.00     0.009 C 
ENDBRANCH   7   8
ENDBRANCH   1   7
TORSDOF 2
ENDMDL
