MODEL 1
REMARK minimizedAffinity 1.12526369
REMARK minimizedRMSD -1
REMARK  2 active torsions:
REMARK  status: ('A' for Active; 'I' for Inactive)
REMARK    1  A    between atoms: C1_2  and  C2_3 
REMARK    2  A    between atoms: C2_3  and  C3_4 
ROOT
ATOM      1  C3  UNL d   1       3.320  -2.243   3.559  0.00  0.00    -0.075 A 
ATOM      2  C4  UNL d   1       3.699  -2.951   4.709  0.00  0.00     0.002 A 
ATOM      3  C5  UNL d   1       5.031  -3.311   4.912  0.00  0.00     0.002 A 
ATOM      4  C6  UNL d   1       5.998  -2.977   3.966  0.00  0.00    -0.004 A 
ATOM      5  C7  UNL d   1       5.631  -2.288   2.813  0.00  0.00     0.002 A 
ATOM      6  C8  UNL d   1       4.299  -1.923   2.609  0.00  0.00     0.002 A 
ENDROOT
BRANCH   1   7
ATOM      7  C2  UNL d   1       1.884  -1.825   3.348  0.00  0.00     0.056 C 
BRANCH   7   8
ATOM      8  C1  UNL d   1       1.591  -1.293   1.941  0.00  0.00     0.007 C 
ATOM      9  C   UNL d   1       0.464  -2.039   1.240  0.00  0.00     0.009 C 
ENDBRANCH   7   8
ENDBRANCH   1   7
TORSDOF 2
ENDMDL
