MODEL 1
REMARK minimizedAffinity -0.154264942
REMARK minimizedRMSD -1
REMARK  2 active torsions:
REMARK  status: ('A' for Active; 'I' for Inactive)
REMARK    1  A    between atoms: C1_2  and  C2_3 
REMARK    2  A    between atoms: C2_3  and  C3_4 
ROOT
ATOM      1  C3  UNL d   1       0.951  -0.812   1.069  0.00  0.00    -0.075 A 
ATOM      2  C4  UNL d   1       1.390  -1.219   2.337  0.00  0.00     0.002 A 
ATOM      3  C5  UNL d   1       2.399  -0.517   2.997  0.00  0.00     0.002 A 
ATOM      4  C6  UNL d   1       2.989   0.592   2.394  0.00  0.00    -0.004 A 
ATOM      5  C7  UNL d   1       2.573   0.995   1.127  0.00  0.00     0.002 A 
ATOM      6  C8  UNL d   1       1.560   0.298   0.467  0.00  0.00     0.002 A 
ENDROOT
BRANCH   1   7
ATOM      7  C2  UNL d   1      -0.162  -1.549   0.363  0.00  0.00     0.056 C 
BRANCH   7   8
ATOM      8  C1  UNL d   1       0.198  -2.984  -0.039  0.00  0.00     0.007 C 
ATOM      9  C   UNL d   1      -0.682  -3.533  -1.154  0.00  0.00     0.009 C 
ENDBRANCH   7   8
ENDBRANCH   1   7
TORSDOF 2
ENDMDL
