MODEL 1
REMARK minimizedAffinity -0.791475117
REMARK minimizedRMSD -1
REMARK  2 active torsions:
REMARK  status: ('A' for Active; 'I' for Inactive)
REMARK    1  A    between atoms: C1_2  and  C2_3 
REMARK    2  A    between atoms: C2_3  and  C3_4 
ROOT
ATOM      1  C3  UNL d   1       1.052  -0.318   1.302  0.00  0.00    -0.075 A 
ATOM      2  C4  UNL d   1       1.110  -1.293   2.309  0.00  0.00     0.002 A 
ATOM      3  C5  UNL d   1       1.903  -1.096   3.440  0.00  0.00     0.002 A 
ATOM      4  C6  UNL d   1       2.654   0.070   3.574  0.00  0.00    -0.004 A 
ATOM      5  C7  UNL d   1       2.616   1.037   2.572  0.00  0.00     0.002 A 
ATOM      6  C8  UNL d   1       1.821   0.845   1.441  0.00  0.00     0.002 A 
ENDROOT
BRANCH   1   7
ATOM      7  C2  UNL d   1       0.173  -0.512   0.090  0.00  0.00     0.056 C 
BRANCH   7   8
ATOM      8  C1  UNL d   1      -0.619  -1.824   0.097  0.00  0.00     0.007 C 
ATOM      9  C   UNL d   1      -0.202  -2.783  -1.011  0.00  0.00     0.009 C 
ENDBRANCH   7   8
ENDBRANCH   1   7
TORSDOF 2
ENDMDL
