MODEL 1
REMARK minimizedAffinity -2.68532276
REMARK minimizedRMSD -1
REMARK  2 active torsions:
REMARK  status: ('A' for Active; 'I' for Inactive)
REMARK    1  A    between atoms: C1_2  and  C2_3 
REMARK    2  A    between atoms: C2_3  and  C3_4 
ROOT
ATOM      1  C3  UNL d   1       0.824  -0.800   1.004  0.00  0.00    -0.075 A 
ATOM      2  C4  UNL d   1       0.728   0.341   0.194  0.00  0.00     0.002 A 
ATOM      3  C5  UNL d   1       1.652   1.379   0.321  0.00  0.00     0.002 A 
ATOM      4  C6  UNL d   1       2.674   1.294   1.263  0.00  0.00    -0.004 A 
ATOM      5  C7  UNL d   1       2.768   0.173   2.085  0.00  0.00     0.002 A 
ATOM      6  C8  UNL d   1       1.848  -0.869   1.957  0.00  0.00     0.002 A 
ENDROOT
BRANCH   1   7
ATOM      7  C2  UNL d   1      -0.155  -1.940   0.851  0.00  0.00     0.056 C 
BRANCH   7   8
ATOM      8  C1  UNL d   1       0.236  -2.959  -0.224  0.00  0.00     0.007 C 
ATOM      9  C   UNL d   1      -0.936  -3.395  -1.093  0.00  0.00     0.009 C 
ENDBRANCH   7   8
ENDBRANCH   1   7
TORSDOF 2
ENDMDL
