MODEL 1
REMARK minimizedAffinity -5.47737694
REMARK minimizedRMSD -1
REMARK  2 active torsions:
REMARK  status: ('A' for Active; 'I' for Inactive)
REMARK    1  A    between atoms: C1_2  and  C2_3 
REMARK    2  A    between atoms: C2_3  and  C3_4 
ROOT
ATOM      1  C3  UNL d   1       4.955   4.041  -4.551  0.00  0.00    -0.075 A 
ATOM      2  C4  UNL d   1       3.626   4.273  -4.169  0.00  0.00     0.002 A 
ATOM      3  C5  UNL d   1       3.338   4.955  -2.986  0.00  0.00     0.002 A 
ATOM      4  C6  UNL d   1       4.372   5.403  -2.167  0.00  0.00    -0.004 A 
ATOM      5  C7  UNL d   1       5.696   5.163  -2.529  0.00  0.00     0.002 A 
ATOM      6  C8  UNL d   1       5.987   4.485  -3.714  0.00  0.00     0.002 A 
ENDROOT
BRANCH   1   7
ATOM      7  C2  UNL d   1       5.274   3.330  -5.845  0.00  0.00     0.056 C 
BRANCH   7   8
ATOM      8  C1  UNL d   1       4.576   1.974  -5.999  0.00  0.00     0.007 C 
ATOM      9  C   UNL d   1       5.320   0.835  -5.315  0.00  0.00     0.009 C 
ENDBRANCH   7   8
ENDBRANCH   1   7
TORSDOF 2
ENDMDL
