MODEL 1
REMARK minimizedAffinity 0.315320611
REMARK minimizedRMSD -1
REMARK  2 active torsions:
REMARK  status: ('A' for Active; 'I' for Inactive)
REMARK    1  A    between atoms: C1_2  and  C2_3 
REMARK    2  A    between atoms: C2_3  and  C3_4 
ROOT
ATOM      1  C3  UNL d   1       4.565  -2.932  -3.161  0.00  0.00    -0.075 A 
ATOM      2  C4  UNL d   1       5.111  -4.210  -2.974  0.00  0.00     0.002 A 
ATOM      3  C5  UNL d   1       5.818  -4.515  -1.810  0.00  0.00     0.002 A 
ATOM      4  C6  UNL d   1       5.997  -3.545  -0.826  0.00  0.00    -0.004 A 
ATOM      5  C7  UNL d   1       5.474  -2.267  -1.009  0.00  0.00     0.002 A 
ATOM      6  C8  UNL d   1       4.762  -1.961  -2.170  0.00  0.00     0.002 A 
ENDROOT
BRANCH   1   7
ATOM      7  C2  UNL d   1       3.773  -2.605  -4.404  0.00  0.00     0.056 C 
BRANCH   7   8
ATOM      8  C1  UNL d   1       2.286  -2.962  -4.309  0.00  0.00     0.007 C 
ATOM      9  C   UNL d   1       1.636  -2.487  -3.016  0.00  0.00     0.009 C 
ENDBRANCH   7   8
ENDBRANCH   1   7
TORSDOF 2
ENDMDL
