MODEL 1
REMARK minimizedAffinity 8.77693176
REMARK minimizedRMSD -1
REMARK  2 active torsions:
REMARK  status: ('A' for Active; 'I' for Inactive)
REMARK    1  A    between atoms: C1_2  and  C2_3 
REMARK    2  A    between atoms: C2_3  and  C3_4 
ROOT
ATOM      1  C3  UNL d   1       0.143  -3.286  -3.497  0.00  0.00    -0.075 A 
ATOM      2  C4  UNL d   1      -1.168  -2.810  -3.641  0.00  0.00     0.002 A 
ATOM      3  C5  UNL d   1      -1.763  -2.056  -2.629  0.00  0.00     0.002 A 
ATOM      4  C6  UNL d   1      -1.060  -1.778  -1.459  0.00  0.00    -0.004 A 
ATOM      5  C7  UNL d   1       0.238  -2.260  -1.298  0.00  0.00     0.002 A 
ATOM      6  C8  UNL d   1       0.837  -3.010  -2.311  0.00  0.00     0.002 A 
ENDROOT
BRANCH   1   7
ATOM      7  C2  UNL d   1       0.803  -4.077  -4.601  0.00  0.00     0.056 C 
BRANCH   7   8
ATOM      8  C1  UNL d   1       2.327  -4.175  -4.473  0.00  0.00     0.007 C 
ATOM      9  C   UNL d   1       3.063  -3.786  -5.748  0.00  0.00     0.009 C 
ENDBRANCH   7   8
ENDBRANCH   1   7
TORSDOF 2
ENDMDL
