MODEL 1
REMARK minimizedAffinity -0.393597156
REMARK minimizedRMSD -1
REMARK  2 active torsions:
REMARK  status: ('A' for Active; 'I' for Inactive)
REMARK    1  A    between atoms: C1_2  and  C2_3 
REMARK    2  A    between atoms: C2_3  and  C3_4 
ROOT
ATOM      1  C3  UNL d   1       4.891   4.166  -4.488  0.00  0.00    -0.075 A 
ATOM      2  C4  UNL d   1       3.641   4.233  -3.855  0.00  0.00     0.002 A 
ATOM      3  C5  UNL d   1       3.501   4.884  -2.629  0.00  0.00     0.002 A 
ATOM      4  C6  UNL d   1       4.608   5.466  -2.016  0.00  0.00    -0.004 A 
ATOM      5  C7  UNL d   1       5.858   5.392  -2.628  0.00  0.00     0.002 A 
ATOM      6  C8  UNL d   1       6.000   4.745  -3.857  0.00  0.00     0.002 A 
ENDROOT
BRANCH   1   7
ATOM      7  C2  UNL d   1       5.043   3.489  -5.829  0.00  0.00     0.056 C 
BRANCH   7   8
ATOM      8  C1  UNL d   1       4.170   2.241  -6.000  0.00  0.00     0.007 C 
ATOM      9  C   UNL d   1       4.956   0.940  -5.900  0.00  0.00     0.009 C 
ENDBRANCH   7   8
ENDBRANCH   1   7
TORSDOF 2
ENDMDL
