MODEL 1
REMARK minimizedAffinity 7.33995771
REMARK minimizedRMSD -1
REMARK  2 active torsions:
REMARK  status: ('A' for Active; 'I' for Inactive)
REMARK    1  A    between atoms: C1_2  and  C2_3 
REMARK    2  A    between atoms: C2_3  and  C3_4 
ROOT
ATOM      1  C3  UNL d   1       0.169  -3.196  -3.800  0.00  0.00    -0.075 A 
ATOM      2  C4  UNL d   1       1.553  -3.297  -3.590  0.00  0.00     0.002 A 
ATOM      3  C5  UNL d   1       2.382  -3.822  -4.581  0.00  0.00     0.002 A 
ATOM      4  C6  UNL d   1       1.841  -4.261  -5.787  0.00  0.00    -0.004 A 
ATOM      5  C7  UNL d   1       0.466  -4.181  -5.999  0.00  0.00     0.002 A 
ATOM      6  C8  UNL d   1      -0.366  -3.652  -5.011  0.00  0.00     0.002 A 
ENDROOT
BRANCH   1   7
ATOM      7  C2  UNL d   1      -0.730  -2.602  -2.743  0.00  0.00     0.056 C 
BRANCH   7   8
ATOM      8  C1  UNL d   1       0.019  -2.030  -1.535  0.00  0.00     0.007 C 
ATOM      9  C   UNL d   1      -0.733  -2.207  -0.222  0.00  0.00     0.009 C 
ENDBRANCH   7   8
ENDBRANCH   1   7
TORSDOF 2
ENDMDL
