MODEL 1
REMARK minimizedAffinity 10.1587038
REMARK minimizedRMSD -1
REMARK  2 active torsions:
REMARK  status: ('A' for Active; 'I' for Inactive)
REMARK    1  A    between atoms: C1_2  and  C2_3 
REMARK    2  A    between atoms: C2_3  and  C3_4 
ROOT
ATOM      1  C3  UNL d   1       4.850  -2.154  -3.119  0.00  0.00    -0.075 A 
ATOM      2  C4  UNL d   1       4.944  -1.857  -4.487  0.00  0.00     0.002 A 
ATOM      3  C5  UNL d   1       3.869  -2.102  -5.341  0.00  0.00     0.002 A 
ATOM      4  C6  UNL d   1       2.692  -2.656  -4.842  0.00  0.00    -0.004 A 
ATOM      5  C7  UNL d   1       2.593  -2.971  -3.488  0.00  0.00     0.002 A 
ATOM      6  C8  UNL d   1       3.666  -2.722  -2.631  0.00  0.00     0.002 A 
ENDROOT
BRANCH   1   7
ATOM      7  C2  UNL d   1       6.000  -1.864  -2.184  0.00  0.00     0.056 C 
BRANCH   7   8
ATOM      8  C1  UNL d   1       5.625  -1.918  -0.700  0.00  0.00     0.007 C 
ATOM      9  C   UNL d   1       5.999  -3.236  -0.034  0.00  0.00     0.009 C 
ENDBRANCH   7   8
ENDBRANCH   1   7
TORSDOF 2
ENDMDL
