MODEL 1
REMARK minimizedAffinity 1.33518553
REMARK minimizedRMSD -1
REMARK  2 active torsions:
REMARK  status: ('A' for Active; 'I' for Inactive)
REMARK    1  A    between atoms: C1_2  and  C2_3 
REMARK    2  A    between atoms: C2_3  and  C3_4 
ROOT
ATOM      1  C3  UNL d   1       4.176  -3.088  -3.457  0.00  0.00    -0.075 A 
ATOM      2  C4  UNL d   1       5.178  -4.067  -3.414  0.00  0.00     0.002 A 
ATOM      3  C5  UNL d   1       5.994  -4.197  -2.290  0.00  0.00     0.002 A 
ATOM      4  C6  UNL d   1       5.826  -3.345  -1.201  0.00  0.00    -0.004 A 
ATOM      5  C7  UNL d   1       4.844  -2.357  -1.239  0.00  0.00     0.002 A 
ATOM      6  C8  UNL d   1       4.023  -2.228  -2.361  0.00  0.00     0.002 A 
ENDROOT
BRANCH   1   7
ATOM      7  C2  UNL d   1       3.270  -2.961  -4.658  0.00  0.00     0.056 C 
BRANCH   7   8
ATOM      8  C1  UNL d   1       1.971  -3.767  -4.548  0.00  0.00     0.007 C 
ATOM      9  C   UNL d   1       0.949  -3.133  -3.615  0.00  0.00     0.009 C 
ENDBRANCH   7   8
ENDBRANCH   1   7
TORSDOF 2
ENDMDL
