MODEL 1
REMARK minimizedAffinity 8.44128227
REMARK minimizedRMSD -1
REMARK  2 active torsions:
REMARK  status: ('A' for Active; 'I' for Inactive)
REMARK    1  A    between atoms: C1_2  and  C2_3 
REMARK    2  A    between atoms: C2_3  and  C3_4 
ROOT
ATOM      1  C3  UNL d   1       4.484   4.096  -2.787  0.00  0.00    -0.075 A 
ATOM      2  C4  UNL d   1       5.236   5.080  -3.445  0.00  0.00     0.002 A 
ATOM      3  C5  UNL d   1       5.993   5.999  -2.716  0.00  0.00     0.002 A 
ATOM      4  C6  UNL d   1       5.999   5.952  -1.324  0.00  0.00    -0.004 A 
ATOM      5  C7  UNL d   1       5.242   4.989  -0.660  0.00  0.00     0.002 A 
ATOM      6  C8  UNL d   1       4.488   4.066  -1.386  0.00  0.00     0.002 A 
ENDROOT
BRANCH   1   7
ATOM      7  C2  UNL d   1       3.687   3.081  -3.570  0.00  0.00     0.056 C 
BRANCH   7   8
ATOM      8  C1  UNL d   1       2.200   3.425  -3.705  0.00  0.00     0.007 C 
ATOM      9  C   UNL d   1       1.934   4.923  -3.771  0.00  0.00     0.009 C 
ENDBRANCH   7   8
ENDBRANCH   1   7
TORSDOF 2
ENDMDL
