MODEL 1
REMARK minimizedAffinity 0.689156592
REMARK minimizedRMSD -1
REMARK  2 active torsions:
REMARK  status: ('A' for Active; 'I' for Inactive)
REMARK    1  A    between atoms: C1_2  and  C2_3 
REMARK    2  A    between atoms: C2_3  and  C3_4 
ROOT
ATOM      1  C3  UNL d   1       5.635   3.450  -4.231  0.00  0.00    -0.075 A 
ATOM      2  C4  UNL d   1       5.990   4.580  -4.982  0.00  0.00     0.002 A 
ATOM      3  C5  UNL d   1       5.999   5.846  -4.395  0.00  0.00     0.002 A 
ATOM      4  C6  UNL d   1       5.643   5.999  -3.057  0.00  0.00    -0.004 A 
ATOM      5  C7  UNL d   1       5.272   4.886  -2.306  0.00  0.00     0.002 A 
ATOM      6  C8  UNL d   1       5.267   3.617  -2.889  0.00  0.00     0.002 A 
ENDROOT
BRANCH   1   7
ATOM      7  C2  UNL d   1       5.652   2.074  -4.852  0.00  0.00     0.056 C 
BRANCH   7   8
ATOM      8  C1  UNL d   1       4.478   1.802  -5.799  0.00  0.00     0.007 C 
ATOM      9  C   UNL d   1       3.120   2.073  -5.166  0.00  0.00     0.009 C 
ENDBRANCH   7   8
ENDBRANCH   1   7
TORSDOF 2
ENDMDL
