MODEL 1
REMARK minimizedAffinity 7.71120262
REMARK minimizedRMSD -1
REMARK  2 active torsions:
REMARK  status: ('A' for Active; 'I' for Inactive)
REMARK    1  A    between atoms: C1_2  and  C2_3 
REMARK    2  A    between atoms: C2_3  and  C3_4 
ROOT
ATOM      1  C3  UNL d   1      -1.969  -2.199  -0.390  0.00  0.00    -0.075 A 
ATOM      2  C4  UNL d   1      -3.337  -1.944  -0.565  0.00  0.00     0.002 A 
ATOM      3  C5  UNL d   1      -4.264  -2.365   0.390  0.00  0.00     0.002 A 
ATOM      4  C6  UNL d   1      -3.837  -3.053   1.523  0.00  0.00    -0.004 A 
ATOM      5  C7  UNL d   1      -2.482  -3.326   1.699  0.00  0.00     0.002 A 
ATOM      6  C8  UNL d   1      -1.553  -2.902   0.748  0.00  0.00     0.002 A 
ENDROOT
BRANCH   1   7
ATOM      7  C2  UNL d   1      -0.959  -1.721  -1.405  0.00  0.00     0.056 C 
BRANCH   7   8
ATOM      8  C1  UNL d   1       0.045  -0.702  -0.853  0.00  0.00     0.007 C 
ATOM      9  C   UNL d   1      -0.481   0.727  -0.869  0.00  0.00     0.009 C 
ENDBRANCH   7   8
ENDBRANCH   1   7
TORSDOF 2
ENDMDL
