MODEL 1
REMARK minimizedAffinity 8.73939323
REMARK minimizedRMSD -1
REMARK  2 active torsions:
REMARK  status: ('A' for Active; 'I' for Inactive)
REMARK    1  A    between atoms: C1_2  and  C2_3 
REMARK    2  A    between atoms: C2_3  and  C3_4 
ROOT
ATOM      1  C3  UNL d   1       2.601   4.301  -0.794  0.00  0.00    -0.075 A 
ATOM      2  C4  UNL d   1       1.866   4.601  -1.951  0.00  0.00     0.002 A 
ATOM      3  C5  UNL d   1       2.466   5.276  -3.015  0.00  0.00     0.002 A 
ATOM      4  C6  UNL d   1       3.800   5.667  -2.933  0.00  0.00    -0.004 A 
ATOM      5  C7  UNL d   1       4.534   5.389  -1.782  0.00  0.00     0.002 A 
ATOM      6  C8  UNL d   1       3.938   4.710  -0.717  0.00  0.00     0.002 A 
ENDROOT
BRANCH   1   7
ATOM      7  C2  UNL d   1       1.966   3.545   0.349  0.00  0.00     0.056 C 
BRANCH   7   8
ATOM      8  C1  UNL d   1       0.524   3.965   0.650  0.00  0.00     0.007 C 
ATOM      9  C   UNL d   1       0.431   5.202   1.533  0.00  0.00     0.009 C 
ENDBRANCH   7   8
ENDBRANCH   1   7
TORSDOF 2
ENDMDL
