MODEL 1
REMARK minimizedAffinity 7.82715034
REMARK minimizedRMSD -1
REMARK  2 active torsions:
REMARK  status: ('A' for Active; 'I' for Inactive)
REMARK    1  A    between atoms: C1_2  and  C2_3 
REMARK    2  A    between atoms: C2_3  and  C3_4 
ROOT
ATOM      1  C3  UNL d   1       4.044  -1.355  -3.913  0.00  0.00    -0.075 A 
ATOM      2  C4  UNL d   1       5.417  -1.126  -3.736  0.00  0.00     0.002 A 
ATOM      3  C5  UNL d   1       6.000   0.061  -4.179  0.00  0.00     0.002 A 
ATOM      4  C6  UNL d   1       5.223   1.029  -4.812  0.00  0.00    -0.004 A 
ATOM      5  C7  UNL d   1       3.861   0.805  -5.008  0.00  0.00     0.002 A 
ATOM      6  C8  UNL d   1       3.274  -0.380  -4.561  0.00  0.00     0.002 A 
ENDROOT
BRANCH   1   7
ATOM      7  C2  UNL d   1       3.402  -2.625  -3.409  0.00  0.00     0.056 C 
BRANCH   7   8
ATOM      8  C1  UNL d   1       1.874  -2.640  -3.527  0.00  0.00     0.007 C 
ATOM      9  C   UNL d   1       1.168  -2.287  -2.224  0.00  0.00     0.009 C 
ENDBRANCH   7   8
ENDBRANCH   1   7
TORSDOF 2
ENDMDL
