MODEL 1
REMARK minimizedAffinity 15.6994438
REMARK minimizedRMSD -1
REMARK  2 active torsions:
REMARK  status: ('A' for Active; 'I' for Inactive)
REMARK    1  A    between atoms: C1_2  and  C2_3 
REMARK    2  A    between atoms: C2_3  and  C3_4 
ROOT
ATOM      1  C3  UNL d   1       4.159  -2.677   4.671  0.00  0.00    -0.075 A 
ATOM      2  C4  UNL d   1       4.145  -3.457   5.836  0.00  0.00     0.002 A 
ATOM      3  C5  UNL d   1       5.054  -4.503   6.000  0.00  0.00     0.002 A 
ATOM      4  C6  UNL d   1       5.981  -4.787   4.999  0.00  0.00    -0.004 A 
ATOM      5  C7  UNL d   1       5.994  -4.028   3.831  0.00  0.00     0.002 A 
ATOM      6  C8  UNL d   1       5.088  -2.979   3.666  0.00  0.00     0.002 A 
ENDROOT
BRANCH   1   7
ATOM      7  C2  UNL d   1       3.197  -1.526   4.500  0.00  0.00     0.056 C 
BRANCH   7   8
ATOM      8  C1  UNL d   1       2.358  -1.599   3.220  0.00  0.00     0.007 C 
ATOM      9  C   UNL d   1       1.823  -2.995   2.932  0.00  0.00     0.009 C 
ENDBRANCH   7   8
ENDBRANCH   1   7
TORSDOF 2
ENDMDL
