MODEL 1
REMARK minimizedAffinity 8.72742558
REMARK minimizedRMSD -1
REMARK  2 active torsions:
REMARK  status: ('A' for Active; 'I' for Inactive)
REMARK    1  A    between atoms: C1_2  and  C2_3 
REMARK    2  A    between atoms: C2_3  and  C3_4 
ROOT
ATOM      1  C3  UNL d   1       3.293   4.823  -1.921  0.00  0.00    -0.075 A 
ATOM      2  C4  UNL d   1       3.885   3.807  -2.685  0.00  0.00     0.002 A 
ATOM      3  C5  UNL d   1       5.232   3.883  -3.040  0.00  0.00     0.002 A 
ATOM      4  C6  UNL d   1       6.000   4.977  -2.647  0.00  0.00    -0.004 A 
ATOM      5  C7  UNL d   1       5.417   6.000  -1.902  0.00  0.00     0.002 A 
ATOM      6  C8  UNL d   1       4.071   5.925  -1.541  0.00  0.00     0.002 A 
ENDROOT
BRANCH   1   7
ATOM      7  C2  UNL d   1       1.843   4.733  -1.508  0.00  0.00     0.056 C 
BRANCH   7   8
ATOM      8  C1  UNL d   1       1.552   3.624  -0.492  0.00  0.00     0.007 C 
ATOM      9  C   UNL d   1       0.445   3.984   0.490  0.00  0.00     0.009 C 
ENDBRANCH   7   8
ENDBRANCH   1   7
TORSDOF 2
ENDMDL
