MODEL 1
REMARK minimizedAffinity -5.86123705
REMARK minimizedRMSD -1
REMARK  1 active torsions:
REMARK  status: ('A' for Active; 'I' for Inactive)
REMARK    1  A    between atoms: C1_2  and  C2_3 
ROOT
ATOM      1  C2  UNL d   1      -0.252  -1.070   0.056  0.00  0.00    -0.077 A 
ATOM      2  C3  UNL d   1       0.464  -1.086  -1.149  0.00  0.00     0.002 A 
ATOM      3  C4  UNL d   1       0.641  -2.281  -1.849  0.00  0.00     0.002 A 
ATOM      4  C5  UNL d   1       0.101  -3.467  -1.355  0.00  0.00    -0.004 A 
ATOM      5  C6  UNL d   1      -0.611  -3.461  -0.156  0.00  0.00     0.002 A 
ATOM      6  C7  UNL d   1      -0.788  -2.268   0.546  0.00  0.00     0.002 A 
ENDROOT
BRANCH   1   7
ATOM      7  C1  UNL d   1      -0.486   0.226   0.788  0.00  0.00     0.055 C 
ATOM      8  C   UNL d   1       0.085   1.407   0.017  0.00  0.00     0.019 C 
ENDBRANCH   1   7
TORSDOF 1
ENDMDL
