MODEL 1
REMARK minimizedAffinity -3.19341063
REMARK minimizedRMSD -1
REMARK  1 active torsions:
REMARK  status: ('A' for Active; 'I' for Inactive)
REMARK    1  A    between atoms: C1_2  and  C2_3 
ROOT
ATOM      1  C2  UNL d   1      -0.237  -1.571   0.509  0.00  0.00    -0.077 A 
ATOM      2  C3  UNL d   1      -0.955  -0.874   1.492  0.00  0.00     0.002 A 
ATOM      3  C4  UNL d   1      -0.986   0.522   1.487  0.00  0.00     0.002 A 
ATOM      4  C5  UNL d   1      -0.306   1.232   0.501  0.00  0.00    -0.004 A 
ATOM      5  C6  UNL d   1       0.412   0.549  -0.480  0.00  0.00     0.002 A 
ATOM      6  C7  UNL d   1       0.446  -0.846  -0.476  0.00  0.00     0.002 A 
ENDROOT
BRANCH   1   7
ATOM      7  C1  UNL d   1      -0.242  -3.077   0.484  0.00  0.00     0.055 C 
ATOM      8  C   UNL d   1      -0.487  -3.606  -0.922  0.00  0.00     0.019 C 
ENDBRANCH   1   7
TORSDOF 1
ENDMDL
