MODEL 1
REMARK minimizedAffinity -4.78447866
REMARK minimizedRMSD -1
REMARK  1 active torsions:
REMARK  status: ('A' for Active; 'I' for Inactive)
REMARK    1  A    between atoms: C1_2  and  C2_3 
ROOT
ATOM      1  C2  UNL d   1       0.693   4.829   1.885  0.00  0.00    -0.077 A 
ATOM      2  C3  UNL d   1       0.121   4.128   0.814  0.00  0.00     0.002 A 
ATOM      3  C4  UNL d   1       0.830   3.108   0.178  0.00  0.00     0.002 A 
ATOM      4  C5  UNL d   1       2.113   2.776   0.607  0.00  0.00    -0.004 A 
ATOM      5  C6  UNL d   1       2.692   3.469   1.670  0.00  0.00     0.002 A 
ATOM      6  C7  UNL d   1       1.985   4.489   2.307  0.00  0.00     0.002 A 
ENDROOT
BRANCH   1   7
ATOM      7  C1  UNL d   1      -0.089   5.896   2.605  0.00  0.00     0.055 C 
ATOM      8  C   UNL d   1      -1.566   5.837   2.244  0.00  0.00     0.019 C 
ENDBRANCH   1   7
TORSDOF 1
ENDMDL
