MODEL 1
REMARK minimizedAffinity -4.13452053
REMARK minimizedRMSD -1
REMARK  1 active torsions:
REMARK  status: ('A' for Active; 'I' for Inactive)
REMARK    1  A    between atoms: C1_2  and  C2_3 
ROOT
ATOM      1  C2  UNL d   1      -0.115  -0.087  -0.471  0.00  0.00    -0.077 A 
ATOM      2  C3  UNL d   1       0.113   0.212  -1.821  0.00  0.00     0.002 A 
ATOM      3  C4  UNL d   1       0.689  -0.738  -2.667  0.00  0.00     0.002 A 
ATOM      4  C5  UNL d   1       1.038  -1.993  -2.173  0.00  0.00    -0.004 A 
ATOM      5  C6  UNL d   1       0.817  -2.299  -0.831  0.00  0.00     0.002 A 
ATOM      6  C7  UNL d   1       0.243  -1.350   0.017  0.00  0.00     0.002 A 
ENDROOT
BRANCH   1   7
ATOM      7  C1  UNL d   1      -0.781   0.919   0.431  0.00  0.00     0.055 C 
ATOM      8  C   UNL d   1      -1.882   0.274   1.262  0.00  0.00     0.019 C 
ENDBRANCH   1   7
TORSDOF 1
ENDMDL
