MODEL 1
REMARK minimizedAffinity -5.78417635
REMARK minimizedRMSD -1
REMARK  1 active torsions:
REMARK  status: ('A' for Active; 'I' for Inactive)
REMARK    1  A    between atoms: C1_2  and  C2_3 
ROOT
ATOM      1  C2  UNL d   1      -0.030  -0.110  -0.219  0.00  0.00    -0.077 A 
ATOM      2  C3  UNL d   1      -0.924  -0.443   0.809  0.00  0.00     0.002 A 
ATOM      3  C4  UNL d   1      -0.937  -1.733   1.344  0.00  0.00     0.002 A 
ATOM      4  C5  UNL d   1      -0.056  -2.698   0.860  0.00  0.00    -0.004 A 
ATOM      5  C6  UNL d   1       0.835  -2.378  -0.163  0.00  0.00     0.002 A 
ATOM      6  C7  UNL d   1       0.849  -1.089  -0.700  0.00  0.00     0.002 A 
ENDROOT
BRANCH   1   7
ATOM      7  C1  UNL d   1       0.019   1.293  -0.763  0.00  0.00     0.055 C 
ATOM      8  C   UNL d   1       0.732   2.234   0.197  0.00  0.00     0.019 C 
ENDBRANCH   1   7
TORSDOF 1
ENDMDL
