MODEL 1
REMARK minimizedAffinity -5.26684189
REMARK minimizedRMSD -1
REMARK  1 active torsions:
REMARK  status: ('A' for Active; 'I' for Inactive)
REMARK    1  A    between atoms: C1_2  and  C2_3 
ROOT
ATOM      1  C2  UNL d   1       0.143   0.313  -0.108  0.00  0.00    -0.077 A 
ATOM      2  C3  UNL d   1       0.778  -0.868  -0.517  0.00  0.00     0.002 A 
ATOM      3  C4  UNL d   1       0.472  -2.084   0.097  0.00  0.00     0.002 A 
ATOM      4  C5  UNL d   1      -0.473  -2.132   1.119  0.00  0.00    -0.004 A 
ATOM      5  C6  UNL d   1      -1.109  -0.963   1.535  0.00  0.00     0.002 A 
ATOM      6  C7  UNL d   1      -0.803   0.254   0.923  0.00  0.00     0.002 A 
ENDROOT
BRANCH   1   7
ATOM      7  C1  UNL d   1       0.436   1.617  -0.802  0.00  0.00     0.055 C 
ATOM      8  C   UNL d   1       1.663   2.296  -0.210  0.00  0.00     0.019 C 
ENDBRANCH   1   7
TORSDOF 1
ENDMDL
