MODEL 1
REMARK minimizedAffinity -5.40558243
REMARK minimizedRMSD -1
REMARK  1 active torsions:
REMARK  status: ('A' for Active; 'I' for Inactive)
REMARK    1  A    between atoms: C1_2  and  C2_3 
ROOT
ATOM      1  C2  UNL d   1      -0.362   0.293  -0.084  0.00  0.00    -0.077 A 
ATOM      2  C3  UNL d   1       0.243  -0.861  -0.601  0.00  0.00     0.002 A 
ATOM      3  C4  UNL d   1       0.042  -2.099   0.012  0.00  0.00     0.002 A 
ATOM      4  C5  UNL d   1      -0.768  -2.196   1.142  0.00  0.00    -0.004 A 
ATOM      5  C6  UNL d   1      -1.372  -1.053   1.665  0.00  0.00     0.002 A 
ATOM      6  C7  UNL d   1      -1.171   0.185   1.055  0.00  0.00     0.002 A 
ENDROOT
BRANCH   1   7
ATOM      7  C1  UNL d   1      -0.186   1.621  -0.772  0.00  0.00     0.055 C 
ATOM      8  C   UNL d   1       0.242   2.702   0.210  0.00  0.00     0.019 C 
ENDBRANCH   1   7
TORSDOF 1
ENDMDL
