MODEL 1
REMARK minimizedAffinity -3.79390454
REMARK minimizedRMSD -1
REMARK  1 active torsions:
REMARK  status: ('A' for Active; 'I' for Inactive)
REMARK    1  A    between atoms: C1_2  and  C2_3 
ROOT
ATOM      1  C2  UNL d   1      -0.515   0.112   0.109  0.00  0.00    -0.077 A 
ATOM      2  C3  UNL d   1      -0.738   0.155   1.492  0.00  0.00     0.002 A 
ATOM      3  C4  UNL d   1      -0.872  -1.027   2.223  0.00  0.00     0.002 A 
ATOM      4  C5  UNL d   1      -0.781  -2.260   1.579  0.00  0.00    -0.004 A 
ATOM      5  C6  UNL d   1      -0.562  -2.313   0.203  0.00  0.00     0.002 A 
ATOM      6  C7  UNL d   1      -0.429  -1.132  -0.528  0.00  0.00     0.002 A 
ENDROOT
BRANCH   1   7
ATOM      7  C1  UNL d   1      -0.321   1.386  -0.673  0.00  0.00     0.055 C 
ATOM      8  C   UNL d   1       0.418   2.432   0.148  0.00  0.00     0.019 C 
ENDBRANCH   1   7
TORSDOF 1
ENDMDL
