MODEL 1
REMARK minimizedAffinity -6.00380802
REMARK minimizedRMSD -1
REMARK  1 active torsions:
REMARK  status: ('A' for Active; 'I' for Inactive)
REMARK    1  A    between atoms: C1_2  and  C2_3 
ROOT
ATOM      1  C2  UNL d   1      -0.036  -0.219  -0.367  0.00  0.00    -0.077 A 
ATOM      2  C3  UNL d   1       0.101  -0.733  -1.664  0.00  0.00     0.002 A 
ATOM      3  C4  UNL d   1       0.118  -2.112  -1.879  0.00  0.00     0.002 A 
ATOM      4  C5  UNL d   1      -0.006  -2.988  -0.802  0.00  0.00    -0.004 A 
ATOM      5  C6  UNL d   1      -0.140  -2.487   0.492  0.00  0.00     0.002 A 
ATOM      6  C7  UNL d   1      -0.156  -1.108   0.708  0.00  0.00     0.002 A 
ENDROOT
BRANCH   1   7
ATOM      7  C1  UNL d   1      -0.105   1.269  -0.139  0.00  0.00     0.055 C 
ATOM      8  C   UNL d   1       1.286   1.876  -0.027  0.00  0.00     0.019 C 
ENDBRANCH   1   7
TORSDOF 1
ENDMDL
