MODEL 1
REMARK minimizedAffinity -3.99168658
REMARK minimizedRMSD -1
REMARK  1 active torsions:
REMARK  status: ('A' for Active; 'I' for Inactive)
REMARK    1  A    between atoms: C1_2  and  C2_3 
ROOT
ATOM      1  C2  UNL d   1      -0.146  -0.031  -0.018  0.00  0.00    -0.077 A 
ATOM      2  C3  UNL d   1       0.781  -0.901  -0.611  0.00  0.00     0.002 A 
ATOM      3  C4  UNL d   1       0.691  -2.278  -0.401  0.00  0.00     0.002 A 
ATOM      4  C5  UNL d   1      -0.325  -2.798   0.398  0.00  0.00    -0.004 A 
ATOM      5  C6  UNL d   1      -1.250  -1.942   0.994  0.00  0.00     0.002 A 
ATOM      6  C7  UNL d   1      -1.161  -0.564   0.786  0.00  0.00     0.002 A 
ENDROOT
BRANCH   1   7
ATOM      7  C1  UNL d   1      -0.080   1.450  -0.283  0.00  0.00     0.055 C 
ATOM      8  C   UNL d   1       1.171   2.067   0.325  0.00  0.00     0.019 C 
ENDBRANCH   1   7
TORSDOF 1
ENDMDL
