MODEL 1
REMARK minimizedAffinity -4.01885843
REMARK minimizedRMSD -1
REMARK  1 active torsions:
REMARK  status: ('A' for Active; 'I' for Inactive)
REMARK    1  A    between atoms: C1_2  and  C2_3 
ROOT
ATOM      1  C2  UNL d   1       0.072  -1.492   0.236  0.00  0.00    -0.077 A 
ATOM      2  C3  UNL d   1      -0.625  -0.777   1.220  0.00  0.00     0.002 A 
ATOM      3  C4  UNL d   1      -0.936   0.570   1.028  0.00  0.00     0.002 A 
ATOM      4  C5  UNL d   1      -0.559   1.213  -0.150  0.00  0.00    -0.004 A 
ATOM      5  C6  UNL d   1       0.135   0.511  -1.134  0.00  0.00     0.002 A 
ATOM      6  C7  UNL d   1       0.448  -0.836  -0.943  0.00  0.00     0.002 A 
ENDROOT
BRANCH   1   7
ATOM      7  C1  UNL d   1       0.365  -2.958   0.421  0.00  0.00     0.055 C 
ATOM      8  C   UNL d   1      -0.886  -3.802   0.229  0.00  0.00     0.019 C 
ENDBRANCH   1   7
TORSDOF 1
ENDMDL
