MODEL 1
REMARK minimizedAffinity -4.26200485
REMARK minimizedRMSD -1
REMARK  1 active torsions:
REMARK  status: ('A' for Active; 'I' for Inactive)
REMARK    1  A    between atoms: C1_2  and  C2_3 
ROOT
ATOM      1  C2  UNL d   1      -0.104  -0.409   0.260  0.00  0.00    -0.077 A 
ATOM      2  C3  UNL d   1       0.988  -0.707   1.088  0.00  0.00     0.002 A 
ATOM      3  C4  UNL d   1       1.074  -1.947   1.723  0.00  0.00     0.002 A 
ATOM      4  C5  UNL d   1       0.076  -2.900   1.535  0.00  0.00    -0.004 A 
ATOM      5  C6  UNL d   1      -1.015  -2.612   0.716  0.00  0.00     0.002 A 
ATOM      6  C7  UNL d   1      -1.104  -1.373   0.080  0.00  0.00     0.002 A 
ENDROOT
BRANCH   1   7
ATOM      7  C1  UNL d   1      -0.175   0.909  -0.465  0.00  0.00     0.055 C 
ATOM      8  C   UNL d   1      -0.053   0.720  -1.970  0.00  0.00     0.019 C 
ENDBRANCH   1   7
TORSDOF 1
ENDMDL
