MODEL 1
REMARK minimizedAffinity 2.25734401
REMARK minimizedRMSD -1
REMARK  1 active torsions:
REMARK  status: ('A' for Active; 'I' for Inactive)
REMARK    1  A    between atoms: C1_2  and  C2_3 
ROOT
ATOM      1  C2  UNL d   1      -2.464  -0.474  -1.435  0.00  0.00    -0.073 A 
ATOM      2  C3  UNL d   1      -2.595   0.264  -0.252  0.00  0.00    -0.002 A 
ATOM      3  C4  UNL d   1      -1.651   0.135   0.767  0.00  0.00     0.004 A 
ATOM      4  C5  UNL d   1      -0.564  -0.725   0.612  0.00  0.00    -0.004 A 
ATOM      5  C6  UNL d   1      -0.409  -1.462  -0.566  0.00  0.00    -0.075 A 
ATOM      6  C7  UNL d   1       0.753  -2.394  -0.747  0.00  0.00     0.076 C 
ATOM      7  C8  UNL d   1      -1.364  -1.329  -1.584  0.00  0.00     0.001 A 
ENDROOT
BRANCH   1   8
ATOM      8  C1  UNL d   1      -3.478  -0.334  -2.540  0.00  0.00     0.053 C 
ATOM      9  C   UNL d   1      -3.987   1.093  -2.669  0.00  0.00     0.018 C 
ENDBRANCH   1   8
TORSDOF 1
ENDMDL
