MODEL 1
REMARK minimizedAffinity 5.66998243
REMARK minimizedRMSD -1
REMARK  1 active torsions:
REMARK  status: ('A' for Active; 'I' for Inactive)
REMARK    1  A    between atoms: C1_2  and  C2_3 
ROOT
ATOM      1  C2  UNL d   1       1.194  -1.236   1.580  0.00  0.00    -0.073 A 
ATOM      2  C3  UNL d   1       1.840  -2.062   0.653  0.00  0.00    -0.002 A 
ATOM      3  C4  UNL d   1       1.336  -2.198  -0.641  0.00  0.00     0.004 A 
ATOM      4  C5  UNL d   1       0.187  -1.506  -1.023  0.00  0.00    -0.004 A 
ATOM      5  C6  UNL d   1      -0.466  -0.667  -0.115  0.00  0.00    -0.075 A 
ATOM      6  C7  UNL d   1      -1.705   0.083  -0.509  0.00  0.00     0.076 C 
ATOM      7  C8  UNL d   1       0.044  -0.538   1.184  0.00  0.00     0.001 A 
ENDROOT
BRANCH   1   8
ATOM      8  C1  UNL d   1       1.738  -1.081   2.977  0.00  0.00     0.053 C 
ATOM      9  C   UNL d   1       1.939  -2.423   3.663  0.00  0.00     0.018 C 
ENDBRANCH   1   8
TORSDOF 1
ENDMDL
