MODEL 1
REMARK minimizedAffinity 10.1776571
REMARK minimizedRMSD -1
REMARK  1 active torsions:
REMARK  status: ('A' for Active; 'I' for Inactive)
REMARK    1  A    between atoms: C1_2  and  C2_3 
ROOT
ATOM      1  C2  UNL d   1       2.369  -2.235   4.510  0.00  0.00    -0.073 A 
ATOM      2  C3  UNL d   1       1.849  -1.394   3.520  0.00  0.00    -0.002 A 
ATOM      3  C4  UNL d   1       2.666  -0.929   2.489  0.00  0.00     0.004 A 
ATOM      4  C5  UNL d   1       4.008  -1.305   2.434  0.00  0.00    -0.004 A 
ATOM      5  C6  UNL d   1       4.544  -2.154   3.407  0.00  0.00    -0.075 A 
ATOM      6  C7  UNL d   1       5.986  -2.566   3.363  0.00  0.00     0.076 C 
ATOM      7  C8  UNL d   1       3.717  -2.615   4.441  0.00  0.00     0.001 A 
ENDROOT
BRANCH   1   8
ATOM      8  C1  UNL d   1       1.488  -2.745   5.622  0.00  0.00     0.053 C 
ATOM      9  C   UNL d   1       1.139  -4.214   5.444  0.00  0.00     0.018 C 
ENDBRANCH   1   8
TORSDOF 1
ENDMDL
