MODEL 1
REMARK minimizedAffinity 20.9611797
REMARK minimizedRMSD -1
REMARK  1 active torsions:
REMARK  status: ('A' for Active; 'I' for Inactive)
REMARK    1  A    between atoms: C1_2  and  C2_3 
ROOT
ATOM      1  C2  UNL d   1       1.299  -0.743   1.781  0.00  0.00    -0.073 A 
ATOM      2  C3  UNL d   1      -0.022  -0.297   1.663  0.00  0.00    -0.002 A 
ATOM      3  C4  UNL d   1      -0.716  -0.458   0.463  0.00  0.00     0.004 A 
ATOM      4  C5  UNL d   1      -0.099  -1.072  -0.627  0.00  0.00    -0.004 A 
ATOM      5  C6  UNL d   1       1.216  -1.535  -0.525  0.00  0.00    -0.075 A 
ATOM      6  C7  UNL d   1       1.894  -2.196  -1.689  0.00  0.00     0.076 C 
ATOM      7  C8  UNL d   1       1.907  -1.367   0.683  0.00  0.00     0.001 A 
ENDROOT
BRANCH   1   8
ATOM      8  C1  UNL d   1       2.050  -0.576   3.077  0.00  0.00     0.053 C 
ATOM      9  C   UNL d   1       3.186  -1.578   3.210  0.00  0.00     0.018 C 
ENDBRANCH   1   8
TORSDOF 1
ENDMDL
