MODEL 1
REMARK minimizedAffinity 12.4770203
REMARK minimizedRMSD -1
REMARK  1 active torsions:
REMARK  status: ('A' for Active; 'I' for Inactive)
REMARK    1  A    between atoms: C1_2  and  C2_3 
ROOT
ATOM      1  C2  UNL d   1       2.595  -1.513   3.429  0.00  0.00    -0.073 A 
ATOM      2  C3  UNL d   1       1.675  -2.346   4.076  0.00  0.00    -0.002 A 
ATOM      3  C4  UNL d   1       2.086  -3.167   5.127  0.00  0.00     0.004 A 
ATOM      4  C5  UNL d   1       3.416  -3.158   5.546  0.00  0.00    -0.004 A 
ATOM      5  C6  UNL d   1       4.348  -2.324   4.920  0.00  0.00    -0.075 A 
ATOM      6  C7  UNL d   1       5.783  -2.304   5.357  0.00  0.00     0.076 C 
ATOM      7  C8  UNL d   1       3.928  -1.504   3.863  0.00  0.00     0.001 A 
ENDROOT
BRANCH   1   8
ATOM      8  C1  UNL d   1       2.155  -0.620   2.298  0.00  0.00     0.053 C 
ATOM      9  C   UNL d   1       2.911   0.698   2.285  0.00  0.00     0.018 C 
ENDBRANCH   1   8
TORSDOF 1
ENDMDL
