MODEL 1
REMARK minimizedAffinity 5.7388258
REMARK minimizedRMSD -1
REMARK  1 active torsions:
REMARK  status: ('A' for Active; 'I' for Inactive)
REMARK    1  A    between atoms: C1_2  and  C2_3 
ROOT
ATOM      1  C2  UNL d   1       2.384   2.196   1.600  0.00  0.00    -0.073 A 
ATOM      2  C3  UNL d   1       1.862   3.243   0.833  0.00  0.00    -0.002 A 
ATOM      3  C4  UNL d   1       0.907   2.987  -0.152  0.00  0.00     0.004 A 
ATOM      4  C5  UNL d   1       0.461   1.685  -0.375  0.00  0.00    -0.004 A 
ATOM      5  C6  UNL d   1       0.962   0.627   0.389  0.00  0.00    -0.075 A 
ATOM      6  C7  UNL d   1       0.493  -0.780   0.160  0.00  0.00     0.076 C 
ATOM      7  C8  UNL d   1       1.922   0.891   1.375  0.00  0.00     0.001 A 
ENDROOT
BRANCH   1   8
ATOM      8  C1  UNL d   1       3.410   2.468   2.670  0.00  0.00     0.053 C 
ATOM      9  C   UNL d   1       3.083   1.751   3.970  0.00  0.00     0.018 C 
ENDBRANCH   1   8
TORSDOF 1
ENDMDL
