MODEL 1
REMARK minimizedAffinity 0.870433927
REMARK minimizedRMSD -1
REMARK  1 active torsions:
REMARK  status: ('A' for Active; 'I' for Inactive)
REMARK    1  A    between atoms: C1_2  and  C2_3 
ROOT
ATOM      1  C2  UNL d   1       1.880  -2.105   3.565  0.00  0.00    -0.073 A 
ATOM      2  C3  UNL d   1       2.638  -2.916   2.712  0.00  0.00    -0.002 A 
ATOM      3  C4  UNL d   1       2.705  -4.294   2.925  0.00  0.00     0.004 A 
ATOM      4  C5  UNL d   1       2.012  -4.875   3.987  0.00  0.00    -0.004 A 
ATOM      5  C6  UNL d   1       1.241  -4.083   4.843  0.00  0.00    -0.075 A 
ATOM      6  C7  UNL d   1       0.491  -4.693   5.991  0.00  0.00     0.076 C 
ATOM      7  C8  UNL d   1       1.180  -2.700   4.625  0.00  0.00     0.001 A 
ENDROOT
BRANCH   1   8
ATOM      8  C1  UNL d   1       1.799  -0.618   3.336  0.00  0.00     0.053 C 
ATOM      9  C   UNL d   1       1.795  -0.269   1.856  0.00  0.00     0.018 C 
ENDBRANCH   1   8
TORSDOF 1
ENDMDL
