MODEL 1
REMARK minimizedAffinity 15.0323162
REMARK minimizedRMSD -1
REMARK  1 active torsions:
REMARK  status: ('A' for Active; 'I' for Inactive)
REMARK    1  A    between atoms: C1_2  and  C2_3 
ROOT
ATOM      1  C2  UNL d   1       1.853   2.624   0.776  0.00  0.00    -0.073 A 
ATOM      2  C3  UNL d   1       2.835   1.749   1.254  0.00  0.00    -0.002 A 
ATOM      3  C4  UNL d   1       2.471   0.586   1.934  0.00  0.00     0.004 A 
ATOM      4  C5  UNL d   1       1.125   0.283   2.137  0.00  0.00    -0.004 A 
ATOM      5  C6  UNL d   1       0.129   1.139   1.657  0.00  0.00    -0.075 A 
ATOM      6  C7  UNL d   1      -1.323   0.829   1.869  0.00  0.00     0.076 C 
ATOM      7  C8  UNL d   1       0.502   2.307   0.977  0.00  0.00     0.001 A 
ENDROOT
BRANCH   1   8
ATOM      8  C1  UNL d   1       2.241   3.878   0.035  0.00  0.00     0.053 C 
ATOM      9  C   UNL d   1       1.055   4.508  -0.678  0.00  0.00     0.018 C 
ENDBRANCH   1   8
TORSDOF 1
ENDMDL
