MODEL 1
REMARK minimizedAffinity 1.97988427
REMARK minimizedRMSD -1
REMARK  1 active torsions:
REMARK  status: ('A' for Active; 'I' for Inactive)
REMARK    1  A    between atoms: C1_2  and  C2_3 
ROOT
ATOM      1  C2  UNL d   1       1.589  -3.149   4.212  0.00  0.00    -0.073 A 
ATOM      2  C3  UNL d   1       2.246  -3.973   3.291  0.00  0.00    -0.002 A 
ATOM      3  C4  UNL d   1       2.833  -3.426   2.149  0.00  0.00     0.004 A 
ATOM      4  C5  UNL d   1       2.775  -2.051   1.921  0.00  0.00    -0.004 A 
ATOM      5  C6  UNL d   1       2.133  -1.210   2.835  0.00  0.00    -0.075 A 
ATOM      6  C7  UNL d   1       2.060   0.270   2.603  0.00  0.00     0.076 C 
ATOM      7  C8  UNL d   1       1.544  -1.768   3.978  0.00  0.00     0.001 A 
ENDROOT
BRANCH   1   8
ATOM      8  C1  UNL d   1       0.960  -3.735   5.450  0.00  0.00     0.053 C 
ATOM      9  C   UNL d   1       0.586  -5.197   5.262  0.00  0.00     0.018 C 
ENDBRANCH   1   8
TORSDOF 1
ENDMDL
