MODEL 1
REMARK minimizedAffinity 7.89964771
REMARK minimizedRMSD -1
REMARK  1 active torsions:
REMARK  status: ('A' for Active; 'I' for Inactive)
REMARK    1  A    between atoms: C1_2  and  C2_3 
ROOT
ATOM      1  C2  UNL d   1       1.897  -1.820   0.649  0.00  0.00    -0.073 A 
ATOM      2  C3  UNL d   1       1.903  -0.723   1.518  0.00  0.00    -0.002 A 
ATOM      3  C4  UNL d   1       2.291  -0.880   2.849  0.00  0.00     0.004 A 
ATOM      4  C5  UNL d   1       2.683  -2.132   3.323  0.00  0.00    -0.004 A 
ATOM      5  C6  UNL d   1       2.695  -3.238   2.467  0.00  0.00    -0.075 A 
ATOM      6  C7  UNL d   1       3.111  -4.592   2.961  0.00  0.00     0.076 C 
ATOM      7  C8  UNL d   1       2.301  -3.073   1.132  0.00  0.00     0.001 A 
ENDROOT
BRANCH   1   8
ATOM      8  C1  UNL d   1       1.485  -1.653  -0.791  0.00  0.00     0.053 C 
ATOM      9  C   UNL d   1      -0.010  -1.411  -0.932  0.00  0.00     0.018 C 
ENDBRANCH   1   8
TORSDOF 1
ENDMDL
