MODEL 1
REMARK minimizedAffinity 3.21544266
REMARK minimizedRMSD -1
REMARK  3 active torsions:
REMARK  status: ('A' for Active; 'I' for Inactive)
REMARK    1  A    between atoms: C3'_2  and  C2'_3 
REMARK    2  A    between atoms: C2'_3  and  C1'_4 
REMARK    3  A    between atoms: C1'_4  and  C1_5 
ROOT
ATOM      1  C1  N4B d   1       3.260   0.701  -0.373  0.00  0.00    -0.075 A 
ATOM      2  C2  N4B d   1       3.860   1.443  -1.414  0.00  0.00     0.002 A 
ATOM      3  C3  N4B d   1       5.219   1.386  -1.604  0.00  0.00     0.002 A 
ATOM      4  C4  N4B d   1       5.997   0.612  -0.757  0.00  0.00    -0.004 A 
ATOM      5  C5  N4B d   1       5.408  -0.121   0.231  0.00  0.00     0.002 A 
ATOM      6  C6  N4B d   1       4.043  -0.076   0.431  0.00  0.00     0.002 A 
ENDROOT
BRANCH   1   7
ATOM      7  C1' N4B d   1       1.790   0.799  -0.072  0.00  0.00     0.057 C 
BRANCH   7   8
ATOM      8  C2' N4B d   1       1.510   2.123   0.634  0.00  0.00     0.009 C 
BRANCH   8   9
ATOM      9  C3' N4B d   1       1.783   2.040   2.126  0.00  0.00     0.004 C 
ATOM     10  C4' N4B d   1       2.915   2.924   2.559  0.00  0.00     0.003 C 
ENDBRANCH   8   9
ENDBRANCH   7   8
ENDBRANCH   1   7
TORSDOF 3
ENDMDL
