MODEL 1
REMARK minimizedAffinity 19.4383297
REMARK minimizedRMSD -1
REMARK  3 active torsions:
REMARK  status: ('A' for Active; 'I' for Inactive)
REMARK    1  A    between atoms: C3'_2  and  C2'_3 
REMARK    2  A    between atoms: C2'_3  and  C1'_4 
REMARK    3  A    between atoms: C1'_4  and  C1_5 
ROOT
ATOM      1  C1  N4B d   1      -4.313   2.641  -4.154  0.00  0.00    -0.075 A 
ATOM      2  C2  N4B d   1      -3.234   3.052  -4.967  0.00  0.00     0.002 A 
ATOM      3  C3  N4B d   1      -2.466   2.115  -5.614  0.00  0.00     0.002 A 
ATOM      4  C4  N4B d   1      -2.745   0.767  -5.449  0.00  0.00    -0.004 A 
ATOM      5  C5  N4B d   1      -3.805   0.379  -4.682  0.00  0.00     0.002 A 
ATOM      6  C6  N4B d   1      -4.587   1.310  -4.029  0.00  0.00     0.002 A 
ENDROOT
BRANCH   1   7
ATOM      7  C1' N4B d   1      -5.127   3.625  -3.359  0.00  0.00     0.057 C 
BRANCH   7   8
ATOM      8  C2' N4B d   1      -5.953   2.868  -2.322  0.00  0.00     0.009 C 
BRANCH   8   9
ATOM      9  C3' N4B d   1      -5.973   3.583  -0.981  0.00  0.00     0.004 C 
ATOM     10  C4' N4B d   1      -5.990   2.635   0.181  0.00  0.00     0.003 C 
ENDBRANCH   8   9
ENDBRANCH   7   8
ENDBRANCH   1   7
TORSDOF 3
ENDMDL
