MODEL 1
REMARK minimizedAffinity 8.57614136
REMARK minimizedRMSD -1
REMARK  3 active torsions:
REMARK  status: ('A' for Active; 'I' for Inactive)
REMARK    1  A    between atoms: C3'_2  and  C2'_3 
REMARK    2  A    between atoms: C2'_3  and  C1'_4 
REMARK    3  A    between atoms: C1'_4  and  C1_5 
ROOT
ATOM      1  C1  N4B d   1       3.771  -0.450  -0.752  0.00  0.00    -0.075 A 
ATOM      2  C2  N4B d   1       3.772   0.740  -1.512  0.00  0.00     0.002 A 
ATOM      3  C3  N4B d   1       4.886   1.544  -1.528  0.00  0.00     0.002 A 
ATOM      4  C4  N4B d   1       5.999   1.188  -0.781  0.00  0.00    -0.004 A 
ATOM      5  C5  N4B d   1       5.999   0.024  -0.071  0.00  0.00     0.002 A 
ATOM      6  C6  N4B d   1       4.889  -0.795  -0.048  0.00  0.00     0.002 A 
ENDROOT
BRANCH   1   7
ATOM      7  C1' N4B d   1       2.547  -1.317  -0.635  0.00  0.00     0.057 C 
BRANCH   7   8
ATOM      8  C2' N4B d   1       2.954  -2.780  -0.778  0.00  0.00     0.009 C 
BRANCH   8   9
ATOM      9  C3' N4B d   1       2.160  -3.487  -1.863  0.00  0.00     0.004 C 
ATOM     10  C4' N4B d   1       2.861  -3.490  -3.189  0.00  0.00     0.003 C 
ENDBRANCH   8   9
ENDBRANCH   7   8
ENDBRANCH   1   7
TORSDOF 3
ENDMDL
