MODEL 1
REMARK minimizedAffinity 8.28376865
REMARK minimizedRMSD -1
REMARK  3 active torsions:
REMARK  status: ('A' for Active; 'I' for Inactive)
REMARK    1  A    between atoms: C3'_2  and  C2'_3 
REMARK    2  A    between atoms: C2'_3  and  C1'_4 
REMARK    3  A    between atoms: C1'_4  and  C1_5 
ROOT
ATOM      1  C1  N4B d   1       4.697   3.046   3.755  0.00  0.00    -0.075 A 
ATOM      2  C2  N4B d   1       5.494   2.915   4.913  0.00  0.00     0.002 A 
ATOM      3  C3  N4B d   1       5.471   3.893   5.877  0.00  0.00     0.002 A 
ATOM      4  C4  N4B d   1       4.677   5.015   5.696  0.00  0.00    -0.004 A 
ATOM      5  C5  N4B d   1       3.891   5.122   4.586  0.00  0.00     0.002 A 
ATOM      6  C6  N4B d   1       3.901   4.145   3.611  0.00  0.00     0.002 A 
ENDROOT
BRANCH   1   7
ATOM      7  C1' N4B d   1       4.754   2.044   2.634  0.00  0.00     0.057 C 
BRANCH   7   8
ATOM      8  C2' N4B d   1       5.160   2.755   1.347  0.00  0.00     0.009 C 
BRANCH   8   9
ATOM      9  C3' N4B d   1       5.504   1.773   0.240  0.00  0.00     0.004 C 
ATOM     10  C4' N4B d   1       4.299   1.066  -0.305  0.00  0.00     0.003 C 
ENDBRANCH   8   9
ENDBRANCH   7   8
ENDBRANCH   1   7
TORSDOF 3
ENDMDL
