MODEL 1
REMARK minimizedAffinity -6.41869259
REMARK minimizedRMSD -1
REMARK  2 active torsions:
REMARK  status: ('A' for Active; 'I' for Inactive)
REMARK    1  A    between atoms: C1_2  and  C2_3 
REMARK    2  A    between atoms: C2_3  and  C3_4 
ROOT
ATOM      1  C3  UNL d   1      -0.554   1.092   0.292  0.00  0.00    -0.075 A 
ATOM      2  C4  UNL d   1      -0.002   2.098  -0.513  0.00  0.00     0.002 A 
ATOM      3  C5  UNL d   1      -0.446   3.417  -0.404  0.00  0.00     0.002 A 
ATOM      4  C6  UNL d   1      -1.452   3.743   0.503  0.00  0.00    -0.004 A 
ATOM      5  C7  UNL d   1      -2.019   2.748   1.297  0.00  0.00     0.002 A 
ATOM      6  C8  UNL d   1      -1.573   1.429   1.192  0.00  0.00     0.002 A 
ENDROOT
BRANCH   1   7
ATOM      7  C2  UNL d   1      -0.057  -0.331   0.199  0.00  0.00     0.056 C 
BRANCH   7   8
ATOM      8  C1  UNL d   1       0.988  -0.557  -0.899  0.00  0.00     0.007 C 
ATOM      9  C   UNL d   1       0.877  -1.923  -1.561  0.00  0.00     0.009 C 
ENDBRANCH   7   8
ENDBRANCH   1   7
TORSDOF 2
ENDMDL
