MODEL 1
REMARK minimizedAffinity -6.41739321
REMARK minimizedRMSD -1
REMARK  2 active torsions:
REMARK  status: ('A' for Active; 'I' for Inactive)
REMARK    1  A    between atoms: C1_2  and  C2_3 
REMARK    2  A    between atoms: C2_3  and  C3_4 
ROOT
ATOM      1  C3  UNL d   1      -0.143   0.969  -0.518  0.00  0.00    -0.075 A 
ATOM      2  C4  UNL d   1      -0.350   0.574   0.811  0.00  0.00     0.002 A 
ATOM      3  C5  UNL d   1      -1.106   1.366   1.676  0.00  0.00     0.002 A 
ATOM      4  C6  UNL d   1      -1.655   2.565   1.227  0.00  0.00    -0.004 A 
ATOM      5  C7  UNL d   1      -1.442   2.976  -0.087  0.00  0.00     0.002 A 
ATOM      6  C8  UNL d   1      -0.690   2.183  -0.956  0.00  0.00     0.002 A 
ENDROOT
BRANCH   1   7
ATOM      7  C2  UNL d   1       0.649   0.102  -1.468  0.00  0.00     0.056 C 
BRANCH   7   8
ATOM      8  C1  UNL d   1       1.146  -1.208  -0.848  0.00  0.00     0.007 C 
ATOM      9  C   UNL d   1       1.111  -2.382  -1.818  0.00  0.00     0.009 C 
ENDBRANCH   7   8
ENDBRANCH   1   7
TORSDOF 2
ENDMDL
