MODEL 1
REMARK minimizedAffinity -5.30190325
REMARK minimizedRMSD -1
REMARK  2 active torsions:
REMARK  status: ('A' for Active; 'I' for Inactive)
REMARK    1  A    between atoms: C1_2  and  C2_3 
REMARK    2  A    between atoms: C2_3  and  C3_4 
ROOT
ATOM      1  C3  UNL d   1      -0.502   0.539   0.469  0.00  0.00    -0.075 A 
ATOM      2  C4  UNL d   1      -0.051   1.532  -0.413  0.00  0.00     0.002 A 
ATOM      3  C5  UNL d   1      -0.479   2.852  -0.273  0.00  0.00     0.002 A 
ATOM      4  C6  UNL d   1      -1.370   3.195   0.742  0.00  0.00    -0.004 A 
ATOM      5  C7  UNL d   1      -1.837   2.214   1.614  0.00  0.00     0.002 A 
ATOM      6  C8  UNL d   1      -1.407   0.893   1.478  0.00  0.00     0.002 A 
ENDROOT
BRANCH   1   7
ATOM      7  C2  UNL d   1      -0.020  -0.886   0.340  0.00  0.00     0.056 C 
BRANCH   7   8
ATOM      8  C1  UNL d   1       0.951  -1.113  -0.823  0.00  0.00     0.007 C 
ATOM      9  C   UNL d   1       0.668  -2.392  -1.600  0.00  0.00     0.009 C 
ENDBRANCH   7   8
ENDBRANCH   1   7
TORSDOF 2
ENDMDL
