MODEL 1
REMARK minimizedAffinity -5.79037046
REMARK minimizedRMSD -1
REMARK  2 active torsions:
REMARK  status: ('A' for Active; 'I' for Inactive)
REMARK    1  A    between atoms: C1_2  and  C2_3 
REMARK    2  A    between atoms: C2_3  and  C3_4 
ROOT
ATOM      1  C3  UNL d   1      -0.132   0.670   0.291  0.00  0.00    -0.075 A 
ATOM      2  C4  UNL d   1      -0.113   2.004  -0.141  0.00  0.00     0.002 A 
ATOM      3  C5  UNL d   1      -0.937   2.955   0.461  0.00  0.00     0.002 A 
ATOM      4  C6  UNL d   1      -1.796   2.584   1.493  0.00  0.00    -0.004 A 
ATOM      5  C7  UNL d   1      -1.835   1.258   1.919  0.00  0.00     0.002 A 
ATOM      6  C8  UNL d   1      -1.009   0.305   1.321  0.00  0.00     0.002 A 
ENDROOT
BRANCH   1   7
ATOM      7  C2  UNL d   1       0.778  -0.358  -0.337  0.00  0.00     0.056 C 
BRANCH   7   8
ATOM      8  C1  UNL d   1       0.041  -1.453  -1.116  0.00  0.00     0.007 C 
ATOM      9  C   UNL d   1       0.974  -2.359  -1.907  0.00  0.00     0.009 C 
ENDBRANCH   7   8
ENDBRANCH   1   7
TORSDOF 2
ENDMDL
