MODEL 1
REMARK minimizedAffinity -3.71807313
REMARK minimizedRMSD -1
REMARK  2 active torsions:
REMARK  status: ('A' for Active; 'I' for Inactive)
REMARK    1  A    between atoms: C1_2  and  C2_3 
REMARK    2  A    between atoms: C2_3  and  C3_4 
ROOT
ATOM      1  C3  UNL d   1       0.186   0.875  -0.095  0.00  0.00    -0.075 A 
ATOM      2  C4  UNL d   1      -0.350   0.465   1.135  0.00  0.00     0.002 A 
ATOM      3  C5  UNL d   1      -1.258   1.276   1.817  0.00  0.00     0.002 A 
ATOM      4  C6  UNL d   1      -1.632   2.508   1.285  0.00  0.00    -0.004 A 
ATOM      5  C7  UNL d   1      -1.093   2.932   0.073  0.00  0.00     0.002 A 
ATOM      6  C8  UNL d   1      -0.188   2.121  -0.614  0.00  0.00     0.002 A 
ENDROOT
BRANCH   1   7
ATOM      7  C2  UNL d   1       1.146  -0.011  -0.852  0.00  0.00     0.056 C 
BRANCH   7   8
ATOM      8  C1  UNL d   1       0.839  -1.508  -0.734  0.00  0.00     0.007 C 
ATOM      9  C   UNL d   1       1.110  -2.280  -2.018  0.00  0.00     0.009 C 
ENDBRANCH   7   8
ENDBRANCH   1   7
TORSDOF 2
ENDMDL
