MODEL 1
REMARK minimizedAffinity -6.02661085
REMARK minimizedRMSD -1
REMARK  2 active torsions:
REMARK  status: ('A' for Active; 'I' for Inactive)
REMARK    1  A    between atoms: C1_2  and  C2_3 
REMARK    2  A    between atoms: C2_3  and  C3_4 
ROOT
ATOM      1  C3  UNL d   1       0.196  -0.023   0.049  0.00  0.00    -0.075 A 
ATOM      2  C4  UNL d   1      -0.027  -0.258   1.414  0.00  0.00     0.002 A 
ATOM      3  C5  UNL d   1      -0.843   0.598   2.155  0.00  0.00     0.002 A 
ATOM      4  C6  UNL d   1      -1.436   1.701   1.546  0.00  0.00    -0.004 A 
ATOM      5  C7  UNL d   1      -1.208   1.953   0.195  0.00  0.00     0.002 A 
ATOM      6  C8  UNL d   1      -0.396   1.096  -0.550  0.00  0.00     0.002 A 
ENDROOT
BRANCH   1   7
ATOM      7  C2  UNL d   1       1.054  -0.962  -0.765  0.00  0.00     0.056 C 
BRANCH   7   8
ATOM      8  C1  UNL d   1       0.256  -1.957  -1.615  0.00  0.00     0.007 C 
ATOM      9  C   UNL d   1       1.041  -3.215  -1.961  0.00  0.00     0.009 C 
ENDBRANCH   7   8
ENDBRANCH   1   7
TORSDOF 2
ENDMDL
