MODEL 1
REMARK minimizedAffinity -6.03288889
REMARK minimizedRMSD -1
REMARK  2 active torsions:
REMARK  status: ('A' for Active; 'I' for Inactive)
REMARK    1  A    between atoms: C1_2  and  C2_3 
REMARK    2  A    between atoms: C2_3  and  C3_4 
ROOT
ATOM      1  C3  UNL d   1      -0.459   0.515   0.467  0.00  0.00    -0.075 A 
ATOM      2  C4  UNL d   1      -0.442   1.390  -0.628  0.00  0.00     0.002 A 
ATOM      3  C5  UNL d   1      -0.761   2.738  -0.463  0.00  0.00     0.002 A 
ATOM      4  C6  UNL d   1      -1.111   3.225   0.795  0.00  0.00    -0.004 A 
ATOM      5  C7  UNL d   1      -1.148   2.361   1.887  0.00  0.00     0.002 A 
ATOM      6  C8  UNL d   1      -0.824   1.012   1.725  0.00  0.00     0.002 A 
ENDROOT
BRANCH   1   7
ATOM      7  C2  UNL d   1      -0.086  -0.939   0.300  0.00  0.00     0.056 C 
BRANCH   7   8
ATOM      8  C1  UNL d   1       0.751  -1.228  -0.951  0.00  0.00     0.007 C 
ATOM      9  C   UNL d   1       0.477  -2.601  -1.552  0.00  0.00     0.009 C 
ENDBRANCH   7   8
ENDBRANCH   1   7
TORSDOF 2
ENDMDL
