MODEL 1
REMARK minimizedAffinity -3.24706554
REMARK minimizedRMSD -1
REMARK  2 active torsions:
REMARK  status: ('A' for Active; 'I' for Inactive)
REMARK    1  A    between atoms: C1_2  and  C2_3 
REMARK    2  A    between atoms: C2_3  and  C3_4 
ROOT
ATOM      1  C3  UNL d   1      -0.316   0.420   0.991  0.00  0.00    -0.075 A 
ATOM      2  C4  UNL d   1      -0.344   1.011  -0.280  0.00  0.00     0.002 A 
ATOM      3  C5  UNL d   1       0.353   0.437  -1.344  0.00  0.00     0.002 A 
ATOM      4  C6  UNL d   1       1.093  -0.727  -1.149  0.00  0.00    -0.004 A 
ATOM      5  C7  UNL d   1       1.142  -1.314   0.114  0.00  0.00     0.002 A 
ATOM      6  C8  UNL d   1       0.442  -0.744   1.179  0.00  0.00     0.002 A 
ENDROOT
BRANCH   1   7
ATOM      7  C2  UNL d   1      -1.091   1.020   2.140  0.00  0.00     0.056 C 
BRANCH   7   8
ATOM      8  C1  UNL d   1      -2.338   1.800   1.711  0.00  0.00     0.007 C 
ATOM      9  C   UNL d   1      -2.063   3.274   1.447  0.00  0.00     0.009 C 
ENDBRANCH   7   8
ENDBRANCH   1   7
TORSDOF 2
ENDMDL
