MODEL 1
REMARK minimizedAffinity -5.04241419
REMARK minimizedRMSD -1
REMARK  2 active torsions:
REMARK  status: ('A' for Active; 'I' for Inactive)
REMARK    1  A    between atoms: C1_2  and  C2_3 
REMARK    2  A    between atoms: C2_3  and  C3_4 
ROOT
ATOM      1  C3  UNL d   1      -0.719   1.127   0.059  0.00  0.00    -0.075 A 
ATOM      2  C4  UNL d   1      -0.151  -0.129   0.314  0.00  0.00     0.002 A 
ATOM      3  C5  UNL d   1       1.086  -0.472  -0.234  0.00  0.00     0.002 A 
ATOM      4  C6  UNL d   1       1.764   0.431  -1.050  0.00  0.00    -0.004 A 
ATOM      5  C7  UNL d   1       1.201   1.676  -1.324  0.00  0.00     0.002 A 
ATOM      6  C8  UNL d   1      -0.034   2.023  -0.774  0.00  0.00     0.002 A 
ENDROOT
BRANCH   1   7
ATOM      7  C2  UNL d   1      -2.043   1.516   0.672  0.00  0.00     0.056 C 
BRANCH   7   8
ATOM      8  C1  UNL d   1      -1.957   2.697   1.644  0.00  0.00     0.007 C 
ATOM      9  C   UNL d   1      -0.747   2.630   2.566  0.00  0.00     0.009 C 
ENDBRANCH   7   8
ENDBRANCH   1   7
TORSDOF 2
ENDMDL
