MODEL 1
REMARK minimizedAffinity -3.48274708
REMARK minimizedRMSD -1
REMARK  2 active torsions:
REMARK  status: ('A' for Active; 'I' for Inactive)
REMARK    1  A    between atoms: C1_2  and  C2_3 
REMARK    2  A    between atoms: C2_3  and  C3_4 
ROOT
ATOM      1  C3  UNL d   1       0.563  -0.867  -0.254  0.00  0.00    -0.075 A 
ATOM      2  C4  UNL d   1       0.029  -0.877   1.042  0.00  0.00     0.002 A 
ATOM      3  C5  UNL d   1      -0.520   0.282   1.592  0.00  0.00     0.002 A 
ATOM      4  C6  UNL d   1      -0.532   1.466   0.857  0.00  0.00    -0.004 A 
ATOM      5  C7  UNL d   1       0.010   1.492  -0.426  0.00  0.00     0.002 A 
ATOM      6  C8  UNL d   1       0.556   0.332  -0.979  0.00  0.00     0.002 A 
ENDROOT
BRANCH   1   7
ATOM      7  C2  UNL d   1       1.131  -2.126  -0.865  0.00  0.00     0.056 C 
BRANCH   7   8
ATOM      8  C1  UNL d   1       0.430  -2.564  -2.155  0.00  0.00     0.007 C 
ATOM      9  C   UNL d   1       0.473  -4.070  -2.380  0.00  0.00     0.009 C 
ENDBRANCH   7   8
ENDBRANCH   1   7
TORSDOF 2
ENDMDL
