MODEL 1
REMARK minimizedAffinity -5.05816412
REMARK minimizedRMSD -1
REMARK  2 active torsions:
REMARK  status: ('A' for Active; 'I' for Inactive)
REMARK    1  A    between atoms: C1_2  and  C2_3 
REMARK    2  A    between atoms: C2_3  and  C3_4 
ROOT
ATOM      1  C3  UNL d   1       0.268   0.178  -0.011  0.00  0.00    -0.075 A 
ATOM      2  C4  UNL d   1      -0.343  -0.158   1.206  0.00  0.00     0.002 A 
ATOM      3  C5  UNL d   1      -1.191   0.746   1.846  0.00  0.00     0.002 A 
ATOM      4  C6  UNL d   1      -1.430   1.998   1.285  0.00  0.00    -0.004 A 
ATOM      5  C7  UNL d   1      -0.816   2.349   0.085  0.00  0.00     0.002 A 
ATOM      6  C8  UNL d   1       0.029   1.445  -0.560  0.00  0.00     0.002 A 
ENDROOT
BRANCH   1   7
ATOM      7  C2  UNL d   1       1.163  -0.807  -0.725  0.00  0.00     0.056 C 
BRANCH   7   8
ATOM      8  C1  UNL d   1       0.406  -1.857  -1.545  0.00  0.00     0.007 C 
ATOM      9  C   UNL d   1       1.133  -3.193  -1.627  0.00  0.00     0.009 C 
ENDBRANCH   7   8
ENDBRANCH   1   7
TORSDOF 2
ENDMDL
