MODEL 1
REMARK minimizedAffinity -4.74916172
REMARK minimizedRMSD -1
REMARK  2 active torsions:
REMARK  status: ('A' for Active; 'I' for Inactive)
REMARK    1  A    between atoms: C1_2  and  C2_3 
REMARK    2  A    between atoms: C2_3  and  C3_4 
ROOT
ATOM      1  C3  UNL d   1       0.039   0.156   0.070  0.00  0.00    -0.075 A 
ATOM      2  C4  UNL d   1      -0.455  -0.305   1.299  0.00  0.00     0.002 A 
ATOM      3  C5  UNL d   1      -1.387   0.447   2.015  0.00  0.00     0.002 A 
ATOM      4  C6  UNL d   1      -1.827   1.672   1.519  0.00  0.00    -0.004 A 
ATOM      5  C7  UNL d   1      -1.330   2.147   0.307  0.00  0.00     0.002 A 
ATOM      6  C8  UNL d   1      -0.401   1.395  -0.414  0.00  0.00     0.002 A 
ENDROOT
BRANCH   1   7
ATOM      7  C2  UNL d   1       1.025  -0.667  -0.724  0.00  0.00     0.056 C 
BRANCH   7   8
ATOM      8  C1  UNL d   1       0.386  -1.503  -1.837  0.00  0.00     0.007 C 
ATOM      9  C   UNL d   1       1.052  -2.859  -2.028  0.00  0.00     0.009 C 
ENDBRANCH   7   8
ENDBRANCH   1   7
TORSDOF 2
ENDMDL
