MODEL 1
REMARK minimizedAffinity -3.45639133
REMARK minimizedRMSD -1
REMARK  1 active torsions:
REMARK  status: ('A' for Active; 'I' for Inactive)
REMARK    1  A    between atoms: N_2  and  C1_3 
ROOT
ATOM      1  C1  UNL d   1       0.263  -0.104  -0.000  0.00  0.00     0.143 A 
ATOM      2  C2  UNL d   1       0.893   0.337   1.168  0.00  0.00    -0.057 A 
ATOM      3  C3  UNL d   1       0.153   0.737   2.286  0.00  0.00     0.033 A 
ATOM      4  C4  UNL d   1      -1.238   0.730   2.246  0.00  0.00    -0.042 A 
ATOM      5  C5  UNL d   1      -1.886   0.319   1.087  0.00  0.00     0.033 A 
ATOM      6  C6  UNL d   1      -1.141  -0.086  -0.024  0.00  0.00    -0.057 A 
ENDROOT
BRANCH   1   7
ATOM      7  N   UNL d   1       0.942  -0.421  -1.179  0.00  0.00    -0.732 N 
ATOM      8  C   UNL d   1       0.606   0.237  -2.423  0.00  0.00     0.284 C 
ATOM      9  H3  UNL d   1       1.941  -0.545  -1.031  0.00  0.00     0.395 HD
ENDBRANCH   1   7
TORSDOF 1
ENDMDL
