MODEL 1
REMARK minimizedAffinity -3.62579942
REMARK minimizedRMSD -1
REMARK  1 active torsions:
REMARK  status: ('A' for Active; 'I' for Inactive)
REMARK    1  A    between atoms: N_2  and  C1_3 
ROOT
ATOM      1  C1  UNL d   1      -1.093   0.577   1.456  0.00  0.00     0.143 A 
ATOM      2  C2  UNL d   1       0.289   0.730   1.617  0.00  0.00    -0.057 A 
ATOM      3  C3  UNL d   1       1.185   0.318   0.624  0.00  0.00     0.033 A 
ATOM      4  C4  UNL d   1       0.716  -0.283  -0.540  0.00  0.00    -0.042 A 
ATOM      5  C5  UNL d   1      -0.651  -0.469  -0.710  0.00  0.00     0.033 A 
ATOM      6  C6  UNL d   1      -1.542  -0.049   0.282  0.00  0.00    -0.057 A 
ENDROOT
BRANCH   1   7
ATOM      7  N   UNL d   1      -2.029   0.876   2.448  0.00  0.00    -0.732 N 
ATOM      8  C   UNL d   1      -2.634  -0.179   3.233  0.00  0.00     0.284 C 
ATOM      9  H3  UNL d   1      -1.775   1.701   2.986  0.00  0.00     0.395 HD
ENDBRANCH   1   7
TORSDOF 1
ENDMDL
