MODEL 1
REMARK minimizedAffinity -5.60659552
REMARK minimizedRMSD -1
REMARK  1 active torsions:
REMARK  status: ('A' for Active; 'I' for Inactive)
REMARK    1  A    between atoms: N_2  and  C1_3 
ROOT
ATOM      1  C1  UNL d   1       0.200  -0.178   0.752  0.00  0.00     0.143 A 
ATOM      2  C2  UNL d   1      -0.816   0.574   1.351  0.00  0.00    -0.057 A 
ATOM      3  C3  UNL d   1      -0.697   1.037   2.667  0.00  0.00     0.033 A 
ATOM      4  C4  UNL d   1       0.433   0.730   3.419  0.00  0.00    -0.042 A 
ATOM      5  C5  UNL d   1       1.444  -0.037   2.852  0.00  0.00     0.033 A 
ATOM      6  C6  UNL d   1       1.322  -0.491   1.535  0.00  0.00    -0.057 A 
ENDROOT
BRANCH   1   7
ATOM      7  N   UNL d   1       0.097  -0.751  -0.519  0.00  0.00    -0.732 N 
ATOM      8  C   UNL d   1       0.509  -0.014  -1.694  0.00  0.00     0.284 C 
ATOM      9  H3  UNL d   1       0.369  -1.731  -0.526  0.00  0.00     0.395 HD
ENDBRANCH   1   7
TORSDOF 1
ENDMDL
