MODEL 1
REMARK minimizedAffinity 4.09648609
REMARK minimizedRMSD -1
REMARK  1 active torsions:
REMARK  status: ('A' for Active; 'I' for Inactive)
REMARK    1  A    between atoms: N_2  and  C1_3 
ROOT
ATOM      1  C1  UNL d   1       2.375   0.550  -3.939  0.00  0.00     0.143 A 
ATOM      2  C2  UNL d   1       2.893  -0.719  -4.218  0.00  0.00    -0.057 A 
ATOM      3  C3  UNL d   1       4.226  -1.037  -3.933  0.00  0.00     0.033 A 
ATOM      4  C4  UNL d   1       5.075  -0.079  -3.389  0.00  0.00    -0.042 A 
ATOM      5  C5  UNL d   1       4.589   1.196  -3.126  0.00  0.00     0.033 A 
ATOM      6  C6  UNL d   1       3.254   1.506  -3.407  0.00  0.00    -0.057 A 
ENDROOT
BRANCH   1   7
ATOM      7  N   UNL d   1       1.085   0.958  -4.289  0.00  0.00    -0.732 N 
ATOM      8  C   UNL d   1       0.128   0.008  -4.813  0.00  0.00     0.284 C 
ATOM      9  H3  UNL d   1       0.693   1.620  -3.623  0.00  0.00     0.395 HD
ENDBRANCH   1   7
TORSDOF 1
ENDMDL
