MODEL 1
REMARK minimizedAffinity -4.04230261
REMARK minimizedRMSD -1
REMARK  0 active torsions:
REMARK  status: ('A' for Active; 'I' for Inactive)
ROOT
ATOM      1  C4' PXY d   1       3.640  -1.014  -2.849  0.00  0.00     0.077 C 
ATOM      2  C1' PXY d   1      -1.737   0.608  -1.480  0.00  0.00     0.077 C 
ATOM      3  C1  PXY d   1      -0.331   0.171  -1.841  0.00  0.00    -0.082 A 
ATOM      4  C2  PXY d   1       0.706   0.826  -1.346  0.00  0.00     0.003 A 
ATOM      5  C3  PXY d   1       1.983   0.464  -1.688  0.00  0.00     0.003 A 
ATOM      6  C4  PXY d   1       2.203  -0.614  -2.503  0.00  0.00    -0.082 A 
ATOM      7  C5  PXY d   1       1.150  -1.294  -3.004  0.00  0.00     0.003 A 
ATOM      8  C6  PXY d   1      -0.139  -0.885  -2.678  0.00  0.00     0.003 A 
ENDROOT
TORSDOF 0
ENDMDL
