MODEL 1
REMARK minimizedAffinity -2.56150579
REMARK minimizedRMSD -1
REMARK  0 active torsions:
REMARK  status: ('A' for Active; 'I' for Inactive)
ROOT
ATOM      1  C4' PXY d   1       4.815   0.459  -3.540  0.00  0.00     0.077 C 
ATOM      2  C1' PXY d   1      -0.670  -1.364  -3.491  0.00  0.00     0.077 C 
ATOM      3  C1  PXY d   1       0.764  -0.873  -3.502  0.00  0.00    -0.082 A 
ATOM      4  C2  PXY d   1       1.703  -1.612  -4.071  0.00  0.00     0.003 A 
ATOM      5  C3  PXY d   1       3.011  -1.199  -4.062  0.00  0.00     0.003 A 
ATOM      6  C4  PXY d   1       3.352   0.008  -3.513  0.00  0.00    -0.082 A 
ATOM      7  C5  PXY d   1       2.398   0.772  -2.940  0.00  0.00     0.003 A 
ATOM      8  C6  PXY d   1       1.084   0.316  -2.923  0.00  0.00     0.003 A 
ENDROOT
TORSDOF 0
ENDMDL
