MODEL 1
REMARK minimizedAffinity -4.30104446
REMARK minimizedRMSD -1
REMARK  0 active torsions:
REMARK  status: ('A' for Active; 'I' for Inactive)
ROOT
ATOM      1  C4' PXY d   1       0.841   0.344  -1.582  0.00  0.00     0.077 C 
ATOM      2  C1' PXY d   1      -1.921  -0.304   3.455  0.00  0.00     0.077 C 
ATOM      3  C1  PXY d   1      -1.207  -0.139   2.128  0.00  0.00    -0.082 A 
ATOM      4  C2  PXY d   1       0.115  -0.094   2.097  0.00  0.00     0.003 A 
ATOM      5  C3  PXY d   1       0.775   0.087   0.909  0.00  0.00     0.003 A 
ATOM      6  C4  PXY d   1       0.078   0.169  -0.266  0.00  0.00    -0.082 A 
ATOM      7  C5  PXY d   1      -1.271   0.113  -0.244  0.00  0.00     0.003 A 
ATOM      8  C6  PXY d   1      -1.924  -0.030   0.976  0.00  0.00     0.003 A 
ENDROOT
TORSDOF 0
ENDMDL
