MODEL 1
REMARK minimizedAffinity -5.68532562
REMARK minimizedRMSD -1
REMARK  0 active torsions:
REMARK  status: ('A' for Active; 'I' for Inactive)
ROOT
ATOM      1  C4' PXY d   1      -1.679  -0.028   3.542  0.00  0.00     0.077 C 
ATOM      2  C1' PXY d   1       0.900   0.288  -1.622  0.00  0.00     0.077 C 
ATOM      3  C1  PXY d   1       0.213   0.209  -0.273  0.00  0.00    -0.082 A 
ATOM      4  C2  PXY d   1       0.928   0.327   0.834  0.00  0.00     0.003 A 
ATOM      5  C3  PXY d   1       0.327   0.226   2.062  0.00  0.00     0.003 A 
ATOM      6  C4  PXY d   1      -1.028   0.055   2.158  0.00  0.00    -0.082 A 
ATOM      7  C5  PXY d   1      -1.766  -0.056   1.033  0.00  0.00     0.003 A 
ATOM      8  C6  PXY d   1      -1.131   0.008  -0.203  0.00  0.00     0.003 A 
ENDROOT
TORSDOF 0
ENDMDL
