MODEL 1
REMARK minimizedAffinity -4.05998135
REMARK minimizedRMSD -1
REMARK  0 active torsions:
REMARK  status: ('A' for Active; 'I' for Inactive)
ROOT
ATOM      1  C4' PXY d   1      -0.901  -0.678   3.269  0.00  0.00     0.077 C 
ATOM      2  C1' PXY d   1       0.855   0.402  -2.132  0.00  0.00     0.077 C 
ATOM      3  C1  PXY d   1       0.382   0.121  -0.719  0.00  0.00    -0.082 A 
ATOM      4  C2  PXY d   1       1.227   0.252   0.292  0.00  0.00     0.003 A 
ATOM      5  C3  PXY d   1       0.824  -0.029   1.572  0.00  0.00     0.003 A 
ATOM      6  C4  PXY d   1      -0.470  -0.396   1.827  0.00  0.00    -0.082 A 
ATOM      7  C5  PXY d   1      -1.340  -0.522   0.803  0.00  0.00     0.003 A 
ATOM      8  C6  PXY d   1      -0.901  -0.272  -0.494  0.00  0.00     0.003 A 
ENDROOT
TORSDOF 0
ENDMDL
