MODEL 1
REMARK minimizedAffinity -4.08296204
REMARK minimizedRMSD -1
REMARK  0 active torsions:
REMARK  status: ('A' for Active; 'I' for Inactive)
ROOT
ATOM      1  C4' PXY d   1       0.199   1.438  -1.566  0.00  0.00     0.077 C 
ATOM      2  C1' PXY d   1      -1.048  -1.176   3.437  0.00  0.00     0.077 C 
ATOM      3  C1  PXY d   1      -0.712  -0.483   2.131  0.00  0.00    -0.082 A 
ATOM      4  C2  PXY d   1      -1.617  -0.428   1.168  0.00  0.00     0.003 A 
ATOM      5  C3  PXY d   1      -1.319   0.166  -0.031  0.00  0.00     0.003 A 
ATOM      6  C4  PXY d   1      -0.100   0.757  -0.227  0.00  0.00    -0.082 A 
ATOM      7  C5  PXY d   1       0.826   0.715   0.755  0.00  0.00     0.003 A 
ATOM      8  C6  PXY d   1       0.518   0.071   1.950  0.00  0.00     0.003 A 
ENDROOT
TORSDOF 0
ENDMDL
