MODEL 1
REMARK minimizedAffinity -3.8978138
REMARK minimizedRMSD -1
REMARK  0 active torsions:
REMARK  status: ('A' for Active; 'I' for Inactive)
ROOT
ATOM      1  C4' PXY d   1      -1.275  -0.011   3.120  0.00  0.00     0.077 C 
ATOM      2  C1' PXY d   1       0.999   0.014  -2.195  0.00  0.00     0.077 C 
ATOM      3  C1  PXY d   1       0.414   0.004  -0.796  0.00  0.00    -0.082 A 
ATOM      4  C2  PXY d   1      -0.892  -0.133  -0.634  0.00  0.00     0.003 A 
ATOM      5  C3  PXY d   1      -1.441  -0.113   0.622  0.00  0.00     0.003 A 
ATOM      6  C4  PXY d   1      -0.640  -0.004   1.727  0.00  0.00    -0.082 A 
ATOM      7  C5  PXY d   1       0.695   0.125   1.571  0.00  0.00     0.003 A 
ATOM      8  C6  PXY d   1       1.229   0.143   0.285  0.00  0.00     0.003 A 
ENDROOT
TORSDOF 0
ENDMDL
