MODEL 1
REMARK minimizedAffinity -3.28118634
REMARK minimizedRMSD -1
REMARK  0 active torsions:
REMARK  status: ('A' for Active; 'I' for Inactive)
ROOT
ATOM      1  C4' PXY d   1       0.431   0.869  -1.534  0.00  0.00     0.077 C 
ATOM      2  C1' PXY d   1      -1.291  -0.814   3.721  0.00  0.00     0.077 C 
ATOM      3  C1  PXY d   1      -0.849  -0.380   2.337  0.00  0.00    -0.082 A 
ATOM      4  C2  PXY d   1       0.377   0.086   2.159  0.00  0.00     0.003 A 
ATOM      5  C3  PXY d   1       0.783   0.513   0.921  0.00  0.00     0.003 A 
ATOM      6  C4  PXY d   1      -0.056   0.411  -0.157  0.00  0.00    -0.082 A 
ATOM      7  C5  PXY d   1      -1.304  -0.074   0.015  0.00  0.00     0.003 A 
ATOM      8  C6  PXY d   1      -1.711  -0.463   1.288  0.00  0.00     0.003 A 
ENDROOT
TORSDOF 0
ENDMDL
