MODEL 1
REMARK minimizedAffinity -4.20783472
REMARK minimizedRMSD -1
REMARK  0 active torsions:
REMARK  status: ('A' for Active; 'I' for Inactive)
ROOT
ATOM      1  C4' PXY d   1      -0.883  -0.412   3.223  0.00  0.00     0.077 C 
ATOM      2  C1' PXY d   1       0.823   0.049  -2.281  0.00  0.00     0.077 C 
ATOM      3  C1  PXY d   1       0.388  -0.070  -0.834  0.00  0.00    -0.082 A 
ATOM      4  C2  PXY d   1      -0.730  -0.714  -0.538  0.00  0.00     0.003 A 
ATOM      5  C3  PXY d   1      -1.155  -0.803   0.763  0.00  0.00     0.003 A 
ATOM      6  C4  PXY d   1      -0.400  -0.275   1.776  0.00  0.00    -0.082 A 
ATOM      7  C5  PXY d   1       0.747   0.374   1.483  0.00  0.00     0.003 A 
ATOM      8  C6  PXY d   1       1.139   0.490   0.153  0.00  0.00     0.003 A 
ENDROOT
TORSDOF 0
ENDMDL
