MODEL 1
REMARK minimizedAffinity -4.92977333
REMARK minimizedRMSD -1
REMARK  0 active torsions:
REMARK  status: ('A' for Active; 'I' for Inactive)
ROOT
ATOM      1  C4' PXY d   1       0.986  -0.018  -2.325  0.00  0.00     0.077 C 
ATOM      2  C1' PXY d   1      -0.505  -0.712   3.216  0.00  0.00     0.077 C 
ATOM      3  C1  PXY d   1      -0.124  -0.538   1.760  0.00  0.00    -0.082 A 
ATOM      4  C2  PXY d   1       1.129  -0.259   1.440  0.00  0.00     0.003 A 
ATOM      5  C3  PXY d   1       1.484  -0.067   0.130  0.00  0.00     0.003 A 
ATOM      6  C4  PXY d   1       0.558  -0.213  -0.868  0.00  0.00    -0.082 A 
ATOM      7  C5  PXY d   1      -0.721  -0.507  -0.551  0.00  0.00     0.003 A 
ATOM      8  C6  PXY d   1      -1.070  -0.658   0.788  0.00  0.00     0.003 A 
ENDROOT
TORSDOF 0
ENDMDL
