MODEL 1
REMARK minimizedAffinity -4.3397274
REMARK minimizedRMSD -1
REMARK  0 active torsions:
REMARK  status: ('A' for Active; 'I' for Inactive)
ROOT
ATOM      1  C4' PXY d   1       0.356   0.721  -1.888  0.00  0.00     0.077 C 
ATOM      2  C1' PXY d   1      -1.283  -0.877   3.420  0.00  0.00     0.077 C 
ATOM      3  C1  PXY d   1      -0.843  -0.450   2.034  0.00  0.00    -0.082 A 
ATOM      4  C2  PXY d   1      -1.707  -0.493   1.032  0.00  0.00     0.003 A 
ATOM      5  C3  PXY d   1      -1.318  -0.141  -0.235  0.00  0.00     0.003 A 
ATOM      6  C4  PXY d   1      -0.046   0.309  -0.469  0.00  0.00    -0.082 A 
ATOM      7  C5  PXY d   1       0.838   0.366   0.550  0.00  0.00     0.003 A 
ATOM      8  C6  PXY d   1       0.435  -0.035   1.820  0.00  0.00     0.003 A 
ENDROOT
TORSDOF 0
ENDMDL
