MODEL 1
REMARK minimizedAffinity -4.6485095
REMARK minimizedRMSD -1
REMARK  0 active torsions:
REMARK  status: ('A' for Active; 'I' for Inactive)
ROOT
ATOM      1  C4' PXY d   1      -0.703  -1.446  -3.037  0.00  0.00     0.077 C 
ATOM      2  C1' PXY d   1       4.986  -0.522  -3.474  0.00  0.00     0.077 C 
ATOM      3  C1  PXY d   1       3.493  -0.754  -3.352  0.00  0.00    -0.082 A 
ATOM      4  C2  PXY d   1       2.997  -1.958  -3.587  0.00  0.00     0.003 A 
ATOM      5  C3  PXY d   1       1.646  -2.178  -3.512  0.00  0.00     0.003 A 
ATOM      6  C4  PXY d   1       0.799  -1.168  -3.140  0.00  0.00    -0.082 A 
ATOM      7  C5  PXY d   1       1.299   0.060  -2.888  0.00  0.00     0.003 A 
ATOM      8  C6  PXY d   1       2.669   0.273  -3.010  0.00  0.00     0.003 A 
ENDROOT
TORSDOF 0
ENDMDL
