MODEL 1
REMARK minimizedAffinity -3.39420319
REMARK minimizedRMSD -1
REMARK  0 active torsions:
REMARK  status: ('A' for Active; 'I' for Inactive)
ROOT
ATOM      1  C4' PXY d   1       0.523  -0.671  -2.754  0.00  0.00     0.077 C 
ATOM      2  C1' PXY d   1      -0.203  -0.033   2.945  0.00  0.00     0.077 C 
ATOM      3  C1  PXY d   1      -0.025  -0.195   1.449  0.00  0.00    -0.082 A 
ATOM      4  C2  PXY d   1       0.817  -1.105   0.985  0.00  0.00     0.003 A 
ATOM      5  C3  PXY d   1       1.015  -1.243  -0.365  0.00  0.00     0.003 A 
ATOM      6  C4  PXY d   1       0.304  -0.479  -1.251  0.00  0.00    -0.082 A 
ATOM      7  C5  PXY d   1      -0.565   0.444  -0.786  0.00  0.00     0.003 A 
ATOM      8  C6  PXY d   1      -0.721   0.597   0.589  0.00  0.00     0.003 A 
ENDROOT
TORSDOF 0
ENDMDL
