MODEL 1
REMARK minimizedAffinity -0.352714211
REMARK minimizedRMSD -1
REMARK  0 active torsions:
REMARK  status: ('A' for Active; 'I' for Inactive)
ROOT
ATOM      1  C4' PXY d   1       1.200   0.569   0.605  0.00  0.00     0.077 C 
ATOM      2  C1' PXY d   1      -4.346  -1.057   0.520  0.00  0.00     0.077 C 
ATOM      3  C1  PXY d   1      -2.890  -0.638   0.553  0.00  0.00    -0.082 A 
ATOM      4  C2  PXY d   1      -2.528   0.512   0.009  0.00  0.00     0.003 A 
ATOM      5  C3  PXY d   1      -1.210   0.892   0.002  0.00  0.00     0.003 A 
ATOM      6  C4  PXY d   1      -0.261   0.110   0.604  0.00  0.00    -0.082 A 
ATOM      7  C5  PXY d   1      -0.624  -1.060   1.170  0.00  0.00     0.003 A 
ATOM      8  C6  PXY d   1      -1.960  -1.447   1.131  0.00  0.00     0.003 A 
ENDROOT
TORSDOF 0
ENDMDL
