MODEL 1
REMARK minimizedAffinity -4.62603617
REMARK minimizedRMSD -1
REMARK  0 active torsions:
REMARK  status: ('A' for Active; 'I' for Inactive)
ROOT
ATOM      1  C4' PXY d   1       5.453   1.457  -3.694  0.00  0.00     0.077 C 
ATOM      2  C1' PXY d   1       0.729  -1.838  -3.200  0.00  0.00     0.077 C 
ATOM      3  C1  PXY d   1       1.975  -0.984  -3.325  0.00  0.00    -0.082 A 
ATOM      4  C2  PXY d   1       1.866   0.335  -3.333  0.00  0.00     0.003 A 
ATOM      5  C3  PXY d   1       2.979   1.122  -3.477  0.00  0.00     0.003 A 
ATOM      6  C4  PXY d   1       4.223   0.555  -3.560  0.00  0.00    -0.082 A 
ATOM      7  C5  PXY d   1       4.344  -0.789  -3.542  0.00  0.00     0.003 A 
ATOM      8  C6  PXY d   1       3.197  -1.572  -3.436  0.00  0.00     0.003 A 
ENDROOT
TORSDOF 0
ENDMDL
