MODEL 1
REMARK minimizedAffinity -5.30374098
REMARK minimizedRMSD -1
REMARK  0 active torsions:
REMARK  status: ('A' for Active; 'I' for Inactive)
ROOT
ATOM      1  C4' PXY d   1       0.244   0.766  -1.865  0.00  0.00     0.077 C 
ATOM      2  C1' PXY d   1      -1.129  -0.621   3.577  0.00  0.00     0.077 C 
ATOM      3  C1  PXY d   1      -0.779  -0.264   2.145  0.00  0.00    -0.082 A 
ATOM      4  C2  PXY d   1       0.472   0.030   1.832  0.00  0.00     0.003 A 
ATOM      5  C3  PXY d   1       0.800   0.387   0.549  0.00  0.00     0.003 A 
ATOM      6  C4  PXY d   1      -0.153   0.390  -0.434  0.00  0.00    -0.082 A 
ATOM      7  C5  PXY d   1      -1.430   0.080  -0.124  0.00  0.00     0.003 A 
ATOM      8  C6  PXY d   1      -1.750  -0.239   1.192  0.00  0.00     0.003 A 
ENDROOT
TORSDOF 0
ENDMDL
