MODEL 1
REMARK minimizedAffinity -4.2630415
REMARK minimizedRMSD -1
REMARK  0 active torsions:
REMARK  status: ('A' for Active; 'I' for Inactive)
ROOT
ATOM      1  C4' PXY d   1       5.524   1.784  -4.126  0.00  0.00     0.077 C 
ATOM      2  C1' PXY d   1       1.066  -1.648  -2.796  0.00  0.00     0.077 C 
ATOM      3  C1  PXY d   1       2.244  -0.757  -3.142  0.00  0.00    -0.082 A 
ATOM      4  C2  PXY d   1       2.109   0.558  -3.081  0.00  0.00     0.003 A 
ATOM      5  C3  PXY d   1       3.154   1.378  -3.421  0.00  0.00     0.003 A 
ATOM      6  C4  PXY d   1       4.365   0.846  -3.777  0.00  0.00    -0.082 A 
ATOM      7  C5  PXY d   1       4.513  -0.494  -3.831  0.00  0.00     0.003 A 
ATOM      8  C6  PXY d   1       3.428  -1.309  -3.522  0.00  0.00     0.003 A 
ENDROOT
TORSDOF 0
ENDMDL
