MODEL 1
REMARK minimizedAffinity -0.561530828
REMARK minimizedRMSD -1
REMARK  0 active torsions:
REMARK  status: ('A' for Active; 'I' for Inactive)
ROOT
ATOM      1  C4' PXY d   1       5.920   2.011  -4.478  0.00  0.00     0.077 C 
ATOM      2  C1' PXY d   1       1.879  -1.966  -3.350  0.00  0.00     0.077 C 
ATOM      3  C1  PXY d   1       2.948  -0.932  -3.644  0.00  0.00    -0.082 A 
ATOM      4  C2  PXY d   1       2.702   0.348  -3.416  0.00  0.00     0.003 A 
ATOM      5  C3  PXY d   1       3.646   1.299  -3.706  0.00  0.00     0.003 A 
ATOM      6  C4  PXY d   1       4.874   0.932  -4.187  0.00  0.00    -0.082 A 
ATOM      7  C5  PXY d   1       5.137  -0.373  -4.413  0.00  0.00     0.003 A 
ATOM      8  C6  PXY d   1       4.151  -1.319  -4.150  0.00  0.00     0.003 A 
ENDROOT
TORSDOF 0
ENDMDL
