MODEL 1
REMARK minimizedAffinity -2.42604733
REMARK minimizedRMSD -1
REMARK  0 active torsions:
REMARK  status: ('A' for Active; 'I' for Inactive)
ROOT
ATOM      1  C4' PXY d   1       1.872   0.751   2.566  0.00  0.00     0.077 C 
ATOM      2  C1' PXY d   1      -2.941  -0.407  -0.419  0.00  0.00     0.077 C 
ATOM      3  C1  PXY d   1      -1.685  -0.106   0.375  0.00  0.00    -0.082 A 
ATOM      4  C2  PXY d   1      -0.753   0.674  -0.148  0.00  0.00     0.003 A 
ATOM      5  C3  PXY d   1       0.404   0.931   0.544  0.00  0.00     0.003 A 
ATOM      6  C4  PXY d   1       0.583   0.428   1.804  0.00  0.00    -0.082 A 
ATOM      7  C5  PXY d   1      -0.369  -0.360   2.349  0.00  0.00     0.003 A 
ATOM      8  C6  PXY d   1      -1.517  -0.642   1.614  0.00  0.00     0.003 A 
ENDROOT
TORSDOF 0
ENDMDL
