MODEL 1
REMARK minimizedAffinity 0.253414154
REMARK minimizedRMSD -1
REMARK  0 active torsions:
REMARK  status: ('A' for Active; 'I' for Inactive)
ROOT
ATOM      1  N1  IND d   1       3.462  -2.485  -1.511  0.00  0.00    -0.196 N 
ATOM      2  C2  IND d   1       4.460  -1.925  -2.259  0.00  0.00     0.054 A 
ATOM      3  C3  IND d   1       4.575  -0.607  -1.979  0.00  0.00    -0.031 A 
ATOM      4  C4  IND d   1       3.297   0.815  -0.255  0.00  0.00     0.051 A 
ATOM      5  C5  IND d   1       2.265   0.755   0.639  0.00  0.00    -0.031 A 
ATOM      6  C6  IND d   1       1.567  -0.413   0.868  0.00  0.00     0.015 A 
ATOM      7  C7  IND d   1       1.884  -1.572   0.218  0.00  0.00    -0.016 A 
ATOM      8  C8  IND d   1       2.927  -1.512  -0.696  0.00  0.00    -0.047 A 
ATOM      9  C9  IND d   1       3.611  -0.320  -0.964  0.00  0.00    -0.096 A 
ATOM     10  HN1 IND d   1       3.211  -3.307  -1.545  0.00  0.00     0.298 HD
ENDROOT
TORSDOF 0
ENDMDL
