MODEL 1
REMARK minimizedAffinity 10.7763939
REMARK minimizedRMSD -1
REMARK  0 active torsions:
REMARK  status: ('A' for Active; 'I' for Inactive)
ROOT
ATOM      1  N1  IND d   1      -0.525   1.188  -0.885  0.00  0.00    -0.196 N 
ATOM      2  C2  IND d   1      -1.866   1.450  -0.870  0.00  0.00     0.054 A 
ATOM      3  C3  IND d   1      -2.309   1.563   0.402  0.00  0.00    -0.031 A 
ATOM      4  C4  IND d   1      -0.989   1.454   2.609  0.00  0.00     0.051 A 
ATOM      5  C5  IND d   1       0.258   1.197   3.107  0.00  0.00    -0.031 A 
ATOM      6  C6  IND d   1       1.330   0.922   2.283  0.00  0.00     0.015 A 
ATOM      7  C7  IND d   1       1.197   0.903   0.923  0.00  0.00    -0.016 A 
ATOM      8  C8  IND d   1      -0.070   1.156   0.414  0.00  0.00    -0.047 A 
ATOM      9  C9  IND d   1      -1.170   1.395   1.248  0.00  0.00    -0.096 A 
ATOM     10  HN1 IND d   1      -0.046   1.063  -1.589  0.00  0.00     0.298 HD
ENDROOT
TORSDOF 0
ENDMDL
