MODEL 1
REMARK minimizedAffinity 8.08608437
REMARK minimizedRMSD -1
REMARK  0 active torsions:
REMARK  status: ('A' for Active; 'I' for Inactive)
ROOT
ATOM      1  N1  IND d   1      -3.592   2.005  -5.055  0.00  0.00    -0.196 N 
ATOM      2  C2  IND d   1      -3.262   0.749  -4.627  0.00  0.00     0.054 A 
ATOM      3  C3  IND d   1      -3.835   0.494  -3.429  0.00  0.00    -0.031 A 
ATOM      4  C4  IND d   1      -5.435   1.955  -2.038  0.00  0.00     0.051 A 
ATOM      5  C5  IND d   1      -6.000   3.198  -2.000  0.00  0.00    -0.031 A 
ATOM      6  C6  IND d   1      -5.790   4.125  -3.000  0.00  0.00     0.015 A 
ATOM      7  C7  IND d   1      -5.011   3.838  -4.086  0.00  0.00    -0.016 A 
ATOM      8  C8  IND d   1      -4.430   2.579  -4.124  0.00  0.00    -0.047 A 
ATOM      9  C9  IND d   1      -4.606   1.649  -3.091  0.00  0.00    -0.096 A 
ATOM     10  HN1 IND d   1      -3.322   2.374  -5.782  0.00  0.00     0.298 HD
ENDROOT
TORSDOF 0
ENDMDL
