MODEL 1
REMARK minimizedAffinity 12.5862379
REMARK minimizedRMSD -1
REMARK  0 active torsions:
REMARK  status: ('A' for Active; 'I' for Inactive)
ROOT
ATOM      1  N1  IND d   1      -0.549   1.135  -1.089  0.00  0.00    -0.196 N 
ATOM      2  C2  IND d   1      -1.916   1.100  -1.101  0.00  0.00     0.054 A 
ATOM      3  C3  IND d   1      -2.394   0.987   0.159  0.00  0.00    -0.031 A 
ATOM      4  C4  IND d   1      -1.119   0.944   2.395  0.00  0.00     0.051 A 
ATOM      5  C5  IND d   1       0.145   0.913   2.914  0.00  0.00    -0.031 A 
ATOM      6  C6  IND d   1       1.265   0.958   2.109  0.00  0.00     0.015 A 
ATOM      7  C7  IND d   1       1.162   1.047   0.750  0.00  0.00    -0.016 A 
ATOM      8  C8  IND d   1      -0.120   1.072   0.219  0.00  0.00    -0.047 A 
ATOM      9  C9  IND d   1      -1.260   0.984   1.028  0.00  0.00    -0.096 A 
ATOM     10  HN1 IND d   1      -0.043   1.186  -1.782  0.00  0.00     0.298 HD
ENDROOT
TORSDOF 0
ENDMDL
