MODEL 1
REMARK minimizedAffinity 8.98189449
REMARK minimizedRMSD -1
REMARK  0 active torsions:
REMARK  status: ('A' for Active; 'I' for Inactive)
ROOT
ATOM      1  N1  IND d   1       3.597   2.029   0.293  0.00  0.00    -0.196 N 
ATOM      2  C2  IND d   1       4.811   1.885  -0.317  0.00  0.00     0.054 A 
ATOM      3  C3  IND d   1       5.003   0.598  -0.685  0.00  0.00    -0.031 A 
ATOM      4  C4  IND d   1       3.415  -1.417  -0.475  0.00  0.00     0.051 A 
ATOM      5  C5  IND d   1       2.207  -1.787   0.047  0.00  0.00    -0.031 A 
ATOM      6  C6  IND d   1       1.383  -0.885   0.688  0.00  0.00     0.015 A 
ATOM      7  C7  IND d   1       1.732   0.429   0.822  0.00  0.00    -0.016 A 
ATOM      8  C8  IND d   1       2.961   0.807   0.299  0.00  0.00    -0.047 A 
ATOM      9  C9  IND d   1       3.821  -0.113  -0.315  0.00  0.00    -0.096 A 
ATOM     10  HN1 IND d   1       3.282   2.761   0.619  0.00  0.00     0.298 HD
ENDROOT
TORSDOF 0
ENDMDL
