MODEL 1
REMARK minimizedAffinity 4.32904482
REMARK minimizedRMSD -1
REMARK  0 active torsions:
REMARK  status: ('A' for Active; 'I' for Inactive)
ROOT
ATOM      1  N1  IND d   1      -0.740   0.235   4.372  0.00  0.00    -0.196 N 
ATOM      2  C2  IND d   1       0.450  -0.268   4.819  0.00  0.00     0.054 A 
ATOM      3  C3  IND d   1       1.340  -0.342   3.804  0.00  0.00    -0.031 A 
ATOM      4  C4  IND d   1       1.091   0.405   1.353  0.00  0.00     0.051 A 
ATOM      5  C5  IND d   1       0.175   0.891   0.463  0.00  0.00    -0.031 A 
ATOM      6  C6  IND d   1      -1.118   1.192   0.838  0.00  0.00     0.015 A 
ATOM      7  C7  IND d   1      -1.542   1.028   2.127  0.00  0.00    -0.016 A 
ATOM      8  C8  IND d   1      -0.617   0.528   3.032  0.00  0.00    -0.047 A 
ATOM      9  C9  IND d   1       0.685   0.180   2.647  0.00  0.00    -0.096 A 
ATOM     10  HN1 IND d   1      -1.447   0.349   4.848  0.00  0.00     0.298 HD
ENDROOT
TORSDOF 0
ENDMDL
