MODEL 1
REMARK minimizedAffinity 4.73381042
REMARK minimizedRMSD -1
REMARK  0 active torsions:
REMARK  status: ('A' for Active; 'I' for Inactive)
ROOT
ATOM      1  N1  IND d   1      -0.532   1.173  -0.656  0.00  0.00    -0.196 N 
ATOM      2  C2  IND d   1      -1.774   1.471  -0.169  0.00  0.00     0.054 A 
ATOM      3  C3  IND d   1      -1.861   1.133   1.137  0.00  0.00    -0.031 A 
ATOM      4  C4  IND d   1      -0.055   0.172   2.701  0.00  0.00     0.051 A 
ATOM      5  C5  IND d   1       1.226  -0.302   2.703  0.00  0.00    -0.031 A 
ATOM      6  C6  IND d   1       2.004  -0.306   1.563  0.00  0.00     0.015 A 
ATOM      7  C7  IND d   1       1.531   0.176   0.376  0.00  0.00    -0.016 A 
ATOM      8  C8  IND d   1       0.227   0.652   0.369  0.00  0.00    -0.047 A 
ATOM      9  C9  IND d   1      -0.581   0.619   1.512  0.00  0.00    -0.096 A 
ATOM     10  HN1 IND d   1      -0.269   1.292  -1.466  0.00  0.00     0.298 HD
ENDROOT
TORSDOF 0
ENDMDL
