MODEL 1
REMARK minimizedAffinity 6.92473555
REMARK minimizedRMSD -1
REMARK  0 active torsions:
REMARK  status: ('A' for Active; 'I' for Inactive)
ROOT
ATOM      1  N1  IND d   1       1.761   0.920  -0.383  0.00  0.00    -0.196 N 
ATOM      2  C2  IND d   1       2.624   0.632   0.637  0.00  0.00     0.054 A 
ATOM      3  C3  IND d   1       1.983   0.692   1.826  0.00  0.00    -0.031 A 
ATOM      4  C4  IND d   1      -0.502   1.144   2.324  0.00  0.00     0.051 A 
ATOM      5  C5  IND d   1      -1.676   1.496   1.717  0.00  0.00    -0.031 A 
ATOM      6  C6  IND d   1      -1.766   1.675   0.352  0.00  0.00     0.015 A 
ATOM      7  C7  IND d   1      -0.684   1.497  -0.463  0.00  0.00    -0.016 A 
ATOM      8  C8  IND d   1       0.511   1.146   0.150  0.00  0.00    -0.047 A 
ATOM      9  C9  IND d   1       0.618   1.004   1.540  0.00  0.00    -0.096 A 
ATOM     10  HN1 IND d   1       1.964   0.954  -1.218  0.00  0.00     0.298 HD
ENDROOT
TORSDOF 0
ENDMDL
