MODEL 1
REMARK minimizedAffinity -1.53743398
REMARK minimizedRMSD -1
REMARK  0 active torsions:
REMARK  status: ('A' for Active; 'I' for Inactive)
ROOT
ATOM      1  N1  IND d   1       1.337   0.807   1.835  0.00  0.00    -0.196 N 
ATOM      2  C2  IND d   1       0.751  -0.176   2.584  0.00  0.00     0.054 A 
ATOM      3  C3  IND d   1       1.161  -1.394   2.165  0.00  0.00    -0.031 A 
ATOM      4  C4  IND d   1       2.868  -2.006   0.338  0.00  0.00     0.051 A 
ATOM      5  C5  IND d   1       3.642  -1.451  -0.643  0.00  0.00    -0.031 A 
ATOM      6  C6  IND d   1       3.690  -0.088  -0.850  0.00  0.00     0.015 A 
ATOM      7  C7  IND d   1       2.972   0.776  -0.073  0.00  0.00    -0.016 A 
ATOM      8  C8  IND d   1       2.179   0.216   0.919  0.00  0.00    -0.047 A 
ATOM      9  C9  IND d   1       2.094  -1.169   1.106  0.00  0.00    -0.096 A 
ATOM     10  HN1 IND d   1       1.203   1.651   1.922  0.00  0.00     0.298 HD
ENDROOT
TORSDOF 0
ENDMDL
