MODEL 1
REMARK minimizedAffinity 5.31356478
REMARK minimizedRMSD -1
REMARK  2 active torsions:
REMARK  status: ('A' for Active; 'I' for Inactive)
REMARK    1  A    between atoms: C1_2  and  C2_3 
REMARK    2  A    between atoms: C2_3  and  C3_4 
ROOT
ATOM      1  C3  UNL d   1       3.331  -3.781   3.625  0.00  0.00    -0.075 A 
ATOM      2  C4  UNL d   1       3.652  -2.746   4.515  0.00  0.00     0.002 A 
ATOM      3  C5  UNL d   1       4.350  -3.016   5.693  0.00  0.00     0.002 A 
ATOM      4  C6  UNL d   1       4.726  -4.321   5.999  0.00  0.00    -0.004 A 
ATOM      5  C7  UNL d   1       4.399  -5.360   5.130  0.00  0.00     0.002 A 
ATOM      6  C8  UNL d   1       3.704  -5.092   3.949  0.00  0.00     0.002 A 
ENDROOT
BRANCH   1   7
ATOM      7  C2  UNL d   1       2.601  -3.491   2.335  0.00  0.00     0.056 C 
BRANCH   7   8
ATOM      8  C1  UNL d   1       1.301  -2.701   2.517  0.00  0.00     0.007 C 
ATOM      9  C   UNL d   1       0.802  -2.061   1.229  0.00  0.00     0.009 C 
ENDBRANCH   7   8
ENDBRANCH   1   7
TORSDOF 2
ENDMDL
