MODEL 1
REMARK minimizedAffinity -4.41642094
REMARK minimizedRMSD -1
REMARK  2 active torsions:
REMARK  status: ('A' for Active; 'I' for Inactive)
REMARK    1  A    between atoms: C1_2  and  C2_3 
REMARK    2  A    between atoms: C2_3  and  C3_4 
ROOT
ATOM      1  C3  UNL d   1       3.739  -3.226   4.114  0.00  0.00    -0.075 A 
ATOM      2  C4  UNL d   1       2.403  -3.441   3.746  0.00  0.00     0.002 A 
ATOM      3  C5  UNL d   1       2.038  -3.491   2.401  0.00  0.00     0.002 A 
ATOM      4  C6  UNL d   1       3.000  -3.316   1.408  0.00  0.00    -0.004 A 
ATOM      5  C7  UNL d   1       4.327  -3.086   1.762  0.00  0.00     0.002 A 
ATOM      6  C8  UNL d   1       4.696  -3.040   3.108  0.00  0.00     0.002 A 
ENDROOT
BRANCH   1   7
ATOM      7  C2  UNL d   1       4.146  -3.201   5.569  0.00  0.00     0.056 C 
BRANCH   7   8
ATOM      8  C1  UNL d   1       4.996  -4.401   5.999  0.00  0.00     0.007 C 
ATOM      9  C   UNL d   1       4.232  -5.718   5.978  0.00  0.00     0.009 C 
ENDBRANCH   7   8
ENDBRANCH   1   7
TORSDOF 2
ENDMDL
