MODEL 1
REMARK minimizedAffinity 3.54953456
REMARK minimizedRMSD -1
REMARK  2 active torsions:
REMARK  status: ('A' for Active; 'I' for Inactive)
REMARK    1  A    between atoms: C1_2  and  C2_3 
REMARK    2  A    between atoms: C2_3  and  C3_4 
ROOT
ATOM      1  C3  UNL d   1       3.105  -3.695   4.426  0.00  0.00    -0.075 A 
ATOM      2  C4  UNL d   1       3.331  -5.059   4.191  0.00  0.00     0.002 A 
ATOM      3  C5  UNL d   1       4.363  -5.729   4.849  0.00  0.00     0.002 A 
ATOM      4  C6  UNL d   1       5.186  -5.044   5.739  0.00  0.00    -0.004 A 
ATOM      5  C7  UNL d   1       4.981  -3.685   5.968  0.00  0.00     0.002 A 
ATOM      6  C8  UNL d   1       3.946  -3.013   5.314  0.00  0.00     0.002 A 
ENDROOT
BRANCH   1   7
ATOM      7  C2  UNL d   1       1.971  -2.971   3.740  0.00  0.00     0.056 C 
BRANCH   7   8
ATOM      8  C1  UNL d   1       2.013  -3.053   2.210  0.00  0.00     0.007 C 
ATOM      9  C   UNL d   1       1.024  -2.116   1.531  0.00  0.00     0.009 C 
ENDBRANCH   7   8
ENDBRANCH   1   7
TORSDOF 2
ENDMDL
