MODEL 1
REMARK minimizedAffinity 8.29481411
REMARK minimizedRMSD -1
REMARK  2 active torsions:
REMARK  status: ('A' for Active; 'I' for Inactive)
REMARK    1  A    between atoms: C1_2  and  C2_3 
REMARK    2  A    between atoms: C2_3  and  C3_4 
ROOT
ATOM      1  C3  UNL d   1       0.897  -0.968   0.630  0.00  0.00    -0.075 A 
ATOM      2  C4  UNL d   1       1.854   0.033   0.850  0.00  0.00     0.002 A 
ATOM      3  C5  UNL d   1       2.094   1.009  -0.118  0.00  0.00     0.002 A 
ATOM      4  C6  UNL d   1       1.388   0.991  -1.319  0.00  0.00    -0.004 A 
ATOM      5  C7  UNL d   1       0.447  -0.008  -1.555  0.00  0.00     0.002 A 
ATOM      6  C8  UNL d   1       0.202  -0.984  -0.587  0.00  0.00     0.002 A 
ENDROOT
BRANCH   1   7
ATOM      7  C2  UNL d   1       0.612  -2.010   1.685  0.00  0.00     0.056 C 
BRANCH   7   8
ATOM      8  C1  UNL d   1       1.867  -2.678   2.257  0.00  0.00     0.007 C 
ATOM      9  C   UNL d   1       2.148  -4.046   1.649  0.00  0.00     0.009 C 
ENDBRANCH   7   8
ENDBRANCH   1   7
TORSDOF 2
ENDMDL
