MODEL 1
REMARK minimizedAffinity -3.10250282
REMARK minimizedRMSD -1
REMARK  2 active torsions:
REMARK  status: ('A' for Active; 'I' for Inactive)
REMARK    1  A    between atoms: C1_2  and  C2_3 
REMARK    2  A    between atoms: C2_3  and  C3_4 
ROOT
ATOM      1  C3  UNL d   1       3.675  -4.511   3.529  0.00  0.00    -0.075 A 
ATOM      2  C4  UNL d   1       3.409  -3.756   4.680  0.00  0.00     0.002 A 
ATOM      3  C5  UNL d   1       3.970  -4.113   5.907  0.00  0.00     0.002 A 
ATOM      4  C6  UNL d   1       4.795  -5.232   6.000  0.00  0.00    -0.004 A 
ATOM      5  C7  UNL d   1       5.053  -5.999   4.866  0.00  0.00     0.002 A 
ATOM      6  C8  UNL d   1       4.496  -5.642   3.637  0.00  0.00     0.002 A 
ENDROOT
BRANCH   1   7
ATOM      7  C2  UNL d   1       3.094  -4.114   2.193  0.00  0.00     0.056 C 
BRANCH   7   8
ATOM      8  C1  UNL d   1       1.609  -3.739   2.245  0.00  0.00     0.007 C 
ATOM      9  C   UNL d   1       1.355  -2.258   1.997  0.00  0.00     0.009 C 
ENDBRANCH   7   8
ENDBRANCH   1   7
TORSDOF 2
ENDMDL
