MODEL 1
REMARK minimizedAffinity -1.07709825
REMARK minimizedRMSD -1
REMARK  2 active torsions:
REMARK  status: ('A' for Active; 'I' for Inactive)
REMARK    1  A    between atoms: C1_2  and  C2_3 
REMARK    2  A    between atoms: C2_3  and  C3_4 
ROOT
ATOM      1  C3  UNL d   1       0.486   0.471  -0.657  0.00  0.00    -0.075 A 
ATOM      2  C4  UNL d   1       0.463  -0.066   0.638  0.00  0.00     0.002 A 
ATOM      3  C5  UNL d   1       1.276  -1.151   0.969  0.00  0.00     0.002 A 
ATOM      4  C6  UNL d   1       2.111  -1.718   0.009  0.00  0.00    -0.004 A 
ATOM      5  C7  UNL d   1       2.129  -1.202  -1.285  0.00  0.00     0.002 A 
ATOM      6  C8  UNL d   1       1.321  -0.114  -1.618  0.00  0.00     0.002 A 
ENDROOT
BRANCH   1   7
ATOM      7  C2  UNL d   1      -0.369   1.664  -1.013  0.00  0.00     0.056 C 
BRANCH   7   8
ATOM      8  C1  UNL d   1      -0.452   1.945  -2.517  0.00  0.00     0.007 C 
ATOM      9  C   UNL d   1      -1.874   1.889  -3.061  0.00  0.00     0.009 C 
ENDBRANCH   7   8
ENDBRANCH   1   7
TORSDOF 2
ENDMDL
