MODEL 1
REMARK minimizedAffinity -1.56806576
REMARK minimizedRMSD -1
REMARK  2 active torsions:
REMARK  status: ('A' for Active; 'I' for Inactive)
REMARK    1  A    between atoms: C1_2  and  C2_3 
REMARK    2  A    between atoms: C2_3  and  C3_4 
ROOT
ATOM      1  C3  UNL d   1       0.562  -1.344   1.581  0.00  0.00    -0.075 A 
ATOM      2  C4  UNL d   1       0.311  -1.948   2.821  0.00  0.00     0.002 A 
ATOM      3  C5  UNL d   1      -0.920  -1.778   3.456  0.00  0.00     0.002 A 
ATOM      4  C6  UNL d   1      -1.909  -0.994   2.865  0.00  0.00    -0.004 A 
ATOM      5  C7  UNL d   1      -1.664  -0.375   1.641  0.00  0.00     0.002 A 
ATOM      6  C8  UNL d   1      -0.435  -0.548   1.002  0.00  0.00     0.002 A 
ENDROOT
BRANCH   1   7
ATOM      7  C2  UNL d   1       1.881  -1.548   0.874  0.00  0.00     0.056 C 
BRANCH   7   8
ATOM      8  C1  UNL d   1       1.847  -1.214  -0.621  0.00  0.00     0.007 C 
ATOM      9  C   UNL d   1       2.357   0.186  -0.934  0.00  0.00     0.009 C 
ENDBRANCH   7   8
ENDBRANCH   1   7
TORSDOF 2
ENDMDL
