MODEL 1
REMARK minimizedAffinity -0.198722571
REMARK minimizedRMSD -1
REMARK  2 active torsions:
REMARK  status: ('A' for Active; 'I' for Inactive)
REMARK    1  A    between atoms: C1_2  and  C2_3 
REMARK    2  A    between atoms: C2_3  and  C3_4 
ROOT
ATOM      1  C3  UNL d   1      -0.783   0.995  -0.764  0.00  0.00    -0.075 A 
ATOM      2  C4  UNL d   1      -1.866   0.103  -0.751  0.00  0.00     0.002 A 
ATOM      3  C5  UNL d   1      -2.844   0.162  -1.743  0.00  0.00     0.002 A 
ATOM      4  C6  UNL d   1      -2.759   1.117  -2.754  0.00  0.00    -0.004 A 
ATOM      5  C7  UNL d   1      -1.697   2.019  -2.768  0.00  0.00     0.002 A 
ATOM      6  C8  UNL d   1      -0.714   1.959  -1.779  0.00  0.00     0.002 A 
ENDROOT
BRANCH   1   7
ATOM      7  C2  UNL d   1       0.295   0.918   0.290  0.00  0.00     0.056 C 
BRANCH   7   8
ATOM      8  C1  UNL d   1       1.711   1.144  -0.248  0.00  0.00     0.007 C 
ATOM      9  C   UNL d   1       2.289  -0.077  -0.952  0.00  0.00     0.009 C 
ENDBRANCH   7   8
ENDBRANCH   1   7
TORSDOF 2
ENDMDL
