MODEL 1
REMARK minimizedAffinity -2.63239813
REMARK minimizedRMSD -1
REMARK  2 active torsions:
REMARK  status: ('A' for Active; 'I' for Inactive)
REMARK    1  A    between atoms: C1_2  and  C2_3 
REMARK    2  A    between atoms: C2_3  and  C3_4 
ROOT
ATOM      1  C3  UNL d   1      -1.526   1.776  -0.210  0.00  0.00    -0.075 A 
ATOM      2  C4  UNL d   1      -2.185   1.157  -1.282  0.00  0.00     0.002 A 
ATOM      3  C5  UNL d   1      -2.251   1.780  -2.528  0.00  0.00     0.002 A 
ATOM      4  C6  UNL d   1      -1.669   3.032  -2.716  0.00  0.00    -0.004 A 
ATOM      5  C7  UNL d   1      -1.026   3.663  -1.654  0.00  0.00     0.002 A 
ATOM      6  C8  UNL d   1      -0.955   3.040  -0.407  0.00  0.00     0.002 A 
ENDROOT
BRANCH   1   7
ATOM      7  C2  UNL d   1      -1.426   1.093   1.133  0.00  0.00     0.056 C 
BRANCH   7   8
ATOM      8  C1  UNL d   1      -0.879  -0.336   1.068  0.00  0.00     0.007 C 
ATOM      9  C   UNL d   1       0.565  -0.405   0.587  0.00  0.00     0.009 C 
ENDBRANCH   7   8
ENDBRANCH   1   7
TORSDOF 2
ENDMDL
