MODEL 1
REMARK minimizedAffinity 2.56033516
REMARK minimizedRMSD -1
REMARK  2 active torsions:
REMARK  status: ('A' for Active; 'I' for Inactive)
REMARK    1  A    between atoms: C1_2  and  C2_3 
REMARK    2  A    between atoms: C2_3  and  C3_4 
ROOT
ATOM      1  C3  UNL d   1       2.825  -1.692  -0.641  0.00  0.00    -0.075 A 
ATOM      2  C4  UNL d   1       2.842  -1.122   0.641  0.00  0.00     0.002 A 
ATOM      3  C5  UNL d   1       2.141  -1.716   1.690  0.00  0.00     0.002 A 
ATOM      4  C6  UNL d   1       1.406  -2.879   1.470  0.00  0.00    -0.004 A 
ATOM      5  C7  UNL d   1       1.368  -3.445   0.197  0.00  0.00     0.002 A 
ATOM      6  C8  UNL d   1       2.073  -2.855  -0.853  0.00  0.00     0.002 A 
ENDROOT
BRANCH   1   7
ATOM      7  C2  UNL d   1       3.606  -1.071  -1.773  0.00  0.00     0.056 C 
BRANCH   7   8
ATOM      8  C1  UNL d   1       3.412   0.443  -1.908  0.00  0.00     0.007 C 
ATOM      9  C   UNL d   1       4.612   1.151  -2.522  0.00  0.00     0.009 C 
ENDBRANCH   7   8
ENDBRANCH   1   7
TORSDOF 2
ENDMDL
