MODEL 1
REMARK minimizedAffinity 5.57882214
REMARK minimizedRMSD -1
REMARK  2 active torsions:
REMARK  status: ('A' for Active; 'I' for Inactive)
REMARK    1  A    between atoms: C1_2  and  C2_3 
REMARK    2  A    between atoms: C2_3  and  C3_4 
ROOT
ATOM      1  C3  UNL d   1       1.936  -2.068   0.750  0.00  0.00    -0.075 A 
ATOM      2  C4  UNL d   1       1.788  -0.696   1.002  0.00  0.00     0.002 A 
ATOM      3  C5  UNL d   1       2.318   0.247   0.121  0.00  0.00     0.002 A 
ATOM      4  C6  UNL d   1       3.010  -0.168  -1.014  0.00  0.00    -0.004 A 
ATOM      5  C7  UNL d   1       3.178  -1.527  -1.266  0.00  0.00     0.002 A 
ATOM      6  C8  UNL d   1       2.645  -2.474  -0.389  0.00  0.00     0.002 A 
ENDROOT
BRANCH   1   7
ATOM      7  C2  UNL d   1       1.339  -3.094   1.683  0.00  0.00     0.056 C 
BRANCH   7   8
ATOM      8  C1  UNL d   1       1.858  -4.518   1.459  0.00  0.00     0.007 C 
ATOM      9  C   UNL d   1       1.587  -5.448   2.634  0.00  0.00     0.009 C 
ENDBRANCH   7   8
ENDBRANCH   1   7
TORSDOF 2
ENDMDL
