MODEL 1
REMARK minimizedAffinity 2.90471077
REMARK minimizedRMSD -1
REMARK  2 active torsions:
REMARK  status: ('A' for Active; 'I' for Inactive)
REMARK    1  A    between atoms: C1_2  and  C2_3 
REMARK    2  A    between atoms: C2_3  and  C3_4 
ROOT
ATOM      1  C3  UNL d   1      -1.873   2.565  -1.660  0.00  0.00    -0.075 A 
ATOM      2  C4  UNL d   1      -2.660   1.527  -2.181  0.00  0.00     0.002 A 
ATOM      3  C5  UNL d   1      -3.215   0.566  -1.335  0.00  0.00     0.002 A 
ATOM      4  C6  UNL d   1      -2.982   0.624   0.038  0.00  0.00    -0.004 A 
ATOM      5  C7  UNL d   1      -2.189   1.641   0.564  0.00  0.00     0.002 A 
ATOM      6  C8  UNL d   1      -1.636   2.607  -0.280  0.00  0.00     0.002 A 
ENDROOT
BRANCH   1   7
ATOM      7  C2  UNL d   1      -1.295   3.624  -2.567  0.00  0.00     0.056 C 
BRANCH   7   8
ATOM      8  C1  UNL d   1       0.178   3.401  -2.926  0.00  0.00     0.007 C 
ATOM      9  C   UNL d   1       0.722   4.438  -3.901  0.00  0.00     0.009 C 
ENDBRANCH   7   8
ENDBRANCH   1   7
TORSDOF 2
ENDMDL
