MODEL 1
REMARK minimizedAffinity 3.5843904
REMARK minimizedRMSD -1
REMARK  2 active torsions:
REMARK  status: ('A' for Active; 'I' for Inactive)
REMARK    1  A    between atoms: C1_2  and  C2_3 
REMARK    2  A    between atoms: C2_3  and  C3_4 
ROOT
ATOM      1  C3  UNL d   1      -2.922  -0.038  -0.822  0.00  0.00    -0.075 A 
ATOM      2  C4  UNL d   1      -2.643  -1.400  -0.636  0.00  0.00     0.002 A 
ATOM      3  C5  UNL d   1      -2.297  -1.887   0.625  0.00  0.00     0.002 A 
ATOM      4  C6  UNL d   1      -2.216  -1.019   1.711  0.00  0.00    -0.004 A 
ATOM      5  C7  UNL d   1      -2.474   0.339   1.535  0.00  0.00     0.002 A 
ATOM      6  C8  UNL d   1      -2.825   0.828   0.275  0.00  0.00     0.002 A 
ENDROOT
BRANCH   1   7
ATOM      7  C2  UNL d   1      -3.325   0.489  -2.179  0.00  0.00     0.056 C 
BRANCH   7   8
ATOM      8  C1  UNL d   1      -2.866   1.926  -2.451  0.00  0.00     0.007 C 
ATOM      9  C   UNL d   1      -3.616   2.589  -3.598  0.00  0.00     0.009 C 
ENDBRANCH   7   8
ENDBRANCH   1   7
TORSDOF 2
ENDMDL
