MODEL 1
REMARK minimizedAffinity -1.28978181
REMARK minimizedRMSD -1
REMARK  2 active torsions:
REMARK  status: ('A' for Active; 'I' for Inactive)
REMARK    1  A    between atoms: C1_2  and  C2_3 
REMARK    2  A    between atoms: C2_3  and  C3_4 
ROOT
ATOM      1  C3  UNL d   1      -2.236   0.140  -1.363  0.00  0.00    -0.075 A 
ATOM      2  C4  UNL d   1      -1.558   0.654  -0.249  0.00  0.00     0.002 A 
ATOM      3  C5  UNL d   1      -1.272  -0.163   0.846  0.00  0.00     0.002 A 
ATOM      4  C6  UNL d   1      -1.667  -1.498   0.844  0.00  0.00    -0.004 A 
ATOM      5  C7  UNL d   1      -2.356  -2.016  -0.251  0.00  0.00     0.002 A 
ATOM      6  C8  UNL d   1      -2.640  -1.202  -1.349  0.00  0.00     0.002 A 
ENDROOT
BRANCH   1   7
ATOM      7  C2  UNL d   1      -2.522   1.011  -2.563  0.00  0.00     0.056 C 
BRANCH   7   8
ATOM      8  C1  UNL d   1      -1.440   2.058  -2.846  0.00  0.00     0.007 C 
ATOM      9  C   UNL d   1      -1.811   3.015  -3.971  0.00  0.00     0.009 C 
ENDBRANCH   7   8
ENDBRANCH   1   7
TORSDOF 2
ENDMDL
