MODEL 1
REMARK minimizedAffinity 5.04128361
REMARK minimizedRMSD -1
REMARK  2 active torsions:
REMARK  status: ('A' for Active; 'I' for Inactive)
REMARK    1  A    between atoms: C1_2  and  C2_3 
REMARK    2  A    between atoms: C2_3  and  C3_4 
ROOT
ATOM      1  C3  UNL d   1      -3.097   1.424  -1.369  0.00  0.00    -0.075 A 
ATOM      2  C4  UNL d   1      -1.832   2.023  -1.449  0.00  0.00     0.002 A 
ATOM      3  C5  UNL d   1      -1.419   2.653  -2.623  0.00  0.00     0.002 A 
ATOM      4  C6  UNL d   1      -2.259   2.684  -3.733  0.00  0.00    -0.004 A 
ATOM      5  C7  UNL d   1      -3.512   2.078  -3.671  0.00  0.00     0.002 A 
ATOM      6  C8  UNL d   1      -3.930   1.450  -2.496  0.00  0.00     0.002 A 
ENDROOT
BRANCH   1   7
ATOM      7  C2  UNL d   1      -3.562   0.765  -0.092  0.00  0.00     0.056 C 
BRANCH   7   8
ATOM      8  C1  UNL d   1      -2.936   1.355   1.177  0.00  0.00     0.007 C 
ATOM      9  C   UNL d   1      -1.917   0.430   1.829  0.00  0.00     0.009 C 
ENDBRANCH   7   8
ENDBRANCH   1   7
TORSDOF 2
ENDMDL
