MODEL 1
REMARK minimizedAffinity 0.966186762
REMARK minimizedRMSD -1
REMARK  2 active torsions:
REMARK  status: ('A' for Active; 'I' for Inactive)
REMARK    1  A    between atoms: C1_2  and  C2_3 
REMARK    2  A    between atoms: C2_3  and  C3_4 
ROOT
ATOM      1  C3  UNL d   1       1.058  -0.808   0.764  0.00  0.00    -0.075 A 
ATOM      2  C4  UNL d   1       1.788   0.048  -0.074  0.00  0.00     0.002 A 
ATOM      3  C5  UNL d   1       2.570  -0.470  -1.106  0.00  0.00     0.002 A 
ATOM      4  C6  UNL d   1       2.643  -1.847  -1.307  0.00  0.00    -0.004 A 
ATOM      5  C7  UNL d   1       1.936  -2.707  -0.469  0.00  0.00     0.002 A 
ATOM      6  C8  UNL d   1       1.148  -2.192   0.561  0.00  0.00     0.002 A 
ENDROOT
BRANCH   1   7
ATOM      7  C2  UNL d   1       0.186  -0.253   1.865  0.00  0.00     0.056 C 
BRANCH   7   8
ATOM      8  C1  UNL d   1      -0.747   0.875   1.412  0.00  0.00     0.007 C 
ATOM      9  C   UNL d   1      -2.170   0.723   1.933  0.00  0.00     0.009 C 
ENDBRANCH   7   8
ENDBRANCH   1   7
TORSDOF 2
ENDMDL
