MODEL 1
REMARK minimizedAffinity 8.70427704
REMARK minimizedRMSD -1
REMARK  2 active torsions:
REMARK  status: ('A' for Active; 'I' for Inactive)
REMARK    1  A    between atoms: C1_2  and  C2_3 
REMARK    2  A    between atoms: C2_3  and  C3_4 
ROOT
ATOM      1  C3  UNL d   1      -3.247   1.534  -1.810  0.00  0.00    -0.075 A 
ATOM      2  C4  UNL d   1      -4.128   1.587  -2.900  0.00  0.00     0.002 A 
ATOM      3  C5  UNL d   1      -3.739   2.191  -4.096  0.00  0.00     0.002 A 
ATOM      4  C6  UNL d   1      -2.472   2.757  -4.214  0.00  0.00    -0.004 A 
ATOM      5  C7  UNL d   1      -1.594   2.724  -3.132  0.00  0.00     0.002 A 
ATOM      6  C8  UNL d   1      -1.979   2.117  -1.936  0.00  0.00     0.002 A 
ENDROOT
BRANCH   1   7
ATOM      7  C2  UNL d   1      -3.651   0.855  -0.523  0.00  0.00     0.056 C 
BRANCH   7   8
ATOM      8  C1  UNL d   1      -4.203  -0.561  -0.711  0.00  0.00     0.007 C 
ATOM      9  C   UNL d   1      -3.164  -1.547  -1.230  0.00  0.00     0.009 C 
ENDBRANCH   7   8
ENDBRANCH   1   7
TORSDOF 2
ENDMDL
