MODEL 1
REMARK minimizedAffinity 0.183388352
REMARK minimizedRMSD -1
REMARK  2 active torsions:
REMARK  status: ('A' for Active; 'I' for Inactive)
REMARK    1  A    between atoms: C1_2  and  C2_3 
REMARK    2  A    between atoms: C2_3  and  C3_4 
ROOT
ATOM      1  C3  UNL d   1       0.178   0.245   0.814  0.00  0.00    -0.075 A 
ATOM      2  C4  UNL d   1       1.141   0.770  -0.059  0.00  0.00     0.002 A 
ATOM      3  C5  UNL d   1       2.237   0.000  -0.450  0.00  0.00     0.002 A 
ATOM      4  C6  UNL d   1       2.389  -1.298   0.033  0.00  0.00    -0.004 A 
ATOM      5  C7  UNL d   1       1.446  -1.824   0.914  0.00  0.00     0.002 A 
ATOM      6  C8  UNL d   1       0.346  -1.057   1.303  0.00  0.00     0.002 A 
ENDROOT
BRANCH   1   7
ATOM      7  C2  UNL d   1      -1.026   1.062   1.218  0.00  0.00     0.056 C 
BRANCH   7   8
ATOM      8  C1  UNL d   1      -2.246   0.223   1.612  0.00  0.00     0.007 C 
ATOM      9  C   UNL d   1      -3.534   0.685   0.945  0.00  0.00     0.009 C 
ENDBRANCH   7   8
ENDBRANCH   1   7
TORSDOF 2
ENDMDL
