MODEL 1
REMARK minimizedAffinity 1.54844248
REMARK minimizedRMSD -1
REMARK  2 active torsions:
REMARK  status: ('A' for Active; 'I' for Inactive)
REMARK    1  A    between atoms: C1_2  and  C2_3 
REMARK    2  A    between atoms: C2_3  and  C3_4 
ROOT
ATOM      1  C3  UNL d   1       0.408  -0.886   1.145  0.00  0.00    -0.075 A 
ATOM      2  C4  UNL d   1       0.825   0.323   0.570  0.00  0.00     0.002 A 
ATOM      3  C5  UNL d   1       1.987   0.378  -0.201  0.00  0.00     0.002 A 
ATOM      4  C6  UNL d   1       2.750  -0.771  -0.397  0.00  0.00    -0.004 A 
ATOM      5  C7  UNL d   1       2.355  -1.974   0.183  0.00  0.00     0.002 A 
ATOM      6  C8  UNL d   1       1.190  -2.032   0.951  0.00  0.00     0.002 A 
ENDROOT
BRANCH   1   7
ATOM      7  C2  UNL d   1      -0.864  -0.958   1.955  0.00  0.00     0.056 C 
BRANCH   7   8
ATOM      8  C1  UNL d   1      -1.729   0.305   1.873  0.00  0.00     0.007 C 
ATOM      9  C   UNL d   1      -3.221   0.018   1.977  0.00  0.00     0.009 C 
ENDBRANCH   7   8
ENDBRANCH   1   7
TORSDOF 2
ENDMDL
