MODEL 1
REMARK minimizedAffinity -2.9859426
REMARK minimizedRMSD -1
REMARK  0 active torsions:
REMARK  status: ('A' for Active; 'I' for Inactive)
ROOT
ATOM      1  C2' OXE d   1       2.431  -0.746   0.898  0.00  0.00     0.078 C 
ATOM      2  C1' OXE d   1       1.004   1.085  -0.682  0.00  0.00     0.078 C 
ATOM      3  C1  OXE d   1       0.235  -0.051  -0.053  0.00  0.00    -0.078 A 
ATOM      4  C2  OXE d   1       0.949  -0.968   0.680  0.00  0.00    -0.078 A 
ATOM      5  C3  OXE d   1       0.282  -2.004   1.327  0.00  0.00     0.003 A 
ATOM      6  C4  OXE d   1      -1.087  -2.208   1.113  0.00  0.00    -0.002 A 
ATOM      7  C5  OXE d   1      -1.826  -1.308   0.337  0.00  0.00    -0.002 A 
ATOM      8  C6  OXE d   1      -1.189  -0.203  -0.216  0.00  0.00     0.003 A 
ENDROOT
TORSDOF 0
ENDMDL
