MODEL 1
REMARK minimizedAffinity -3.17423797
REMARK minimizedRMSD -1
REMARK  0 active torsions:
REMARK  status: ('A' for Active; 'I' for Inactive)
ROOT
ATOM      1  C2' OXE d   1      -1.581  -2.781   0.059  0.00  0.00     0.078 C 
ATOM      2  C1' OXE d   1       1.084  -2.697   0.938  0.00  0.00     0.078 C 
ATOM      3  C1  OXE d   1       0.474  -1.420   0.417  0.00  0.00    -0.078 A 
ATOM      4  C2  OXE d   1      -0.815  -1.481  -0.055  0.00  0.00    -0.078 A 
ATOM      5  C3  OXE d   1      -1.443  -0.320  -0.496  0.00  0.00     0.003 A 
ATOM      6  C4  OXE d   1      -0.725   0.877  -0.607  0.00  0.00    -0.002 A 
ATOM      7  C5  OXE d   1       0.602   0.952  -0.169  0.00  0.00    -0.002 A 
ATOM      8  C6  OXE d   1       1.201  -0.175   0.384  0.00  0.00     0.003 A 
ENDROOT
TORSDOF 0
ENDMDL
