MODEL 1
REMARK minimizedAffinity -3.54161334
REMARK minimizedRMSD -1
REMARK  0 active torsions:
REMARK  status: ('A' for Active; 'I' for Inactive)
ROOT
ATOM      1  C2' OXE d   1      -1.131  -2.625   0.678  0.00  0.00     0.078 C 
ATOM      2  C1' OXE d   1       1.571  -2.021   0.215  0.00  0.00     0.078 C 
ATOM      3  C1  OXE d   1       0.580  -0.884   0.180  0.00  0.00    -0.078 A 
ATOM      4  C2  OXE d   1      -0.746  -1.196   0.361  0.00  0.00    -0.078 A 
ATOM      5  C3  OXE d   1      -1.695  -0.179   0.393  0.00  0.00     0.003 A 
ATOM      6  C4  OXE d   1      -1.333   1.139   0.089  0.00  0.00    -0.002 A 
ATOM      7  C5  OXE d   1       0.007   1.472  -0.138  0.00  0.00    -0.002 A 
ATOM      8  C6  OXE d   1       0.979   0.481  -0.055  0.00  0.00     0.003 A 
ENDROOT
TORSDOF 0
ENDMDL
