MODEL 1
REMARK minimizedAffinity -2.56005192
REMARK minimizedRMSD -1
REMARK  0 active torsions:
REMARK  status: ('A' for Active; 'I' for Inactive)
ROOT
ATOM      1  C2' OXE d   1       0.515   1.254  -0.180  0.00  0.00     0.078 C 
ATOM      2  C1' OXE d   1      -1.965   0.929   1.095  0.00  0.00     0.078 C 
ATOM      3  C1  OXE d   1      -1.158  -0.310   0.799  0.00  0.00    -0.078 A 
ATOM      4  C2  OXE d   1       0.032  -0.146   0.133  0.00  0.00    -0.078 A 
ATOM      5  C3  OXE d   1       0.841  -1.251  -0.117  0.00  0.00     0.003 A 
ATOM      6  C4  OXE d   1       0.383  -2.543   0.166  0.00  0.00    -0.002 A 
ATOM      7  C5  OXE d   1      -0.845  -2.736   0.809  0.00  0.00    -0.002 A 
ATOM      8  C6  OXE d   1      -1.607  -1.630   1.169  0.00  0.00     0.003 A 
ENDROOT
TORSDOF 0
ENDMDL
