MODEL 1
REMARK minimizedAffinity -1.77677512
REMARK minimizedRMSD -1
REMARK  0 active torsions:
REMARK  status: ('A' for Active; 'I' for Inactive)
ROOT
ATOM      1  C2' OXE d   1      -2.187  -3.349   1.503  0.00  0.00     0.078 C 
ATOM      2  C1' OXE d   1      -0.181  -2.870   3.407  0.00  0.00     0.078 C 
ATOM      3  C1  OXE d   1      -0.152  -2.060   2.135  0.00  0.00    -0.078 A 
ATOM      4  C2  OXE d   1      -1.110  -2.334   1.189  0.00  0.00    -0.078 A 
ATOM      5  C3  OXE d   1      -1.161  -1.578   0.021  0.00  0.00     0.003 A 
ATOM      6  C4  OXE d   1      -0.155  -0.648  -0.266  0.00  0.00    -0.002 A 
ATOM      7  C5  OXE d   1       0.853  -0.382   0.667  0.00  0.00    -0.002 A 
ATOM      8  C6  OXE d   1       0.844  -1.047   1.888  0.00  0.00     0.003 A 
ENDROOT
TORSDOF 0
ENDMDL
