MODEL 1
REMARK minimizedAffinity -3.29247856
REMARK minimizedRMSD -1
REMARK  0 active torsions:
REMARK  status: ('A' for Active; 'I' for Inactive)
ROOT
ATOM      1  C2' OXE d   1       1.287  -0.454   0.243  0.00  0.00     0.078 C 
ATOM      2  C1' OXE d   1      -1.166   0.910   0.254  0.00  0.00     0.078 C 
ATOM      3  C1  OXE d   1      -0.080   1.424  -0.656  0.00  0.00    -0.078 A 
ATOM      4  C2  OXE d   1       1.133   0.779  -0.621  0.00  0.00    -0.078 A 
ATOM      5  C3  OXE d   1       2.152   1.178  -1.481  0.00  0.00     0.003 A 
ATOM      6  C4  OXE d   1       2.005   2.326  -2.269  0.00  0.00    -0.002 A 
ATOM      7  C5  OXE d   1       0.792   3.022  -2.291  0.00  0.00    -0.002 A 
ATOM      8  C6  OXE d   1      -0.272   2.560  -1.524  0.00  0.00     0.003 A 
ENDROOT
TORSDOF 0
ENDMDL
