MODEL 1
REMARK minimizedAffinity -2.25821161
REMARK minimizedRMSD -1
REMARK  0 active torsions:
REMARK  status: ('A' for Active; 'I' for Inactive)
ROOT
ATOM      1  C2' OXE d   1      -1.098  -0.295   0.215  0.00  0.00     0.078 C 
ATOM      2  C1' OXE d   1       1.703  -0.474   0.178  0.00  0.00     0.078 C 
ATOM      3  C1  OXE d   1       1.049   0.518  -0.751  0.00  0.00    -0.078 A 
ATOM      4  C2  OXE d   1      -0.324   0.566  -0.761  0.00  0.00    -0.078 A 
ATOM      5  C3  OXE d   1      -0.976   1.501  -1.560  0.00  0.00     0.003 A 
ATOM      6  C4  OXE d   1      -0.253   2.285  -2.466  0.00  0.00    -0.002 A 
ATOM      7  C5  OXE d   1       1.144   2.224  -2.501  0.00  0.00    -0.002 A 
ATOM      8  C6  OXE d   1       1.811   1.378  -1.622  0.00  0.00     0.003 A 
ENDROOT
TORSDOF 0
ENDMDL
