MODEL 1
REMARK minimizedAffinity -2.50512481
REMARK minimizedRMSD -1
REMARK  0 active torsions:
REMARK  status: ('A' for Active; 'I' for Inactive)
ROOT
ATOM      1  C2' OXE d   1       0.333   0.959  -0.995  0.00  0.00     0.078 C 
ATOM      2  C1' OXE d   1       1.961  -0.559   0.715  0.00  0.00     0.078 C 
ATOM      3  C1  OXE d   1       0.507  -0.943   0.603  0.00  0.00    -0.078 A 
ATOM      4  C2  OXE d   1      -0.293  -0.166  -0.200  0.00  0.00    -0.078 A 
ATOM      5  C3  OXE d   1      -1.629  -0.510  -0.382  0.00  0.00     0.003 A 
ATOM      6  C4  OXE d   1      -2.202  -1.546   0.365  0.00  0.00    -0.002 A 
ATOM      7  C5  OXE d   1      -1.415  -2.325   1.219  0.00  0.00    -0.002 A 
ATOM      8  C6  OXE d   1      -0.052  -2.065   1.317  0.00  0.00     0.003 A 
ENDROOT
TORSDOF 0
ENDMDL
