MODEL 1
REMARK minimizedAffinity -3.36039591
REMARK minimizedRMSD -1
REMARK  0 active torsions:
REMARK  status: ('A' for Active; 'I' for Inactive)
ROOT
ATOM      1  C2' OXE d   1      -1.521  -2.415   0.456  0.00  0.00     0.078 C 
ATOM      2  C1' OXE d   1       1.036  -1.749  -0.493  0.00  0.00     0.078 C 
ATOM      3  C1  OXE d   1       0.164  -0.632   0.022  0.00  0.00    -0.078 A 
ATOM      4  C2  OXE d   1      -1.103  -0.960   0.442  0.00  0.00    -0.078 A 
ATOM      5  C3  OXE d   1      -1.928   0.024   0.978  0.00  0.00     0.003 A 
ATOM      6  C4  OXE d   1      -1.538   1.368   0.952  0.00  0.00    -0.002 A 
ATOM      7  C5  OXE d   1      -0.267   1.729   0.492  0.00  0.00    -0.002 A 
ATOM      8  C6  OXE d   1       0.610   0.739   0.065  0.00  0.00     0.003 A 
ENDROOT
TORSDOF 0
ENDMDL
