MODEL 1
REMARK minimizedAffinity -5.28960657
REMARK minimizedRMSD -1
REMARK  0 active torsions:
REMARK  status: ('A' for Active; 'I' for Inactive)
ROOT
ATOM      1  C2' OXE d   1       0.584   0.859  -0.144  0.00  0.00     0.078 C 
ATOM      2  C1' OXE d   1       1.193  -1.845  -0.586  0.00  0.00     0.078 C 
ATOM      3  C1  OXE d   1      -0.099  -1.521   0.122  0.00  0.00    -0.078 A 
ATOM      4  C2  OXE d   1      -0.367  -0.198   0.375  0.00  0.00    -0.078 A 
ATOM      5  C3  OXE d   1      -1.570   0.160   0.976  0.00  0.00     0.003 A 
ATOM      6  C4  OXE d   1      -2.440  -0.824   1.462  0.00  0.00    -0.002 A 
ATOM      7  C5  OXE d   1      -2.167  -2.180   1.250  0.00  0.00    -0.002 A 
ATOM      8  C6  OXE d   1      -1.025  -2.543   0.545  0.00  0.00     0.003 A 
ENDROOT
TORSDOF 0
ENDMDL
