MODEL 1
REMARK minimizedAffinity -3.21271276
REMARK minimizedRMSD -1
REMARK  0 active torsions:
REMARK  status: ('A' for Active; 'I' for Inactive)
ROOT
ATOM      1  C2' OXE d   1      -2.191  -2.604   0.775  0.00  0.00     0.078 C 
ATOM      2  C1' OXE d   1      -2.210   0.192   0.529  0.00  0.00     0.078 C 
ATOM      3  C1  OXE d   1      -0.880  -0.513   0.436  0.00  0.00    -0.078 A 
ATOM      4  C2  OXE d   1      -0.875  -1.877   0.605  0.00  0.00    -0.078 A 
ATOM      5  C3  OXE d   1       0.318  -2.583   0.474  0.00  0.00     0.003 A 
ATOM      6  C4  OXE d   1       1.532  -1.901   0.327  0.00  0.00    -0.002 A 
ATOM      7  C5  OXE d   1       1.553  -0.509   0.193  0.00  0.00    -0.002 A 
ATOM      8  C6  OXE d   1       0.354   0.195   0.203  0.00  0.00     0.003 A 
ENDROOT
TORSDOF 0
ENDMDL
