MODEL 1
REMARK minimizedAffinity -3.06197619
REMARK minimizedRMSD -1
REMARK  0 active torsions:
REMARK  status: ('A' for Active; 'I' for Inactive)
ROOT
ATOM      1  C2' OXE d   1      -1.017   2.296   0.960  0.00  0.00     0.078 C 
ATOM      2  C1' OXE d   1       1.014   1.739  -0.895  0.00  0.00     0.078 C 
ATOM      3  C1  OXE d   1       0.219   0.578  -0.353  0.00  0.00    -0.078 A 
ATOM      4  C2  OXE d   1      -0.741   0.854   0.589  0.00  0.00    -0.078 A 
ATOM      5  C3  OXE d   1      -1.541  -0.174   1.081  0.00  0.00     0.003 A 
ATOM      6  C4  OXE d   1      -1.273  -1.505   0.741  0.00  0.00    -0.002 A 
ATOM      7  C5  OXE d   1      -0.272  -1.813  -0.188  0.00  0.00    -0.002 A 
ATOM      8  C6  OXE d   1       0.453  -0.781  -0.775  0.00  0.00     0.003 A 
ENDROOT
TORSDOF 0
ENDMDL
