MODEL 1
REMARK minimizedAffinity -5.11276817
REMARK minimizedRMSD -1
REMARK  0 active torsions:
REMARK  status: ('A' for Active; 'I' for Inactive)
ROOT
ATOM      1  C2' OXE d   1       0.357   1.482   0.081  0.00  0.00     0.078 C 
ATOM      2  C1' OXE d   1      -2.236   0.773   0.887  0.00  0.00     0.078 C 
ATOM      3  C1  OXE d   1      -1.239  -0.338   0.671  0.00  0.00    -0.078 A 
ATOM      4  C2  OXE d   1       0.015   0.015   0.231  0.00  0.00    -0.078 A 
ATOM      5  C3  OXE d   1       0.989  -0.965   0.069  0.00  0.00     0.003 A 
ATOM      6  C4  OXE d   1       0.662  -2.320   0.201  0.00  0.00    -0.002 A 
ATOM      7  C5  OXE d   1      -0.620  -2.703   0.609  0.00  0.00    -0.002 A 
ATOM      8  C6  OXE d   1      -1.568  -1.725   0.889  0.00  0.00     0.003 A 
ENDROOT
TORSDOF 0
ENDMDL
