MODEL 1
REMARK minimizedAffinity -5.30250216
REMARK minimizedRMSD -1
REMARK  0 active torsions:
REMARK  status: ('A' for Active; 'I' for Inactive)
ROOT
ATOM      1  C2' OXE d   1       0.388   0.470  -0.045  0.00  0.00     0.078 C 
ATOM      2  C1' OXE d   1       0.197  -2.331  -0.047  0.00  0.00     0.078 C 
ATOM      3  C1  OXE d   1      -0.931  -1.549   0.579  0.00  0.00    -0.078 A 
ATOM      4  C2  OXE d   1      -0.807  -0.181   0.617  0.00  0.00    -0.078 A 
ATOM      5  C3  OXE d   1      -1.844   0.591   1.134  0.00  0.00     0.003 A 
ATOM      6  C4  OXE d   1      -2.941  -0.020   1.754  0.00  0.00    -0.002 A 
ATOM      7  C5  OXE d   1      -3.068  -1.413   1.761  0.00  0.00    -0.002 A 
ATOM      8  C6  OXE d   1      -2.095  -2.189   1.142  0.00  0.00     0.003 A 
ENDROOT
TORSDOF 0
ENDMDL
