MODEL 1
REMARK minimizedAffinity -3.59645605
REMARK minimizedRMSD -1
REMARK  0 active torsions:
REMARK  status: ('A' for Active; 'I' for Inactive)
ROOT
ATOM      1  C2' OXE d   1       2.435  -1.354   0.526  0.00  0.00     0.078 C 
ATOM      2  C1' OXE d   1       1.140   0.703  -0.879  0.00  0.00     0.078 C 
ATOM      3  C1  OXE d   1       0.281  -0.318  -0.175  0.00  0.00    -0.078 A 
ATOM      4  C2  OXE d   1       0.923  -1.347   0.471  0.00  0.00    -0.078 A 
ATOM      5  C3  OXE d   1       0.179  -2.284   1.183  0.00  0.00     0.003 A 
ATOM      6  C4  OXE d   1      -1.219  -2.276   1.119  0.00  0.00    -0.002 A 
ATOM      7  C5  OXE d   1      -1.893  -1.260   0.433  0.00  0.00    -0.002 A 
ATOM      8  C6  OXE d   1      -1.160  -0.251  -0.182  0.00  0.00     0.003 A 
ENDROOT
TORSDOF 0
ENDMDL
