MODEL 1
REMARK minimizedAffinity -4.48190737
REMARK minimizedRMSD -1
REMARK  0 active torsions:
REMARK  status: ('A' for Active; 'I' for Inactive)
ROOT
ATOM      1  C2' OXE d   1       1.488  -1.778   0.014  0.00  0.00     0.078 C 
ATOM      2  C1' OXE d   1      -1.142  -2.405   0.769  0.00  0.00     0.078 C 
ATOM      3  C1  OXE d   1      -0.783  -0.948   0.612  0.00  0.00    -0.078 A 
ATOM      4  C2  OXE d   1       0.518  -0.649   0.288  0.00  0.00    -0.078 A 
ATOM      5  C3  OXE d   1       0.889   0.676   0.077  0.00  0.00     0.003 A 
ATOM      6  C4  OXE d   1      -0.012   1.715   0.342  0.00  0.00    -0.002 A 
ATOM      7  C5  OXE d   1      -1.331   1.433   0.712  0.00  0.00    -0.002 A 
ATOM      8  C6  OXE d   1      -1.744   0.109   0.810  0.00  0.00     0.003 A 
ENDROOT
TORSDOF 0
ENDMDL
