MODEL 1
REMARK minimizedAffinity -5.73234367
REMARK minimizedRMSD -1
REMARK  0 active torsions:
REMARK  status: ('A' for Active; 'I' for Inactive)
ROOT
ATOM      1  C2' OXE d   1       0.997  -1.683   0.006  0.00  0.00     0.078 C 
ATOM      2  C1' OXE d   1      -1.568  -2.117   1.058  0.00  0.00     0.078 C 
ATOM      3  C1  OXE d   1      -1.103  -0.691   0.905  0.00  0.00    -0.078 A 
ATOM      4  C2  OXE d   1       0.171  -0.489   0.433  0.00  0.00    -0.078 A 
ATOM      5  C3  OXE d   1       0.630   0.808   0.221  0.00  0.00     0.003 A 
ATOM      6  C4  OXE d   1      -0.137   1.907   0.628  0.00  0.00    -0.002 A 
ATOM      7  C5  OXE d   1      -1.422   1.722   1.148  0.00  0.00    -0.002 A 
ATOM      8  C6  OXE d   1      -1.936   0.434   1.253  0.00  0.00     0.003 A 
ENDROOT
TORSDOF 0
ENDMDL
