MODEL 1
REMARK minimizedAffinity 2.22221541
REMARK minimizedRMSD -1
REMARK  0 active torsions:
REMARK  status: ('A' for Active; 'I' for Inactive)
ROOT
ATOM      1  N1  IND d   1       2.536   3.682  -0.337  0.00  0.00    -0.196 N 
ATOM      2  C2  IND d   1       1.525   4.556  -0.624  0.00  0.00     0.054 A 
ATOM      3  C3  IND d   1       0.345   4.073  -0.175  0.00  0.00    -0.031 A 
ATOM      4  C4  IND d   1      -0.145   1.917   1.144  0.00  0.00     0.051 A 
ATOM      5  C5  IND d   1       0.453   0.781   1.611  0.00  0.00    -0.031 A 
ATOM      6  C6  IND d   1       1.804   0.549   1.451  0.00  0.00     0.015 A 
ATOM      7  C7  IND d   1       2.613   1.456   0.826  0.00  0.00    -0.016 A 
ATOM      8  C8  IND d   1       2.007   2.608   0.344  0.00  0.00    -0.047 A 
ATOM      9  C9  IND d   1       0.629   2.829   0.466  0.00  0.00    -0.096 A 
ATOM     10  HN1 IND d   1       3.363   3.785  -0.548  0.00  0.00     0.298 HD
ENDROOT
TORSDOF 0
ENDMDL
