MODEL 1
REMARK minimizedAffinity 1.64126956
REMARK minimizedRMSD -1
REMARK  0 active torsions:
REMARK  status: ('A' for Active; 'I' for Inactive)
ROOT
ATOM      1  N1  IND d   1       0.510  -1.485   2.117  0.00  0.00    -0.196 N 
ATOM      2  C2  IND d   1       1.473  -2.423   2.363  0.00  0.00     0.054 A 
ATOM      3  C3  IND d   1       1.680  -3.183   1.264  0.00  0.00    -0.031 A 
ATOM      4  C4  IND d   1       0.625  -2.997  -1.077  0.00  0.00     0.051 A 
ATOM      5  C5  IND d   1      -0.333  -2.318  -1.776  0.00  0.00    -0.031 A 
ATOM      6  C6  IND d   1      -1.072  -1.303  -1.202  0.00  0.00     0.015 A 
ATOM      7  C7  IND d   1      -0.872  -0.921   0.095  0.00  0.00    -0.016 A 
ATOM      8  C8  IND d   1       0.095  -1.614   0.809  0.00  0.00    -0.047 A 
ATOM      9  C9  IND d   1       0.819  -2.673   0.245  0.00  0.00    -0.096 A 
ATOM     10  HN1 IND d   1       0.213  -0.910   2.683  0.00  0.00     0.298 HD
ENDROOT
TORSDOF 0
ENDMDL
