MODEL 1
REMARK minimizedAffinity 5.36627769
REMARK minimizedRMSD -1
REMARK  0 active torsions:
REMARK  status: ('A' for Active; 'I' for Inactive)
ROOT
ATOM      1  N1  IND d   1      -4.514   2.028  -0.873  0.00  0.00    -0.196 N 
ATOM      2  C2  IND d   1      -5.309   2.952  -0.254  0.00  0.00     0.054 A 
ATOM      3  C3  IND d   1      -5.979   3.685  -1.170  0.00  0.00    -0.031 A 
ATOM      4  C4  IND d   1      -6.000   3.474  -3.736  0.00  0.00     0.051 A 
ATOM      5  C5  IND d   1      -5.406   2.801  -4.766  0.00  0.00    -0.031 A 
ATOM      6  C6  IND d   1      -4.467   1.813  -4.547  0.00  0.00     0.015 A 
ATOM      7  C7  IND d   1      -4.095   1.453  -3.283  0.00  0.00    -0.016 A 
ATOM      8  C8  IND d   1      -4.690   2.140  -2.234  0.00  0.00    -0.047 A 
ATOM      9  C9  IND d   1      -5.612   3.172  -2.452  0.00  0.00    -0.096 A 
ATOM     10  HN1 IND d   1      -3.991   1.471  -0.478  0.00  0.00     0.298 HD
ENDROOT
TORSDOF 0
ENDMDL
