MODEL 1
REMARK minimizedAffinity 7.07228851
REMARK minimizedRMSD -1
REMARK  0 active torsions:
REMARK  status: ('A' for Active; 'I' for Inactive)
ROOT
ATOM      1  N1  IND d   1      -2.859   1.998  -1.050  0.00  0.00    -0.196 N 
ATOM      2  C2  IND d   1      -3.307   2.426   0.169  0.00  0.00     0.054 A 
ATOM      3  C3  IND d   1      -4.518   3.013   0.046  0.00  0.00    -0.031 A 
ATOM      4  C4  IND d   1      -5.996   3.292  -2.043  0.00  0.00     0.051 A 
ATOM      5  C5  IND d   1      -5.999   3.093  -3.395  0.00  0.00    -0.031 A 
ATOM      6  C6  IND d   1      -4.934   2.505  -4.048  0.00  0.00     0.015 A 
ATOM      7  C7  IND d   1      -3.828   2.082  -3.367  0.00  0.00    -0.016 A 
ATOM      8  C8  IND d   1      -3.819   2.288  -1.995  0.00  0.00    -0.047 A 
ATOM      9  C9  IND d   1      -4.878   2.923  -1.334  0.00  0.00    -0.096 A 
ATOM     10  HN1 IND d   1      -2.106   1.614  -1.201  0.00  0.00     0.298 HD
ENDROOT
TORSDOF 0
ENDMDL
