MODEL 1
REMARK minimizedAffinity 11.1477604
REMARK minimizedRMSD -1
REMARK  0 active torsions:
REMARK  status: ('A' for Active; 'I' for Inactive)
ROOT
ATOM      1  N1  IND d   1       2.843   1.385   2.886  0.00  0.00    -0.196 N 
ATOM      2  C2  IND d   1       2.778   1.613   1.540  0.00  0.00     0.054 A 
ATOM      3  C3  IND d   1       2.396   0.491   0.890  0.00  0.00    -0.031 A 
ATOM      4  C4  IND d   1       1.727  -1.804   1.845  0.00  0.00     0.051 A 
ATOM      5  C5  IND d   1       1.662  -2.506   3.016  0.00  0.00    -0.031 A 
ATOM      6  C6  IND d   1       1.992  -1.935   4.228  0.00  0.00     0.015 A 
ATOM      7  C7  IND d   1       2.390  -0.631   4.316  0.00  0.00    -0.016 A 
ATOM      8  C8  IND d   1       2.463   0.083   3.129  0.00  0.00    -0.047 A 
ATOM      9  C9  IND d   1       2.170  -0.503   1.891  0.00  0.00    -0.096 A 
ATOM     10  HN1 IND d   1       3.080   1.958   3.481  0.00  0.00     0.298 HD
ENDROOT
TORSDOF 0
ENDMDL
