MODEL 1
REMARK minimizedAffinity 4.0580411
REMARK minimizedRMSD -1
REMARK  0 active torsions:
REMARK  status: ('A' for Active; 'I' for Inactive)
ROOT
ATOM      1  N1  IND d   1       0.930  -0.278   1.995  0.00  0.00    -0.196 N 
ATOM      2  C2  IND d   1       2.126  -0.918   1.829  0.00  0.00     0.054 A 
ATOM      3  C3  IND d   1       3.001  -0.119   1.179  0.00  0.00    -0.031 A 
ATOM      4  C4  IND d   1       2.717   2.314   0.386  0.00  0.00     0.051 A 
ATOM      5  C5  IND d   1       1.789   3.312   0.282  0.00  0.00    -0.031 A 
ATOM      6  C6  IND d   1       0.501   3.161   0.755  0.00  0.00     0.015 A 
ATOM      7  C7  IND d   1       0.096   2.007   1.363  0.00  0.00    -0.016 A 
ATOM      8  C8  IND d   1       1.034   0.990   1.465  0.00  0.00    -0.047 A 
ATOM      9  C9  IND d   1       2.329   1.121   0.948  0.00  0.00    -0.096 A 
ATOM     10  HN1 IND d   1       0.230  -0.610   2.367  0.00  0.00     0.298 HD
ENDROOT
TORSDOF 0
ENDMDL
