MODEL 1
REMARK minimizedAffinity 7.06159306
REMARK minimizedRMSD -1
REMARK  0 active torsions:
REMARK  status: ('A' for Active; 'I' for Inactive)
ROOT
ATOM      1  N1  IND d   1       2.367  -2.761   2.644  0.00  0.00    -0.196 N 
ATOM      2  C2  IND d   1       2.153  -2.991   3.974  0.00  0.00     0.054 A 
ATOM      3  C3  IND d   1       2.034  -1.820   4.641  0.00  0.00    -0.031 A 
ATOM      4  C4  IND d   1       2.056   0.588   3.733  0.00  0.00     0.051 A 
ATOM      5  C5  IND d   1       2.258   1.306   2.587  0.00  0.00    -0.031 A 
ATOM      6  C6  IND d   1       2.510   0.692   1.377  0.00  0.00     0.015 A 
ATOM      7  C7  IND d   1       2.557  -0.669   1.265  0.00  0.00    -0.016 A 
ATOM      8  C8  IND d   1       2.359  -1.400   2.427  0.00  0.00    -0.047 A 
ATOM      9  C9  IND d   1       2.146  -0.782   3.666  0.00  0.00    -0.096 A 
ATOM     10  HN1 IND d   1       2.487  -3.364   2.043  0.00  0.00     0.298 HD
ENDROOT
TORSDOF 0
ENDMDL
