MODEL 1
REMARK minimizedAffinity 11.9126482
REMARK minimizedRMSD -1
REMARK  0 active torsions:
REMARK  status: ('A' for Active; 'I' for Inactive)
ROOT
ATOM      1  N1  IND d   1       3.772   0.143   0.883  0.00  0.00    -0.196 N 
ATOM      2  C2  IND d   1       2.626   0.867   0.705  0.00  0.00     0.054 A 
ATOM      3  C3  IND d   1       1.729   0.575   1.674  0.00  0.00    -0.031 A 
ATOM      4  C4  IND d   1       1.970  -0.982   3.710  0.00  0.00     0.051 A 
ATOM      5  C5  IND d   1       2.822  -1.887   4.279  0.00  0.00    -0.031 A 
ATOM      6  C6  IND d   1       4.059  -2.165   3.736  0.00  0.00     0.015 A 
ATOM      7  C7  IND d   1       4.498  -1.537   2.604  0.00  0.00    -0.016 A 
ATOM      8  C8  IND d   1       3.634  -0.623   2.020  0.00  0.00    -0.047 A 
ATOM      9  C9  IND d   1       2.359  -0.368   2.543  0.00  0.00    -0.096 A 
ATOM     10  HN1 IND d   1       4.462   0.163   0.372  0.00  0.00     0.298 HD
ENDROOT
TORSDOF 0
ENDMDL
