MODEL 1
REMARK minimizedAffinity 8.74640656
REMARK minimizedRMSD -1
REMARK  0 active torsions:
REMARK  status: ('A' for Active; 'I' for Inactive)
ROOT
ATOM      1  N1  IND d   1       1.393  -1.505   3.627  0.00  0.00    -0.196 N 
ATOM      2  C2  IND d   1       2.199  -2.544   3.999  0.00  0.00     0.054 A 
ATOM      3  C3  IND d   1       3.357  -2.513   3.303  0.00  0.00    -0.031 A 
ATOM      4  C4  IND d   1       4.183  -0.790   1.578  0.00  0.00     0.051 A 
ATOM      5  C5  IND d   1       3.782   0.318   0.885  0.00  0.00    -0.031 A 
ATOM      6  C6  IND d   1       2.540   0.887   1.076  0.00  0.00     0.015 A 
ATOM      7  C7  IND d   1       1.653   0.375   1.980  0.00  0.00    -0.016 A 
ATOM      8  C8  IND d   1       2.054  -0.754   2.681  0.00  0.00    -0.047 A 
ATOM      9  C9  IND d   1       3.297  -1.361   2.460  0.00  0.00    -0.096 A 
ATOM     10  HN1 IND d   1       0.605  -1.347   3.933  0.00  0.00     0.298 HD
ENDROOT
TORSDOF 0
ENDMDL
