MODEL 1
REMARK minimizedAffinity 2.99454188
REMARK minimizedRMSD -1
REMARK  2 active torsions:
REMARK  status: ('A' for Active; 'I' for Inactive)
REMARK    1  A    between atoms: C2'_3  and  C1'_4 
REMARK    2  A    between atoms: C1'_4  and  C1_5 
ROOT
ATOM      1  C1  I4B d   1       1.674   0.052   1.590  0.00  0.00    -0.075 A 
ATOM      2  C2  I4B d   1       2.541   0.030   2.654  0.00  0.00     0.003 A 
ATOM      3  C3  I4B d   1       2.458  -1.002   3.620  0.00  0.00     0.002 A 
ATOM      4  C4  I4B d   1       1.468  -1.957   3.510  0.00  0.00    -0.004 A 
ATOM      5  C5  I4B d   1       0.605  -1.947   2.418  0.00  0.00     0.002 A 
ATOM      6  C6  I4B d   1       0.716  -0.943   1.445  0.00  0.00     0.003 A 
ENDROOT
BRANCH   1   7
ATOM      7  C1' I4B d   1       1.768   1.176   0.607  0.00  0.00     0.060 C 
BRANCH   7   8
ATOM      8  C2' I4B d   1       0.426   1.305  -0.084  0.00  0.00    -0.013 C 
ATOM      9  C4' I4B d   1      -0.471   2.271   0.644  0.00  0.00     0.013 C 
ATOM     10  C3' I4B d   1       0.672   1.752  -1.494  0.00  0.00     0.013 C 
ENDBRANCH   7   8
ENDBRANCH   1   7
TORSDOF 2
ENDMDL
