MODEL 1
REMARK minimizedAffinity -0.89391005
REMARK minimizedRMSD -1
REMARK  2 active torsions:
REMARK  status: ('A' for Active; 'I' for Inactive)
REMARK    1  A    between atoms: C2'_3  and  C1'_4 
REMARK    2  A    between atoms: C1'_4  and  C1_5 
ROOT
ATOM      1  C1  I4B d   1       1.738   0.521   1.482  0.00  0.00    -0.075 A 
ATOM      2  C2  I4B d   1       0.863  -0.516   1.276  0.00  0.00     0.003 A 
ATOM      3  C3  I4B d   1       0.752  -1.556   2.232  0.00  0.00     0.002 A 
ATOM      4  C4  I4B d   1       1.566  -1.544   3.346  0.00  0.00    -0.004 A 
ATOM      5  C5  I4B d   1       2.436  -0.479   3.564  0.00  0.00     0.002 A 
ATOM      6  C6  I4B d   1       2.514   0.566   2.633  0.00  0.00     0.003 A 
ENDROOT
BRANCH   1   7
ATOM      7  C1' I4B d   1       1.853   1.585   0.437  0.00  0.00     0.060 C 
BRANCH   7   8
ATOM      8  C2' I4B d   1       0.480   1.791  -0.172  0.00  0.00    -0.013 C 
ATOM      9  C4' I4B d   1      -0.198   3.002   0.412  0.00  0.00     0.013 C 
ATOM     10  C3' I4B d   1       0.648   1.928  -1.656  0.00  0.00     0.013 C 
ENDBRANCH   7   8
ENDBRANCH   1   7
TORSDOF 2
ENDMDL
