MODEL 1
REMARK minimizedAffinity 6.75175524
REMARK minimizedRMSD -1
REMARK  2 active torsions:
REMARK  status: ('A' for Active; 'I' for Inactive)
REMARK    1  A    between atoms: C2'_3  and  C1'_4 
REMARK    2  A    between atoms: C1'_4  and  C1_5 
ROOT
ATOM      1  C1  I4B d   1       1.056   1.096   1.108  0.00  0.00    -0.075 A 
ATOM      2  C2  I4B d   1       1.874   1.854   0.307  0.00  0.00     0.003 A 
ATOM      3  C3  I4B d   1       1.381   3.035  -0.300  0.00  0.00     0.002 A 
ATOM      4  C4  I4B d   1       0.060   3.390  -0.121  0.00  0.00    -0.004 A 
ATOM      5  C5  I4B d   1      -0.761   2.633   0.709  0.00  0.00     0.002 A 
ATOM      6  C6  I4B d   1      -0.257   1.485   1.338  0.00  0.00     0.003 A 
ENDROOT
BRANCH   1   7
ATOM      7  C1' I4B d   1       1.600  -0.162   1.707  0.00  0.00     0.060 C 
BRANCH   7   8
ATOM      8  C2' I4B d   1       0.435  -1.094   1.971  0.00  0.00    -0.013 C 
ATOM      9  C4' I4B d   1      -0.050  -1.736   0.697  0.00  0.00     0.013 C 
ATOM     10  C3' I4B d   1       0.884  -2.128   2.961  0.00  0.00     0.013 C 
ENDBRANCH   7   8
ENDBRANCH   1   7
TORSDOF 2
ENDMDL
