MODEL 1
REMARK minimizedAffinity 0.137137115
REMARK minimizedRMSD -1
REMARK  2 active torsions:
REMARK  status: ('A' for Active; 'I' for Inactive)
REMARK    1  A    between atoms: C2'_3  and  C1'_4 
REMARK    2  A    between atoms: C1'_4  and  C1_5 
ROOT
ATOM      1  C1  I4B d   1       2.898   0.405   3.080  0.00  0.00    -0.075 A 
ATOM      2  C2  I4B d   1       2.582   1.199   4.153  0.00  0.00     0.003 A 
ATOM      3  C3  I4B d   1       2.613   0.670   5.466  0.00  0.00     0.002 A 
ATOM      4  C4  I4B d   1       2.915  -0.664   5.654  0.00  0.00    -0.004 A 
ATOM      5  C5  I4B d   1       3.258  -1.462   4.566  0.00  0.00     0.002 A 
ATOM      6  C6  I4B d   1       3.261  -0.922   3.272  0.00  0.00     0.003 A 
ENDROOT
BRANCH   1   7
ATOM      7  C1' I4B d   1       2.823   0.988   1.704  0.00  0.00     0.060 C 
BRANCH   7   8
ATOM      8  C2' I4B d   1       1.360   1.148   1.344  0.00  0.00    -0.013 C 
ATOM      9  C4' I4B d   1       1.180   2.129   0.216  0.00  0.00     0.013 C 
ATOM     10  C3' I4B d   1       0.823  -0.204   0.977  0.00  0.00     0.013 C 
ENDBRANCH   7   8
ENDBRANCH   1   7
TORSDOF 2
ENDMDL
