MODEL 1
REMARK minimizedAffinity -2.33564234
REMARK minimizedRMSD -1
REMARK  1 active torsions:
REMARK  status: ('A' for Active; 'I' for Inactive)
REMARK    1  A    between atoms: C3_4  and  O_7 
ROOT
ATOM      1  C   UNL d   1      -0.069  -0.018   2.338  0.00  0.00    -0.033 A 
ATOM      2  C1  UNL d   1       1.171   0.329   1.798  0.00  0.00     0.039 A 
ATOM      3  C2  UNL d   1       1.295   0.572   0.429  0.00  0.00    -0.080 A 
ATOM      4  C3  UNL d   1       0.173   0.466  -0.389  0.00  0.00     0.150 A 
ATOM      5  C4  UNL d   1      -1.066   0.124   0.143  0.00  0.00    -0.007 A 
ATOM      6  C5  UNL d   1      -1.188  -0.119   1.510  0.00  0.00     0.039 A 
ENDROOT
BRANCH   4   7
ATOM      7  O   UNL d   1       0.246   0.690  -1.731  0.00  0.00    -0.526 OA
ATOM      8  H5  UNL d   1       1.169   0.888  -1.961  0.00  0.00     0.418 HD
ENDBRANCH   4   7
TORSDOF 1
ENDMDL
