MODEL 1
REMARK minimizedAffinity -2.77187634
REMARK minimizedRMSD -1
REMARK  1 active torsions:
REMARK  status: ('A' for Active; 'I' for Inactive)
REMARK    1  A    between atoms: C3_4  and  O_7 
ROOT
ATOM      1  C   UNL d   1       1.102   0.176   1.223  0.00  0.00    -0.033 A 
ATOM      2  C1  UNL d   1       0.715   0.413  -0.097  0.00  0.00     0.039 A 
ATOM      3  C2  UNL d   1      -0.631   0.623  -0.405  0.00  0.00    -0.080 A 
ATOM      4  C3  UNL d   1      -1.578   0.595   0.616  0.00  0.00     0.150 A 
ATOM      5  C4  UNL d   1      -1.198   0.363   1.934  0.00  0.00    -0.007 A 
ATOM      6  C5  UNL d   1       0.146   0.152   2.239  0.00  0.00     0.039 A 
ENDROOT
BRANCH   4   7
ATOM      7  O   UNL d   1      -2.903   0.790   0.364  0.00  0.00    -0.526 OA
ATOM      8  H5  UNL d   1      -3.020   0.910  -0.594  0.00  0.00     0.418 HD
ENDBRANCH   4   7
TORSDOF 1
ENDMDL
