MODEL 1
REMARK minimizedAffinity -4.59234142
REMARK minimizedRMSD -1
REMARK  1 active torsions:
REMARK  status: ('A' for Active; 'I' for Inactive)
REMARK    1  A    between atoms: C3_4  and  O_7 
ROOT
ATOM      1  C   UNL d   1      -0.388  -0.375   2.934  0.00  0.00    -0.033 A 
ATOM      2  C1  UNL d   1      -0.294  -0.189   1.554  0.00  0.00     0.039 A 
ATOM      3  C2  UNL d   1      -1.392   0.287   0.835  0.00  0.00    -0.080 A 
ATOM      4  C3  UNL d   1      -2.576   0.575   1.507  0.00  0.00     0.150 A 
ATOM      5  C4  UNL d   1      -2.676   0.396   2.883  0.00  0.00    -0.007 A 
ATOM      6  C5  UNL d   1      -1.579  -0.081   3.599  0.00  0.00     0.039 A 
ENDROOT
BRANCH   4   7
ATOM      7  O   UNL d   1      -3.676   1.038   0.848  0.00  0.00    -0.526 OA
ATOM      8  H5  UNL d   1      -3.469   1.085  -0.101  0.00  0.00     0.418 HD
ENDBRANCH   4   7
TORSDOF 1
ENDMDL
