MODEL 1
REMARK minimizedAffinity -3.02950358
REMARK minimizedRMSD -1
REMARK  1 active torsions:
REMARK  status: ('A' for Active; 'I' for Inactive)
REMARK    1  A    between atoms: C3_4  and  O_7 
ROOT
ATOM      1  C   UNL d   1       1.936   0.482   1.030  0.00  0.00    -0.033 A 
ATOM      2  C1  UNL d   1       1.226   0.803  -0.128  0.00  0.00     0.039 A 
ATOM      3  C2  UNL d   1      -0.168   0.890  -0.094  0.00  0.00    -0.080 A 
ATOM      4  C3  UNL d   1      -0.837   0.655   1.104  0.00  0.00     0.150 A 
ATOM      5  C4  UNL d   1      -0.136   0.338   2.262  0.00  0.00    -0.007 A 
ATOM      6  C5  UNL d   1       1.255   0.250   2.226  0.00  0.00     0.039 A 
ENDROOT
BRANCH   4   7
ATOM      7  O   UNL d   1      -2.197   0.723   1.185  0.00  0.00    -0.526 OA
ATOM      8  H5  UNL d   1      -2.548   0.923   0.302  0.00  0.00     0.418 HD
ENDBRANCH   4   7
TORSDOF 1
ENDMDL
