MODEL 1
REMARK minimizedAffinity -4.44403744
REMARK minimizedRMSD -1
REMARK  1 active torsions:
REMARK  status: ('A' for Active; 'I' for Inactive)
REMARK    1  A    between atoms: C3_4  and  O_7 
ROOT
ATOM      1  C   UNL d   1      -2.903   0.492   3.228  0.00  0.00    -0.033 A 
ATOM      2  C1  UNL d   1      -1.680  -0.008   3.678  0.00  0.00     0.039 A 
ATOM      3  C2  UNL d   1      -0.603  -0.122   2.796  0.00  0.00    -0.080 A 
ATOM      4  C3  UNL d   1      -0.763   0.268   1.469  0.00  0.00     0.150 A 
ATOM      5  C4  UNL d   1      -1.978   0.771   1.015  0.00  0.00    -0.007 A 
ATOM      6  C5  UNL d   1      -3.052   0.884   1.897  0.00  0.00     0.039 A 
ENDROOT
BRANCH   4   7
ATOM      7  O   UNL d   1       0.257   0.171   0.570  0.00  0.00    -0.526 OA
ATOM      8  H5  UNL d   1       1.026  -0.219   1.018  0.00  0.00     0.418 HD
ENDBRANCH   4   7
TORSDOF 1
ENDMDL
