MODEL 1
REMARK minimizedAffinity -2.25697017
REMARK minimizedRMSD -1
REMARK  1 active torsions:
REMARK  status: ('A' for Active; 'I' for Inactive)
REMARK    1  A    between atoms: C3_4  and  O_7 
ROOT
ATOM      1  C   UNL d   1       0.808   0.576  -0.007  0.00  0.00    -0.033 A 
ATOM      2  C1  UNL d   1       0.526  -0.790  -0.063  0.00  0.00     0.039 A 
ATOM      3  C2  UNL d   1       0.385  -1.425  -1.299  0.00  0.00    -0.080 A 
ATOM      4  C3  UNL d   1       0.529  -0.683  -2.469  0.00  0.00     0.150 A 
ATOM      5  C4  UNL d   1       0.813   0.677  -2.419  0.00  0.00    -0.007 A 
ATOM      6  C5  UNL d   1       0.953   1.310  -1.185  0.00  0.00     0.039 A 
ENDROOT
BRANCH   4   7
ATOM      7  O   UNL d   1       0.395  -1.258  -3.698  0.00  0.00    -0.526 OA
ATOM      8  H5  UNL d   1       0.171  -2.196  -3.576  0.00  0.00     0.418 HD
ENDBRANCH   4   7
TORSDOF 1
ENDMDL
