MODEL 1
REMARK minimizedAffinity -2.68615365
REMARK minimizedRMSD -1
REMARK  1 active torsions:
REMARK  status: ('A' for Active; 'I' for Inactive)
REMARK    1  A    between atoms: C3_4  and  O_7 
ROOT
ATOM      1  C   UNL d   1       0.925   0.177   1.673  0.00  0.00    -0.033 A 
ATOM      2  C1  UNL d   1      -0.209   0.247   2.486  0.00  0.00     0.039 A 
ATOM      3  C2  UNL d   1      -1.477   0.348   1.911  0.00  0.00    -0.080 A 
ATOM      4  C3  UNL d   1      -1.599   0.376   0.525  0.00  0.00     0.150 A 
ATOM      5  C4  UNL d   1      -0.474   0.302  -0.291  0.00  0.00    -0.007 A 
ATOM      6  C5  UNL d   1       0.791   0.203   0.285  0.00  0.00     0.039 A 
ENDROOT
BRANCH   4   7
ATOM      7  O   UNL d   1      -2.815   0.478  -0.082  0.00  0.00    -0.526 OA
ATOM      8  H5  UNL d   1      -3.497   0.550   0.607  0.00  0.00     0.418 HD
ENDBRANCH   4   7
TORSDOF 1
ENDMDL
