MODEL 1
REMARK minimizedAffinity -3.80977511
REMARK minimizedRMSD -1
REMARK  1 active torsions:
REMARK  status: ('A' for Active; 'I' for Inactive)
REMARK    1  A    between atoms: C3_4  and  O_7 
ROOT
ATOM      1  C   UNL d   1      -0.535   0.824  -1.067  0.00  0.00    -0.033 A 
ATOM      2  C1  UNL d   1       0.788   0.721  -0.631  0.00  0.00     0.039 A 
ATOM      3  C2  UNL d   1       1.065   0.518   0.722  0.00  0.00    -0.080 A 
ATOM      4  C3  UNL d   1       0.013   0.418   1.628  0.00  0.00     0.150 A 
ATOM      5  C4  UNL d   1      -1.307   0.516   1.200  0.00  0.00    -0.007 A 
ATOM      6  C5  UNL d   1      -1.582   0.719  -0.151  0.00  0.00     0.039 A 
ENDROOT
BRANCH   4   7
ATOM      7  O   UNL d   1       0.234   0.225   2.959  0.00  0.00    -0.526 OA
ATOM      8  H5  UNL d   1       1.194   0.206   3.112  0.00  0.00     0.418 HD
ENDBRANCH   4   7
TORSDOF 1
ENDMDL
