MODEL 1
REMARK minimizedAffinity -1.01037073
REMARK minimizedRMSD -1
REMARK  1 active torsions:
REMARK  status: ('A' for Active; 'I' for Inactive)
REMARK    1  A    between atoms: C3_4  and  O_7 
ROOT
ATOM      1  C   UNL d   1      -0.519   0.269  -1.313  0.00  0.00    -0.033 A 
ATOM      2  C1  UNL d   1       0.317  -0.622  -0.638  0.00  0.00     0.039 A 
ATOM      3  C2  UNL d   1      -0.064  -1.134   0.605  0.00  0.00    -0.080 A 
ATOM      4  C3  UNL d   1      -1.281  -0.747   1.159  0.00  0.00     0.150 A 
ATOM      5  C4  UNL d   1      -2.121   0.137   0.489  0.00  0.00    -0.007 A 
ATOM      6  C5  UNL d   1      -1.738   0.647  -0.751  0.00  0.00     0.039 A 
ENDROOT
BRANCH   4   7
ATOM      7  O   UNL d   1      -1.694  -1.216   2.370  0.00  0.00    -0.526 OA
ATOM      8  H5  UNL d   1      -1.000  -1.795   2.729  0.00  0.00     0.418 HD
ENDBRANCH   4   7
TORSDOF 1
ENDMDL
