MODEL 1
REMARK minimizedAffinity -2.39560127
REMARK minimizedRMSD -1
REMARK  1 active torsions:
REMARK  status: ('A' for Active; 'I' for Inactive)
REMARK    1  A    between atoms: C3_4  and  O_7 
ROOT
ATOM      1  C   UNL d   1      -0.923  -0.870   2.068  0.00  0.00    -0.033 A 
ATOM      2  C1  UNL d   1      -1.168  -2.185   1.669  0.00  0.00     0.039 A 
ATOM      3  C2  UNL d   1      -0.527  -2.706   0.543  0.00  0.00    -0.080 A 
ATOM      4  C3  UNL d   1       0.356  -1.902  -0.173  0.00  0.00     0.150 A 
ATOM      5  C4  UNL d   1       0.608  -0.592   0.221  0.00  0.00    -0.007 A 
ATOM      6  C5  UNL d   1      -0.034  -0.074   1.345  0.00  0.00     0.039 A 
ENDROOT
BRANCH   4   7
ATOM      7  O   UNL d   1       1.002  -2.365  -1.281  0.00  0.00    -0.526 OA
ATOM      8  H5  UNL d   1       0.708  -3.276  -1.450  0.00  0.00     0.418 HD
ENDBRANCH   4   7
TORSDOF 1
ENDMDL
