MODEL 1
REMARK minimizedAffinity -4.20582962
REMARK minimizedRMSD -1
REMARK  1 active torsions:
REMARK  status: ('A' for Active; 'I' for Inactive)
REMARK    1  A    between atoms: C3_4  and  O_7 
ROOT
ATOM      1  C   UNL d   1       1.314  -0.289   1.151  0.00  0.00    -0.033 A 
ATOM      2  C1  UNL d   1       1.091  -0.349  -0.226  0.00  0.00     0.039 A 
ATOM      3  C2  UNL d   1      -0.123   0.091  -0.758  0.00  0.00    -0.080 A 
ATOM      4  C3  UNL d   1      -1.103   0.590   0.096  0.00  0.00     0.150 A 
ATOM      5  C4  UNL d   1      -0.886   0.656   1.468  0.00  0.00    -0.007 A 
ATOM      6  C5  UNL d   1       0.326   0.215   1.998  0.00  0.00     0.039 A 
ENDROOT
BRANCH   4   7
ATOM      7  O   UNL d   1      -2.304   1.027  -0.377  0.00  0.00    -0.526 OA
ATOM      8  H5  UNL d   1      -2.323   0.894  -1.339  0.00  0.00     0.418 HD
ENDBRANCH   4   7
TORSDOF 1
ENDMDL
