MODEL 1
REMARK minimizedAffinity -3.81425023
REMARK minimizedRMSD -1
REMARK  1 active torsions:
REMARK  status: ('A' for Active; 'I' for Inactive)
REMARK    1  A    between atoms: C3_4  and  O_7 
ROOT
ATOM      1  C   UNL d   1       1.114  -0.333   1.380  0.00  0.00    -0.033 A 
ATOM      2  C1  UNL d   1       0.893  -0.483   0.010  0.00  0.00     0.039 A 
ATOM      3  C2  UNL d   1      -0.322  -0.083  -0.551  0.00  0.00    -0.080 A 
ATOM      4  C3  UNL d   1      -1.305   0.465   0.268  0.00  0.00     0.150 A 
ATOM      5  C4  UNL d   1      -1.090   0.621   1.633  0.00  0.00    -0.007 A 
ATOM      6  C5  UNL d   1       0.123   0.221   2.191  0.00  0.00     0.039 A 
ENDROOT
BRANCH   4   7
ATOM      7  O   UNL d   1      -2.508   0.865  -0.233  0.00  0.00    -0.526 OA
ATOM      8  H5  UNL d   1      -2.525   0.670  -1.185  0.00  0.00     0.418 HD
ENDBRANCH   4   7
TORSDOF 1
ENDMDL
