MODEL 1
REMARK minimizedAffinity -2.78669119
REMARK minimizedRMSD -1
REMARK  1 active torsions:
REMARK  status: ('A' for Active; 'I' for Inactive)
REMARK    1  A    between atoms: C3_4  and  O_7 
ROOT
ATOM      1  C   UNL d   1       0.757   0.286  -1.132  0.00  0.00    -0.033 A 
ATOM      2  C1  UNL d   1       1.811   0.594  -0.270  0.00  0.00     0.039 A 
ATOM      3  C2  UNL d   1       1.635   0.498   1.112  0.00  0.00    -0.080 A 
ATOM      4  C3  UNL d   1       0.404   0.091   1.618  0.00  0.00     0.150 A 
ATOM      5  C4  UNL d   1      -0.649  -0.221   0.764  0.00  0.00    -0.007 A 
ATOM      6  C5  UNL d   1      -0.473  -0.123  -0.615  0.00  0.00     0.039 A 
ENDROOT
BRANCH   4   7
ATOM      7  O   UNL d   1       0.183  -0.014   2.959  0.00  0.00    -0.526 OA
ATOM      8  H5  UNL d   1       0.990   0.261   3.426  0.00  0.00     0.418 HD
ENDBRANCH   4   7
TORSDOF 1
ENDMDL
