MODEL 1
REMARK minimizedAffinity -3.10214782
REMARK minimizedRMSD -1
REMARK  1 active torsions:
REMARK  status: ('A' for Active; 'I' for Inactive)
REMARK    1  A    between atoms: C3_4  and  O_7 
ROOT
ATOM      1  C   UNL d   1      -0.427   0.435  -0.731  0.00  0.00    -0.033 A 
ATOM      2  C1  UNL d   1       0.792   0.263  -0.072  0.00  0.00     0.039 A 
ATOM      3  C2  UNL d   1       0.828   0.173   1.321  0.00  0.00    -0.080 A 
ATOM      4  C3  UNL d   1      -0.360   0.255   2.042  0.00  0.00     0.150 A 
ATOM      5  C4  UNL d   1      -1.578   0.423   1.392  0.00  0.00    -0.007 A 
ATOM      6  C5  UNL d   1      -1.612   0.513   0.001  0.00  0.00     0.039 A 
ENDROOT
BRANCH   4   7
ATOM      7  O   UNL d   1      -0.374   0.177   3.403  0.00  0.00    -0.526 OA
ATOM      8  H5  UNL d   1       0.542   0.091   3.716  0.00  0.00     0.418 HD
ENDBRANCH   4   7
TORSDOF 1
ENDMDL
