MODEL 1
REMARK minimizedAffinity -2.65547061
REMARK minimizedRMSD -1
REMARK  1 active torsions:
REMARK  status: ('A' for Active; 'I' for Inactive)
REMARK    1  A    between atoms: C3_4  and  O_7 
ROOT
ATOM      1  C   UNL d   1       1.215   0.070   1.092  0.00  0.00    -0.033 A 
ATOM      2  C1  UNL d   1       0.289   0.180   2.131  0.00  0.00     0.039 A 
ATOM      3  C2  UNL d   1      -1.068   0.341   1.844  0.00  0.00    -0.080 A 
ATOM      4  C3  UNL d   1      -1.485   0.389   0.517  0.00  0.00     0.150 A 
ATOM      5  C4  UNL d   1      -0.568   0.276  -0.523  0.00  0.00    -0.007 A 
ATOM      6  C5  UNL d   1       0.787   0.117  -0.235  0.00  0.00     0.039 A 
ENDROOT
BRANCH   4   7
ATOM      7  O   UNL d   1      -2.798   0.550   0.188  0.00  0.00    -0.526 OA
ATOM      8  H5  UNL d   1      -3.312   0.643   1.007  0.00  0.00     0.418 HD
ENDBRANCH   4   7
TORSDOF 1
ENDMDL
