MODEL 1
REMARK minimizedAffinity 16.1991138
REMARK minimizedRMSD -1
REMARK  0 active torsions:
REMARK  status: ('A' for Active; 'I' for Inactive)
ROOT
ATOM      1  C4' PXY d   1       2.604   2.137   1.549  0.00  0.00     0.077 C 
ATOM      2  C1' PXY d   1       1.555  -0.723  -3.363  0.00  0.00     0.077 C 
ATOM      3  C1  PXY d   1       1.828   0.016  -2.068  0.00  0.00    -0.082 A 
ATOM      4  C2  PXY d   1       1.683   1.330  -2.023  0.00  0.00     0.003 A 
ATOM      5  C3  PXY d   1       1.956   2.018  -0.868  0.00  0.00     0.003 A 
ATOM      6  C4  PXY d   1       2.330   1.348   0.265  0.00  0.00    -0.082 A 
ATOM      7  C5  PXY d   1       2.470   0.006   0.230  0.00  0.00     0.003 A 
ATOM      8  C6  PXY d   1       2.228  -0.669  -0.963  0.00  0.00     0.003 A 
ENDROOT
TORSDOF 0
ENDMDL
