MODEL 1
REMARK minimizedAffinity 12.0789719
REMARK minimizedRMSD -1
REMARK  0 active torsions:
REMARK  status: ('A' for Active; 'I' for Inactive)
ROOT
ATOM      1  C4' PXY d   1       3.529   0.485  -0.380  0.00  0.00     0.077 C 
ATOM      2  C1' PXY d   1       0.484  -4.055  -2.260  0.00  0.00     0.077 C 
ATOM      3  C1  PXY d   1       1.288  -2.872  -1.757  0.00  0.00    -0.082 A 
ATOM      4  C2  PXY d   1       0.857  -1.642  -1.990  0.00  0.00     0.003 A 
ATOM      5  C3  PXY d   1       1.588  -0.561  -1.570  0.00  0.00     0.003 A 
ATOM      6  C4  PXY d   1       2.745  -0.740  -0.860  0.00  0.00    -0.082 A 
ATOM      7  C5  PXY d   1       3.186  -1.991  -0.610  0.00  0.00     0.003 A 
ATOM      8  C6  PXY d   1       2.450  -3.075  -1.080  0.00  0.00     0.003 A 
ENDROOT
TORSDOF 0
ENDMDL
