MODEL 1
REMARK minimizedAffinity 11.6251688
REMARK minimizedRMSD -1
REMARK  0 active torsions:
REMARK  status: ('A' for Active; 'I' for Inactive)
ROOT
ATOM      1  C4' PXY d   1       4.181   3.987   6.000  0.00  0.00     0.077 C 
ATOM      2  C1' PXY d   1       1.121  -0.217   3.474  0.00  0.00     0.077 C 
ATOM      3  C1  PXY d   1       1.928   0.889   4.125  0.00  0.00    -0.082 A 
ATOM      4  C2  PXY d   1       2.308   0.767   5.386  0.00  0.00     0.003 A 
ATOM      5  C3  PXY d   1       3.010   1.772   6.000  0.00  0.00     0.003 A 
ATOM      6  C4  PXY d   1       3.374   2.891   5.299  0.00  0.00    -0.082 A 
ATOM      7  C5  PXY d   1       2.999   3.018   4.009  0.00  0.00     0.003 A 
ATOM      8  C6  PXY d   1       2.251   2.005   3.416  0.00  0.00     0.003 A 
ENDROOT
TORSDOF 0
ENDMDL
