MODEL 1
REMARK minimizedAffinity 12.8016968
REMARK minimizedRMSD -1
REMARK  0 active torsions:
REMARK  status: ('A' for Active; 'I' for Inactive)
ROOT
ATOM      1  C4' PXY d   1       6.000  -5.618  -2.910  0.00  0.00     0.077 C 
ATOM      2  C1' PXY d   1       1.323  -3.731  -0.084  0.00  0.00     0.077 C 
ATOM      3  C1  PXY d   1       2.547  -4.238  -0.822  0.00  0.00    -0.082 A 
ATOM      4  C2  PXY d   1       3.557  -3.416  -1.055  0.00  0.00     0.003 A 
ATOM      5  C3  PXY d   1       4.658  -3.850  -1.749  0.00  0.00     0.003 A 
ATOM      6  C4  PXY d   1       4.748  -5.152  -2.161  0.00  0.00    -0.082 A 
ATOM      7  C5  PXY d   1       3.726  -6.000  -1.917  0.00  0.00     0.003 A 
ATOM      8  C6  PXY d   1       2.600  -5.529  -1.248  0.00  0.00     0.003 A 
ENDROOT
TORSDOF 0
ENDMDL
