MODEL 1
REMARK minimizedAffinity 1.23941302
REMARK minimizedRMSD -1
REMARK  0 active torsions:
REMARK  status: ('A' for Active; 'I' for Inactive)
ROOT
ATOM      1  C4' PXY d   1      -0.554  -2.670  -1.997  0.00  0.00     0.077 C 
ATOM      2  C1' PXY d   1       3.847   0.870  -0.766  0.00  0.00     0.077 C 
ATOM      3  C1  PXY d   1       2.687  -0.049  -1.095  0.00  0.00    -0.082 A 
ATOM      4  C2  PXY d   1       2.441  -1.095  -0.323  0.00  0.00     0.003 A 
ATOM      5  C3  PXY d   1       1.416  -1.954  -0.625  0.00  0.00     0.003 A 
ATOM      6  C4  PXY d   1       0.601  -1.711  -1.697  0.00  0.00    -0.082 A 
ATOM      7  C5  PXY d   1       0.838  -0.639  -2.484  0.00  0.00     0.003 A 
ATOM      8  C6  PXY d   1       1.909   0.198  -2.184  0.00  0.00     0.003 A 
ENDROOT
TORSDOF 0
ENDMDL
