MODEL 1
REMARK minimizedAffinity 7.56738281
REMARK minimizedRMSD -1
REMARK  0 active torsions:
REMARK  status: ('A' for Active; 'I' for Inactive)
ROOT
ATOM      1  C4' PXY d   1      -2.909   1.729   2.995  0.00  0.00     0.077 C 
ATOM      2  C1' PXY d   1       2.571   1.861   1.160  0.00  0.00     0.077 C 
ATOM      3  C1  PXY d   1       1.135   1.839   1.646  0.00  0.00    -0.082 A 
ATOM      4  C2  PXY d   1       0.535   0.679   1.859  0.00  0.00     0.003 A 
ATOM      5  C3  PXY d   1      -0.774   0.640   2.268  0.00  0.00     0.003 A 
ATOM      6  C4  PXY d   1      -1.458   1.800   2.513  0.00  0.00    -0.082 A 
ATOM      7  C5  PXY d   1      -0.849   2.987   2.309  0.00  0.00     0.003 A 
ATOM      8  C6  PXY d   1       0.467   3.005   1.854  0.00  0.00     0.003 A 
ENDROOT
TORSDOF 0
ENDMDL
