MODEL 1
REMARK minimizedAffinity 7.23548508
REMARK minimizedRMSD -1
REMARK  0 active torsions:
REMARK  status: ('A' for Active; 'I' for Inactive)
ROOT
ATOM      1  C4' PXY d   1       3.102   0.524  -1.303  0.00  0.00     0.077 C 
ATOM      2  C1' PXY d   1      -0.381  -3.879  -2.678  0.00  0.00     0.077 C 
ATOM      3  C1  PXY d   1       0.532  -2.721  -2.330  0.00  0.00    -0.082 A 
ATOM      4  C2  PXY d   1       1.296  -2.791  -1.252  0.00  0.00     0.003 A 
ATOM      5  C3  PXY d   1       2.104  -1.739  -0.905  0.00  0.00     0.003 A 
ATOM      6  C4  PXY d   1       2.172  -0.626  -1.699  0.00  0.00    -0.082 A 
ATOM      7  C5  PXY d   1       1.404  -0.551  -2.806  0.00  0.00     0.003 A 
ATOM      8  C6  PXY d   1       0.559  -1.612  -3.119  0.00  0.00     0.003 A 
ENDROOT
TORSDOF 0
ENDMDL
