MODEL 1
REMARK minimizedAffinity 8.28430939
REMARK minimizedRMSD -1
REMARK  0 active torsions:
REMARK  status: ('A' for Active; 'I' for Inactive)
ROOT
ATOM      1  C4' PXY d   1       4.184   4.969   2.286  0.00  0.00     0.077 C 
ATOM      2  C1' PXY d   1       2.957  -0.334   0.340  0.00  0.00     0.077 C 
ATOM      3  C1  PXY d   1       3.266   1.058   0.854  0.00  0.00    -0.082 A 
ATOM      4  C2  PXY d   1       4.312   1.714   0.377  0.00  0.00     0.003 A 
ATOM      5  C3  PXY d   1       4.625   2.961   0.854  0.00  0.00     0.003 A 
ATOM      6  C4  PXY d   1       3.828   3.565   1.790  0.00  0.00    -0.082 A 
ATOM      7  C5  PXY d   1       2.753   2.907   2.273  0.00  0.00     0.003 A 
ATOM      8  C6  PXY d   1       2.477   1.625   1.806  0.00  0.00     0.003 A 
ENDROOT
TORSDOF 0
ENDMDL
