MODEL 1
REMARK minimizedAffinity 13.4170322
REMARK minimizedRMSD -1
REMARK  0 active torsions:
REMARK  status: ('A' for Active; 'I' for Inactive)
ROOT
ATOM      1  C4' PXY d   1       0.042   1.867  -3.758  0.00  0.00     0.077 C 
ATOM      2  C1' PXY d   1       3.829  -0.036   0.172  0.00  0.00     0.077 C 
ATOM      3  C1  PXY d   1       2.835   0.474  -0.853  0.00  0.00    -0.082 A 
ATOM      4  C2  PXY d   1       2.069  -0.384  -1.506  0.00  0.00     0.003 A 
ATOM      5  C3  PXY d   1       1.188   0.058  -2.459  0.00  0.00     0.003 A 
ATOM      6  C4  PXY d   1       1.052   1.397  -2.708  0.00  0.00    -0.082 A 
ATOM      7  C5  PXY d   1       1.823   2.281  -2.039  0.00  0.00     0.003 A 
ATOM      8  C6  PXY d   1       2.740   1.808  -1.105  0.00  0.00     0.003 A 
ENDROOT
TORSDOF 0
ENDMDL
