MODEL 1
REMARK minimizedAffinity 3.30169106
REMARK minimizedRMSD -1
REMARK  0 active torsions:
REMARK  status: ('A' for Active; 'I' for Inactive)
ROOT
ATOM      1  C4' PXY d   1       2.278   0.910   0.513  0.00  0.00     0.077 C 
ATOM      2  C1' PXY d   1       2.404   2.786   5.979  0.00  0.00     0.077 C 
ATOM      3  C1  PXY d   1       2.371   2.282   4.550  0.00  0.00    -0.082 A 
ATOM      4  C2  PXY d   1       2.832   3.048   3.575  0.00  0.00     0.003 A 
ATOM      5  C3  PXY d   1       2.781   2.621   2.273  0.00  0.00     0.003 A 
ATOM      6  C4  PXY d   1       2.300   1.374   1.972  0.00  0.00    -0.082 A 
ATOM      7  C5  PXY d   1       1.838   0.582   2.962  0.00  0.00     0.003 A 
ATOM      8  C6  PXY d   1       1.861   1.051   4.273  0.00  0.00     0.003 A 
ENDROOT
TORSDOF 0
ENDMDL
