MODEL 1
REMARK minimizedAffinity 12.3252735
REMARK minimizedRMSD -1
REMARK  0 active torsions:
REMARK  status: ('A' for Active; 'I' for Inactive)
ROOT
ATOM      1  C4' PXY d   1       1.555  -1.435  -2.320  0.00  0.00     0.077 C 
ATOM      2  C1' PXY d   1       1.331   4.341  -2.322  0.00  0.00     0.077 C 
ATOM      3  C1  PXY d   1       1.401   2.826  -2.316  0.00  0.00    -0.082 A 
ATOM      4  C2  PXY d   1       0.705   2.136  -3.204  0.00  0.00     0.003 A 
ATOM      5  C3  PXY d   1       0.732   0.765  -3.192  0.00  0.00     0.003 A 
ATOM      6  C4  PXY d   1       1.521   0.095  -2.296  0.00  0.00    -0.082 A 
ATOM      7  C5  PXY d   1       2.243   0.793  -1.393  0.00  0.00     0.003 A 
ATOM      8  C6  PXY d   1       2.170   2.183  -1.395  0.00  0.00     0.003 A 
ENDROOT
TORSDOF 0
ENDMDL
