MODEL 1
REMARK minimizedAffinity 2.43157935
REMARK minimizedRMSD -1
REMARK  0 active torsions:
REMARK  status: ('A' for Active; 'I' for Inactive)
ROOT
ATOM      1  C4' PXY d   1       3.251   0.140  -1.539  0.00  0.00     0.077 C 
ATOM      2  C1' PXY d   1      -0.848  -3.871  -2.257  0.00  0.00     0.077 C 
ATOM      3  C1  PXY d   1       0.230  -2.820  -2.081  0.00  0.00    -0.082 A 
ATOM      4  C2  PXY d   1       0.800  -2.659  -0.898  0.00  0.00     0.003 A 
ATOM      5  C3  PXY d   1       1.754  -1.691  -0.714  0.00  0.00     0.003 A 
ATOM      6  C4  PXY d   1       2.166  -0.915  -1.765  0.00  0.00    -0.082 A 
ATOM      7  C5  PXY d   1       1.596  -1.081  -2.977  0.00  0.00     0.003 A 
ATOM      8  C6  PXY d   1       0.601  -2.041  -3.134  0.00  0.00     0.003 A 
ENDROOT
TORSDOF 0
ENDMDL
