MODEL 1
REMARK minimizedAffinity 8.41977406
REMARK minimizedRMSD -1
REMARK  0 active torsions:
REMARK  status: ('A' for Active; 'I' for Inactive)
ROOT
ATOM      1  C4' PXY d   1       3.657   5.622   1.848  0.00  0.00     0.077 C 
ATOM      2  C1' PXY d   1       1.538   0.244   1.747  0.00  0.00     0.077 C 
ATOM      3  C1  PXY d   1       2.106   1.650   1.774  0.00  0.00    -0.082 A 
ATOM      4  C2  PXY d   1       1.355   2.650   2.205  0.00  0.00     0.003 A 
ATOM      5  C3  PXY d   1       1.842   3.932   2.206  0.00  0.00     0.003 A 
ATOM      6  C4  PXY d   1       3.129   4.185   1.812  0.00  0.00    -0.082 A 
ATOM      7  C5  PXY d   1       3.905   3.168   1.381  0.00  0.00     0.003 A 
ATOM      8  C6  PXY d   1       3.378   1.880   1.349  0.00  0.00     0.003 A 
ENDROOT
TORSDOF 0
ENDMDL
