MODEL 1
REMARK minimizedAffinity 10.8989439
REMARK minimizedRMSD -1
REMARK  0 active torsions:
REMARK  status: ('A' for Active; 'I' for Inactive)
ROOT
ATOM      1  C4' PXY d   1      -2.453  -0.172  -2.456  0.00  0.00     0.077 C 
ATOM      2  C1' PXY d   1      -1.111  -5.794  -2.373  0.00  0.00     0.077 C 
ATOM      3  C1  PXY d   1      -1.453  -4.317  -2.387  0.00  0.00    -0.082 A 
ATOM      4  C2  PXY d   1      -2.693  -3.935  -2.645  0.00  0.00     0.003 A 
ATOM      5  C3  PXY d   1      -3.012  -2.603  -2.693  0.00  0.00     0.003 A 
ATOM      6  C4  PXY d   1      -2.064  -1.653  -2.422  0.00  0.00    -0.082 A 
ATOM      7  C5  PXY d   1      -0.799  -2.035  -2.148  0.00  0.00     0.003 A 
ATOM      8  C6  PXY d   1      -0.486  -3.391  -2.145  0.00  0.00     0.003 A 
ENDROOT
TORSDOF 0
ENDMDL
