MODEL 1
REMARK minimizedAffinity 2.92627215
REMARK minimizedRMSD -1
REMARK  0 active torsions:
REMARK  status: ('A' for Active; 'I' for Inactive)
ROOT
ATOM      1  C4' PXY d   1      -1.126  -6.000  -3.795  0.00  0.00     0.077 C 
ATOM      2  C1' PXY d   1      -2.249  -0.544  -2.250  0.00  0.00     0.077 C 
ATOM      3  C1  PXY d   1      -1.942  -1.973  -2.653  0.00  0.00    -0.082 A 
ATOM      4  C2  PXY d   1      -2.803  -2.640  -3.403  0.00  0.00     0.003 A 
ATOM      5  C3  PXY d   1      -2.556  -3.943  -3.751  0.00  0.00     0.003 A 
ATOM      6  C4  PXY d   1      -1.390  -4.553  -3.371  0.00  0.00    -0.082 A 
ATOM      7  C5  PXY d   1      -0.501  -3.875  -2.615  0.00  0.00     0.003 A 
ATOM      8  C6  PXY d   1      -0.790  -2.566  -2.238  0.00  0.00     0.003 A 
ENDROOT
TORSDOF 0
ENDMDL
