MODEL 1
REMARK minimizedAffinity 5.75114918
REMARK minimizedRMSD -1
REMARK  0 active torsions:
REMARK  status: ('A' for Active; 'I' for Inactive)
ROOT
ATOM      1  C4' PXY d   1       2.663   0.427  -0.997  0.00  0.00     0.077 C 
ATOM      2  C1' PXY d   1      -0.683  -4.189  -1.950  0.00  0.00     0.077 C 
ATOM      3  C1  PXY d   1       0.193  -2.980  -1.687  0.00  0.00    -0.082 A 
ATOM      4  C2  PXY d   1       0.264  -2.015  -2.589  0.00  0.00     0.003 A 
ATOM      5  C3  PXY d   1       1.077  -0.930  -2.382  0.00  0.00     0.003 A 
ATOM      6  C4  PXY d   1       1.784  -0.807  -1.216  0.00  0.00    -0.082 A 
ATOM      7  C5  PXY d   1       1.708  -1.782  -0.285  0.00  0.00     0.003 A 
ATOM      8  C6  PXY d   1       0.909  -2.895  -0.533  0.00  0.00     0.003 A 
ENDROOT
TORSDOF 0
ENDMDL
