MODEL 1
REMARK minimizedAffinity 15.1155214
REMARK minimizedRMSD -1
REMARK  0 active torsions:
REMARK  status: ('A' for Active; 'I' for Inactive)
ROOT
ATOM      1  C4' PXY d   1      -1.088  -5.666  -1.874  0.00  0.00     0.077 C 
ATOM      2  C1' PXY d   1      -2.192  -0.025  -2.493  0.00  0.00     0.077 C 
ATOM      3  C1  PXY d   1      -1.890  -1.502  -2.331  0.00  0.00    -0.082 A 
ATOM      4  C2  PXY d   1      -2.780  -2.399  -2.722  0.00  0.00     0.003 A 
ATOM      5  C3  PXY d   1      -2.537  -3.737  -2.553  0.00  0.00     0.003 A 
ATOM      6  C4  PXY d   1      -1.347  -4.164  -2.027  0.00  0.00    -0.082 A 
ATOM      7  C5  PXY d   1      -0.428  -3.256  -1.635  0.00  0.00     0.003 A 
ATOM      8  C6  PXY d   1      -0.712  -1.900  -1.778  0.00  0.00     0.003 A 
ENDROOT
TORSDOF 0
ENDMDL
