MODEL 1
REMARK minimizedAffinity 15.9931669
REMARK minimizedRMSD -1
REMARK  0 active torsions:
REMARK  status: ('A' for Active; 'I' for Inactive)
ROOT
ATOM      1  C4' PXY d   1       0.269   0.616   2.390  0.00  0.00     0.077 C 
ATOM      2  C1' PXY d   1       4.656   2.279  -0.986  0.00  0.00     0.077 C 
ATOM      3  C1  PXY d   1       3.510   1.850  -0.091  0.00  0.00    -0.082 A 
ATOM      4  C2  PXY d   1       2.886   0.708  -0.329  0.00  0.00     0.003 A 
ATOM      5  C3  PXY d   1       1.828   0.321   0.451  0.00  0.00     0.003 A 
ATOM      6  C4  PXY d   1       1.437   1.084   1.518  0.00  0.00    -0.082 A 
ATOM      7  C5  PXY d   1       2.076   2.246   1.774  0.00  0.00     0.003 A 
ATOM      8  C6  PXY d   1       3.121   2.642   0.945  0.00  0.00     0.003 A 
ENDROOT
TORSDOF 0
ENDMDL
