MODEL 1
REMARK minimizedAffinity 12.3889961
REMARK minimizedRMSD -1
REMARK  0 active torsions:
REMARK  status: ('A' for Active; 'I' for Inactive)
ROOT
ATOM      1  C4' PXY d   1      -0.486   1.145  -3.850  0.00  0.00     0.077 C 
ATOM      2  C1' PXY d   1       4.326   0.610  -0.691  0.00  0.00     0.077 C 
ATOM      3  C1  PXY d   1       3.066   0.738  -1.525  0.00  0.00    -0.082 A 
ATOM      4  C2  PXY d   1       2.590   1.939  -1.810  0.00  0.00     0.003 A 
ATOM      5  C3  PXY d   1       1.434   2.073  -2.535  0.00  0.00     0.003 A 
ATOM      6  C4  PXY d   1       0.788   0.968  -3.019  0.00  0.00    -0.082 A 
ATOM      7  C5  PXY d   1       1.273  -0.261  -2.742  0.00  0.00     0.003 A 
ATOM      8  C6  PXY d   1       2.425  -0.377  -1.969  0.00  0.00     0.003 A 
ENDROOT
TORSDOF 0
ENDMDL
