MODEL 1
REMARK minimizedAffinity 17.0418377
REMARK minimizedRMSD -1
REMARK  0 active torsions:
REMARK  status: ('A' for Active; 'I' for Inactive)
ROOT
ATOM      1  C4' PXY d   1       3.920   1.055  -0.349  0.00  0.00     0.077 C 
ATOM      2  C1' PXY d   1      -0.177   1.668  -4.381  0.00  0.00     0.077 C 
ATOM      3  C1  PXY d   1       0.893   1.496  -3.321  0.00  0.00    -0.082 A 
ATOM      4  C2  PXY d   1       1.443   2.564  -2.766  0.00  0.00     0.003 A 
ATOM      5  C3  PXY d   1       2.434   2.426  -1.829  0.00  0.00     0.003 A 
ATOM      6  C4  PXY d   1       2.829   1.182  -1.416  0.00  0.00    -0.082 A 
ATOM      7  C5  PXY d   1       2.266   0.087  -1.969  0.00  0.00     0.003 A 
ATOM      8  C6  PXY d   1       1.290   0.248  -2.949  0.00  0.00     0.003 A 
ENDROOT
TORSDOF 0
ENDMDL
