MODEL 1
REMARK minimizedAffinity -4.49110365
REMARK minimizedRMSD -1
REMARK  2 active torsions:
REMARK  status: ('A' for Active; 'I' for Inactive)
REMARK    1  A    between atoms: C2'_3  and  C1'_4 
REMARK    2  A    between atoms: C1'_4  and  C1_5 
ROOT
ATOM      1  C1  I4B d   1       0.889   1.132   0.023  0.00  0.00    -0.075 A 
ATOM      2  C2  I4B d   1      -0.092   2.092  -0.000  0.00  0.00     0.003 A 
ATOM      3  C3  I4B d   1       0.219   3.437   0.318  0.00  0.00     0.002 A 
ATOM      4  C4  I4B d   1       1.503   3.765   0.701  0.00  0.00    -0.004 A 
ATOM      5  C5  I4B d   1       2.501   2.795   0.701  0.00  0.00     0.002 A 
ATOM      6  C6  I4B d   1       2.195   1.472   0.348  0.00  0.00     0.003 A 
ENDROOT
BRANCH   1   7
ATOM      7  C1' I4B d   1       0.519  -0.283  -0.287  0.00  0.00     0.060 C 
BRANCH   7   8
ATOM      8  C2' I4B d   1      -0.104  -0.886   0.956  0.00  0.00    -0.013 C 
ATOM      9  C4' I4B d   1      -0.548  -2.304   0.711  0.00  0.00     0.013 C 
ATOM     10  C3' I4B d   1       0.909  -0.819   2.060  0.00  0.00     0.013 C 
ENDBRANCH   7   8
ENDBRANCH   1   7
TORSDOF 2
ENDMDL
