MODEL 1
REMARK minimizedAffinity -2.50535798
REMARK minimizedRMSD -1
REMARK  2 active torsions:
REMARK  status: ('A' for Active; 'I' for Inactive)
REMARK    1  A    between atoms: C2'_3  and  C1'_4 
REMARK    2  A    between atoms: C1'_4  and  C1_5 
ROOT
ATOM      1  C1  I4B d   1       0.637   0.777   0.180  0.00  0.00    -0.075 A 
ATOM      2  C2  I4B d   1       0.191   0.707  -1.116  0.00  0.00     0.003 A 
ATOM      3  C3  I4B d   1       0.175   1.867  -1.928  0.00  0.00     0.002 A 
ATOM      4  C4  I4B d   1       0.565   3.078  -1.392  0.00  0.00    -0.004 A 
ATOM      5  C5  I4B d   1       1.039   3.142  -0.085  0.00  0.00     0.002 A 
ATOM      6  C6  I4B d   1       1.087   1.982   0.703  0.00  0.00     0.003 A 
ENDROOT
BRANCH   1   7
ATOM      7  C1' I4B d   1       0.609  -0.461   1.019  0.00  0.00     0.060 C 
BRANCH   7   8
ATOM      8  C2' I4B d   1      -0.727  -1.141   0.804  0.00  0.00    -0.013 C 
ATOM      9  C4' I4B d   1      -0.609  -2.635   0.952  0.00  0.00     0.013 C 
ATOM     10  C3' I4B d   1      -1.700  -0.574   1.795  0.00  0.00     0.013 C 
ENDBRANCH   7   8
ENDBRANCH   1   7
TORSDOF 2
ENDMDL
