MODEL 1
REMARK minimizedAffinity -6.080832
REMARK minimizedRMSD -1
REMARK  2 active torsions:
REMARK  status: ('A' for Active; 'I' for Inactive)
REMARK    1  A    between atoms: C2'_3  and  C1'_4 
REMARK    2  A    between atoms: C1'_4  and  C1_5 
ROOT
ATOM      1  C1  I4B d   1      -0.249  -1.785  -0.452  0.00  0.00    -0.075 A 
ATOM      2  C2  I4B d   1      -0.575  -3.118  -0.457  0.00  0.00     0.003 A 
ATOM      3  C3  I4B d   1      -0.530  -3.859  -1.663  0.00  0.00     0.002 A 
ATOM      4  C4  I4B d   1      -0.206  -3.219  -2.842  0.00  0.00    -0.004 A 
ATOM      5  C5  I4B d   1       0.147  -1.873  -2.831  0.00  0.00     0.002 A 
ATOM      6  C6  I4B d   1       0.137  -1.153  -1.628  0.00  0.00     0.003 A 
ENDROOT
BRANCH   1   7
ATOM      7  C1' I4B d   1      -0.339  -1.025   0.833  0.00  0.00     0.060 C 
BRANCH   7   8
ATOM      8  C2' I4B d   1      -1.172   0.216   0.584  0.00  0.00    -0.013 C 
ATOM      9  C4' I4B d   1      -2.067   0.516   1.758  0.00  0.00     0.013 C 
ATOM     10  C3' I4B d   1      -0.235   1.355   0.313  0.00  0.00     0.013 C 
ENDBRANCH   7   8
ENDBRANCH   1   7
TORSDOF 2
ENDMDL
