MODEL 1
REMARK minimizedAffinity -6.14895248
REMARK minimizedRMSD -1
REMARK  2 active torsions:
REMARK  status: ('A' for Active; 'I' for Inactive)
REMARK    1  A    between atoms: C2'_3  and  C1'_4 
REMARK    2  A    between atoms: C1'_4  and  C1_5 
ROOT
ATOM      1  C1  I4B d   1      -0.461  -1.105  -0.030  0.00  0.00    -0.075 A 
ATOM      2  C2  I4B d   1      -0.501  -0.955  -1.394  0.00  0.00     0.003 A 
ATOM      3  C3  I4B d   1      -0.400  -2.087  -2.239  0.00  0.00     0.002 A 
ATOM      4  C4  I4B d   1      -0.211  -3.336  -1.682  0.00  0.00    -0.004 A 
ATOM      5  C5  I4B d   1      -0.194  -3.488  -0.299  0.00  0.00     0.002 A 
ATOM      6  C6  I4B d   1      -0.332  -2.368   0.533  0.00  0.00     0.003 A 
ENDROOT
BRANCH   1   7
ATOM      7  C1' I4B d   1      -0.537   0.116   0.831  0.00  0.00     0.060 C 
BRANCH   7   8
ATOM      8  C2' I4B d   1      -1.193   1.217   0.024  0.00  0.00    -0.013 C 
ATOM      9  C4' I4B d   1      -2.489   1.656   0.654  0.00  0.00     0.013 C 
ATOM     10  C3' I4B d   1      -0.226   2.358  -0.075  0.00  0.00     0.013 C 
ENDBRANCH   7   8
ENDBRANCH   1   7
TORSDOF 2
ENDMDL
