MODEL 1
REMARK minimizedAffinity -1.23855853
REMARK minimizedRMSD -1
REMARK  2 active torsions:
REMARK  status: ('A' for Active; 'I' for Inactive)
REMARK    1  A    between atoms: C2'_3  and  C1'_4 
REMARK    2  A    between atoms: C1'_4  and  C1_5 
ROOT
ATOM      1  C1  I4B d   1      -0.015  -0.850   1.046  0.00  0.00    -0.075 A 
ATOM      2  C2  I4B d   1      -1.388  -0.836   1.055  0.00  0.00     0.003 A 
ATOM      3  C3  I4B d   1      -2.115  -1.995   0.690  0.00  0.00     0.002 A 
ATOM      4  C4  I4B d   1      -1.434  -3.122   0.276  0.00  0.00    -0.004 A 
ATOM      5  C5  I4B d   1      -0.043  -3.142   0.290  0.00  0.00     0.002 A 
ATOM      6  C6  I4B d   1       0.672  -2.003   0.689  0.00  0.00     0.003 A 
ENDROOT
BRANCH   1   7
ATOM      7  C1' I4B d   1       0.721   0.401   1.406  0.00  0.00     0.060 C 
BRANCH   7   8
ATOM      8  C2' I4B d   1       1.256   1.012   0.127  0.00  0.00    -0.013 C 
ATOM      9  C4' I4B d   1       0.288   0.827  -1.012  0.00  0.00     0.013 C 
ATOM     10  C3' I4B d   1       1.519   2.466   0.384  0.00  0.00     0.013 C 
ENDBRANCH   7   8
ENDBRANCH   1   7
TORSDOF 2
ENDMDL
