MODEL 1
REMARK minimizedAffinity -4.86744308
REMARK minimizedRMSD -1
REMARK  2 active torsions:
REMARK  status: ('A' for Active; 'I' for Inactive)
REMARK    1  A    between atoms: C2'_3  and  C1'_4 
REMARK    2  A    between atoms: C1'_4  and  C1_5 
ROOT
ATOM      1  C1  I4B d   1      -0.721  -1.384  -0.426  0.00  0.00    -0.075 A 
ATOM      2  C2  I4B d   1      -1.219  -2.663  -0.431  0.00  0.00     0.003 A 
ATOM      3  C3  I4B d   1      -1.057  -3.487  -1.571  0.00  0.00     0.002 A 
ATOM      4  C4  I4B d   1      -0.440  -2.977  -2.695  0.00  0.00    -0.004 A 
ATOM      5  C5  I4B d   1       0.085  -1.688  -2.680  0.00  0.00     0.002 A 
ATOM      6  C6  I4B d   1      -0.046  -0.890  -1.534  0.00  0.00     0.003 A 
ENDROOT
BRANCH   1   7
ATOM      7  C1' I4B d   1      -0.938  -0.531   0.783  0.00  0.00     0.060 C 
BRANCH   7   8
ATOM      8  C2' I4B d   1      -1.631   0.741   0.339  0.00  0.00    -0.013 C 
ATOM      9  C4' I4B d   1      -2.707   1.144   1.312  0.00  0.00     0.013 C 
ATOM     10  C3' I4B d   1      -0.591   1.813   0.207  0.00  0.00     0.013 C 
ENDBRANCH   7   8
ENDBRANCH   1   7
TORSDOF 2
ENDMDL
