MODEL 1
REMARK minimizedAffinity -4.51355696
REMARK minimizedRMSD -1
REMARK  2 active torsions:
REMARK  status: ('A' for Active; 'I' for Inactive)
REMARK    1  A    between atoms: C2'_3  and  C1'_4 
REMARK    2  A    between atoms: C1'_4  and  C1_5 
ROOT
ATOM      1  C1  I4B d   1       0.731   1.998   0.448  0.00  0.00    -0.075 A 
ATOM      2  C2  I4B d   1       0.391   3.323   0.557  0.00  0.00     0.003 A 
ATOM      3  C3  I4B d   1       1.363   4.278   0.946  0.00  0.00     0.002 A 
ATOM      4  C4  I4B d   1       2.639   3.859   1.261  0.00  0.00    -0.004 A 
ATOM      5  C5  I4B d   1       2.987   2.518   1.127  0.00  0.00     0.002 A 
ATOM      6  C6  I4B d   1       2.031   1.583   0.706  0.00  0.00     0.003 A 
ENDROOT
BRANCH   1   7
ATOM      7  C1' I4B d   1      -0.328   1.012   0.067  0.00  0.00     0.060 C 
BRANCH   7   8
ATOM      8  C2' I4B d   1       0.042  -0.327   0.671  0.00  0.00    -0.013 C 
ATOM      9  C4' I4B d   1      -0.468  -0.448   2.083  0.00  0.00     0.013 C 
ATOM     10  C3' I4B d   1      -0.527  -1.404  -0.204  0.00  0.00     0.013 C 
ENDBRANCH   7   8
ENDBRANCH   1   7
TORSDOF 2
ENDMDL
