MODEL 1
REMARK minimizedAffinity -3.83987045
REMARK minimizedRMSD -1
REMARK  2 active torsions:
REMARK  status: ('A' for Active; 'I' for Inactive)
REMARK    1  A    between atoms: C2'_3  and  C1'_4 
REMARK    2  A    between atoms: C1'_4  and  C1_5 
ROOT
ATOM      1  C1  I4B d   1       0.361   1.373  -0.370  0.00  0.00    -0.075 A 
ATOM      2  C2  I4B d   1       0.766   0.664   0.733  0.00  0.00     0.003 A 
ATOM      3  C3  I4B d   1       0.704  -0.751   0.732  0.00  0.00     0.002 A 
ATOM      4  C4  I4B d   1       0.188  -1.408  -0.365  0.00  0.00    -0.004 A 
ATOM      5  C5  I4B d   1      -0.201  -0.689  -1.492  0.00  0.00     0.002 A 
ATOM      6  C6  I4B d   1      -0.102   0.710  -1.499  0.00  0.00     0.003 A 
ENDROOT
BRANCH   1   7
ATOM      7  C1' I4B d   1       0.409   2.868  -0.323  0.00  0.00     0.060 C 
BRANCH   7   8
ATOM      8  C2' I4B d   1       1.857   3.284  -0.163  0.00  0.00    -0.013 C 
ATOM      9  C4' I4B d   1       2.344   4.040  -1.370  0.00  0.00     0.013 C 
ATOM     10  C3' I4B d   1       1.963   4.119   1.079  0.00  0.00     0.013 C 
ENDBRANCH   7   8
ENDBRANCH   1   7
TORSDOF 2
ENDMDL
