MODEL 1
REMARK minimizedAffinity -3.79342318
REMARK minimizedRMSD -1
REMARK  2 active torsions:
REMARK  status: ('A' for Active; 'I' for Inactive)
REMARK    1  A    between atoms: C2'_3  and  C1'_4 
REMARK    2  A    between atoms: C1'_4  and  C1_5 
ROOT
ATOM      1  C1  I4B d   1       0.082   1.651  -0.363  0.00  0.00    -0.075 A 
ATOM      2  C2  I4B d   1      -0.227   1.203  -1.623  0.00  0.00     0.003 A 
ATOM      3  C3  I4B d   1      -0.373  -0.183  -1.871  0.00  0.00     0.002 A 
ATOM      4  C4  I4B d   1      -0.153  -1.084  -0.848  0.00  0.00    -0.004 A 
ATOM      5  C5  I4B d   1       0.137  -0.627   0.434  0.00  0.00     0.002 A 
ATOM      6  C6  I4B d   1       0.244   0.750   0.682  0.00  0.00     0.003 A 
ENDROOT
BRANCH   1   7
ATOM      7  C1' I4B d   1       0.261   3.120  -0.143  0.00  0.00     0.060 C 
BRANCH   7   8
ATOM      8  C2' I4B d   1       1.615   3.333   0.503  0.00  0.00    -0.013 C 
ATOM      9  C4' I4B d   1       2.658   3.694  -0.522  0.00  0.00     0.013 C 
ATOM     10  C3' I4B d   1       1.471   4.414   1.532  0.00  0.00     0.013 C 
ENDBRANCH   7   8
ENDBRANCH   1   7
TORSDOF 2
ENDMDL
