MODEL 1
REMARK minimizedAffinity 4.59463167
REMARK minimizedRMSD -1
REMARK  0 active torsions:
REMARK  status: ('A' for Active; 'I' for Inactive)
ROOT
ATOM      1  C   UNL d   1       0.850   2.361   0.499  0.00  0.00     0.172 C 
ATOM      2  N   UNL d   1       0.457   1.087  -0.054  0.00  0.00    -0.070 N 
ATOM      3  C1  UNL d   1      -0.713   0.832  -0.718  0.00  0.00    -0.004 A 
ATOM      4  C2  UNL d   1      -0.709  -0.497  -1.086  0.00  0.00    -0.047 A 
ATOM      5  C3  UNL d   1       0.505  -1.060  -0.627  0.00  0.00    -0.047 A 
ATOM      6  C4  UNL d   1       1.208  -0.057   0.009  0.00  0.00    -0.004 A 
ENDROOT
TORSDOF 0
ENDMDL
