MODEL 1
REMARK minimizedAffinity 3.52868319
REMARK minimizedRMSD -1
REMARK  0 active torsions:
REMARK  status: ('A' for Active; 'I' for Inactive)
ROOT
ATOM      1  C   UNL d   1       0.889   2.393   0.012  0.00  0.00     0.172 C 
ATOM      2  N   UNL d   1       0.427   1.025   0.026  0.00  0.00    -0.070 N 
ATOM      3  C1  UNL d   1      -0.228   0.414   1.061  0.00  0.00    -0.004 A 
ATOM      4  C2  UNL d   1      -0.496  -0.884   0.684  0.00  0.00    -0.047 A 
ATOM      5  C3  UNL d   1       0.017  -1.059  -0.624  0.00  0.00    -0.047 A 
ATOM      6  C4  UNL d   1       0.583   0.138  -1.007  0.00  0.00    -0.004 A 
ENDROOT
TORSDOF 0
ENDMDL
