MODEL 1
REMARK minimizedAffinity 3.83708143
REMARK minimizedRMSD -1
REMARK  0 active torsions:
REMARK  status: ('A' for Active; 'I' for Inactive)
ROOT
ATOM      1  C   UNL d   1       1.458  -0.797   1.767  0.00  0.00     0.172 C 
ATOM      2  N   UNL d   1       0.446  -0.870   0.740  0.00  0.00    -0.070 N 
ATOM      3  C1  UNL d   1      -0.760  -1.509   0.851  0.00  0.00    -0.004 A 
ATOM      4  C2  UNL d   1      -1.434  -1.348  -0.341  0.00  0.00    -0.047 A 
ATOM      5  C3  UNL d   1      -0.603  -0.588  -1.198  0.00  0.00    -0.047 A 
ATOM      6  C4  UNL d   1       0.554  -0.305  -0.504  0.00  0.00    -0.004 A 
ENDROOT
TORSDOF 0
ENDMDL
