MODEL 1
REMARK minimizedAffinity 1.14087975
REMARK minimizedRMSD -1
REMARK  0 active torsions:
REMARK  status: ('A' for Active; 'I' for Inactive)
ROOT
ATOM      1  C   UNL d   1       0.521   1.693   0.551  0.00  0.00     0.172 C 
ATOM      2  N   UNL d   1       0.392   0.385  -0.048  0.00  0.00    -0.070 N 
ATOM      3  C1  UNL d   1      -0.674  -0.054  -0.786  0.00  0.00    -0.004 A 
ATOM      4  C2  UNL d   1      -0.413  -1.350  -1.175  0.00  0.00    -0.047 A 
ATOM      5  C3  UNL d   1       0.854  -1.702  -0.652  0.00  0.00    -0.047 A 
ATOM      6  C4  UNL d   1       1.330  -0.610   0.042  0.00  0.00    -0.004 A 
ENDROOT
TORSDOF 0
ENDMDL
