MODEL 1
REMARK minimizedAffinity 6.48231173
REMARK minimizedRMSD -1
REMARK  0 active torsions:
REMARK  status: ('A' for Active; 'I' for Inactive)
ROOT
ATOM      1  C   UNL d   1       0.684   0.870   0.606  0.00  0.00     0.172 C 
ATOM      2  N   UNL d   1      -0.087  -0.075  -0.167  0.00  0.00    -0.070 N 
ATOM      3  C1  UNL d   1       0.223  -1.396  -0.353  0.00  0.00    -0.004 A 
ATOM      4  C2  UNL d   1      -0.757  -1.952  -1.146  0.00  0.00    -0.047 A 
ATOM      5  C3  UNL d   1      -1.689  -0.930  -1.447  0.00  0.00    -0.047 A 
ATOM      6  C4  UNL d   1      -1.250   0.221  -0.828  0.00  0.00    -0.004 A 
ENDROOT
TORSDOF 0
ENDMDL
