MODEL 1
REMARK minimizedAffinity 3.37586784
REMARK minimizedRMSD -1
REMARK  0 active torsions:
REMARK  status: ('A' for Active; 'I' for Inactive)
ROOT
ATOM      1  C   UNL d   1       2.236  -2.648  -0.361  0.00  0.00     0.172 C 
ATOM      2  N   UNL d   1       0.957  -2.048  -0.658  0.00  0.00    -0.070 N 
ATOM      3  C1  UNL d   1       0.640  -0.725  -0.505  0.00  0.00    -0.004 A 
ATOM      4  C2  UNL d   1      -0.671  -0.556  -0.896  0.00  0.00    -0.047 A 
ATOM      5  C3  UNL d   1      -1.159  -1.823  -1.297  0.00  0.00    -0.047 A 
ATOM      6  C4  UNL d   1      -0.131  -2.728  -1.140  0.00  0.00    -0.004 A 
ENDROOT
TORSDOF 0
ENDMDL
