MODEL 1
REMARK minimizedAffinity 1.539868
REMARK minimizedRMSD -1
REMARK  0 active torsions:
REMARK  status: ('A' for Active; 'I' for Inactive)
ROOT
ATOM      1  C   UNL d   1       0.622  -1.621  -0.128  0.00  0.00     0.172 C 
ATOM      2  N   UNL d   1       1.829  -0.852  -0.324  0.00  0.00    -0.070 N 
ATOM      3  C1  UNL d   1       2.961  -1.291  -0.958  0.00  0.00    -0.004 A 
ATOM      4  C2  UNL d   1       3.881  -0.265  -0.938  0.00  0.00    -0.047 A 
ATOM      5  C3  UNL d   1       3.282   0.828  -0.267  0.00  0.00    -0.047 A 
ATOM      6  C4  UNL d   1       2.012   0.437   0.102  0.00  0.00    -0.004 A 
ENDROOT
TORSDOF 0
ENDMDL
