MODEL 1
REMARK minimizedAffinity 4.13652086
REMARK minimizedRMSD -1
REMARK  0 active torsions:
REMARK  status: ('A' for Active; 'I' for Inactive)
ROOT
ATOM      1  C   UNL d   1       0.979  -0.772   5.997  0.00  0.00     0.172 C 
ATOM      2  N   UNL d   1       0.211  -1.994   5.995  0.00  0.00    -0.070 N 
ATOM      3  C1  UNL d   1      -1.156  -2.078   6.000  0.00  0.00    -0.004 A 
ATOM      4  C2  UNL d   1      -1.497  -3.414   5.995  0.00  0.00    -0.047 A 
ATOM      5  C3  UNL d   1      -0.293  -4.158   5.988  0.00  0.00    -0.047 A 
ATOM      6  C4  UNL d   1       0.748  -3.254   5.988  0.00  0.00    -0.004 A 
ENDROOT
TORSDOF 0
ENDMDL
