MODEL 1
REMARK minimizedAffinity 2.61886311
REMARK minimizedRMSD -1
REMARK  0 active torsions:
REMARK  status: ('A' for Active; 'I' for Inactive)
ROOT
ATOM      1  C   UNL d   1       1.274  -1.970  -0.686  0.00  0.00     0.172 C 
ATOM      2  N   UNL d   1       2.505  -1.500  -1.275  0.00  0.00    -0.070 N 
ATOM      3  C1  UNL d   1       3.049  -0.255  -1.102  0.00  0.00    -0.004 A 
ATOM      4  C2  UNL d   1       4.219  -0.201  -1.826  0.00  0.00    -0.047 A 
ATOM      5  C3  UNL d   1       4.385  -1.457  -2.458  0.00  0.00    -0.047 A 
ATOM      6  C4  UNL d   1       3.309  -2.241  -2.100  0.00  0.00    -0.004 A 
ENDROOT
TORSDOF 0
ENDMDL
