MODEL 1
REMARK minimizedAffinity -1.27416694
REMARK minimizedRMSD -1
REMARK  0 active torsions:
REMARK  status: ('A' for Active; 'I' for Inactive)
ROOT
ATOM      1  C   UNL d   1       0.349   1.972   0.042  0.00  0.00     0.172 C 
ATOM      2  N   UNL d   1       0.427   0.541  -0.137  0.00  0.00    -0.070 N 
ATOM      3  C1  UNL d   1       1.446  -0.263   0.300  0.00  0.00    -0.004 A 
ATOM      4  C2  UNL d   1       1.148  -1.558  -0.065  0.00  0.00    -0.047 A 
ATOM      5  C3  UNL d   1      -0.093  -1.531  -0.745  0.00  0.00    -0.047 A 
ATOM      6  C4  UNL d   1      -0.516  -0.219  -0.775  0.00  0.00    -0.004 A 
ENDROOT
TORSDOF 0
ENDMDL
