MODEL 1
REMARK minimizedAffinity 4.99015903
REMARK minimizedRMSD -1
REMARK  0 active torsions:
REMARK  status: ('A' for Active; 'I' for Inactive)
ROOT
ATOM      1  C   UNL d   1       0.869  -2.492   4.161  0.00  0.00     0.172 C 
ATOM      2  N   UNL d   1       0.922  -1.060   4.338  0.00  0.00    -0.070 N 
ATOM      3  C1  UNL d   1       0.231  -0.138   3.600  0.00  0.00    -0.004 A 
ATOM      4  C2  UNL d   1       0.553   1.114   4.079  0.00  0.00    -0.047 A 
ATOM      5  C3  UNL d   1       1.470   0.937   5.142  0.00  0.00    -0.047 A 
ATOM      6  C4  UNL d   1       1.681  -0.418   5.281  0.00  0.00    -0.004 A 
ENDROOT
TORSDOF 0
ENDMDL
