MODEL 1
REMARK minimizedAffinity 4.70998716
REMARK minimizedRMSD -1
REMARK  0 active torsions:
REMARK  status: ('A' for Active; 'I' for Inactive)
ROOT
ATOM      1  O1  BZF d   1      -3.259   4.149  -3.940  0.00  0.00    -0.204 OA
ATOM      2  C2  BZF d   1      -3.704   3.199  -3.042  0.00  0.00     0.174 A 
ATOM      3  C3  BZF d   1      -2.795   2.213  -2.898  0.00  0.00    -0.012 A 
ATOM      4  C3A BZF d   1      -1.674   2.617  -3.691  0.00  0.00    -0.107 A 
ATOM      5  C4  BZF d   1      -0.452   2.061  -3.940  0.00  0.00     0.055 A 
ATOM      6  C5  BZF d   1       0.385   2.673  -4.819  0.00  0.00    -0.016 A 
ATOM      7  C6  BZF d   1       0.030   3.837  -5.469  0.00  0.00     0.022 A 
ATOM      8  C7  BZF d   1      -1.170   4.428  -5.251  0.00  0.00     0.029 A 
ATOM      9  C7A BZF d   1      -2.004   3.830  -4.338  0.00  0.00     0.058 A 
ENDROOT
TORSDOF 0
ENDMDL
