MODEL 1
REMARK minimizedAffinity 9.25779629
REMARK minimizedRMSD -1
REMARK  0 active torsions:
REMARK  status: ('A' for Active; 'I' for Inactive)
ROOT
ATOM      1  O1  BZF d   1      -1.555   3.606  -3.157  0.00  0.00    -0.204 OA
ATOM      2  C2  BZF d   1      -2.237   3.030  -4.211  0.00  0.00     0.174 A 
ATOM      3  C3  BZF d   1      -3.271   2.289  -3.764  0.00  0.00    -0.012 A 
ATOM      4  C3A BZF d   1      -3.290   2.485  -2.347  0.00  0.00    -0.107 A 
ATOM      5  C4  BZF d   1      -4.096   2.024  -1.346  0.00  0.00     0.055 A 
ATOM      6  C5  BZF d   1      -3.799   2.344  -0.059  0.00  0.00    -0.016 A 
ATOM      7  C6  BZF d   1      -2.704   3.117   0.263  0.00  0.00     0.022 A 
ATOM      8  C7  BZF d   1      -1.878   3.602  -0.696  0.00  0.00     0.029 A 
ATOM      9  C7A BZF d   1      -2.193   3.308  -2.000  0.00  0.00     0.058 A 
ENDROOT
TORSDOF 0
ENDMDL
