MODEL 1
REMARK minimizedAffinity 2.81326175
REMARK minimizedRMSD -1
REMARK  0 active torsions:
REMARK  status: ('A' for Active; 'I' for Inactive)
ROOT
ATOM      1  O1  BZF d   1       1.400  -3.844  -0.021  0.00  0.00    -0.204 OA
ATOM      2  C2  BZF d   1       2.508  -3.058  -0.270  0.00  0.00     0.174 A 
ATOM      3  C3  BZF d   1       2.358  -1.833   0.274  0.00  0.00    -0.012 A 
ATOM      4  C3A BZF d   1       1.116  -1.885   0.982  0.00  0.00    -0.107 A 
ATOM      5  C4  BZF d   1       0.428  -0.981   1.740  0.00  0.00     0.055 A 
ATOM      6  C5  BZF d   1      -0.792  -1.322   2.230  0.00  0.00    -0.016 A 
ATOM      7  C6  BZF d   1      -1.357  -2.556   1.978  0.00  0.00     0.022 A 
ATOM      8  C7  BZF d   1      -0.710  -3.488   1.236  0.00  0.00     0.029 A 
ATOM      9  C7A BZF d   1       0.538  -3.157   0.767  0.00  0.00     0.058 A 
ENDROOT
TORSDOF 0
ENDMDL
