MODEL 1
REMARK minimizedAffinity 6.3108654
REMARK minimizedRMSD -1
REMARK  0 active torsions:
REMARK  status: ('A' for Active; 'I' for Inactive)
ROOT
ATOM      1  O1  BZF d   1      -1.037  -3.317   0.285  0.00  0.00    -0.204 OA
ATOM      2  C2  BZF d   1      -1.586  -3.272   1.552  0.00  0.00     0.174 A 
ATOM      3  C3  BZF d   1      -0.620  -3.276   2.493  0.00  0.00    -0.012 A 
ATOM      4  C3A BZF d   1       0.612  -3.233   1.767  0.00  0.00    -0.107 A 
ATOM      5  C4  BZF d   1       1.924  -3.201   2.145  0.00  0.00     0.055 A 
ATOM      6  C5  BZF d   1       2.888  -3.237   1.187  0.00  0.00    -0.016 A 
ATOM      7  C6  BZF d   1       2.577  -3.310  -0.154  0.00  0.00     0.022 A 
ATOM      8  C7  BZF d   1       1.290  -3.339  -0.578  0.00  0.00     0.029 A 
ATOM      9  C7A BZF d   1       0.313  -3.269   0.385  0.00  0.00     0.058 A 
ENDROOT
TORSDOF 0
ENDMDL
