MODEL 1
REMARK minimizedAffinity 3.57915187
REMARK minimizedRMSD -1
REMARK  0 active torsions:
REMARK  status: ('A' for Active; 'I' for Inactive)
ROOT
ATOM      1  O1  BZF d   1      -0.008   2.535  -5.004  0.00  0.00    -0.204 OA
ATOM      2  C2  BZF d   1       0.353   3.478  -5.947  0.00  0.00     0.174 A 
ATOM      3  C3  BZF d   1      -0.555   4.473  -6.000  0.00  0.00    -0.012 A 
ATOM      4  C3A BZF d   1      -1.498   4.178  -4.965  0.00  0.00    -0.107 A 
ATOM      5  C4  BZF d   1      -2.623   4.806  -4.513  0.00  0.00     0.055 A 
ATOM      6  C5  BZF d   1      -3.360   4.218  -3.534  0.00  0.00    -0.016 A 
ATOM      7  C6  BZF d   1      -3.005   3.001  -2.990  0.00  0.00     0.022 A 
ATOM      8  C7  BZF d   1      -1.895   2.343  -3.403  0.00  0.00     0.029 A 
ATOM      9  C7A BZF d   1      -1.130   2.950  -4.368  0.00  0.00     0.058 A 
ENDROOT
TORSDOF 0
ENDMDL
