MODEL 1
REMARK minimizedAffinity -1.67135072
REMARK minimizedRMSD -1
REMARK  0 active torsions:
REMARK  status: ('A' for Active; 'I' for Inactive)
ROOT
ATOM      1  O1  BZF d   1       0.507  -3.485   0.528  0.00  0.00    -0.204 OA
ATOM      2  C2  BZF d   1       1.841  -3.478   0.169  0.00  0.00     0.174 A 
ATOM      3  C3  BZF d   1       2.381  -2.257   0.359  0.00  0.00    -0.012 A 
ATOM      4  C3A BZF d   1       1.342  -1.474   0.956  0.00  0.00    -0.107 A 
ATOM      5  C4  BZF d   1       1.273  -0.183   1.393  0.00  0.00     0.055 A 
ATOM      6  C5  BZF d   1       0.089   0.295   1.859  0.00  0.00    -0.016 A 
ATOM      7  C6  BZF d   1      -1.046  -0.489   1.896  0.00  0.00     0.022 A 
ATOM      8  C7  BZF d   1      -1.025  -1.778   1.478  0.00  0.00     0.029 A 
ATOM      9  C7A BZF d   1       0.178  -2.273   1.038  0.00  0.00     0.058 A 
ENDROOT
TORSDOF 0
ENDMDL
