MODEL 1
REMARK minimizedAffinity 1.12903821
REMARK minimizedRMSD -1
REMARK  0 active torsions:
REMARK  status: ('A' for Active; 'I' for Inactive)
ROOT
ATOM      1  O1  BZF d   1      -1.502   3.979  -4.927  0.00  0.00    -0.204 OA
ATOM      2  C2  BZF d   1      -0.412   3.218  -5.300  0.00  0.00     0.174 A 
ATOM      3  C3  BZF d   1      -0.489   1.979  -4.772  0.00  0.00    -0.012 A 
ATOM      4  C3A BZF d   1      -1.750   1.937  -4.097  0.00  0.00    -0.107 A 
ATOM      5  C4  BZF d   1      -2.405   0.968  -3.391  0.00  0.00     0.055 A 
ATOM      6  C5  BZF d   1      -3.589   1.270  -2.797  0.00  0.00    -0.016 A 
ATOM      7  C6  BZF d   1      -4.144   2.530  -2.883  0.00  0.00     0.022 A 
ATOM      8  C7  BZF d   1      -3.534   3.522  -3.577  0.00  0.00     0.029 A 
ATOM      9  C7A BZF d   1      -2.354   3.211  -4.206  0.00  0.00     0.058 A 
ENDROOT
TORSDOF 0
ENDMDL
