MODEL 1
REMARK minimizedAffinity 9.6040287
REMARK minimizedRMSD -1
REMARK  0 active torsions:
REMARK  status: ('A' for Active; 'I' for Inactive)
ROOT
ATOM      1  O1  BZF d   1       1.489  -3.837  -0.385  0.00  0.00    -0.204 OA
ATOM      2  C2  BZF d   1       2.675  -3.144  -0.236  0.00  0.00     0.174 A 
ATOM      3  C3  BZF d   1       2.528  -2.128   0.638  0.00  0.00    -0.012 A 
ATOM      4  C3A BZF d   1       1.190  -2.245   1.131  0.00  0.00    -0.107 A 
ATOM      5  C4  BZF d   1       0.458  -1.534   2.038  0.00  0.00     0.055 A 
ATOM      6  C5  BZF d   1      -0.844  -1.863   2.240  0.00  0.00    -0.016 A 
ATOM      7  C6  BZF d   1      -1.448  -2.893   1.549  0.00  0.00     0.022 A 
ATOM      8  C7  BZF d   1      -0.761  -3.631   0.642  0.00  0.00     0.029 A 
ATOM      9  C7A BZF d   1       0.565  -3.321   0.461  0.00  0.00     0.058 A 
ENDROOT
TORSDOF 0
ENDMDL
