MODEL 1
REMARK minimizedAffinity 3.09605789
REMARK minimizedRMSD -1
REMARK  0 active torsions:
REMARK  status: ('A' for Active; 'I' for Inactive)
ROOT
ATOM      1  O1  BZF d   1      -1.369   1.100  -4.122  0.00  0.00    -0.204 OA
ATOM      2  C2  BZF d   1      -0.806  -0.093  -3.711  0.00  0.00     0.174 A 
ATOM      3  C3  BZF d   1       0.468  -0.194  -4.142  0.00  0.00    -0.012 A 
ATOM      4  C3A BZF d   1       0.746   1.052  -4.789  0.00  0.00    -0.107 A 
ATOM      5  C4  BZF d   1       1.852   1.563  -5.406  0.00  0.00     0.055 A 
ATOM      6  C5  BZF d   1       1.772   2.783  -6.000  0.00  0.00    -0.016 A 
ATOM      7  C6  BZF d   1       0.604   3.516  -6.000  0.00  0.00     0.022 A 
ATOM      8  C7  BZF d   1      -0.518   3.052  -5.396  0.00  0.00     0.029 A 
ATOM      9  C7A BZF d   1      -0.431   1.835  -4.766  0.00  0.00     0.058 A 
ENDROOT
TORSDOF 0
ENDMDL
