MODEL 1
REMARK minimizedAffinity 0.848213017
REMARK minimizedRMSD -1
REMARK  0 active torsions:
REMARK  status: ('A' for Active; 'I' for Inactive)
ROOT
ATOM      1  C   UNL d   1       0.709  -1.549   1.159  0.00  0.00     0.023 A 
ATOM      2  C1  UNL d   1       1.070  -1.074   2.420  0.00  0.00     0.003 A 
ATOM      3  C2  UNL d   1       1.607  -1.946   3.369  0.00  0.00     0.048 A 
ATOM      4  C3  UNL d   1       1.782  -3.292   3.050  0.00  0.00     0.023 A 
ATOM      5  C4  UNL d   1       1.423  -3.772   1.789  0.00  0.00     0.048 A 
ATOM      6  C5  UNL d   1       0.886  -2.896   0.844  0.00  0.00     0.003 A 
ATOM      7  I   UNL d   1       2.581  -4.593   4.460  0.00  0.00    -0.146 I 
ENDROOT
TORSDOF 0
ENDMDL
