MODEL 1
REMARK minimizedAffinity 5.9093523
REMARK minimizedRMSD -1
REMARK  0 active torsions:
REMARK  status: ('A' for Active; 'I' for Inactive)
ROOT
ATOM      1  C   UNL d   1       2.001  -0.759   4.194  0.00  0.00     0.023 A 
ATOM      2  C1  UNL d   1       1.570  -2.083   4.109  0.00  0.00     0.003 A 
ATOM      3  C2  UNL d   1       1.124  -2.596   2.889  0.00  0.00     0.048 A 
ATOM      4  C3  UNL d   1       1.112  -1.780   1.759  0.00  0.00     0.023 A 
ATOM      5  C4  UNL d   1       1.543  -0.455   1.839  0.00  0.00     0.048 A 
ATOM      6  C5  UNL d   1       1.987   0.054   3.061  0.00  0.00     0.003 A 
ATOM      7  I   UNL d   1       0.450  -2.542  -0.058  0.00  0.00    -0.146 I 
ENDROOT
TORSDOF 0
ENDMDL
