MODEL 1
REMARK minimizedAffinity 3.97681046
REMARK minimizedRMSD -1
REMARK  0 active torsions:
REMARK  status: ('A' for Active; 'I' for Inactive)
ROOT
ATOM      1  C   UNL d   1      -4.842   2.240   1.873  0.00  0.00     0.023 A 
ATOM      2  C1  UNL d   1      -3.716   2.844   1.313  0.00  0.00     0.003 A 
ATOM      3  C2  UNL d   1      -3.551   2.867  -0.073  0.00  0.00     0.048 A 
ATOM      4  C3  UNL d   1      -4.517   2.285  -0.894  0.00  0.00     0.023 A 
ATOM      5  C4  UNL d   1      -5.645   1.680  -0.338  0.00  0.00     0.048 A 
ATOM      6  C5  UNL d   1      -5.805   1.659   1.049  0.00  0.00     0.003 A 
ATOM      7  I   UNL d   1      -4.274   2.317  -2.958  0.00  0.00    -0.146 I 
ENDROOT
TORSDOF 0
ENDMDL
