MODEL 1
REMARK minimizedAffinity 2.02227926
REMARK minimizedRMSD -1
REMARK  0 active torsions:
REMARK  status: ('A' for Active; 'I' for Inactive)
ROOT
ATOM      1  C   UNL d   1      -3.684   3.753   1.907  0.00  0.00     0.023 A 
ATOM      2  C1  UNL d   1      -4.958   4.135   1.484  0.00  0.00     0.003 A 
ATOM      3  C2  UNL d   1      -5.623   3.390   0.509  0.00  0.00     0.048 A 
ATOM      4  C3  UNL d   1      -5.011   2.263  -0.039  0.00  0.00     0.023 A 
ATOM      5  C4  UNL d   1      -3.737   1.877   0.382  0.00  0.00     0.048 A 
ATOM      6  C5  UNL d   1      -3.075   2.625   1.357  0.00  0.00     0.003 A 
ATOM      7  I   UNL d   1      -6.000   1.153  -1.491  0.00  0.00    -0.146 I 
ENDROOT
TORSDOF 0
ENDMDL
