MODEL 1
REMARK minimizedAffinity 13.8826809
REMARK minimizedRMSD -1
REMARK  0 active torsions:
REMARK  status: ('A' for Active; 'I' for Inactive)
ROOT
ATOM      1  C   UNL d   1       1.625  -0.915   3.253  0.00  0.00     0.023 A 
ATOM      2  C1  UNL d   1       1.613  -2.306   3.154  0.00  0.00     0.003 A 
ATOM      3  C2  UNL d   1       1.421  -2.917   1.914  0.00  0.00     0.048 A 
ATOM      4  C3  UNL d   1       1.243  -2.131   0.776  0.00  0.00     0.023 A 
ATOM      5  C4  UNL d   1       1.255  -0.739   0.870  0.00  0.00     0.048 A 
ATOM      6  C5  UNL d   1       1.447  -0.132   2.112  0.00  0.00     0.003 A 
ATOM      7  I   UNL d   1       0.957  -3.039  -1.072  0.00  0.00    -0.146 I 
ENDROOT
TORSDOF 0
ENDMDL
