MODEL 1
REMARK minimizedAffinity 1.98334992
REMARK minimizedRMSD -1
REMARK  0 active torsions:
REMARK  status: ('A' for Active; 'I' for Inactive)
ROOT
ATOM      1  C   UNL d   1      -3.618   4.118   2.058  0.00  0.00     0.023 A 
ATOM      2  C1  UNL d   1      -4.927   4.525   1.797  0.00  0.00     0.003 A 
ATOM      3  C2  UNL d   1      -5.610   4.015   0.691  0.00  0.00     0.048 A 
ATOM      4  C3  UNL d   1      -4.980   3.098  -0.149  0.00  0.00     0.023 A 
ATOM      5  C4  UNL d   1      -3.671   2.687   0.109  0.00  0.00     0.048 A 
ATOM      6  C5  UNL d   1      -2.991   3.200   1.215  0.00  0.00     0.003 A 
ATOM      7  I   UNL d   1      -5.995   2.337  -1.795  0.00  0.00    -0.146 I 
ENDROOT
TORSDOF 0
ENDMDL
