MODEL 1
REMARK minimizedAffinity -5.3181982
REMARK minimizedRMSD -1
REMARK  1 active torsions:
REMARK  status: ('A' for Active; 'I' for Inactive)
REMARK    1  A    between atoms: C1_2  and  C2_3 
ROOT
ATOM      1  C2  UNL d   1      -2.547   2.101   3.638  0.00  0.00    -0.077 A 
ATOM      2  C3  UNL d   1      -1.770   1.350   2.746  0.00  0.00     0.002 A 
ATOM      3  C4  UNL d   1      -2.379   0.493   1.827  0.00  0.00     0.002 A 
ATOM      4  C5  UNL d   1      -3.768   0.384   1.788  0.00  0.00    -0.004 A 
ATOM      5  C6  UNL d   1      -4.549   1.126   2.673  0.00  0.00     0.002 A 
ATOM      6  C7  UNL d   1      -3.942   1.981   3.593  0.00  0.00     0.002 A 
ENDROOT
BRANCH   1   7
ATOM      7  C1  UNL d   1      -1.894   3.062   4.597  0.00  0.00     0.055 C 
ATOM      8  C   UNL d   1      -2.735   3.250   5.851  0.00  0.00     0.019 C 
ENDBRANCH   1   7
TORSDOF 1
ENDMDL
