MODEL 1
REMARK minimizedAffinity -2.16683626
REMARK minimizedRMSD -1
REMARK  1 active torsions:
REMARK  status: ('A' for Active; 'I' for Inactive)
REMARK    1  A    between atoms: C1_2  and  C2_3 
ROOT
ATOM      1  C2  UNL d   1      -0.860   0.076   0.662  0.00  0.00    -0.077 A 
ATOM      2  C3  UNL d   1      -0.032   0.928  -0.083  0.00  0.00     0.002 A 
ATOM      3  C4  UNL d   1       0.720   0.427  -1.148  0.00  0.00     0.002 A 
ATOM      4  C5  UNL d   1       0.649  -0.924  -1.479  0.00  0.00    -0.004 A 
ATOM      5  C6  UNL d   1      -0.170  -1.779  -0.743  0.00  0.00     0.002 A 
ATOM      6  C7  UNL d   1      -0.922  -1.281   0.322  0.00  0.00     0.002 A 
ENDROOT
BRANCH   1   7
ATOM      7  C1  UNL d   1      -1.710   0.623   1.779  0.00  0.00     0.055 C 
ATOM      8  C   UNL d   1      -3.191   0.410   1.503  0.00  0.00     0.019 C 
ENDBRANCH   1   7
TORSDOF 1
ENDMDL
