MODEL 1
REMARK minimizedAffinity -4.20626831
REMARK minimizedRMSD -1
REMARK  1 active torsions:
REMARK  status: ('A' for Active; 'I' for Inactive)
REMARK    1  A    between atoms: C1_2  and  C2_3 
ROOT
ATOM      1  C2  UNL d   1      -0.227  -0.389   0.598  0.00  0.00    -0.077 A 
ATOM      2  C3  UNL d   1       0.294   0.892   0.362  0.00  0.00     0.002 A 
ATOM      3  C4  UNL d   1       0.921   1.188  -0.850  0.00  0.00     0.002 A 
ATOM      4  C5  UNL d   1       1.028   0.211  -1.837  0.00  0.00    -0.004 A 
ATOM      5  C6  UNL d   1       0.515  -1.066  -1.612  0.00  0.00     0.002 A 
ATOM      6  C7  UNL d   1      -0.110  -1.364  -0.401  0.00  0.00     0.002 A 
ENDROOT
BRANCH   1   7
ATOM      7  C1  UNL d   1      -0.946  -0.696   1.885  0.00  0.00     0.055 C 
ATOM      8  C   UNL d   1      -2.215   0.134   2.021  0.00  0.00     0.019 C 
ENDBRANCH   1   7
TORSDOF 1
ENDMDL
