MODEL 1
REMARK minimizedAffinity -3.84618258
REMARK minimizedRMSD -1
REMARK  1 active torsions:
REMARK  status: ('A' for Active; 'I' for Inactive)
REMARK    1  A    between atoms: C1_2  and  C2_3 
ROOT
ATOM      1  C2  UNL d   1      -1.218   0.041   1.553  0.00  0.00    -0.077 A 
ATOM      2  C3  UNL d   1      -2.237  -0.848   1.184  0.00  0.00     0.002 A 
ATOM      3  C4  UNL d   1      -3.524  -0.703   1.707  0.00  0.00     0.002 A 
ATOM      4  C5  UNL d   1      -3.804   0.331   2.597  0.00  0.00    -0.004 A 
ATOM      5  C6  UNL d   1      -2.797   1.219   2.972  0.00  0.00     0.002 A 
ATOM      6  C7  UNL d   1      -1.510   1.075   2.452  0.00  0.00     0.002 A 
ENDROOT
BRANCH   1   7
ATOM      7  C1  UNL d   1       0.158  -0.083   0.953  0.00  0.00     0.055 C 
ATOM      8  C   UNL d   1       0.647   1.251   0.409  0.00  0.00     0.019 C 
ENDBRANCH   1   7
TORSDOF 1
ENDMDL
