MODEL 1
REMARK minimizedAffinity -5.18393135
REMARK minimizedRMSD -1
REMARK  1 active torsions:
REMARK  status: ('A' for Active; 'I' for Inactive)
REMARK    1  A    between atoms: C1_2  and  C2_3 
ROOT
ATOM      1  C2  UNL d   1       0.461  -0.681  -0.754  0.00  0.00    -0.077 A 
ATOM      2  C3  UNL d   1       0.107   0.335   0.146  0.00  0.00     0.002 A 
ATOM      3  C4  UNL d   1      -0.280   0.019   1.450  0.00  0.00     0.002 A 
ATOM      4  C5  UNL d   1      -0.312  -1.310   1.867  0.00  0.00    -0.004 A 
ATOM      5  C6  UNL d   1       0.035  -2.327   0.979  0.00  0.00     0.002 A 
ATOM      6  C7  UNL d   1       0.421  -2.014  -0.326  0.00  0.00     0.002 A 
ENDROOT
BRANCH   1   7
ATOM      7  C1  UNL d   1       0.926  -0.340  -2.146  0.00  0.00     0.055 C 
ATOM      8  C   UNL d   1       2.284   0.345  -2.123  0.00  0.00     0.019 C 
ENDBRANCH   1   7
TORSDOF 1
ENDMDL
