MODEL 1
REMARK minimizedAffinity -3.79422021
REMARK minimizedRMSD -1
REMARK  1 active torsions:
REMARK  status: ('A' for Active; 'I' for Inactive)
REMARK    1  A    between atoms: C1_2  and  C2_3 
ROOT
ATOM      1  C2  UNL d   1      -0.928  -0.720   0.925  0.00  0.00    -0.077 A 
ATOM      2  C3  UNL d   1      -0.590   0.076   2.029  0.00  0.00     0.002 A 
ATOM      3  C4  UNL d   1      -1.585   0.581   2.867  0.00  0.00     0.002 A 
ATOM      4  C5  UNL d   1      -2.924   0.293   2.613  0.00  0.00    -0.004 A 
ATOM      5  C6  UNL d   1      -3.271  -0.496   1.518  0.00  0.00     0.002 A 
ATOM      6  C7  UNL d   1      -2.278  -1.001   0.678  0.00  0.00     0.002 A 
ENDROOT
BRANCH   1   7
ATOM      7  C1  UNL d   1       0.147  -1.306   0.049  0.00  0.00     0.055 C 
ATOM      8  C   UNL d   1       0.007  -0.833  -1.391  0.00  0.00     0.019 C 
ENDBRANCH   1   7
TORSDOF 1
ENDMDL
