MODEL 1
REMARK minimizedAffinity -3.94666767
REMARK minimizedRMSD -1
REMARK  1 active torsions:
REMARK  status: ('A' for Active; 'I' for Inactive)
REMARK    1  A    between atoms: C1_2  and  C2_3 
ROOT
ATOM      1  C2  UNL d   1      -5.159   2.606  -5.801  0.00  0.00    -0.077 A 
ATOM      2  C3  UNL d   1      -3.773   2.504  -5.618  0.00  0.00     0.002 A 
ATOM      3  C4  UNL d   1      -3.002   3.651  -5.417  0.00  0.00     0.002 A 
ATOM      4  C5  UNL d   1      -3.607   4.905  -5.394  0.00  0.00    -0.004 A 
ATOM      5  C6  UNL d   1      -4.985   5.017  -5.577  0.00  0.00     0.002 A 
ATOM      6  C7  UNL d   1      -5.758   3.872  -5.780  0.00  0.00     0.002 A 
ENDROOT
BRANCH   1   7
ATOM      7  C1  UNL d   1      -6.000   1.367  -5.969  0.00  0.00     0.055 C 
ATOM      8  C   UNL d   1      -5.212   0.112  -5.621  0.00  0.00     0.019 C 
ENDBRANCH   1   7
TORSDOF 1
ENDMDL
