MODEL 1
REMARK minimizedAffinity 1.76518583
REMARK minimizedRMSD -1
REMARK  1 active torsions:
REMARK  status: ('A' for Active; 'I' for Inactive)
REMARK    1  A    between atoms: C1_2  and  C2_3 
ROOT
ATOM      1  C2  UNL d   1       1.898   0.379  -0.410  0.00  0.00    -0.077 A 
ATOM      2  C3  UNL d   1       0.641  -0.074   0.013  0.00  0.00     0.002 A 
ATOM      3  C4  UNL d   1       0.107   0.356   1.229  0.00  0.00     0.002 A 
ATOM      4  C5  UNL d   1       0.821   1.246   2.029  0.00  0.00    -0.004 A 
ATOM      5  C6  UNL d   1       2.073   1.701   1.618  0.00  0.00     0.002 A 
ATOM      6  C7  UNL d   1       2.609   1.271   0.404  0.00  0.00     0.002 A 
ENDROOT
BRANCH   1   7
ATOM      7  C1  UNL d   1       2.454  -0.046  -1.744  0.00  0.00     0.055 C 
ATOM      8  C   UNL d   1       2.325   1.065  -2.777  0.00  0.00     0.019 C 
ENDBRANCH   1   7
TORSDOF 1
ENDMDL
