MODEL 1
REMARK minimizedAffinity -1.6918608
REMARK minimizedRMSD -1
REMARK  1 active torsions:
REMARK  status: ('A' for Active; 'I' for Inactive)
REMARK    1  A    between atoms: C1_2  and  C2_3 
ROOT
ATOM      1  C2  UNL d   1      -4.519   3.042  -5.962  0.00  0.00    -0.077 A 
ATOM      2  C3  UNL d   1      -3.292   2.366  -5.903  0.00  0.00     0.002 A 
ATOM      3  C4  UNL d   1      -2.096   3.081  -5.821  0.00  0.00     0.002 A 
ATOM      4  C5  UNL d   1      -2.115   4.474  -5.794  0.00  0.00    -0.004 A 
ATOM      5  C6  UNL d   1      -3.330   5.155  -5.854  0.00  0.00     0.002 A 
ATOM      6  C7  UNL d   1      -4.527   4.442  -5.937  0.00  0.00     0.002 A 
ENDROOT
BRANCH   1   7
ATOM      7  C1  UNL d   1      -5.813   2.272  -6.000  0.00  0.00     0.055 C 
ATOM      8  C   UNL d   1      -5.565   0.770  -5.997  0.00  0.00     0.019 C 
ENDBRANCH   1   7
TORSDOF 1
ENDMDL
