MODEL 1
REMARK minimizedAffinity -2.99909163
REMARK minimizedRMSD -1
REMARK  1 active torsions:
REMARK  status: ('A' for Active; 'I' for Inactive)
REMARK    1  A    between atoms: C1_2  and  C2_3 
ROOT
ATOM      1  C2  UNL d   1      -4.603   2.361  -5.870  0.00  0.00    -0.077 A 
ATOM      2  C3  UNL d   1      -3.223   2.303  -5.632  0.00  0.00     0.002 A 
ATOM      3  C4  UNL d   1      -2.484   3.477  -5.473  0.00  0.00     0.002 A 
ATOM      4  C5  UNL d   1      -3.118   4.716  -5.545  0.00  0.00    -0.004 A 
ATOM      5  C6  UNL d   1      -4.490   4.784  -5.782  0.00  0.00     0.002 A 
ATOM      6  C7  UNL d   1      -5.230   3.611  -5.943  0.00  0.00     0.002 A 
ENDROOT
BRANCH   1   7
ATOM      7  C1  UNL d   1      -5.410   1.094  -5.993  0.00  0.00     0.055 C 
ATOM      8  C   UNL d   1      -4.513  -0.135  -5.991  0.00  0.00     0.019 C 
ENDBRANCH   1   7
TORSDOF 1
ENDMDL
