MODEL 1
REMARK minimizedAffinity -4.72722197
REMARK minimizedRMSD -1
REMARK  1 active torsions:
REMARK  status: ('A' for Active; 'I' for Inactive)
REMARK    1  A    between atoms: C1_2  and  C2_3 
ROOT
ATOM      1  C2  UNL d   1       1.053   0.272  -1.227  0.00  0.00    -0.077 A 
ATOM      2  C3  UNL d   1       0.693   1.106  -0.159  0.00  0.00     0.002 A 
ATOM      3  C4  UNL d   1      -0.404   0.790   0.646  0.00  0.00     0.002 A 
ATOM      4  C5  UNL d   1      -1.146  -0.361   0.394  0.00  0.00    -0.004 A 
ATOM      5  C6  UNL d   1      -0.798  -1.196  -0.667  0.00  0.00     0.002 A 
ATOM      6  C7  UNL d   1       0.297  -0.882  -1.473  0.00  0.00     0.002 A 
ENDROOT
BRANCH   1   7
ATOM      7  C1  UNL d   1       2.264   0.584  -2.065  0.00  0.00     0.055 C 
ATOM      8  C   UNL d   1       3.548   0.423  -1.264  0.00  0.00     0.019 C 
ENDBRANCH   1   7
TORSDOF 1
ENDMDL
