MODEL 1
REMARK minimizedAffinity -5.92179823
REMARK minimizedRMSD -1
REMARK  1 active torsions:
REMARK  status: ('A' for Active; 'I' for Inactive)
REMARK    1  A    between atoms: C1_2  and  C2_3 
ROOT
ATOM      1  C2  UNL d   1       0.696  -0.049  -0.613  0.00  0.00    -0.077 A 
ATOM      2  C3  UNL d   1       0.470  -1.426  -0.747  0.00  0.00     0.002 A 
ATOM      3  C4  UNL d   1       1.156  -2.164  -1.713  0.00  0.00     0.002 A 
ATOM      4  C5  UNL d   1       2.076  -1.535  -2.549  0.00  0.00    -0.004 A 
ATOM      5  C6  UNL d   1       2.307  -0.165  -2.425  0.00  0.00     0.002 A 
ATOM      6  C7  UNL d   1       1.621   0.574  -1.461  0.00  0.00     0.002 A 
ENDROOT
BRANCH   1   7
ATOM      7  C1  UNL d   1      -0.007   0.739   0.461  0.00  0.00     0.055 C 
ATOM      8  C   UNL d   1      -0.907  -0.154   1.303  0.00  0.00     0.019 C 
ENDBRANCH   1   7
TORSDOF 1
ENDMDL
