MODEL 1
REMARK minimizedAffinity -5.19823408
REMARK minimizedRMSD -1
REMARK  1 active torsions:
REMARK  status: ('A' for Active; 'I' for Inactive)
REMARK    1  A    between atoms: C1_2  and  C2_3 
ROOT
ATOM      1  C2  UNL d   1       0.691   0.342  -0.305  0.00  0.00    -0.077 A 
ATOM      2  C3  UNL d   1       0.328  -0.850  -0.948  0.00  0.00     0.002 A 
ATOM      3  C4  UNL d   1       1.000  -1.265  -2.099  0.00  0.00     0.002 A 
ATOM      4  C5  UNL d   1       2.042  -0.496  -2.614  0.00  0.00    -0.004 A 
ATOM      5  C6  UNL d   1       2.409   0.692  -1.983  0.00  0.00     0.002 A 
ATOM      6  C7  UNL d   1       1.738   1.109  -0.833  0.00  0.00     0.002 A 
ENDROOT
BRANCH   1   7
ATOM      7  C1  UNL d   1      -0.000   0.766   0.965  0.00  0.00     0.055 C 
ATOM      8  C   UNL d   1      -1.448   0.297   0.990  0.00  0.00     0.019 C 
ENDBRANCH   1   7
TORSDOF 1
ENDMDL
