MODEL 1
REMARK minimizedAffinity -4.16691732
REMARK minimizedRMSD -1
REMARK  1 active torsions:
REMARK  status: ('A' for Active; 'I' for Inactive)
REMARK    1  A    between atoms: C1_2  and  C2_3 
ROOT
ATOM      1  C2  UNL d   1       0.382   0.068  -0.163  0.00  0.00    -0.076 A 
ATOM      2  C3  UNL d   1       0.552  -0.390   1.155  0.00  0.00     0.004 A 
ATOM      3  C4  UNL d   1       0.169   0.394   2.242  0.00  0.00    -0.003 A 
ATOM      4  C5  UNL d   1      -0.391   1.649   2.028  0.00  0.00     0.000 A 
ATOM      5  C6  UNL d   1      -0.584   2.112   0.727  0.00  0.00     0.000 A 
ATOM      6  C7  UNL d   1      -0.218   1.327  -0.380  0.00  0.00    -0.073 A 
ATOM      7  C8  UNL d   1      -0.442   1.878  -1.762  0.00  0.00     0.078 C 
ENDROOT
BRANCH   1   8
ATOM      8  C1  UNL d   1       0.841  -0.815  -1.302  0.00  0.00     0.053 C 
ATOM      9  C   UNL d   1       0.550  -2.287  -1.052  0.00  0.00     0.018 C 
ENDBRANCH   1   8
TORSDOF 1
ENDMDL
