MODEL 1
REMARK minimizedAffinity -1.40014327
REMARK minimizedRMSD -1
REMARK  1 active torsions:
REMARK  status: ('A' for Active; 'I' for Inactive)
REMARK    1  A    between atoms: C1_2  and  C2_3 
ROOT
ATOM      1  C2  UNL d   1       0.136   0.605   0.395  0.00  0.00    -0.076 A 
ATOM      2  C3  UNL d   1       0.986   0.358  -0.697  0.00  0.00     0.004 A 
ATOM      3  C4  UNL d   1       0.702   0.876  -1.959  0.00  0.00    -0.003 A 
ATOM      4  C5  UNL d   1      -0.438   1.649  -2.150  0.00  0.00     0.000 A 
ATOM      5  C6  UNL d   1      -1.284   1.919  -1.075  0.00  0.00     0.000 A 
ATOM      6  C7  UNL d   1      -1.002   1.418   0.208  0.00  0.00    -0.073 A 
ATOM      7  C8  UNL d   1      -1.952   1.734   1.331  0.00  0.00     0.078 C 
ENDROOT
BRANCH   1   8
ATOM      8  C1  UNL d   1       0.482  -0.005   1.735  0.00  0.00     0.053 C 
ATOM      9  C   UNL d   1       1.936  -0.443   1.818  0.00  0.00     0.018 C 
ENDBRANCH   1   8
TORSDOF 1
ENDMDL
