MODEL 1
REMARK minimizedAffinity -2.11642957
REMARK minimizedRMSD -1
REMARK  1 active torsions:
REMARK  status: ('A' for Active; 'I' for Inactive)
REMARK    1  A    between atoms: C1_2  and  C2_3 
ROOT
ATOM      1  C2  UNL d   1       0.598  -0.562  -0.409  0.00  0.00    -0.076 A 
ATOM      2  C3  UNL d   1       0.872  -1.045   0.882  0.00  0.00     0.004 A 
ATOM      3  C4  UNL d   1       0.600  -0.271   2.010  0.00  0.00    -0.003 A 
ATOM      4  C5  UNL d   1       0.051   0.997   1.863  0.00  0.00     0.000 A 
ATOM      5  C6  UNL d   1      -0.244   1.485   0.591  0.00  0.00     0.000 A 
ATOM      6  C7  UNL d   1       0.009   0.711  -0.555  0.00  0.00    -0.073 A 
ATOM      7  C8  UNL d   1      -0.323   1.289  -1.904  0.00  0.00     0.078 C 
ENDROOT
BRANCH   1   8
ATOM      8  C1  UNL d   1       0.939  -1.436  -1.596  0.00  0.00     0.053 C 
ATOM      9  C   UNL d   1       0.665  -2.908  -1.333  0.00  0.00     0.018 C 
ENDBRANCH   1   8
TORSDOF 1
ENDMDL
