MODEL 1
REMARK minimizedAffinity -4.12115002
REMARK minimizedRMSD -1
REMARK  1 active torsions:
REMARK  status: ('A' for Active; 'I' for Inactive)
REMARK    1  A    between atoms: C1_2  and  C2_3 
ROOT
ATOM      1  C2  UNL d   1       0.002   0.413  -0.112  0.00  0.00    -0.076 A 
ATOM      2  C3  UNL d   1      -0.809   1.314  -0.824  0.00  0.00     0.004 A 
ATOM      3  C4  UNL d   1      -1.411   2.396  -0.185  0.00  0.00    -0.003 A 
ATOM      4  C5  UNL d   1      -1.213   2.595   1.177  0.00  0.00     0.000 A 
ATOM      5  C6  UNL d   1      -0.397   1.721   1.896  0.00  0.00     0.000 A 
ATOM      6  C7  UNL d   1       0.230   0.634   1.263  0.00  0.00    -0.073 A 
ATOM      7  C8  UNL d   1       1.094  -0.280   2.087  0.00  0.00     0.078 C 
ENDROOT
BRANCH   1   8
ATOM      8  C1  UNL d   1       0.607  -0.758  -0.853  0.00  0.00     0.053 C 
ATOM      9  C   UNL d   1      -0.121  -2.064  -0.574  0.00  0.00     0.018 C 
ENDBRANCH   1   8
TORSDOF 1
ENDMDL
