MODEL 1
REMARK minimizedAffinity 0.108299673
REMARK minimizedRMSD -1
REMARK  0 active torsions:
REMARK  status: ('A' for Active; 'I' for Inactive)
ROOT
ATOM      1  C2' OXE d   1       2.404  -5.805  -2.733  0.00  0.00     0.078 C 
ATOM      2  C1' OXE d   1       1.879  -5.985  -5.485  0.00  0.00     0.078 C 
ATOM      3  C1  OXE d   1       3.321  -5.934  -5.046  0.00  0.00    -0.078 A 
ATOM      4  C2  OXE d   1       3.568  -5.799  -3.701  0.00  0.00    -0.078 A 
ATOM      5  C3  OXE d   1       4.880  -5.802  -3.237  0.00  0.00     0.003 A 
ATOM      6  C4  OXE d   1       5.951  -5.786  -4.139  0.00  0.00    -0.002 A 
ATOM      7  C5  OXE d   1       5.721  -5.882  -5.516  0.00  0.00    -0.002 A 
ATOM      8  C6  OXE d   1       4.416  -6.000  -5.982  0.00  0.00     0.003 A 
ENDROOT
TORSDOF 0
ENDMDL
