MODEL 1
REMARK minimizedAffinity 10.3682594
REMARK minimizedRMSD -1
REMARK  0 active torsions:
REMARK  status: ('A' for Active; 'I' for Inactive)
ROOT
ATOM      1  C2' OXE d   1       1.806   0.762   2.980  0.00  0.00     0.078 C 
ATOM      2  C1' OXE d   1      -0.118   2.551   1.990  0.00  0.00     0.078 C 
ATOM      3  C1  OXE d   1       1.150   2.368   1.193  0.00  0.00    -0.078 A 
ATOM      4  C2  OXE d   1       2.105   1.527   1.709  0.00  0.00    -0.078 A 
ATOM      5  C3  OXE d   1       3.270   1.281   0.986  0.00  0.00     0.003 A 
ATOM      6  C4  OXE d   1       3.543   1.999  -0.184  0.00  0.00    -0.002 A 
ATOM      7  C5  OXE d   1       2.600   2.891  -0.706  0.00  0.00    -0.002 A 
ATOM      8  C6  OXE d   1       1.383   3.055  -0.054  0.00  0.00     0.003 A 
ENDROOT
TORSDOF 0
ENDMDL
