MODEL 1
REMARK minimizedAffinity 4.55756664
REMARK minimizedRMSD -1
REMARK  0 active torsions:
REMARK  status: ('A' for Active; 'I' for Inactive)
ROOT
ATOM      1  C2' OXE d   1       2.903  -5.591   2.114  0.00  0.00     0.078 C 
ATOM      2  C1' OXE d   1       0.475  -6.000   0.764  0.00  0.00     0.078 C 
ATOM      3  C1  OXE d   1       1.730  -5.883  -0.064  0.00  0.00    -0.078 A 
ATOM      4  C2  OXE d   1       2.907  -5.636   0.601  0.00  0.00    -0.078 A 
ATOM      5  C3  OXE d   1       4.101  -5.574  -0.111  0.00  0.00     0.003 A 
ATOM      6  C4  OXE d   1       4.095  -5.607  -1.510  0.00  0.00    -0.002 A 
ATOM      7  C5  OXE d   1       2.902  -5.818  -2.210  0.00  0.00    -0.002 A 
ATOM      8  C6  OXE d   1       1.719  -6.000  -1.502  0.00  0.00     0.003 A 
ENDROOT
TORSDOF 0
ENDMDL
