MODEL 1
REMARK minimizedAffinity 5.56838846
REMARK minimizedRMSD -1
REMARK  0 active torsions:
REMARK  status: ('A' for Active; 'I' for Inactive)
ROOT
ATOM      1  C2' OXE d   1       1.280  -1.016   4.354  0.00  0.00     0.078 C 
ATOM      2  C1' OXE d   1       2.585  -2.369   2.270  0.00  0.00     0.078 C 
ATOM      3  C1  OXE d   1       2.563  -0.862   2.224  0.00  0.00    -0.078 A 
ATOM      4  C2  OXE d   1       1.882  -0.209   3.224  0.00  0.00    -0.078 A 
ATOM      5  C3  OXE d   1       1.877   1.182   3.260  0.00  0.00     0.003 A 
ATOM      6  C4  OXE d   1       2.427   1.921   2.205  0.00  0.00    -0.002 A 
ATOM      7  C5  OXE d   1       3.091   1.275   1.157  0.00  0.00    -0.002 A 
ATOM      8  C6  OXE d   1       3.205  -0.111   1.173  0.00  0.00     0.003 A 
ENDROOT
TORSDOF 0
ENDMDL
