MODEL 1
REMARK minimizedAffinity 2.80838609
REMARK minimizedRMSD -1
REMARK  0 active torsions:
REMARK  status: ('A' for Active; 'I' for Inactive)
ROOT
ATOM      1  C2' OXE d   1       3.113  -6.000   2.055  0.00  0.00     0.078 C 
ATOM      2  C1' OXE d   1       0.644  -5.976   0.720  0.00  0.00     0.078 C 
ATOM      3  C1  OXE d   1       1.897  -5.979  -0.119  0.00  0.00    -0.078 A 
ATOM      4  C2  OXE d   1       3.101  -5.943   0.543  0.00  0.00    -0.078 A 
ATOM      5  C3  OXE d   1       4.288  -6.000  -0.182  0.00  0.00     0.003 A 
ATOM      6  C4  OXE d   1       4.268  -5.937  -1.581  0.00  0.00    -0.002 A 
ATOM      7  C5  OXE d   1       3.052  -5.933  -2.274  0.00  0.00    -0.002 A 
ATOM      8  C6  OXE d   1       1.861  -5.996  -1.561  0.00  0.00     0.003 A 
ENDROOT
TORSDOF 0
ENDMDL
