MODEL 1
REMARK minimizedAffinity 3.03664422
REMARK minimizedRMSD -1
REMARK  0 active torsions:
REMARK  status: ('A' for Active; 'I' for Inactive)
ROOT
ATOM      1  C2' OXE d   1       1.792  -5.668  -0.563  0.00  0.00     0.078 C 
ATOM      2  C1' OXE d   1       1.515  -5.295  -3.332  0.00  0.00     0.078 C 
ATOM      3  C1  OXE d   1       2.899  -5.557  -2.792  0.00  0.00    -0.078 A 
ATOM      4  C2  OXE d   1       3.032  -5.692  -1.431  0.00  0.00    -0.078 A 
ATOM      5  C3  OXE d   1       4.278  -5.989  -0.886  0.00  0.00     0.003 A 
ATOM      6  C4  OXE d   1       5.421  -5.999  -1.695  0.00  0.00    -0.002 A 
ATOM      7  C5  OXE d   1       5.313  -5.825  -3.079  0.00  0.00    -0.002 A 
ATOM      8  C6  OXE d   1       4.057  -5.646  -3.647  0.00  0.00     0.003 A 
ENDROOT
TORSDOF 0
ENDMDL
