MODEL 1
REMARK minimizedAffinity -2.81367683
REMARK minimizedRMSD -1
REMARK  0 active torsions:
REMARK  status: ('A' for Active; 'I' for Inactive)
ROOT
ATOM      1  C2' OXE d   1       2.861  -4.527  -5.956  0.00  0.00     0.078 C 
ATOM      2  C1' OXE d   1       5.642  -4.901  -5.886  0.00  0.00     0.078 C 
ATOM      3  C1  OXE d   1       5.123  -3.485  -5.909  0.00  0.00    -0.078 A 
ATOM      4  C2  OXE d   1       3.762  -3.312  -5.990  0.00  0.00    -0.078 A 
ATOM      5  C3  OXE d   1       3.228  -2.027  -5.959  0.00  0.00     0.003 A 
ATOM      6  C4  OXE d   1       4.068  -0.908  -6.000  0.00  0.00    -0.002 A 
ATOM      7  C5  OXE d   1       5.458  -1.062  -5.958  0.00  0.00    -0.002 A 
ATOM      8  C6  OXE d   1       5.999  -2.340  -5.869  0.00  0.00     0.003 A 
ENDROOT
TORSDOF 0
ENDMDL
