MODEL 1
REMARK minimizedAffinity 0.726179779
REMARK minimizedRMSD -1
REMARK  0 active torsions:
REMARK  status: ('A' for Active; 'I' for Inactive)
ROOT
ATOM      1  C2' OXE d   1       4.552  -0.467  -2.188  0.00  0.00     0.078 C 
ATOM      2  C1' OXE d   1       5.226   1.332  -4.235  0.00  0.00     0.078 C 
ATOM      3  C1  OXE d   1       5.365  -0.142  -4.521  0.00  0.00    -0.078 A 
ATOM      4  C2  OXE d   1       5.077  -1.014  -3.498  0.00  0.00    -0.078 A 
ATOM      5  C3  OXE d   1       5.136  -2.386  -3.725  0.00  0.00     0.003 A 
ATOM      6  C4  OXE d   1       5.633  -2.884  -4.936  0.00  0.00    -0.002 A 
ATOM      7  C5  OXE d   1       5.969  -2.012  -5.977  0.00  0.00    -0.002 A 
ATOM      8  C6  OXE d   1       5.801  -0.643  -5.801  0.00  0.00     0.003 A 
ENDROOT
TORSDOF 0
ENDMDL
