MODEL 1
REMARK minimizedAffinity 0.675487161
REMARK minimizedRMSD -1
REMARK  0 active torsions:
REMARK  status: ('A' for Active; 'I' for Inactive)
ROOT
ATOM      1  C2' OXE d   1       4.227  -0.748  -2.272  0.00  0.00     0.078 C 
ATOM      2  C1' OXE d   1       4.515   1.093  -4.371  0.00  0.00     0.078 C 
ATOM      3  C1  OXE d   1       4.979  -0.322  -4.608  0.00  0.00    -0.078 A 
ATOM      4  C2  OXE d   1       4.878  -1.205  -3.560  0.00  0.00    -0.078 A 
ATOM      5  C3  OXE d   1       5.241  -2.536  -3.742  0.00  0.00     0.003 A 
ATOM      6  C4  OXE d   1       5.850  -2.948  -4.933  0.00  0.00    -0.002 A 
ATOM      7  C5  OXE d   1       6.000  -2.055  -6.000  0.00  0.00    -0.002 A 
ATOM      8  C6  OXE d   1       5.532  -0.752  -5.869  0.00  0.00     0.003 A 
ENDROOT
TORSDOF 0
ENDMDL
