MODEL 1
REMARK minimizedAffinity -2.62310028
REMARK minimizedRMSD -1
REMARK  0 active torsions:
REMARK  status: ('A' for Active; 'I' for Inactive)
ROOT
ATOM      1  N1  IND d   1       0.754  -0.911   0.865  0.00  0.00    -0.196 N 
ATOM      2  C2  IND d   1       0.971   0.383   0.480  0.00  0.00     0.054 A 
ATOM      3  C3  IND d   1      -0.195   0.971   0.129  0.00  0.00    -0.031 A 
ATOM      4  C4  IND d   1      -2.590   0.029   0.207  0.00  0.00     0.051 A 
ATOM      5  C5  IND d   1      -3.288  -1.119   0.455  0.00  0.00    -0.031 A 
ATOM      6  C6  IND d   1      -2.663  -2.279   0.863  0.00  0.00     0.015 A 
ATOM      7  C7  IND d   1      -1.310  -2.331   1.050  0.00  0.00    -0.016 A 
ATOM      8  C8  IND d   1      -0.597  -1.169   0.792  0.00  0.00    -0.047 A 
ATOM      9  C9  IND d   1      -1.221  -0.001   0.337  0.00  0.00    -0.096 A 
ATOM     10  HN1 IND d   1       1.360  -1.470   1.110  0.00  0.00     0.298 HD
ENDROOT
TORSDOF 0
ENDMDL
