MODEL 1
REMARK minimizedAffinity -2.47819448
REMARK minimizedRMSD -1
REMARK  0 active torsions:
REMARK  status: ('A' for Active; 'I' for Inactive)
ROOT
ATOM      1  N1  IND d   1       0.360   1.215   0.677  0.00  0.00    -0.196 N 
ATOM      2  C2  IND d   1       1.416   0.721  -0.036  0.00  0.00     0.054 A 
ATOM      3  C3  IND d   1       1.002  -0.255  -0.875  0.00  0.00    -0.031 A 
ATOM      4  C4  IND d   1      -1.379  -1.132  -1.315  0.00  0.00     0.051 A 
ATOM      5  C5  IND d   1      -2.668  -1.013  -0.878  0.00  0.00    -0.031 A 
ATOM      6  C6  IND d   1      -3.022  -0.126   0.118  0.00  0.00     0.015 A 
ATOM      7  C7  IND d   1      -2.097   0.687   0.709  0.00  0.00    -0.016 A 
ATOM      8  C8  IND d   1      -0.785   0.565   0.273  0.00  0.00    -0.047 A 
ATOM      9  C9  IND d   1      -0.413  -0.364  -0.708  0.00  0.00    -0.096 A 
ATOM     10  HN1 IND d   1       0.403   1.829   1.277  0.00  0.00     0.298 HD
ENDROOT
TORSDOF 0
ENDMDL
