MODEL 1
REMARK minimizedAffinity -5.29192734
REMARK minimizedRMSD -1
REMARK  0 active torsions:
REMARK  status: ('A' for Active; 'I' for Inactive)
ROOT
ATOM      1  N1  IND d   1       0.518  -1.244   1.023  0.00  0.00    -0.196 N 
ATOM      2  C2  IND d   1       1.235  -0.440   0.181  0.00  0.00     0.054 A 
ATOM      3  C3  IND d   1       0.423   0.110  -0.750  0.00  0.00    -0.031 A 
ATOM      4  C4  IND d   1      -2.130  -0.091  -1.017  0.00  0.00     0.051 A 
ATOM      5  C5  IND d   1      -3.218  -0.743  -0.509  0.00  0.00    -0.031 A 
ATOM      6  C6  IND d   1      -3.115  -1.611   0.558  0.00  0.00     0.015 A 
ATOM      7  C7  IND d   1      -1.916  -1.852   1.168  0.00  0.00    -0.016 A 
ATOM      8  C8  IND d   1      -0.808  -1.196   0.651  0.00  0.00    -0.047 A 
ATOM      9  C9  IND d   1      -0.899  -0.347  -0.460  0.00  0.00    -0.096 A 
ATOM     10  HN1 IND d   1       0.840  -1.702   1.674  0.00  0.00     0.298 HD
ENDROOT
TORSDOF 0
ENDMDL
