MODEL 1
REMARK minimizedAffinity -3.14723301
REMARK minimizedRMSD -1
REMARK  0 active torsions:
REMARK  status: ('A' for Active; 'I' for Inactive)
ROOT
ATOM      1  N1  IND d   1       0.804  -0.382   1.328  0.00  0.00    -0.196 N 
ATOM      2  C2  IND d   1       1.661   0.388   0.591  0.00  0.00     0.054 A 
ATOM      3  C3  IND d   1       1.112   0.688  -0.607  0.00  0.00    -0.031 A 
ATOM      4  C4  IND d   1      -1.221   0.108  -1.529  0.00  0.00     0.051 A 
ATOM      5  C5  IND d   1      -2.347  -0.609  -1.236  0.00  0.00    -0.031 A 
ATOM      6  C6  IND d   1      -2.484  -1.298  -0.049  0.00  0.00     0.015 A 
ATOM      7  C7  IND d   1      -1.500  -1.287   0.899  0.00  0.00    -0.016 A 
ATOM      8  C8  IND d   1      -0.353  -0.566   0.603  0.00  0.00    -0.047 A 
ATOM      9  C9  IND d   1      -0.190   0.101  -0.619  0.00  0.00    -0.096 A 
ATOM     10  HN1 IND d   1       0.961  -0.697   2.112  0.00  0.00     0.298 HD
ENDROOT
TORSDOF 0
ENDMDL
