MODEL 1
REMARK minimizedAffinity -1.82979298
REMARK minimizedRMSD -1
REMARK  0 active torsions:
REMARK  status: ('A' for Active; 'I' for Inactive)
ROOT
ATOM      1  N1  IND d   1       1.080   0.733  -1.043  0.00  0.00    -0.196 N 
ATOM      2  C2  IND d   1       1.877   0.579   0.057  0.00  0.00     0.054 A 
ATOM      3  C3  IND d   1       1.233  -0.136   1.007  0.00  0.00    -0.031 A 
ATOM      4  C4  IND d   1      -1.092  -1.238   0.931  0.00  0.00     0.051 A 
ATOM      5  C5  IND d   1      -2.209  -1.344   0.151  0.00  0.00    -0.031 A 
ATOM      6  C6  IND d   1      -2.287  -0.753  -1.094  0.00  0.00     0.015 A 
ATOM      7  C7  IND d   1      -1.242  -0.041  -1.611  0.00  0.00    -0.016 A 
ATOM      8  C8  IND d   1      -0.109   0.075  -0.819  0.00  0.00    -0.047 A 
ATOM      9  C9  IND d   1      -0.040  -0.487   0.463  0.00  0.00    -0.096 A 
ATOM     10  HN1 IND d   1       1.287   1.168  -1.755  0.00  0.00     0.298 HD
ENDROOT
TORSDOF 0
ENDMDL
