MODEL 1
REMARK minimizedAffinity -1.15292132
REMARK minimizedRMSD -1
REMARK  0 active torsions:
REMARK  status: ('A' for Active; 'I' for Inactive)
ROOT
ATOM      1  N1  IND d   1      -0.597  -0.555   0.421  0.00  0.00    -0.196 N 
ATOM      2  C2  IND d   1      -0.647  -0.522  -0.944  0.00  0.00     0.054 A 
ATOM      3  C3  IND d   1       0.304   0.308  -1.429  0.00  0.00    -0.031 A 
ATOM      4  C4  IND d   1       2.115   1.635  -0.169  0.00  0.00     0.051 A 
ATOM      5  C5  IND d   1       2.537   1.951   1.092  0.00  0.00    -0.031 A 
ATOM      6  C6  IND d   1       1.925   1.436   2.217  0.00  0.00     0.015 A 
ATOM      7  C7  IND d   1       0.871   0.572   2.121  0.00  0.00    -0.016 A 
ATOM      8  C8  IND d   1       0.435   0.254   0.843  0.00  0.00    -0.047 A 
ATOM      9  C9  IND d   1       1.025   0.807  -0.301  0.00  0.00    -0.096 A 
ATOM     10  HN1 IND d   1      -1.123  -1.005   0.932  0.00  0.00     0.298 HD
ENDROOT
TORSDOF 0
ENDMDL
