MODEL 1
REMARK minimizedAffinity -2.80945063
REMARK minimizedRMSD -1
REMARK  0 active torsions:
REMARK  status: ('A' for Active; 'I' for Inactive)
ROOT
ATOM      1  N1  IND d   1       0.486  -0.712   0.491  0.00  0.00    -0.196 N 
ATOM      2  C2  IND d   1       0.624   0.372  -0.331  0.00  0.00     0.054 A 
ATOM      3  C3  IND d   1      -0.535   0.621  -0.980  0.00  0.00    -0.031 A 
ATOM      4  C4  IND d   1      -2.813  -0.561  -0.772  0.00  0.00     0.051 A 
ATOM      5  C5  IND d   1      -3.421  -1.630  -0.175  0.00  0.00    -0.031 A 
ATOM      6  C6  IND d   1      -2.745  -2.462   0.693  0.00  0.00     0.015 A 
ATOM      7  C7  IND d   1      -1.433  -2.249   1.008  0.00  0.00    -0.016 A 
ATOM      8  C8  IND d   1      -0.810  -1.169   0.399  0.00  0.00    -0.047 A 
ATOM      9  C9  IND d   1      -1.479  -0.346  -0.517  0.00  0.00    -0.096 A 
ATOM     10  HN1 IND d   1       1.105  -1.051   0.982  0.00  0.00     0.298 HD
ENDROOT
TORSDOF 0
ENDMDL
