MODEL 1
REMARK minimizedAffinity -4.933671
REMARK minimizedRMSD -1
REMARK  0 active torsions:
REMARK  status: ('A' for Active; 'I' for Inactive)
ROOT
ATOM      1  N1  IND d   1      -1.083  -2.282   1.974  0.00  0.00    -0.196 N 
ATOM      2  C2  IND d   1      -2.113  -3.168   1.818  0.00  0.00     0.054 A 
ATOM      3  C3  IND d   1      -2.884  -2.812   0.766  0.00  0.00    -0.031 A 
ATOM      4  C4  IND d   1      -2.586  -0.873  -0.900  0.00  0.00     0.051 A 
ATOM      5  C5  IND d   1      -1.813   0.228  -1.145  0.00  0.00    -0.031 A 
ATOM      6  C6  IND d   1      -0.734   0.553  -0.348  0.00  0.00     0.015 A 
ATOM      7  C7  IND d   1      -0.379  -0.220   0.721  0.00  0.00    -0.016 A 
ATOM      8  C8  IND d   1      -1.166  -1.334   0.977  0.00  0.00    -0.047 A 
ATOM      9  C9  IND d   1      -2.288  -1.646   0.198  0.00  0.00    -0.096 A 
ATOM     10  HN1 IND d   1      -0.485  -2.311   2.591  0.00  0.00     0.298 HD
ENDROOT
TORSDOF 0
ENDMDL
