MODEL 1
REMARK minimizedAffinity -5.25348997
REMARK minimizedRMSD -1
REMARK  0 active torsions:
REMARK  status: ('A' for Active; 'I' for Inactive)
ROOT
ATOM      1  N1  IND d   1       0.697  -0.609   0.735  0.00  0.00    -0.196 N 
ATOM      2  C2  IND d   1       0.856   0.335  -0.240  0.00  0.00     0.054 A 
ATOM      3  C3  IND d   1      -0.292   0.490  -0.937  0.00  0.00    -0.031 A 
ATOM      4  C4  IND d   1      -2.583  -0.629  -0.582  0.00  0.00     0.051 A 
ATOM      5  C5  IND d   1      -3.209  -1.589   0.162  0.00  0.00    -0.031 A 
ATOM      6  C6  IND d   1      -2.553  -2.284   1.157  0.00  0.00     0.015 A 
ATOM      7  C7  IND d   1      -1.243  -2.035   1.454  0.00  0.00    -0.016 A 
ATOM      8  C8  IND d   1      -0.602  -1.066   0.696  0.00  0.00    -0.047 A 
ATOM      9  C9  IND d   1      -1.251  -0.388  -0.344  0.00  0.00    -0.096 A 
ATOM     10  HN1 IND d   1       1.307  -0.874   1.281  0.00  0.00     0.298 HD
ENDROOT
TORSDOF 0
ENDMDL
