MODEL 1
REMARK minimizedAffinity -6.31166267
REMARK minimizedRMSD -1
REMARK  0 active torsions:
REMARK  status: ('A' for Active; 'I' for Inactive)
ROOT
ATOM      1  N1  IND d   1       0.666  -1.801   0.982  0.00  0.00    -0.196 N 
ATOM      2  C2  IND d   1       1.128  -0.676   0.358  0.00  0.00     0.054 A 
ATOM      3  C3  IND d   1       0.103   0.003  -0.205  0.00  0.00    -0.031 A 
ATOM      4  C4  IND d   1      -2.421  -0.495  -0.140  0.00  0.00     0.051 A 
ATOM      5  C5  IND d   1      -3.324  -1.432   0.279  0.00  0.00    -0.031 A 
ATOM      6  C6  IND d   1      -2.935  -2.561   0.970  0.00  0.00     0.015 A 
ATOM      7  C7  IND d   1      -1.624  -2.791   1.280  0.00  0.00    -0.016 A 
ATOM      8  C8  IND d   1      -0.704  -1.845   0.849  0.00  0.00    -0.047 A 
ATOM      9  C9  IND d   1      -1.088  -0.719   0.111  0.00  0.00    -0.096 A 
ATOM     10  HN1 IND d   1       1.151  -2.383   1.389  0.00  0.00     0.298 HD
ENDROOT
TORSDOF 0
ENDMDL
