MODEL 1
REMARK minimizedAffinity -4.29981422
REMARK minimizedRMSD -1
REMARK  0 active torsions:
REMARK  status: ('A' for Active; 'I' for Inactive)
ROOT
ATOM      1  N1  IND d   1       0.377  -0.294   0.766  0.00  0.00    -0.196 N 
ATOM      2  C2  IND d   1       0.405   0.652  -0.221  0.00  0.00     0.054 A 
ATOM      3  C3  IND d   1      -0.699   0.557  -0.995  0.00  0.00    -0.031 A 
ATOM      4  C4  IND d   1      -2.730  -1.007  -0.762  0.00  0.00     0.051 A 
ATOM      5  C5  IND d   1      -3.196  -2.067  -0.036  0.00  0.00    -0.031 A 
ATOM      6  C6  IND d   1      -2.481  -2.599   1.018  0.00  0.00     0.015 A 
ATOM      7  C7  IND d   1      -1.274  -2.081   1.393  0.00  0.00    -0.016 A 
ATOM      8  C8  IND d   1      -0.795  -1.010   0.653  0.00  0.00    -0.047 A 
ATOM      9  C9  IND d   1      -1.496  -0.493  -0.444  0.00  0.00    -0.096 A 
ATOM     10  HN1 IND d   1       0.988  -0.420   1.357  0.00  0.00     0.298 HD
ENDROOT
TORSDOF 0
ENDMDL
