MODEL 1
REMARK minimizedAffinity -6.21096373
REMARK minimizedRMSD -1
REMARK  0 active torsions:
REMARK  status: ('A' for Active; 'I' for Inactive)
ROOT
ATOM      1  N1  IND d   1       0.575  -0.549   0.628  0.00  0.00    -0.196 N 
ATOM      2  C2  IND d   1       0.646   0.512  -0.231  0.00  0.00     0.054 A 
ATOM      3  C3  IND d   1      -0.535   0.683  -0.865  0.00  0.00    -0.031 A 
ATOM      4  C4  IND d   1      -2.749  -0.598  -0.574  0.00  0.00     0.051 A 
ATOM      5  C5  IND d   1      -3.295  -1.673   0.070  0.00  0.00    -0.031 A 
ATOM      6  C6  IND d   1      -2.565  -2.442   0.952  0.00  0.00     0.015 A 
ATOM      7  C7  IND d   1      -1.259  -2.157   1.234  0.00  0.00    -0.016 A 
ATOM      8  C8  IND d   1      -0.699  -1.070   0.577  0.00  0.00    -0.047 A 
ATOM      9  C9  IND d   1      -1.423  -0.311  -0.352  0.00  0.00    -0.096 A 
ATOM     10  HN1 IND d   1       1.218  -0.842   1.118  0.00  0.00     0.298 HD
ENDROOT
TORSDOF 0
ENDMDL
