MODEL 1
REMARK minimizedAffinity -2.57003641
REMARK minimizedRMSD -1
REMARK  0 active torsions:
REMARK  status: ('A' for Active; 'I' for Inactive)
ROOT
ATOM      1  N1  IND d   1       0.148   1.221   1.622  0.00  0.00    -0.196 N 
ATOM      2  C2  IND d   1       1.404   1.223   1.083  0.00  0.00     0.054 A 
ATOM      3  C3  IND d   1       1.386   0.684  -0.157  0.00  0.00    -0.031 A 
ATOM      4  C4  IND d   1      -0.611  -0.171  -1.538  0.00  0.00     0.051 A 
ATOM      5  C5  IND d   1      -1.954  -0.411  -1.456  0.00  0.00    -0.031 A 
ATOM      6  C6  IND d   1      -2.680  -0.110  -0.322  0.00  0.00     0.015 A 
ATOM      7  C7  IND d   1      -2.090   0.455   0.773  0.00  0.00    -0.016 A 
ATOM      8  C8  IND d   1      -0.725   0.692   0.696  0.00  0.00    -0.047 A 
ATOM      9  C9  IND d   1       0.025   0.350  -0.437  0.00  0.00    -0.096 A 
ATOM     10  HN1 IND d   1      -0.062   1.502   2.407  0.00  0.00     0.298 HD
ENDROOT
TORSDOF 0
ENDMDL
