MODEL 1
REMARK minimizedAffinity -4.41783619
REMARK minimizedRMSD -1
REMARK  0 active torsions:
REMARK  status: ('A' for Active; 'I' for Inactive)
ROOT
ATOM      1  N1  IND d   1       1.251   0.336  -0.452  0.00  0.00    -0.196 N 
ATOM      2  C2  IND d   1       1.610  -0.157   0.771  0.00  0.00     0.054 A 
ATOM      3  C3  IND d   1       0.559  -0.776   1.355  0.00  0.00    -0.031 A 
ATOM      4  C4  IND d   1      -1.813  -1.185   0.442  0.00  0.00     0.051 A 
ATOM      5  C5  IND d   1      -2.625  -0.890  -0.617  0.00  0.00    -0.031 A 
ATOM      6  C6  IND d   1      -2.178  -0.158  -1.697  0.00  0.00     0.015 A 
ATOM      7  C7  IND d   1      -0.891   0.298  -1.765  0.00  0.00    -0.016 A 
ATOM      8  C8  IND d   1      -0.066   0.006  -0.689  0.00  0.00    -0.047 A 
ATOM      9  C9  IND d   1      -0.526  -0.700   0.430  0.00  0.00    -0.096 A 
ATOM     10  HN1 IND d   1       1.761   0.779  -0.984  0.00  0.00     0.298 HD
ENDROOT
TORSDOF 0
ENDMDL
