MODEL 1
REMARK minimizedAffinity -5.78460217
REMARK minimizedRMSD -1
REMARK  0 active torsions:
REMARK  status: ('A' for Active; 'I' for Inactive)
ROOT
ATOM      1  N1  IND d   1       0.654  -2.120   1.231  0.00  0.00    -0.196 N 
ATOM      2  C2  IND d   1       1.212  -1.034   0.616  0.00  0.00     0.054 A 
ATOM      3  C3  IND d   1       0.279  -0.371  -0.104  0.00  0.00    -0.031 A 
ATOM      4  C4  IND d   1      -2.244  -0.833  -0.333  0.00  0.00     0.051 A 
ATOM      5  C5  IND d   1      -3.209  -1.736   0.015  0.00  0.00    -0.031 A 
ATOM      6  C6  IND d   1      -2.931  -2.833   0.804  0.00  0.00     0.015 A 
ATOM      7  C7  IND d   1      -1.674  -3.064   1.287  0.00  0.00    -0.016 A 
ATOM      8  C8  IND d   1      -0.689  -2.153   0.930  0.00  0.00    -0.047 A 
ATOM      9  C9  IND d   1      -0.957  -1.061   0.094  0.00  0.00    -0.096 A 
ATOM     10  HN1 IND d   1       1.073  -2.687   1.724  0.00  0.00     0.298 HD
ENDROOT
TORSDOF 0
ENDMDL
