MODEL 1
REMARK minimizedAffinity -3.25750518
REMARK minimizedRMSD -1
REMARK  0 active torsions:
REMARK  status: ('A' for Active; 'I' for Inactive)
ROOT
ATOM      1  N1  IND d   1      -1.928  -1.531   0.510  0.00  0.00    -0.196 N 
ATOM      2  C2  IND d   1      -2.879  -1.489  -0.471  0.00  0.00     0.054 A 
ATOM      3  C3  IND d   1      -2.488  -0.668  -1.471  0.00  0.00    -0.031 A 
ATOM      4  C4  IND d   1      -0.283   0.631  -1.752  0.00  0.00     0.051 A 
ATOM      5  C5  IND d   1       0.879   0.936  -1.100  0.00  0.00    -0.031 A 
ATOM      6  C6  IND d   1       1.172   0.421   0.146  0.00  0.00     0.015 A 
ATOM      7  C7  IND d   1       0.315  -0.430   0.785  0.00  0.00    -0.016 A 
ATOM      8  C8  IND d   1      -0.869  -0.736   0.129  0.00  0.00    -0.047 A 
ATOM      9  C9  IND d   1      -1.191  -0.183  -1.118  0.00  0.00    -0.096 A 
ATOM     10  HN1 IND d   1      -1.982  -1.978   1.243  0.00  0.00     0.298 HD
ENDROOT
TORSDOF 0
ENDMDL
