MODEL 1
REMARK minimizedAffinity 1.92030191
REMARK minimizedRMSD -1
REMARK  0 active torsions:
REMARK  status: ('A' for Active; 'I' for Inactive)
ROOT
ATOM      1  C2' OXE d   1      -1.816  -0.539  -1.294  0.00  0.00     0.078 C 
ATOM      2  C1' OXE d   1      -0.012   1.611  -1.351  0.00  0.00     0.078 C 
ATOM      3  C1  OXE d   1      -0.438   1.085  -0.003  0.00  0.00    -0.078 A 
ATOM      4  C2  OXE d   1      -1.356   0.063   0.016  0.00  0.00    -0.078 A 
ATOM      5  C3  OXE d   1      -1.741  -0.496   1.231  0.00  0.00     0.003 A 
ATOM      6  C4  OXE d   1      -1.319   0.074   2.439  0.00  0.00    -0.002 A 
ATOM      7  C5  OXE d   1      -0.414   1.141   2.442  0.00  0.00    -0.002 A 
ATOM      8  C6  OXE d   1       0.068   1.629   1.233  0.00  0.00     0.003 A 
ENDROOT
TORSDOF 0
ENDMDL
