MODEL 1
REMARK minimizedAffinity 3.79253125
REMARK minimizedRMSD -1
REMARK  0 active torsions:
REMARK  status: ('A' for Active; 'I' for Inactive)
ROOT
ATOM      1  C2' OXE d   1      -0.983   3.084   3.357  0.00  0.00     0.078 C 
ATOM      2  C1' OXE d   1       1.546   2.468   2.305  0.00  0.00     0.078 C 
ATOM      3  C1  OXE d   1       0.355   1.725   1.754  0.00  0.00    -0.078 A 
ATOM      4  C2  OXE d   1      -0.873   1.999   2.308  0.00  0.00    -0.078 A 
ATOM      5  C3  OXE d   1      -2.012   1.382   1.799  0.00  0.00     0.003 A 
ATOM      6  C4  OXE d   1      -1.900   0.372   0.835  0.00  0.00    -0.002 A 
ATOM      7  C5  OXE d   1      -0.654   0.049   0.286  0.00  0.00    -0.002 A 
ATOM      8  C6  OXE d   1       0.475   0.745   0.704  0.00  0.00     0.003 A 
ENDROOT
TORSDOF 0
ENDMDL
