MODEL 1
REMARK minimizedAffinity 6.39546108
REMARK minimizedRMSD -1
REMARK  0 active torsions:
REMARK  status: ('A' for Active; 'I' for Inactive)
ROOT
ATOM      1  C2' OXE d   1       0.820  -0.004  -0.217  0.00  0.00     0.078 C 
ATOM      2  C1' OXE d   1       1.893   1.530   1.874  0.00  0.00     0.078 C 
ATOM      3  C1  OXE d   1       0.408   1.267   1.885  0.00  0.00    -0.078 A 
ATOM      4  C2  OXE d   1      -0.116   0.555   0.833  0.00  0.00    -0.078 A 
ATOM      5  C3  OXE d   1      -1.471   0.238   0.822  0.00  0.00     0.003 A 
ATOM      6  C4  OXE d   1      -2.331   0.768   1.791  0.00  0.00    -0.002 A 
ATOM      7  C5  OXE d   1      -1.824   1.529   2.850  0.00  0.00    -0.002 A 
ATOM      8  C6  OXE d   1      -0.454   1.752   2.935  0.00  0.00     0.003 A 
ENDROOT
TORSDOF 0
ENDMDL
