MODEL 1
REMARK minimizedAffinity 4.02333927
REMARK minimizedRMSD -1
REMARK  0 active torsions:
REMARK  status: ('A' for Active; 'I' for Inactive)
ROOT
ATOM      1  C2' OXE d   1       0.647  -0.740  -0.682  0.00  0.00     0.078 C 
ATOM      2  C1' OXE d   1      -2.153  -0.661  -0.499  0.00  0.00     0.078 C 
ATOM      3  C1  OXE d   1      -1.361   0.192   0.460  0.00  0.00    -0.078 A 
ATOM      4  C2  OXE d   1       0.009   0.111   0.395  0.00  0.00    -0.078 A 
ATOM      5  C3  OXE d   1       0.787   0.918   1.220  0.00  0.00     0.003 A 
ATOM      6  C4  OXE d   1       0.189   1.695   2.219  0.00  0.00    -0.002 A 
ATOM      7  C5  OXE d   1      -1.204   1.761   2.330  0.00  0.00    -0.002 A 
ATOM      8  C6  OXE d   1      -1.993   1.050   1.432  0.00  0.00     0.003 A 
ENDROOT
TORSDOF 0
ENDMDL
