MODEL 1
REMARK minimizedAffinity 4.71891689
REMARK minimizedRMSD -1
REMARK  0 active torsions:
REMARK  status: ('A' for Active; 'I' for Inactive)
ROOT
ATOM      1  C2' OXE d   1      -3.206  -2.267   1.011  0.00  0.00     0.078 C 
ATOM      2  C1' OXE d   1      -5.998  -2.249   0.728  0.00  0.00     0.078 C 
ATOM      3  C1  OXE d   1      -5.290  -3.578   0.635  0.00  0.00    -0.078 A 
ATOM      4  C2  OXE d   1      -3.919  -3.572   0.729  0.00  0.00    -0.078 A 
ATOM      5  C3  OXE d   1      -3.221  -4.776   0.704  0.00  0.00     0.003 A 
ATOM      6  C4  OXE d   1      -3.888  -5.976   0.433  0.00  0.00    -0.002 A 
ATOM      7  C5  OXE d   1      -5.280  -6.000   0.295  0.00  0.00    -0.002 A 
ATOM      8  C6  OXE d   1      -5.999  -4.818   0.436  0.00  0.00     0.003 A 
ENDROOT
TORSDOF 0
ENDMDL
