MODEL 1
REMARK minimizedAffinity 1.37759161
REMARK minimizedRMSD -1
REMARK  0 active torsions:
REMARK  status: ('A' for Active; 'I' for Inactive)
ROOT
ATOM      1  C2' OXE d   1       2.550  -5.890   3.014  0.00  0.00     0.078 C 
ATOM      2  C1' OXE d   1       1.204  -5.869   5.477  0.00  0.00     0.078 C 
ATOM      3  C1  OXE d   1       0.371  -5.928   4.221  0.00  0.00    -0.078 A 
ATOM      4  C2  OXE d   1       1.037  -5.891   3.019  0.00  0.00    -0.078 A 
ATOM      5  C3  OXE d   1       0.320  -5.998   1.830  0.00  0.00     0.003 A 
ATOM      6  C4  OXE d   1      -1.080  -5.989   1.843  0.00  0.00    -0.002 A 
ATOM      7  C5  OXE d   1      -1.778  -5.987   3.055  0.00  0.00    -0.002 A 
ATOM      8  C6  OXE d   1      -1.069  -6.000   4.251  0.00  0.00     0.003 A 
ENDROOT
TORSDOF 0
ENDMDL
