MODEL 1
REMARK minimizedAffinity 5.51802397
REMARK minimizedRMSD -1
REMARK  0 active torsions:
REMARK  status: ('A' for Active; 'I' for Inactive)
ROOT
ATOM      1  C2' OXE d   1      -2.163  -2.373   1.142  0.00  0.00     0.078 C 
ATOM      2  C1' OXE d   1      -1.822  -0.999   3.566  0.00  0.00     0.078 C 
ATOM      3  C1  OXE d   1      -1.035  -0.522   2.370  0.00  0.00    -0.078 A 
ATOM      4  C2  OXE d   1      -1.173  -1.230   1.200  0.00  0.00    -0.078 A 
ATOM      5  C3  OXE d   1      -0.512  -0.800   0.053  0.00  0.00     0.003 A 
ATOM      6  C4  OXE d   1       0.409   0.252   0.118  0.00  0.00    -0.002 A 
ATOM      7  C5  OXE d   1       0.595   0.961   1.310  0.00  0.00    -0.002 A 
ATOM      8  C6  OXE d   1      -0.150   0.615   2.432  0.00  0.00     0.003 A 
ENDROOT
TORSDOF 0
ENDMDL
