MODEL 1
REMARK minimizedAffinity 6.82837725
REMARK minimizedRMSD -1
REMARK  0 active torsions:
REMARK  status: ('A' for Active; 'I' for Inactive)
ROOT
ATOM      1  C2' OXE d   1       3.438  -0.729   1.792  0.00  0.00     0.078 C 
ATOM      2  C1' OXE d   1       3.102   2.031   2.179  0.00  0.00     0.078 C 
ATOM      3  C1  OXE d   1       1.863   1.191   1.995  0.00  0.00    -0.078 A 
ATOM      4  C2  OXE d   1       2.039  -0.152   1.759  0.00  0.00    -0.078 A 
ATOM      5  C3  OXE d   1       0.929  -0.982   1.637  0.00  0.00     0.003 A 
ATOM      6  C4  OXE d   1      -0.361  -0.438   1.598  0.00  0.00    -0.002 A 
ATOM      7  C5  OXE d   1      -0.561   0.932   1.796  0.00  0.00    -0.002 A 
ATOM      8  C6  OXE d   1       0.536   1.752   2.037  0.00  0.00     0.003 A 
ENDROOT
TORSDOF 0
ENDMDL
