MODEL 1
REMARK minimizedAffinity 2.77954221
REMARK minimizedRMSD -1
REMARK  0 active torsions:
REMARK  status: ('A' for Active; 'I' for Inactive)
ROOT
ATOM      1  C2' OXE d   1       2.834  -6.000   2.886  0.00  0.00     0.078 C 
ATOM      2  C1' OXE d   1       1.426  -5.979   5.314  0.00  0.00     0.078 C 
ATOM      3  C1  OXE d   1       0.625  -5.981   4.036  0.00  0.00    -0.078 A 
ATOM      4  C2  OXE d   1       1.322  -5.944   2.853  0.00  0.00    -0.078 A 
ATOM      5  C3  OXE d   1       0.633  -6.000   1.645  0.00  0.00     0.003 A 
ATOM      6  C4  OXE d   1      -0.765  -5.938   1.623  0.00  0.00    -0.002 A 
ATOM      7  C5  OXE d   1      -1.495  -5.935   2.817  0.00  0.00    -0.002 A 
ATOM      8  C6  OXE d   1      -0.817  -6.000   4.029  0.00  0.00     0.003 A 
ENDROOT
TORSDOF 0
ENDMDL
