MODEL 1
REMARK minimizedAffinity 7.73146296
REMARK minimizedRMSD -1
REMARK  0 active torsions:
REMARK  status: ('A' for Active; 'I' for Inactive)
ROOT
ATOM      1  C2' OXE d   1      -2.415  -1.885   0.902  0.00  0.00     0.078 C 
ATOM      2  C1' OXE d   1      -1.637  -0.912   3.418  0.00  0.00     0.078 C 
ATOM      3  C1  OXE d   1      -0.905  -0.393   2.206  0.00  0.00    -0.078 A 
ATOM      4  C2  OXE d   1      -1.261  -0.909   0.983  0.00  0.00    -0.078 A 
ATOM      5  C3  OXE d   1      -0.655  -0.424  -0.173  0.00  0.00     0.003 A 
ATOM      6  C4  OXE d   1       0.418   0.472  -0.088  0.00  0.00    -0.002 A 
ATOM      7  C5  OXE d   1       0.822   0.980   1.151  0.00  0.00    -0.002 A 
ATOM      8  C6  OXE d   1       0.145   0.591   2.301  0.00  0.00     0.003 A 
ENDROOT
TORSDOF 0
ENDMDL
