MODEL 1
REMARK minimizedAffinity 5.89182186
REMARK minimizedRMSD -1
REMARK  0 active torsions:
REMARK  status: ('A' for Active; 'I' for Inactive)
ROOT
ATOM      1  C2' OXE d   1      -2.031  -5.997   3.645  0.00  0.00     0.078 C 
ATOM      2  C1' OXE d   1      -0.858  -5.991   1.095  0.00  0.00     0.078 C 
ATOM      3  C1  OXE d   1       0.060  -5.981   2.291  0.00  0.00    -0.078 A 
ATOM      4  C2  OXE d   1      -0.523  -5.937   3.535  0.00  0.00    -0.078 A 
ATOM      5  C3  OXE d   1       0.278  -5.982   4.673  0.00  0.00     0.003 A 
ATOM      6  C4  OXE d   1       1.672  -5.916   4.562  0.00  0.00    -0.002 A 
ATOM      7  C5  OXE d   1       2.285  -5.919   3.304  0.00  0.00    -0.002 A 
ATOM      8  C6  OXE d   1       1.496  -5.995   2.162  0.00  0.00     0.003 A 
ENDROOT
TORSDOF 0
ENDMDL
