MODEL 1
REMARK minimizedAffinity 11.2455454
REMARK minimizedRMSD -1
REMARK  0 active torsions:
REMARK  status: ('A' for Active; 'I' for Inactive)
ROOT
ATOM      1  C2' OXE d   1      -2.257  -5.978   1.747  0.00  0.00     0.078 C 
ATOM      2  C1' OXE d   1      -0.165  -5.983  -0.126  0.00  0.00     0.078 C 
ATOM      3  C1  OXE d   1       0.200  -5.974   1.337  0.00  0.00    -0.078 A 
ATOM      4  C2  OXE d   1      -0.829  -5.924   2.246  0.00  0.00    -0.078 A 
ATOM      5  C3  OXE d   1      -0.548  -5.969   3.609  0.00  0.00     0.003 A 
ATOM      6  C4  OXE d   1       0.775  -5.909   4.062  0.00  0.00    -0.002 A 
ATOM      7  C5  OXE d   1       1.838  -5.919   3.153  0.00  0.00    -0.002 A 
ATOM      8  C6  OXE d   1       1.569  -5.994   1.791  0.00  0.00     0.003 A 
ENDROOT
TORSDOF 0
ENDMDL
