MODEL 1
REMARK minimizedAffinity 9.89548683
REMARK minimizedRMSD -1
REMARK  0 active torsions:
REMARK  status: ('A' for Active; 'I' for Inactive)
ROOT
ATOM      1  C2' OXE d   1      -6.000  -1.848   1.194  0.00  0.00     0.078 C 
ATOM      2  C1' OXE d   1      -5.039  -0.861   3.640  0.00  0.00     0.078 C 
ATOM      3  C1  OXE d   1      -4.068  -1.590   2.745  0.00  0.00    -0.078 A 
ATOM      4  C2  OXE d   1      -4.558  -2.110   1.571  0.00  0.00    -0.078 A 
ATOM      5  C3  OXE d   1      -3.693  -2.744   0.684  0.00  0.00     0.003 A 
ATOM      6  C4  OXE d   1      -2.363  -2.991   1.045  0.00  0.00    -0.002 A 
ATOM      7  C5  OXE d   1      -1.853  -2.504   2.254  0.00  0.00    -0.002 A 
ATOM      8  C6  OXE d   1      -2.680  -1.766   3.094  0.00  0.00     0.003 A 
ENDROOT
TORSDOF 0
ENDMDL
