MODEL 1
REMARK minimizedAffinity 11.7938633
REMARK minimizedRMSD -1
REMARK  0 active torsions:
REMARK  status: ('A' for Active; 'I' for Inactive)
ROOT
ATOM      1  C2' OXE d   1       0.458   1.980  -0.427  0.00  0.00     0.078 C 
ATOM      2  C1' OXE d   1      -0.263   1.385   2.220  0.00  0.00     0.078 C 
ATOM      3  C1  OXE d   1      -0.748   0.458   1.134  0.00  0.00    -0.078 A 
ATOM      4  C2  OXE d   1      -0.430   0.783  -0.163  0.00  0.00    -0.078 A 
ATOM      5  C3  OXE d   1      -0.806  -0.068  -1.199  0.00  0.00     0.003 A 
ATOM      6  C4  OXE d   1      -1.636  -1.167  -0.947  0.00  0.00    -0.002 A 
ATOM      7  C5  OXE d   1      -2.004  -1.494   0.362  0.00  0.00    -0.002 A 
ATOM      8  C6  OXE d   1      -1.535  -0.717   1.416  0.00  0.00     0.003 A 
ENDROOT
TORSDOF 0
ENDMDL
