MODEL 1
REMARK minimizedAffinity 4.21573353
REMARK minimizedRMSD -1
REMARK  0 active torsions:
REMARK  status: ('A' for Active; 'I' for Inactive)
ROOT
ATOM      1  C2' OXE d   1       3.019  -5.974   3.211  0.00  0.00     0.078 C 
ATOM      2  C1' OXE d   1       1.964  -5.953   5.812  0.00  0.00     0.078 C 
ATOM      3  C1  OXE d   1       0.992  -5.969   4.659  0.00  0.00    -0.078 A 
ATOM      4  C2  OXE d   1       1.517  -5.932   3.390  0.00  0.00    -0.078 A 
ATOM      5  C3  OXE d   1       0.666  -6.000   2.290  0.00  0.00     0.003 A 
ATOM      6  C4  OXE d   1      -0.722  -5.951   2.464  0.00  0.00    -0.002 A 
ATOM      7  C5  OXE d   1      -1.278  -5.948   3.748  0.00  0.00    -0.002 A 
ATOM      8  C6  OXE d   1      -0.437  -6.000   4.854  0.00  0.00     0.003 A 
ENDROOT
TORSDOF 0
ENDMDL
