MODEL 1
REMARK minimizedAffinity 5.61173677
REMARK minimizedRMSD -1
REMARK  0 active torsions:
REMARK  status: ('A' for Active; 'I' for Inactive)
ROOT
ATOM      1  C2' OXE d   1       3.683  -5.999   3.374  0.00  0.00     0.078 C 
ATOM      2  C1' OXE d   1       2.231  -5.970   5.776  0.00  0.00     0.078 C 
ATOM      3  C1  OXE d   1       1.453  -5.968   4.484  0.00  0.00    -0.078 A 
ATOM      4  C2  OXE d   1       2.172  -5.935   3.313  0.00  0.00    -0.078 A 
ATOM      5  C3  OXE d   1       1.505  -5.987   2.093  0.00  0.00     0.003 A 
ATOM      6  C4  OXE d   1       0.108  -5.917   2.045  0.00  0.00    -0.002 A 
ATOM      7  C5  OXE d   1      -0.643  -5.910   3.225  0.00  0.00    -0.002 A 
ATOM      8  C6  OXE d   1       0.012  -5.978   4.450  0.00  0.00     0.003 A 
ENDROOT
TORSDOF 0
ENDMDL
