MODEL 1
REMARK minimizedAffinity 3.83010721
REMARK minimizedRMSD -1
REMARK  0 active torsions:
REMARK  status: ('A' for Active; 'I' for Inactive)
ROOT
ATOM      1  C2' OXE d   1       1.888  -5.922   5.862  0.00  0.00     0.078 C 
ATOM      2  C1' OXE d   1       3.368  -5.991   3.478  0.00  0.00     0.078 C 
ATOM      3  C1  OXE d   1       1.863  -5.968   3.371  0.00  0.00    -0.078 A 
ATOM      4  C2  OXE d   1       1.146  -5.982   4.544  0.00  0.00    -0.078 A 
ATOM      5  C3  OXE d   1      -0.243  -5.906   4.503  0.00  0.00     0.003 A 
ATOM      6  C4  OXE d   1      -0.921  -5.972   3.280  0.00  0.00    -0.002 A 
ATOM      7  C5  OXE d   1      -0.210  -5.998   2.075  0.00  0.00    -0.002 A 
ATOM      8  C6  OXE d   1       1.179  -5.954   2.102  0.00  0.00     0.003 A 
ENDROOT
TORSDOF 0
ENDMDL
