MODEL 1
REMARK minimizedAffinity 12.2686234
REMARK minimizedRMSD -1
REMARK  0 active torsions:
REMARK  status: ('A' for Active; 'I' for Inactive)
ROOT
ATOM      1  C2' OXE d   1      -3.079  -1.394  -2.051  0.00  0.00     0.078 C 
ATOM      2  C1' OXE d   1      -2.636  -2.311   0.564  0.00  0.00     0.078 C 
ATOM      3  C1  OXE d   1      -1.790  -1.166   0.068  0.00  0.00    -0.078 A 
ATOM      4  C2  OXE d   1      -1.981  -0.755  -1.229  0.00  0.00    -0.078 A 
ATOM      5  C3  OXE d   1      -1.265   0.333  -1.720  0.00  0.00     0.003 A 
ATOM      6  C4  OXE d   1      -0.245   0.913  -0.957  0.00  0.00    -0.002 A 
ATOM      7  C5  OXE d   1      -0.006   0.483   0.352  0.00  0.00    -0.002 A 
ATOM      8  C6  OXE d   1      -0.797  -0.525   0.894  0.00  0.00     0.003 A 
ENDROOT
TORSDOF 0
ENDMDL
