MODEL 1
REMARK minimizedAffinity 0.104239054
REMARK minimizedRMSD -1
REMARK  0 active torsions:
REMARK  status: ('A' for Active; 'I' for Inactive)
ROOT
ATOM      1  C2' OXE d   1      -1.202  -5.951   0.242  0.00  0.00     0.078 C 
ATOM      2  C1' OXE d   1      -2.534  -5.999   2.712  0.00  0.00     0.078 C 
ATOM      3  C1  OXE d   1      -1.026  -5.975   2.726  0.00  0.00    -0.078 A 
ATOM      4  C2  OXE d   1      -0.382  -5.999   1.513  0.00  0.00    -0.078 A 
ATOM      5  C3  OXE d   1       1.007  -5.923   1.468  0.00  0.00     0.003 A 
ATOM      6  C4  OXE d   1       1.759  -5.978   2.648  0.00  0.00    -0.002 A 
ATOM      7  C5  OXE d   1       1.123  -5.994   3.894  0.00  0.00    -0.002 A 
ATOM      8  C6  OXE d   1      -0.266  -5.950   3.952  0.00  0.00     0.003 A 
ENDROOT
TORSDOF 0
ENDMDL
