MODEL 1
REMARK minimizedAffinity -3.95806074
REMARK minimizedRMSD -1
REMARK  0 active torsions:
REMARK  status: ('A' for Active; 'I' for Inactive)
ROOT
ATOM      1  C4' PXY d   1      -1.875  -5.649  -5.634  0.00  0.00     0.077 C 
ATOM      2  C1' PXY d   1      -6.000  -1.760  -4.506  0.00  0.00     0.077 C 
ATOM      3  C1  PXY d   1      -4.927  -2.790  -4.801  0.00  0.00    -0.082 A 
ATOM      4  C2  PXY d   1      -3.663  -2.517  -4.518  0.00  0.00     0.003 A 
ATOM      5  C3  PXY d   1      -2.677  -3.424  -4.808  0.00  0.00     0.003 A 
ATOM      6  C4  PXY d   1      -2.993  -4.644  -5.344  0.00  0.00    -0.082 A 
ATOM      7  C5  PXY d   1      -4.281  -4.934  -5.626  0.00  0.00     0.003 A 
ATOM      8  C6  PXY d   1      -5.263  -3.983  -5.362  0.00  0.00     0.003 A 
ENDROOT
TORSDOF 0
ENDMDL
