MODEL 1
REMARK minimizedAffinity -1.00064099
REMARK minimizedRMSD -1
REMARK  0 active torsions:
REMARK  status: ('A' for Active; 'I' for Inactive)
ROOT
ATOM      1  C4' PXY d   1      -3.388  -5.998  -3.673  0.00  0.00     0.077 C 
ATOM      2  C1' PXY d   1      -6.000  -1.291  -5.779  0.00  0.00     0.077 C 
ATOM      3  C1  PXY d   1      -5.322  -2.525  -5.216  0.00  0.00    -0.082 A 
ATOM      4  C2  PXY d   1      -4.096  -2.832  -5.605  0.00  0.00     0.003 A 
ATOM      5  C3  PXY d   1      -3.480  -3.962  -5.130  0.00  0.00     0.003 A 
ATOM      6  C4  PXY d   1      -4.107  -4.757  -4.208  0.00  0.00    -0.082 A 
ATOM      7  C5  PXY d   1      -5.355  -4.444  -3.798  0.00  0.00     0.003 A 
ATOM      8  C6  PXY d   1      -5.978  -3.315  -4.323  0.00  0.00     0.003 A 
ENDROOT
TORSDOF 0
ENDMDL
