MODEL 1
REMARK minimizedAffinity -2.06119227
REMARK minimizedRMSD -1
REMARK  0 active torsions:
REMARK  status: ('A' for Active; 'I' for Inactive)
ROOT
ATOM      1  C4' PXY d   1      -0.942  -5.984  -5.999  0.00  0.00     0.077 C 
ATOM      2  C1' PXY d   1      -5.729  -2.985  -4.772  0.00  0.00     0.077 C 
ATOM      3  C1  PXY d   1      -4.481  -3.783  -5.094  0.00  0.00    -0.082 A 
ATOM      4  C2  PXY d   1      -3.292  -3.291  -4.784  0.00  0.00     0.003 A 
ATOM      5  C3  PXY d   1      -2.152  -3.984  -5.096  0.00  0.00     0.003 A 
ATOM      6  C4  PXY d   1      -2.230  -5.218  -5.685  0.00  0.00    -0.082 A 
ATOM      7  C5  PXY d   1      -3.440  -5.731  -5.994  0.00  0.00     0.003 A 
ATOM      8  C6  PXY d   1      -4.584  -4.993  -5.706  0.00  0.00     0.003 A 
ENDROOT
TORSDOF 0
ENDMDL
