MODEL 1
REMARK minimizedAffinity -2.56602335
REMARK minimizedRMSD -1
REMARK  0 active torsions:
REMARK  status: ('A' for Active; 'I' for Inactive)
ROOT
ATOM      1  C4' PXY d   1      -1.608  -6.000  -5.922  0.00  0.00     0.077 C 
ATOM      2  C1' PXY d   1      -6.000  -3.036  -3.609  0.00  0.00     0.077 C 
ATOM      3  C1  PXY d   1      -4.852  -3.809  -4.228  0.00  0.00    -0.082 A 
ATOM      4  C2  PXY d   1      -4.350  -4.855  -3.592  0.00  0.00     0.003 A 
ATOM      5  C3  PXY d   1      -3.290  -5.546  -4.121  0.00  0.00     0.003 A 
ATOM      6  C4  PXY d   1      -2.774  -5.195  -5.340  0.00  0.00    -0.082 A 
ATOM      7  C5  PXY d   1      -3.288  -4.135  -6.000  0.00  0.00     0.003 A 
ATOM      8  C6  PXY d   1      -4.336  -3.422  -5.426  0.00  0.00     0.003 A 
ENDROOT
TORSDOF 0
ENDMDL
