MODEL 1
REMARK minimizedAffinity -1.08000553
REMARK minimizedRMSD -1
REMARK  0 active torsions:
REMARK  status: ('A' for Active; 'I' for Inactive)
ROOT
ATOM      1  C4' PXY d   1      -2.457  -6.000  -5.337  0.00  0.00     0.077 C 
ATOM      2  C1' PXY d   1      -5.999  -1.479  -5.999  0.00  0.00     0.077 C 
ATOM      3  C1  PXY d   1      -5.079  -2.671  -5.818  0.00  0.00    -0.082 A 
ATOM      4  C2  PXY d   1      -3.769  -2.506  -5.907  0.00  0.00     0.003 A 
ATOM      5  C3  PXY d   1      -2.925  -3.578  -5.778  0.00  0.00     0.003 A 
ATOM      6  C4  PXY d   1      -3.423  -4.823  -5.503  0.00  0.00    -0.082 A 
ATOM      7  C5  PXY d   1      -4.758  -4.998  -5.400  0.00  0.00     0.003 A 
ATOM      8  C6  PXY d   1      -5.600  -3.904  -5.575  0.00  0.00     0.003 A 
ENDROOT
TORSDOF 0
ENDMDL
