MODEL 1
REMARK minimizedAffinity -3.66107917
REMARK minimizedRMSD -1
REMARK  0 active torsions:
REMARK  status: ('A' for Active; 'I' for Inactive)
ROOT
ATOM      1  C4' PXY d   1      -5.274  -1.868  -4.961  0.00  0.00     0.077 C 
ATOM      2  C1' PXY d   1      -1.261  -6.000  -5.453  0.00  0.00     0.077 C 
ATOM      3  C1  PXY d   1      -2.322  -4.925  -5.320  0.00  0.00    -0.082 A 
ATOM      4  C2  PXY d   1      -2.199  -3.796  -6.000  0.00  0.00     0.003 A 
ATOM      5  C3  PXY d   1      -3.132  -2.801  -5.867  0.00  0.00     0.003 A 
ATOM      6  C4  PXY d   1      -4.232  -2.984  -5.071  0.00  0.00    -0.082 A 
ATOM      7  C5  PXY d   1      -4.371  -4.137  -4.383  0.00  0.00     0.003 A 
ATOM      8  C6  PXY d   1      -3.391  -5.119  -4.500  0.00  0.00     0.003 A 
ENDROOT
TORSDOF 0
ENDMDL
