MODEL 1
REMARK minimizedAffinity 4.08601236
REMARK minimizedRMSD -1
REMARK  0 active torsions:
REMARK  status: ('A' for Active; 'I' for Inactive)
ROOT
ATOM      1  C4' PXY d   1      -0.937  -6.000  -5.178  0.00  0.00     0.077 C 
ATOM      2  C1' PXY d   1      -5.778  -2.919  -4.483  0.00  0.00     0.077 C 
ATOM      3  C1  PXY d   1      -4.510  -3.726  -4.678  0.00  0.00    -0.082 A 
ATOM      4  C2  PXY d   1      -4.118  -4.567  -3.735  0.00  0.00     0.003 A 
ATOM      5  C3  PXY d   1      -2.956  -5.280  -3.881  0.00  0.00     0.003 A 
ATOM      6  C4  PXY d   1      -2.216  -5.172  -5.028  0.00  0.00    -0.082 A 
ATOM      7  C5  PXY d   1      -2.615  -4.324  -6.000  0.00  0.00     0.003 A 
ATOM      8  C6  PXY d   1      -3.775  -3.578  -5.814  0.00  0.00     0.003 A 
ENDROOT
TORSDOF 0
ENDMDL
