MODEL 1
REMARK minimizedAffinity -1.3101331
REMARK minimizedRMSD -1
REMARK  0 active torsions:
REMARK  status: ('A' for Active; 'I' for Inactive)
ROOT
ATOM      1  C4' PXY d   1       0.703  -2.156  -0.228  0.00  0.00     0.077 C 
ATOM      2  C1' PXY d   1      -3.609  -0.608   3.297  0.00  0.00     0.077 C 
ATOM      3  C1  PXY d   1      -2.487  -1.021   2.365  0.00  0.00    -0.082 A 
ATOM      4  C2  PXY d   1      -1.238  -1.015   2.803  0.00  0.00     0.003 A 
ATOM      5  C3  PXY d   1      -0.208  -1.355   1.964  0.00  0.00     0.003 A 
ATOM      6  C4  PXY d   1      -0.463  -1.756   0.680  0.00  0.00    -0.082 A 
ATOM      7  C5  PXY d   1      -1.736  -1.775   0.230  0.00  0.00     0.003 A 
ATOM      8  C6  PXY d   1      -2.763  -1.386   1.084  0.00  0.00     0.003 A 
ENDROOT
TORSDOF 0
ENDMDL
