MODEL 1
REMARK minimizedAffinity -1.15359533
REMARK minimizedRMSD -1
REMARK  0 active torsions:
REMARK  status: ('A' for Active; 'I' for Inactive)
ROOT
ATOM      1  C4' PXY d   1      -5.698  -2.261  -3.435  0.00  0.00     0.077 C 
ATOM      2  C1' PXY d   1      -2.113  -6.000  -6.000  0.00  0.00     0.077 C 
ATOM      3  C1  PXY d   1      -3.061  -5.020  -5.337  0.00  0.00    -0.082 A 
ATOM      4  C2  PXY d   1      -2.607  -4.201  -4.403  0.00  0.00     0.003 A 
ATOM      5  C3  PXY d   1      -3.458  -3.330  -3.771  0.00  0.00     0.003 A 
ATOM      6  C4  PXY d   1      -4.775  -3.260  -4.137  0.00  0.00    -0.082 A 
ATOM      7  C5  PXY d   1      -5.243  -4.085  -5.097  0.00  0.00     0.003 A 
ATOM      8  C6  PXY d   1      -4.373  -4.990  -5.698  0.00  0.00     0.003 A 
ENDROOT
TORSDOF 0
ENDMDL
