MODEL 1
REMARK minimizedAffinity 4.04637051
REMARK minimizedRMSD -1
REMARK  0 active torsions:
REMARK  status: ('A' for Active; 'I' for Inactive)
ROOT
ATOM      1  C4' PXY d   1       0.959  -3.069   3.675  0.00  0.00     0.077 C 
ATOM      2  C1' PXY d   1       1.570  -0.448  -1.441  0.00  0.00     0.077 C 
ATOM      3  C1  PXY d   1       1.402  -1.125  -0.095  0.00  0.00    -0.082 A 
ATOM      4  C2  PXY d   1       2.319  -1.981   0.325  0.00  0.00     0.003 A 
ATOM      5  C3  PXY d   1       2.167  -2.627   1.525  0.00  0.00     0.003 A 
ATOM      6  C4  PXY d   1       1.092  -2.354   2.327  0.00  0.00    -0.082 A 
ATOM      7  C5  PXY d   1       0.157  -1.475   1.910  0.00  0.00     0.003 A 
ATOM      8  C6  PXY d   1       0.309  -0.860   0.671  0.00  0.00     0.003 A 
ENDROOT
TORSDOF 0
ENDMDL
