MODEL 1
REMARK minimizedAffinity -3.35652423
REMARK minimizedRMSD -1
REMARK  0 active torsions:
REMARK  status: ('A' for Active; 'I' for Inactive)
ROOT
ATOM      1  C4' PXY d   1      -2.907  -5.999  -4.739  0.00  0.00     0.077 C 
ATOM      2  C1' PXY d   1      -5.999  -1.281  -5.999  0.00  0.00     0.077 C 
ATOM      3  C1  PXY d   1      -5.199  -2.524  -5.664  0.00  0.00    -0.082 A 
ATOM      4  C2  PXY d   1      -3.894  -2.428  -5.466  0.00  0.00     0.003 A 
ATOM      5  C3  PXY d   1      -3.150  -3.547  -5.194  0.00  0.00     0.003 A 
ATOM      6  C4  PXY d   1      -3.756  -4.769  -5.070  0.00  0.00    -0.082 A 
ATOM      7  C5  PXY d   1      -5.088  -4.873  -5.260  0.00  0.00     0.003 A 
ATOM      8  C6  PXY d   1      -5.819  -3.732  -5.576  0.00  0.00     0.003 A 
ENDROOT
TORSDOF 0
ENDMDL
