MODEL 1
REMARK minimizedAffinity 0.60411799
REMARK minimizedRMSD -1
REMARK  0 active torsions:
REMARK  status: ('A' for Active; 'I' for Inactive)
ROOT
ATOM      1  C4' PXY d   1      -6.000  -4.076  -6.000  0.00  0.00     0.077 C 
ATOM      2  C1' PXY d   1      -1.790  -5.508  -2.306  0.00  0.00     0.077 C 
ATOM      3  C1  PXY d   1      -2.900  -5.125  -3.266  0.00  0.00    -0.082 A 
ATOM      4  C2  PXY d   1      -3.208  -5.934  -4.266  0.00  0.00     0.003 A 
ATOM      5  C3  PXY d   1      -4.187  -5.588  -5.162  0.00  0.00     0.003 A 
ATOM      6  C4  PXY d   1      -4.893  -4.426  -5.001  0.00  0.00    -0.082 A 
ATOM      7  C5  PXY d   1      -4.592  -3.600  -3.977  0.00  0.00     0.003 A 
ATOM      8  C6  PXY d   1      -3.567  -3.950  -3.103  0.00  0.00     0.003 A 
ENDROOT
TORSDOF 0
ENDMDL
