MODEL 1
REMARK minimizedAffinity -1.72095931
REMARK minimizedRMSD -1
REMARK  0 active torsions:
REMARK  status: ('A' for Active; 'I' for Inactive)
ROOT
ATOM      1  C4' PXY d   1      -1.396  -5.712  -4.886  0.00  0.00     0.077 C 
ATOM      2  C1' PXY d   1      -5.968  -2.175  -4.914  0.00  0.00     0.077 C 
ATOM      3  C1  PXY d   1      -4.764  -3.096  -4.897  0.00  0.00    -0.082 A 
ATOM      4  C2  PXY d   1      -4.417  -3.739  -6.000  0.00  0.00     0.003 A 
ATOM      5  C3  PXY d   1      -3.350  -4.601  -5.993  0.00  0.00     0.003 A 
ATOM      6  C4  PXY d   1      -2.599  -4.765  -4.860  0.00  0.00    -0.082 A 
ATOM      7  C5  PXY d   1      -2.941  -4.104  -3.734  0.00  0.00     0.003 A 
ATOM      8  C6  PXY d   1      -4.052  -3.266  -3.750  0.00  0.00     0.003 A 
ENDROOT
TORSDOF 0
ENDMDL
