MODEL 1
REMARK minimizedAffinity -3.07924151
REMARK minimizedRMSD -1
REMARK  0 active torsions:
REMARK  status: ('A' for Active; 'I' for Inactive)
ROOT
ATOM      1  C4' PXY d   1      -1.811  -6.000  -5.310  0.00  0.00     0.077 C 
ATOM      2  C1' PXY d   1      -6.000  -2.043  -5.778  0.00  0.00     0.077 C 
ATOM      3  C1  PXY d   1      -4.910  -3.089  -5.650  0.00  0.00    -0.082 A 
ATOM      4  C2  PXY d   1      -3.650  -2.709  -5.517  0.00  0.00     0.003 A 
ATOM      5  C3  PXY d   1      -2.649  -3.642  -5.433  0.00  0.00     0.003 A 
ATOM      6  C4  PXY d   1      -2.945  -4.978  -5.432  0.00  0.00    -0.082 A 
ATOM      7  C5  PXY d   1      -4.230  -5.375  -5.557  0.00  0.00     0.003 A 
ATOM      8  C6  PXY d   1      -5.227  -4.412  -5.683  0.00  0.00     0.003 A 
ENDROOT
TORSDOF 0
ENDMDL
