MODEL 1
REMARK minimizedAffinity 3.1691978
REMARK minimizedRMSD -1
REMARK  0 active torsions:
REMARK  status: ('A' for Active; 'I' for Inactive)
ROOT
ATOM      1  C4' PXY d   1       1.524  -3.312   4.896  0.00  0.00     0.077 C 
ATOM      2  C1' PXY d   1      -0.024  -0.192   0.282  0.00  0.00     0.077 C 
ATOM      3  C1  PXY d   1       0.387  -1.019   1.484  0.00  0.00    -0.082 A 
ATOM      4  C2  PXY d   1      -0.259  -0.874   2.630  0.00  0.00     0.003 A 
ATOM      5  C3  PXY d   1       0.121  -1.591   3.735  0.00  0.00     0.003 A 
ATOM      6  C4  PXY d   1       1.137  -2.504   3.653  0.00  0.00    -0.082 A 
ATOM      7  C5  PXY d   1       1.794  -2.666   2.485  0.00  0.00     0.003 A 
ATOM      8  C6  PXY d   1       1.420  -1.899   1.386  0.00  0.00     0.003 A 
ENDROOT
TORSDOF 0
ENDMDL
