MODEL 1
REMARK minimizedAffinity 5.78563118
REMARK minimizedRMSD -1
REMARK  0 active torsions:
REMARK  status: ('A' for Active; 'I' for Inactive)
ROOT
ATOM      1  C4' PXY d   1      -5.420  -6.000  -5.948  0.00  0.00     0.077 C 
ATOM      2  C1' PXY d   1      -4.056  -0.757  -3.931  0.00  0.00     0.077 C 
ATOM      3  C1  PXY d   1      -4.403  -2.133  -4.466  0.00  0.00    -0.082 A 
ATOM      4  C2  PXY d   1      -5.670  -2.507  -4.537  0.00  0.00     0.003 A 
ATOM      5  C3  PXY d   1      -5.999  -3.759  -4.989  0.00  0.00     0.003 A 
ATOM      6  C4  PXY d   1      -5.024  -4.617  -5.423  0.00  0.00    -0.082 A 
ATOM      7  C5  PXY d   1      -3.730  -4.239  -5.364  0.00  0.00     0.003 A 
ATOM      8  C6  PXY d   1      -3.414  -2.979  -4.863  0.00  0.00     0.003 A 
ENDROOT
TORSDOF 0
ENDMDL
