MODEL 1
REMARK minimizedAffinity -2.35645175
REMARK minimizedRMSD -1
REMARK  0 active torsions:
REMARK  status: ('A' for Active; 'I' for Inactive)
ROOT
ATOM      1  C4' PXY d   1      -1.022  -5.989  -5.335  0.00  0.00     0.077 C 
ATOM      2  C1' PXY d   1      -5.999  -3.179  -4.469  0.00  0.00     0.077 C 
ATOM      3  C1  PXY d   1      -4.693  -3.918  -4.683  0.00  0.00    -0.082 A 
ATOM      4  C2  PXY d   1      -3.980  -3.684  -5.774  0.00  0.00     0.003 A 
ATOM      5  C3  PXY d   1      -2.813  -4.366  -5.999  0.00  0.00     0.003 A 
ATOM      6  C4  PXY d   1      -2.343  -5.259  -5.073  0.00  0.00    -0.082 A 
ATOM      7  C5  PXY d   1      -3.058  -5.495  -3.953  0.00  0.00     0.003 A 
ATOM      8  C6  PXY d   1      -4.262  -4.822  -3.763  0.00  0.00     0.003 A 
ENDROOT
TORSDOF 0
ENDMDL
