MODEL 1
REMARK minimizedAffinity -2.60793591
REMARK minimizedRMSD -1
REMARK  0 active torsions:
REMARK  status: ('A' for Active; 'I' for Inactive)
ROOT
ATOM      1  C4' PXY d   1      -0.646  -5.151  -3.786  0.00  0.00     0.077 C 
ATOM      2  C1' PXY d   1      -5.986  -5.134  -6.000  0.00  0.00     0.077 C 
ATOM      3  C1  PXY d   1      -4.587  -5.126  -5.415  0.00  0.00    -0.082 A 
ATOM      4  C2  PXY d   1      -3.680  -5.972  -5.877  0.00  0.00     0.003 A 
ATOM      5  C3  PXY d   1      -2.419  -6.000  -5.338  0.00  0.00     0.003 A 
ATOM      6  C4  PXY d   1      -2.068  -5.117  -4.352  0.00  0.00    -0.082 A 
ATOM      7  C5  PXY d   1      -2.984  -4.244  -3.883  0.00  0.00     0.003 A 
ATOM      8  C6  PXY d   1      -4.270  -4.260  -4.415  0.00  0.00     0.003 A 
ENDROOT
TORSDOF 0
ENDMDL
