MODEL 1
REMARK minimizedAffinity -3.19008994
REMARK minimizedRMSD -1
REMARK  0 active torsions:
REMARK  status: ('A' for Active; 'I' for Inactive)
ROOT
ATOM      1  C4' PXY d   1      -6.000  -3.769  -4.156  0.00  0.00     0.077 C 
ATOM      2  C1' PXY d   1      -0.993  -5.999  -5.991  0.00  0.00     0.077 C 
ATOM      3  C1  PXY d   1      -2.312  -5.419  -5.520  0.00  0.00    -0.082 A 
ATOM      4  C2  PXY d   1      -2.314  -4.380  -4.701  0.00  0.00     0.003 A 
ATOM      5  C3  PXY d   1      -3.498  -3.863  -4.240  0.00  0.00     0.003 A 
ATOM      6  C4  PXY d   1      -4.692  -4.381  -4.665  0.00  0.00    -0.082 A 
ATOM      7  C5  PXY d   1      -4.698  -5.434  -5.509  0.00  0.00     0.003 A 
ATOM      8  C6  PXY d   1      -3.485  -5.970  -5.933  0.00  0.00     0.003 A 
ENDROOT
TORSDOF 0
ENDMDL
