MODEL 1
REMARK minimizedAffinity -4.43775654
REMARK minimizedRMSD -1
REMARK  0 active torsions:
REMARK  status: ('A' for Active; 'I' for Inactive)
ROOT
ATOM      1  C4' PXY d   1      -5.048  -2.591  -5.526  0.00  0.00     0.077 C 
ATOM      2  C1' PXY d   1      -0.711  -5.978  -3.755  0.00  0.00     0.077 C 
ATOM      3  C1  PXY d   1      -1.842  -5.088  -4.230  0.00  0.00    -0.082 A 
ATOM      4  C2  PXY d   1      -2.647  -4.524  -3.345  0.00  0.00     0.003 A 
ATOM      5  C3  PXY d   1      -3.695  -3.742  -3.759  0.00  0.00     0.003 A 
ATOM      6  C4  PXY d   1      -3.887  -3.490  -5.091  0.00  0.00    -0.082 A 
ATOM      7  C5  PXY d   1      -3.063  -4.053  -6.000  0.00  0.00     0.003 A 
ATOM      8  C6  PXY d   1      -2.031  -4.877  -5.561  0.00  0.00     0.003 A 
ENDROOT
TORSDOF 0
ENDMDL
