MODEL 1
REMARK minimizedAffinity 4.21281862
REMARK minimizedRMSD -1
REMARK  0 active torsions:
REMARK  status: ('A' for Active; 'I' for Inactive)
ROOT
ATOM      1  C2' OXE d   1      -1.333  -1.334   3.379  0.00  0.00     0.078 C 
ATOM      2  C1' OXE d   1       1.024  -0.531   2.081  0.00  0.00     0.078 C 
ATOM      3  C1  OXE d   1       1.151  -1.152   3.450  0.00  0.00    -0.078 A 
ATOM      4  C2  OXE d   1      -0.010  -1.499   4.097  0.00  0.00    -0.078 A 
ATOM      5  C3  OXE d   1       0.053  -2.126   5.338  0.00  0.00     0.003 A 
ATOM      6  C4  OXE d   1       1.279  -2.266   6.000  0.00  0.00    -0.002 A 
ATOM      7  C5  OXE d   1       2.471  -1.883   5.375  0.00  0.00    -0.002 A 
ATOM      8  C6  OXE d   1       2.428  -1.365   4.085  0.00  0.00     0.003 A 
ENDROOT
TORSDOF 0
ENDMDL
