MODEL 1
REMARK minimizedAffinity 6.86132431
REMARK minimizedRMSD -1
REMARK  0 active torsions:
REMARK  status: ('A' for Active; 'I' for Inactive)
ROOT
ATOM      1  C2' OXE d   1       0.101  -0.083  -0.606  0.00  0.00     0.078 C 
ATOM      2  C1' OXE d   1       0.893   1.159  -2.995  0.00  0.00     0.078 C 
ATOM      3  C1  OXE d   1       1.603   1.558  -1.726  0.00  0.00    -0.078 A 
ATOM      4  C2  OXE d   1       1.178   0.979  -0.555  0.00  0.00    -0.078 A 
ATOM      5  C3  OXE d   1       1.835   1.271   0.637  0.00  0.00     0.003 A 
ATOM      6  C4  OXE d   1       2.823   2.262   0.677  0.00  0.00    -0.002 A 
ATOM      7  C5  OXE d   1       3.245   2.892  -0.498  0.00  0.00    -0.002 A 
ATOM      8  C6  OXE d   1       2.676   2.522  -1.712  0.00  0.00     0.003 A 
ENDROOT
TORSDOF 0
ENDMDL
