MODEL 1
REMARK minimizedAffinity -0.343084097
REMARK minimizedRMSD -1
REMARK  0 active torsions:
REMARK  status: ('A' for Active; 'I' for Inactive)
ROOT
ATOM      1  C2' OXE d   1      -2.009   0.600  -0.178  0.00  0.00     0.078 C 
ATOM      2  C1' OXE d   1       0.694  -0.145  -0.038  0.00  0.00     0.078 C 
ATOM      3  C1  OXE d   1      -0.128  -0.238   1.224  0.00  0.00    -0.078 A 
ATOM      4  C2  OXE d   1      -1.437   0.173   1.157  0.00  0.00    -0.078 A 
ATOM      5  C3  OXE d   1      -2.254   0.056   2.278  0.00  0.00     0.003 A 
ATOM      6  C4  OXE d   1      -1.715  -0.330   3.511  0.00  0.00    -0.002 A 
ATOM      7  C5  OXE d   1      -0.373  -0.715   3.610  0.00  0.00    -0.002 A 
ATOM      8  C6  OXE d   1       0.421  -0.715   2.469  0.00  0.00     0.003 A 
ENDROOT
TORSDOF 0
ENDMDL
