MODEL 1
REMARK minimizedAffinity 1.55473042
REMARK minimizedRMSD -1
REMARK  0 active torsions:
REMARK  status: ('A' for Active; 'I' for Inactive)
ROOT
ATOM      1  C2' OXE d   1       0.411   0.149   1.587  0.00  0.00     0.078 C 
ATOM      2  C1' OXE d   1      -2.034   0.048   0.211  0.00  0.00     0.078 C 
ATOM      3  C1  OXE d   1      -2.017  -0.404   1.650  0.00  0.00    -0.078 A 
ATOM      4  C2  OXE d   1      -0.807  -0.395   2.301  0.00  0.00    -0.078 A 
ATOM      5  C3  OXE d   1      -0.746  -0.750   3.646  0.00  0.00     0.003 A 
ATOM      6  C4  OXE d   1      -1.875  -1.261   4.296  0.00  0.00    -0.002 A 
ATOM      7  C5  OXE d   1      -3.109  -1.316   3.639  0.00  0.00    -0.002 A 
ATOM      8  C6  OXE d   1      -3.206  -0.852   2.332  0.00  0.00     0.003 A 
ENDROOT
TORSDOF 0
ENDMDL
