MODEL 1
REMARK minimizedAffinity -0.443765581
REMARK minimizedRMSD -1
REMARK  0 active torsions:
REMARK  status: ('A' for Active; 'I' for Inactive)
ROOT
ATOM      1  C2' OXE d   1      -0.104   0.012   1.533  0.00  0.00     0.078 C 
ATOM      2  C1' OXE d   1       0.889  -1.285   3.815  0.00  0.00     0.078 C 
ATOM      3  C1  OXE d   1      -0.604  -1.279   3.604  0.00  0.00    -0.078 A 
ATOM      4  C2  OXE d   1      -1.085  -0.601   2.509  0.00  0.00    -0.078 A 
ATOM      5  C3  OXE d   1      -2.450  -0.610   2.237  0.00  0.00     0.003 A 
ATOM      6  C4  OXE d   1      -3.351  -1.171   3.150  0.00  0.00    -0.002 A 
ATOM      7  C5  OXE d   1      -2.885  -1.832   4.292  0.00  0.00    -0.002 A 
ATOM      8  C6  OXE d   1      -1.515  -1.931   4.511  0.00  0.00     0.003 A 
ENDROOT
TORSDOF 0
ENDMDL
