MODEL 1
REMARK minimizedAffinity -0.249777466
REMARK minimizedRMSD -1
REMARK  0 active torsions:
REMARK  status: ('A' for Active; 'I' for Inactive)
ROOT
ATOM      1  C1  DEN d   1       0.622   2.878  -0.040  0.00  0.00     0.130 A 
ATOM      2  C2  DEN d   1      -0.350   2.894  -1.129  0.00  0.00    -0.031 A 
ATOM      3  C3  DEN d   1      -0.498   1.512  -1.629  0.00  0.00     0.027 A 
ATOM      4  C4  DEN d   1       0.673  -0.640  -0.822  0.00  0.00     0.027 A 
ATOM      5  C5  DEN d   1       1.590  -1.152   0.069  0.00  0.00    -0.003 A 
ATOM      6  C6  DEN d   1       2.268  -0.359   0.956  0.00  0.00     0.001 A 
ATOM      7  C7  DEN d   1       2.007   0.985   1.002  0.00  0.00     0.017 A 
ATOM      8  C8  DEN d   1       1.089   1.510   0.102  0.00  0.00    -0.094 A 
ATOM      9  C9  DEN d   1       0.404   0.690  -0.779  0.00  0.00    -0.072 A 
ENDROOT
TORSDOF 0
ENDMDL
