MODEL 1
REMARK minimizedAffinity 2.1817534
REMARK minimizedRMSD -1
REMARK  0 active torsions:
REMARK  status: ('A' for Active; 'I' for Inactive)
ROOT
ATOM      1  C1  DEN d   1       0.611   0.698  -0.438  0.00  0.00     0.130 A 
ATOM      2  C2  DEN d   1      -0.756   0.910  -0.906  0.00  0.00    -0.031 A 
ATOM      3  C3  DEN d   1      -1.666   0.174  -0.004  0.00  0.00     0.027 A 
ATOM      4  C4  DEN d   1      -1.094  -1.259   2.062  0.00  0.00     0.027 A 
ATOM      5  C5  DEN d   1      -0.068  -1.742   2.844  0.00  0.00    -0.003 A 
ATOM      6  C6  DEN d   1       1.247  -1.476   2.569  0.00  0.00     0.001 A 
ATOM      7  C7  DEN d   1       1.570  -0.668   1.511  0.00  0.00     0.017 A 
ATOM      8  C8  DEN d   1       0.541  -0.183   0.713  0.00  0.00    -0.094 A 
ATOM      9  C9  DEN d   1      -0.783  -0.454   1.015  0.00  0.00    -0.072 A 
ENDROOT
TORSDOF 0
ENDMDL
