MODEL 1
REMARK minimizedAffinity 0.940957904
REMARK minimizedRMSD -1
REMARK  0 active torsions:
REMARK  status: ('A' for Active; 'I' for Inactive)
ROOT
ATOM      1  C1  DEN d   1      -2.109   0.049  -1.773  0.00  0.00     0.130 A 
ATOM      2  C2  DEN d   1      -0.650  -0.003  -1.790  0.00  0.00    -0.031 A 
ATOM      3  C3  DEN d   1      -0.154   1.285  -2.316  0.00  0.00     0.027 A 
ATOM      4  C4  DEN d   1      -1.496   3.344  -3.097  0.00  0.00     0.027 A 
ATOM      5  C5  DEN d   1      -2.762   3.855  -3.280  0.00  0.00    -0.003 A 
ATOM      6  C6  DEN d   1      -3.890   3.127  -3.008  0.00  0.00     0.001 A 
ATOM      7  C7  DEN d   1      -3.774   1.863  -2.494  0.00  0.00     0.017 A 
ATOM      8  C8  DEN d   1      -2.501   1.337  -2.314  0.00  0.00    -0.094 A 
ATOM      9  C9  DEN d   1      -1.373   2.094  -2.584  0.00  0.00    -0.072 A 
ENDROOT
TORSDOF 0
ENDMDL
