MODEL 1
REMARK minimizedAffinity -1.35439587
REMARK minimizedRMSD -1
REMARK  0 active torsions:
REMARK  status: ('A' for Active; 'I' for Inactive)
ROOT
ATOM      1  C1  DEN d   1       0.276   1.491   0.485  0.00  0.00     0.130 A 
ATOM      2  C2  DEN d   1       0.048   0.120   0.037  0.00  0.00    -0.031 A 
ATOM      3  C3  DEN d   1      -0.352   0.164  -1.384  0.00  0.00     0.027 A 
ATOM      4  C4  DEN d   1      -0.632   2.212  -2.927  0.00  0.00     0.027 A 
ATOM      5  C5  DEN d   1      -0.560   3.586  -2.993  0.00  0.00    -0.003 A 
ATOM      6  C6  DEN d   1      -0.241   4.354  -1.905  0.00  0.00     0.001 A 
ATOM      7  C7  DEN d   1       0.064   3.749  -0.714  0.00  0.00     0.017 A 
ATOM      8  C8  DEN d   1      -0.013   2.365  -0.637  0.00  0.00    -0.094 A 
ATOM      9  C9  DEN d   1      -0.327   1.606  -1.752  0.00  0.00    -0.072 A 
ENDROOT
TORSDOF 0
ENDMDL
