MODEL 1
REMARK minimizedAffinity -5.17882204
REMARK minimizedRMSD -1
REMARK  0 active torsions:
REMARK  status: ('A' for Active; 'I' for Inactive)
ROOT
ATOM      1  C1  DEN d   1      -0.628  -0.281  -0.788  0.00  0.00     0.130 A 
ATOM      2  C2  DEN d   1       0.205  -0.654  -1.928  0.00  0.00    -0.031 A 
ATOM      3  C3  DEN d   1       1.559  -0.960  -1.423  0.00  0.00     0.027 A 
ATOM      4  C4  DEN d   1       2.440  -0.898   1.000  0.00  0.00     0.027 A 
ATOM      5  C5  DEN d   1       2.106  -0.628   2.309  0.00  0.00    -0.003 A 
ATOM      6  C6  DEN d   1       0.858  -0.195   2.670  0.00  0.00     0.001 A 
ATOM      7  C7  DEN d   1      -0.116  -0.061   1.716  0.00  0.00     0.017 A 
ATOM      8  C8  DEN d   1       0.214  -0.324   0.394  0.00  0.00    -0.094 A 
ATOM      9  C9  DEN d   1       1.478  -0.773   0.050  0.00  0.00    -0.072 A 
ENDROOT
TORSDOF 0
ENDMDL
