MODEL 1
REMARK minimizedAffinity -5.1212492
REMARK minimizedRMSD -1
REMARK  0 active torsions:
REMARK  status: ('A' for Active; 'I' for Inactive)
ROOT
ATOM      1  C1  DEN d   1      -2.534  -0.851   0.027  0.00  0.00     0.130 A 
ATOM      2  C2  DEN d   1      -3.101  -0.933   1.370  0.00  0.00    -0.031 A 
ATOM      3  C3  DEN d   1      -2.034  -0.602   2.337  0.00  0.00     0.027 A 
ATOM      4  C4  DEN d   1       0.425   0.031   1.886  0.00  0.00     0.027 A 
ATOM      5  C5  DEN d   1       1.374   0.221   0.905  0.00  0.00    -0.003 A 
ATOM      6  C6  DEN d   1       1.097   0.036  -0.424  0.00  0.00     0.001 A 
ATOM      7  C7  DEN d   1      -0.171  -0.307  -0.812  0.00  0.00     0.017 A 
ATOM      8  C8  DEN d   1      -1.130  -0.508   0.171  0.00  0.00    -0.094 A 
ATOM      9  C9  DEN d   1      -0.835  -0.304   1.509  0.00  0.00    -0.072 A 
ENDROOT
TORSDOF 0
ENDMDL
