MODEL 1
REMARK minimizedAffinity -1.71078265
REMARK minimizedRMSD -1
REMARK  0 active torsions:
REMARK  status: ('A' for Active; 'I' for Inactive)
ROOT
ATOM      1  C1  DEN d   1      -2.923  -0.924  -1.696  0.00  0.00     0.130 A 
ATOM      2  C2  DEN d   1      -3.859  -1.645  -0.838  0.00  0.00    -0.031 A 
ATOM      3  C3  DEN d   1      -3.330  -1.618   0.540  0.00  0.00     0.027 A 
ATOM      4  C4  DEN d   1      -1.164  -0.532   1.425  0.00  0.00     0.027 A 
ATOM      5  C5  DEN d   1      -0.041   0.183   1.071  0.00  0.00    -0.003 A 
ATOM      6  C6  DEN d   1       0.215   0.546  -0.224  0.00  0.00     0.001 A 
ATOM      7  C7  DEN d   1      -0.686   0.234  -1.207  0.00  0.00     0.017 A 
ATOM      8  C8  DEN d   1      -1.818  -0.492  -0.860  0.00  0.00    -0.094 A 
ATOM      9  C9  DEN d   1      -2.065  -0.839   0.458  0.00  0.00    -0.072 A 
ENDROOT
TORSDOF 0
ENDMDL
