MODEL 1
REMARK minimizedAffinity -5.29814529
REMARK minimizedRMSD -1
REMARK  0 active torsions:
REMARK  status: ('A' for Active; 'I' for Inactive)
ROOT
ATOM      1  C1  DEN d   1      -0.326  -0.617  -0.983  0.00  0.00     0.130 A 
ATOM      2  C2  DEN d   1      -1.731  -0.965  -0.793  0.00  0.00    -0.031 A 
ATOM      3  C3  DEN d   1      -1.962  -1.161   0.652  0.00  0.00     0.027 A 
ATOM      4  C4  DEN d   1      -0.290  -0.956   2.605  0.00  0.00     0.027 A 
ATOM      5  C5  DEN d   1       1.021  -0.693   2.938  0.00  0.00    -0.003 A 
ATOM      6  C6  DEN d   1       1.974  -0.421   1.992  0.00  0.00     0.001 A 
ATOM      7  C7  DEN d   1       1.621  -0.362   0.670  0.00  0.00     0.017 A 
ATOM      8  C8  DEN d   1       0.303  -0.634   0.326  0.00  0.00    -0.094 A 
ATOM      9  C9  DEN d   1      -0.648  -0.894   1.298  0.00  0.00    -0.072 A 
ENDROOT
TORSDOF 0
ENDMDL
