MODEL 1
REMARK minimizedAffinity -3.68781567
REMARK minimizedRMSD -1
REMARK  0 active torsions:
REMARK  status: ('A' for Active; 'I' for Inactive)
ROOT
ATOM      1  C1  DEN d   1      -1.198  -0.371  -0.148  0.00  0.00     0.130 A 
ATOM      2  C2  DEN d   1      -0.755  -0.461  -1.537  0.00  0.00    -0.031 A 
ATOM      3  C3  DEN d   1       0.721  -0.514  -1.542  0.00  0.00     0.027 A 
ATOM      4  C4  DEN d   1       2.354  -0.471   0.454  0.00  0.00     0.027 A 
ATOM      5  C5  DEN d   1       2.447  -0.391   1.826  0.00  0.00    -0.003 A 
ATOM      6  C6  DEN d   1       1.344  -0.265   2.627  0.00  0.00     0.001 A 
ATOM      7  C7  DEN d   1       0.094  -0.262   2.065  0.00  0.00     0.017 A 
ATOM      8  C8  DEN d   1      -0.008  -0.335   0.682  0.00  0.00    -0.094 A 
ATOM      9  C9  DEN d   1       1.119  -0.473  -0.110  0.00  0.00    -0.072 A 
ENDROOT
TORSDOF 0
ENDMDL
