MODEL 1
REMARK minimizedAffinity -2.23408961
REMARK minimizedRMSD -1
REMARK  0 active torsions:
REMARK  status: ('A' for Active; 'I' for Inactive)
ROOT
ATOM      1  C1  DEN d   1      -0.153   1.355  -0.509  0.00  0.00     0.130 A 
ATOM      2  C2  DEN d   1       0.165  -0.059  -0.683  0.00  0.00    -0.031 A 
ATOM      3  C3  DEN d   1       0.451  -0.290  -2.113  0.00  0.00     0.027 A 
ATOM      4  C4  DEN d   1       0.438   1.397  -4.063  0.00  0.00     0.027 A 
ATOM      5  C5  DEN d   1       0.216   2.712  -4.409  0.00  0.00    -0.003 A 
ATOM      6  C6  DEN d   1      -0.174   3.652  -3.492  0.00  0.00     0.001 A 
ATOM      7  C7  DEN d   1      -0.311   3.300  -2.175  0.00  0.00     0.017 A 
ATOM      8  C8  DEN d   1      -0.096   1.974  -1.821  0.00  0.00    -0.094 A 
ATOM      9  C9  DEN d   1       0.310   1.042  -2.760  0.00  0.00    -0.072 A 
ENDROOT
TORSDOF 0
ENDMDL
