MODEL 1
REMARK minimizedAffinity -1.99666679
REMARK minimizedRMSD -1
REMARK  0 active torsions:
REMARK  status: ('A' for Active; 'I' for Inactive)
ROOT
ATOM      1  C1  DEN d   1       1.144   0.043  -2.349  0.00  0.00     0.130 A 
ATOM      2  C2  DEN d   1       0.087  -0.713  -1.683  0.00  0.00    -0.031 A 
ATOM      3  C3  DEN d   1      -1.086   0.173  -1.537  0.00  0.00     0.027 A 
ATOM      4  C4  DEN d   1      -1.368   2.627  -2.280  0.00  0.00     0.027 A 
ATOM      5  C5  DEN d   1      -0.741   3.698  -2.878  0.00  0.00    -0.003 A 
ATOM      6  C6  DEN d   1       0.559   3.637  -3.307  0.00  0.00     0.001 A 
ATOM      7  C7  DEN d   1       1.259   2.466  -3.185  0.00  0.00     0.017 A 
ATOM      8  C8  DEN d   1       0.636   1.384  -2.577  0.00  0.00    -0.094 A 
ATOM      9  C9  DEN d   1      -0.682   1.462  -2.161  0.00  0.00    -0.072 A 
ENDROOT
TORSDOF 0
ENDMDL
