MODEL 1
REMARK minimizedAffinity 4.86350203
REMARK minimizedRMSD -1
REMARK  0 active torsions:
REMARK  status: ('A' for Active; 'I' for Inactive)
ROOT
ATOM      1  C   UNL d   1       2.304   2.755   4.080  0.00  0.00     0.023 A 
ATOM      2  C1  UNL d   1       3.238   3.396   3.266  0.00  0.00     0.003 A 
ATOM      3  C2  UNL d   1       4.121   4.328   3.816  0.00  0.00     0.048 A 
ATOM      4  C3  UNL d   1       4.065   4.613   5.180  0.00  0.00     0.023 A 
ATOM      5  C4  UNL d   1       3.133   3.973   5.998  0.00  0.00     0.048 A 
ATOM      6  C5  UNL d   1       2.252   3.042   5.444  0.00  0.00     0.003 A 
ATOM      7  I   UNL d   1       5.378   5.999   6.000  0.00  0.00    -0.146 I 
ENDROOT
TORSDOF 0
ENDMDL
