MODEL 1
REMARK minimizedAffinity 8.92774105
REMARK minimizedRMSD -1
REMARK  0 active torsions:
REMARK  status: ('A' for Active; 'I' for Inactive)
ROOT
ATOM      1  C   UNL d   1      -5.200   4.741   5.989  0.00  0.00     0.023 A 
ATOM      2  C1  UNL d   1      -5.649   3.477   5.607  0.00  0.00     0.003 A 
ATOM      3  C2  UNL d   1      -5.879   3.195   4.259  0.00  0.00     0.048 A 
ATOM      4  C3  UNL d   1      -5.658   4.181   3.298  0.00  0.00     0.023 A 
ATOM      5  C4  UNL d   1      -5.208   5.447   3.676  0.00  0.00     0.048 A 
ATOM      6  C5  UNL d   1      -4.980   5.725   5.025  0.00  0.00     0.003 A 
ATOM      7  I   UNL d   1      -6.000   3.763   1.291  0.00  0.00    -0.146 I 
ENDROOT
TORSDOF 0
ENDMDL
