MODEL 1
REMARK minimizedAffinity 7.07101011
REMARK minimizedRMSD -1
REMARK  0 active torsions:
REMARK  status: ('A' for Active; 'I' for Inactive)
ROOT
ATOM      1  C   UNL d   1       4.167   2.372   0.453  0.00  0.00     0.023 A 
ATOM      2  C1  UNL d   1       4.934   1.395  -0.180  0.00  0.00     0.003 A 
ATOM      3  C2  UNL d   1       4.397   0.128  -0.419  0.00  0.00     0.048 A 
ATOM      4  C3  UNL d   1       3.090  -0.154  -0.022  0.00  0.00     0.023 A 
ATOM      5  C4  UNL d   1       2.317   0.822   0.610  0.00  0.00     0.048 A 
ATOM      6  C5  UNL d   1       2.860   2.086   0.848  0.00  0.00     0.003 A 
ATOM      7  I   UNL d   1       2.287  -2.038  -0.376  0.00  0.00    -0.146 I 
ENDROOT
TORSDOF 0
ENDMDL
