MODEL 1
REMARK minimizedAffinity 4.01002598
REMARK minimizedRMSD -1
REMARK  0 active torsions:
REMARK  status: ('A' for Active; 'I' for Inactive)
ROOT
ATOM      1  C   UNL d   1      -3.062   5.873   4.086  0.00  0.00     0.023 A 
ATOM      2  C1  UNL d   1      -3.470   5.977   5.416  0.00  0.00     0.003 A 
ATOM      3  C2  UNL d   1      -4.313   5.010   5.967  0.00  0.00     0.048 A 
ATOM      4  C3  UNL d   1      -4.744   3.941   5.182  0.00  0.00     0.023 A 
ATOM      5  C4  UNL d   1      -4.338   3.832   3.851  0.00  0.00     0.048 A 
ATOM      6  C5  UNL d   1      -3.496   4.802   3.305  0.00  0.00     0.003 A 
ATOM      7  I   UNL d   1      -6.000   2.501   6.000  0.00  0.00    -0.146 I 
ENDROOT
TORSDOF 0
ENDMDL
