MODEL 1
REMARK minimizedAffinity 7.78088045
REMARK minimizedRMSD -1
REMARK  0 active torsions:
REMARK  status: ('A' for Active; 'I' for Inactive)
ROOT
ATOM      1  C   UNL d   1      -4.220   5.962   4.338  0.00  0.00     0.023 A 
ATOM      2  C1  UNL d   1      -3.714   4.773   3.811  0.00  0.00     0.003 A 
ATOM      3  C2  UNL d   1      -4.222   3.546   4.241  0.00  0.00     0.048 A 
ATOM      4  C3  UNL d   1      -5.237   3.514   5.197  0.00  0.00     0.023 A 
ATOM      5  C4  UNL d   1      -5.747   4.701   5.725  0.00  0.00     0.048 A 
ATOM      6  C5  UNL d   1      -5.235   5.926   5.293  0.00  0.00     0.003 A 
ATOM      7  I   UNL d   1      -5.995   1.688   5.838  0.00  0.00    -0.146 I 
ENDROOT
TORSDOF 0
ENDMDL
