MODEL 1
REMARK minimizedAffinity 18.5731182
REMARK minimizedRMSD -1
REMARK  0 active torsions:
REMARK  status: ('A' for Active; 'I' for Inactive)
ROOT
ATOM      1  C   UNL d   1       1.230   2.099   4.359  0.00  0.00     0.023 A 
ATOM      2  C1  UNL d   1       2.154   2.750   3.541  0.00  0.00     0.003 A 
ATOM      3  C2  UNL d   1       2.515   2.194   2.312  0.00  0.00     0.048 A 
ATOM      4  C3  UNL d   1       1.947   0.987   1.906  0.00  0.00     0.023 A 
ATOM      5  C4  UNL d   1       1.021   0.332   2.720  0.00  0.00     0.048 A 
ATOM      6  C5  UNL d   1       0.664   0.892   3.948  0.00  0.00     0.003 A 
ATOM      7  I   UNL d   1       2.482   0.158   0.077  0.00  0.00    -0.146 I 
ENDROOT
TORSDOF 0
ENDMDL
