MODEL 1
REMARK minimizedAffinity -2.49934006
REMARK minimizedRMSD -1
REMARK  0 active torsions:
REMARK  status: ('A' for Active; 'I' for Inactive)
ROOT
ATOM      1  C   UNL d   1       1.025  -2.242  -0.374  0.00  0.00     0.077 C 
ATOM      2  C1  UNL d   1       2.188  -1.555  -1.027  0.00  0.00    -0.074 A 
ATOM      3  C2  UNL d   1       1.989  -0.506  -1.929  0.00  0.00    -0.005 A 
ATOM      4  C3  UNL d   1       3.081   0.130  -2.521  0.00  0.00     0.006 A 
ATOM      5  C4  UNL d   1       4.380  -0.276  -2.216  0.00  0.00    -0.005 A 
ATOM      6  C5  UNL d   1       4.599  -1.323  -1.315  0.00  0.00    -0.074 A 
ATOM      7  C6  UNL d   1       5.990  -1.766  -0.969  0.00  0.00     0.077 C 
ATOM      8  C7  UNL d   1       3.497  -1.953  -0.719  0.00  0.00    -0.001 A 
ENDROOT
TORSDOF 0
ENDMDL
