MODEL 1
REMARK minimizedAffinity 6.16192007
REMARK minimizedRMSD -1
REMARK  0 active torsions:
REMARK  status: ('A' for Active; 'I' for Inactive)
ROOT
ATOM      1  C   UNL d   1       0.384  -2.733  -0.412  0.00  0.00     0.077 C 
ATOM      2  C1  UNL d   1       0.836  -1.740  -1.442  0.00  0.00    -0.074 A 
ATOM      3  C2  UNL d   1       0.352  -1.793  -2.753  0.00  0.00    -0.005 A 
ATOM      4  C3  UNL d   1       0.774  -0.857  -3.697  0.00  0.00     0.006 A 
ATOM      5  C4  UNL d   1       1.682   0.140  -3.340  0.00  0.00    -0.005 A 
ATOM      6  C5  UNL d   1       2.176   0.209  -2.033  0.00  0.00    -0.074 A 
ATOM      7  C6  UNL d   1       3.146   1.281  -1.630  0.00  0.00     0.077 C 
ATOM      8  C7  UNL d   1       1.742  -0.731  -1.089  0.00  0.00    -0.001 A 
ENDROOT
TORSDOF 0
ENDMDL
