MODEL 1
REMARK minimizedAffinity 5.99620485
REMARK minimizedRMSD -1
REMARK  0 active torsions:
REMARK  status: ('A' for Active; 'I' for Inactive)
ROOT
ATOM      1  C   UNL d   1       1.436   3.968  -0.262  0.00  0.00     0.077 C 
ATOM      2  C1  UNL d   1       1.813   2.589  -0.714  0.00  0.00    -0.074 A 
ATOM      3  C2  UNL d   1       2.549   1.736   0.116  0.00  0.00    -0.005 A 
ATOM      4  C3  UNL d   1       2.883   0.453  -0.314  0.00  0.00     0.006 A 
ATOM      5  C4  UNL d   1       2.486   0.009  -1.576  0.00  0.00    -0.005 A 
ATOM      6  C5  UNL d   1       1.749   0.846  -2.419  0.00  0.00    -0.074 A 
ATOM      7  C6  UNL d   1       1.305   0.381  -3.774  0.00  0.00     0.077 C 
ATOM      8  C7  UNL d   1       1.410   2.133  -1.977  0.00  0.00    -0.001 A 
ENDROOT
TORSDOF 0
ENDMDL
