MODEL 1
REMARK minimizedAffinity 12.2184381
REMARK minimizedRMSD -1
REMARK  0 active torsions:
REMARK  status: ('A' for Active; 'I' for Inactive)
ROOT
ATOM      1  C   UNL d   1      -5.905  -1.433   2.814  0.00  0.00     0.077 C 
ATOM      2  C1  UNL d   1      -5.045  -0.726   3.819  0.00  0.00    -0.074 A 
ATOM      3  C2  UNL d   1      -4.805  -1.285   5.079  0.00  0.00    -0.005 A 
ATOM      4  C3  UNL d   1      -3.995  -0.620   6.000  0.00  0.00     0.006 A 
ATOM      5  C4  UNL d   1      -3.418   0.607   5.671  0.00  0.00    -0.005 A 
ATOM      6  C5  UNL d   1      -3.645   1.180   4.416  0.00  0.00    -0.074 A 
ATOM      7  C6  UNL d   1      -3.024   2.493   4.043  0.00  0.00     0.077 C 
ATOM      8  C7  UNL d   1      -4.455   0.503   3.494  0.00  0.00    -0.001 A 
ENDROOT
TORSDOF 0
ENDMDL
