MODEL 1
REMARK minimizedAffinity 19.7626152
REMARK minimizedRMSD -1
REMARK  0 active torsions:
REMARK  status: ('A' for Active; 'I' for Inactive)
ROOT
ATOM      1  C   UNL d   1      -5.995  -1.410   3.030  0.00  0.00     0.077 C 
ATOM      2  C1  UNL d   1      -5.089  -0.601   3.909  0.00  0.00    -0.074 A 
ATOM      3  C2  UNL d   1      -4.742  -1.047   5.189  0.00  0.00    -0.005 A 
ATOM      4  C3  UNL d   1      -3.891  -0.287   5.991  0.00  0.00     0.006 A 
ATOM      5  C4  UNL d   1      -3.378   0.923   5.523  0.00  0.00    -0.005 A 
ATOM      6  C5  UNL d   1      -3.713   1.384   4.246  0.00  0.00    -0.074 A 
ATOM      7  C6  UNL d   1      -3.162   2.678   3.723  0.00  0.00     0.077 C 
ATOM      8  C7  UNL d   1      -4.563   0.612   3.443  0.00  0.00    -0.001 A 
ENDROOT
TORSDOF 0
ENDMDL
