MODEL 1
REMARK minimizedAffinity 18.7336292
REMARK minimizedRMSD -1
REMARK  0 active torsions:
REMARK  status: ('A' for Active; 'I' for Inactive)
ROOT
ATOM      1  C   UNL d   1       4.451   0.544  -0.137  0.00  0.00     0.077 C 
ATOM      2  C1  UNL d   1       3.093   0.295  -0.722  0.00  0.00    -0.074 A 
ATOM      3  C2  UNL d   1       2.640   1.027  -1.825  0.00  0.00    -0.005 A 
ATOM      4  C3  UNL d   1       1.379   0.778  -2.365  0.00  0.00     0.006 A 
ATOM      5  C4  UNL d   1       0.558  -0.205  -1.809  0.00  0.00    -0.005 A 
ATOM      6  C5  UNL d   1       0.994  -0.947  -0.707  0.00  0.00    -0.074 A 
ATOM      7  C6  UNL d   1       0.129  -2.014  -0.104  0.00  0.00     0.077 C 
ATOM      8  C7  UNL d   1       2.266  -0.696  -0.175  0.00  0.00    -0.001 A 
ENDROOT
TORSDOF 0
ENDMDL
