MODEL 1
REMARK minimizedAffinity 21.963192
REMARK minimizedRMSD -1
REMARK  0 active torsions:
REMARK  status: ('A' for Active; 'I' for Inactive)
ROOT
ATOM      1  C   UNL d   1       0.365   0.004   1.952  0.00  0.00     0.077 C 
ATOM      2  C1  UNL d   1      -0.827   0.591   2.647  0.00  0.00    -0.074 A 
ATOM      3  C2  UNL d   1      -2.081   0.615   2.028  0.00  0.00    -0.005 A 
ATOM      4  C3  UNL d   1      -3.183   1.156   2.691  0.00  0.00     0.006 A 
ATOM      5  C4  UNL d   1      -3.042   1.678   3.977  0.00  0.00    -0.005 A 
ATOM      6  C5  UNL d   1      -1.796   1.662   4.612  0.00  0.00    -0.074 A 
ATOM      7  C6  UNL d   1      -1.630   2.211   5.999  0.00  0.00     0.077 C 
ATOM      8  C7  UNL d   1      -0.696   1.111   3.943  0.00  0.00    -0.001 A 
ENDROOT
TORSDOF 0
ENDMDL
