MODEL 1
REMARK minimizedAffinity 16.2225857
REMARK minimizedRMSD -1
REMARK  0 active torsions:
REMARK  status: ('A' for Active; 'I' for Inactive)
ROOT
ATOM      1  C   UNL d   1       1.475   4.189  -0.557  0.00  0.00     0.077 C 
ATOM      2  C1  UNL d   1       1.972   2.787  -0.755  0.00  0.00    -0.074 A 
ATOM      3  C2  UNL d   1       2.818   2.186   0.183  0.00  0.00    -0.005 A 
ATOM      4  C3  UNL d   1       3.265   0.879  -0.010  0.00  0.00     0.006 A 
ATOM      5  C4  UNL d   1       2.871   0.161  -1.140  0.00  0.00    -0.005 A 
ATOM      6  C5  UNL d   1       2.025   0.746  -2.088  0.00  0.00    -0.074 A 
ATOM      7  C6  UNL d   1       1.584  -0.015  -3.303  0.00  0.00     0.077 C 
ATOM      8  C7  UNL d   1       1.575   2.057  -1.883  0.00  0.00    -0.001 A 
ENDROOT
TORSDOF 0
ENDMDL
