MODEL 1
REMARK minimizedAffinity 3.80553102
REMARK minimizedRMSD -1
REMARK  0 active torsions:
REMARK  status: ('A' for Active; 'I' for Inactive)
ROOT
ATOM      1  C   UNL d   1      -0.829  -3.502  -2.656  0.00  0.00     0.077 C 
ATOM      2  C1  UNL d   1      -0.906  -3.230  -1.182  0.00  0.00    -0.074 A 
ATOM      3  C2  UNL d   1      -0.125  -2.230  -0.595  0.00  0.00    -0.005 A 
ATOM      4  C3  UNL d   1      -0.213  -1.982   0.775  0.00  0.00     0.006 A 
ATOM      5  C4  UNL d   1      -1.082  -2.731   1.570  0.00  0.00    -0.005 A 
ATOM      6  C5  UNL d   1      -1.871  -3.735   1.000  0.00  0.00    -0.074 A 
ATOM      7  C6  UNL d   1      -2.817  -4.543   1.838  0.00  0.00     0.077 C 
ATOM      8  C7  UNL d   1      -1.782  -3.973  -0.379  0.00  0.00    -0.001 A 
ENDROOT
TORSDOF 0
ENDMDL
