MODEL 1
REMARK minimizedAffinity -3.98789978
REMARK minimizedRMSD -1
REMARK  0 active torsions:
REMARK  status: ('A' for Active; 'I' for Inactive)
ROOT
ATOM      1  C   UNL d   1       1.102   0.681  -1.191  0.00  0.00     0.077 C 
ATOM      2  C1  UNL d   1       0.345  -0.027  -0.107  0.00  0.00    -0.074 A 
ATOM      3  C2  UNL d   1       0.660  -1.342   0.248  0.00  0.00    -0.005 A 
ATOM      4  C3  UNL d   1      -0.047  -1.985   1.265  0.00  0.00     0.006 A 
ATOM      5  C4  UNL d   1      -1.073  -1.319   1.936  0.00  0.00    -0.005 A 
ATOM      6  C5  UNL d   1      -1.401  -0.003   1.596  0.00  0.00    -0.074 A 
ATOM      7  C6  UNL d   1      -2.495   0.730   2.314  0.00  0.00     0.077 C 
ATOM      8  C7  UNL d   1      -0.682   0.638   0.578  0.00  0.00    -0.001 A 
ENDROOT
TORSDOF 0
ENDMDL
