MODEL 1
REMARK minimizedAffinity -4.32922792
REMARK minimizedRMSD -1
REMARK  0 active torsions:
REMARK  status: ('A' for Active; 'I' for Inactive)
ROOT
ATOM      1  C   UNL d   1      -0.173  -1.847   0.364  0.00  0.00     0.077 C 
ATOM      2  C1  UNL d   1       0.457  -1.041  -0.733  0.00  0.00    -0.074 A 
ATOM      3  C2  UNL d   1       0.509  -1.527  -2.043  0.00  0.00    -0.005 A 
ATOM      4  C3  UNL d   1       1.090  -0.762  -3.054  0.00  0.00     0.006 A 
ATOM      5  C4  UNL d   1       1.624   0.495  -2.766  0.00  0.00    -0.005 A 
ATOM      6  C5  UNL d   1       1.580   0.998  -1.461  0.00  0.00    -0.074 A 
ATOM      7  C6  UNL d   1       2.140   2.350  -1.136  0.00  0.00     0.077 C 
ATOM      8  C7  UNL d   1       0.989   0.226  -0.452  0.00  0.00    -0.001 A 
ENDROOT
TORSDOF 0
ENDMDL
