MODEL 1
REMARK minimizedAffinity -1.42092288
REMARK minimizedRMSD -1
REMARK  0 active torsions:
REMARK  status: ('A' for Active; 'I' for Inactive)
ROOT
ATOM      1  C   UNL d   1       0.652   1.510   0.874  0.00  0.00     0.077 C 
ATOM      2  C1  UNL d   1       0.456   0.239   0.102  0.00  0.00    -0.074 A 
ATOM      3  C2  UNL d   1       0.086  -0.945   0.747  0.00  0.00    -0.005 A 
ATOM      4  C3  UNL d   1      -0.102  -2.117   0.014  0.00  0.00     0.006 A 
ATOM      5  C4  UNL d   1       0.078  -2.116  -1.370  0.00  0.00    -0.005 A 
ATOM      6  C5  UNL d   1       0.446  -0.941  -2.033  0.00  0.00    -0.074 A 
ATOM      7  C6  UNL d   1       0.633  -0.920  -3.521  0.00  0.00     0.077 C 
ATOM      8  C7  UNL d   1       0.626   0.234  -1.290  0.00  0.00    -0.001 A 
ENDROOT
TORSDOF 0
ENDMDL
