MODEL 1
REMARK minimizedAffinity -0.811321676
REMARK minimizedRMSD -1
REMARK  0 active torsions:
REMARK  status: ('A' for Active; 'I' for Inactive)
ROOT
ATOM      1  C   UNL d   1      -5.999   5.732  -5.992  0.00  0.00     0.077 C 
ATOM      2  C1  UNL d   1      -5.237   4.441  -5.947  0.00  0.00    -0.074 A 
ATOM      3  C2  UNL d   1      -3.840   4.428  -6.000  0.00  0.00    -0.005 A 
ATOM      4  C3  UNL d   1      -3.145   3.220  -5.947  0.00  0.00     0.006 A 
ATOM      5  C4  UNL d   1      -3.839   2.014  -5.840  0.00  0.00    -0.005 A 
ATOM      6  C5  UNL d   1      -5.236   2.007  -5.785  0.00  0.00    -0.074 A 
ATOM      7  C6  UNL d   1      -5.997   0.720  -5.661  0.00  0.00     0.077 C 
ATOM      8  C7  UNL d   1      -5.927   3.225  -5.832  0.00  0.00    -0.001 A 
ENDROOT
TORSDOF 0
ENDMDL
