MODEL 1
REMARK minimizedAffinity -5.04547548
REMARK minimizedRMSD -1
REMARK  0 active torsions:
REMARK  status: ('A' for Active; 'I' for Inactive)
ROOT
ATOM      1  C   UNL d   1      -2.853  -1.756   0.407  0.00  0.00     0.077 C 
ATOM      2  C1  UNL d   1      -1.634  -0.907   0.612  0.00  0.00    -0.074 A 
ATOM      3  C2  UNL d   1      -1.679   0.231   1.424  0.00  0.00    -0.005 A 
ATOM      4  C3  UNL d   1      -0.535   1.006   1.613  0.00  0.00     0.006 A 
ATOM      5  C4  UNL d   1       0.664   0.651   0.995  0.00  0.00    -0.005 A 
ATOM      6  C5  UNL d   1       0.729  -0.485   0.181  0.00  0.00    -0.074 A 
ATOM      7  C6  UNL d   1       2.013  -0.886  -0.483  0.00  0.00     0.077 C 
ATOM      8  C7  UNL d   1      -0.423  -1.262   0.001  0.00  0.00    -0.001 A 
ENDROOT
TORSDOF 0
ENDMDL
