MODEL 1
REMARK minimizedAffinity -2.2556231
REMARK minimizedRMSD -1
REMARK  0 active torsions:
REMARK  status: ('A' for Active; 'I' for Inactive)
ROOT
ATOM      1  C   UNL d   1       1.396  -3.813  -1.319  0.00  0.00     0.077 C 
ATOM      2  C1  UNL d   1       1.543  -2.604  -2.194  0.00  0.00    -0.074 A 
ATOM      3  C2  UNL d   1       2.786  -2.250  -2.728  0.00  0.00    -0.005 A 
ATOM      4  C3  UNL d   1       2.906  -1.128  -3.548  0.00  0.00     0.006 A 
ATOM      5  C4  UNL d   1       1.786  -0.350  -3.842  0.00  0.00    -0.005 A 
ATOM      6  C5  UNL d   1       0.534  -0.689  -3.319  0.00  0.00    -0.074 A 
ATOM      7  C6  UNL d   1      -0.682   0.131  -3.633  0.00  0.00     0.077 C 
ATOM      8  C7  UNL d   1       0.421  -1.822  -2.501  0.00  0.00    -0.001 A 
ENDROOT
TORSDOF 0
ENDMDL
