MODEL 1
REMARK minimizedAffinity -6.05074739
REMARK minimizedRMSD -1
REMARK  0 active torsions:
REMARK  status: ('A' for Active; 'I' for Inactive)
ROOT
ATOM      1  C   UNL d   1      -0.883  -0.245   1.088  0.00  0.00     0.077 C 
ATOM      2  C1  UNL d   1       0.137  -0.203  -0.011  0.00  0.00    -0.074 A 
ATOM      3  C2  UNL d   1       0.809   0.982  -0.323  0.00  0.00    -0.005 A 
ATOM      4  C3  UNL d   1       1.762   1.003  -1.342  0.00  0.00     0.006 A 
ATOM      5  C4  UNL d   1       2.051  -0.159  -2.057  0.00  0.00    -0.005 A 
ATOM      6  C5  UNL d   1       1.389  -1.354  -1.759  0.00  0.00    -0.074 A 
ATOM      7  C6  UNL d   1       1.695  -2.615  -2.512  0.00  0.00     0.077 C 
ATOM      8  C7  UNL d   1       0.438  -1.369  -0.729  0.00  0.00    -0.001 A 
ENDROOT
TORSDOF 0
ENDMDL
