MODEL 1
REMARK minimizedAffinity -1.03315759
REMARK minimizedRMSD -1
REMARK  0 active torsions:
REMARK  status: ('A' for Active; 'I' for Inactive)
ROOT
ATOM      1  C1  BNZ d   1      -0.014  -1.231   1.119  0.00  0.00     0.000 A 
ATOM      2  C2  BNZ d   1      -0.369  -0.551  -0.015  0.00  0.00     0.000 A 
ATOM      3  C3  BNZ d   1      -1.502  -0.881  -0.704  0.00  0.00     0.000 A 
ATOM      4  C4  BNZ d   1      -2.257  -1.916  -0.281  0.00  0.00     0.000 A 
ATOM      5  C5  BNZ d   1      -1.907  -2.618   0.855  0.00  0.00     0.000 A 
ATOM      6  C6  BNZ d   1      -0.787  -2.258   1.568  0.00  0.00     0.000 A 
ENDROOT
TORSDOF 0
ENDMDL
