MODEL 1
REMARK minimizedAffinity -4.89755487
REMARK minimizedRMSD -1
REMARK  0 active torsions:
REMARK  status: ('A' for Active; 'I' for Inactive)
ROOT
ATOM      1  C1  BNZ d   1      -0.793  -0.394   0.274  0.00  0.00     0.000 A 
ATOM      2  C2  BNZ d   1      -1.844  -0.145   1.116  0.00  0.00     0.000 A 
ATOM      3  C3  BNZ d   1      -2.426  -1.157   1.827  0.00  0.00     0.000 A 
ATOM      4  C4  BNZ d   1      -1.984  -2.421   1.665  0.00  0.00     0.000 A 
ATOM      5  C5  BNZ d   1      -0.932  -2.690   0.812  0.00  0.00     0.000 A 
ATOM      6  C6  BNZ d   1      -0.323  -1.663   0.128  0.00  0.00     0.000 A 
ENDROOT
TORSDOF 0
ENDMDL
