MODEL 1
REMARK minimizedAffinity -3.86259842
REMARK minimizedRMSD -1
REMARK  0 active torsions:
REMARK  status: ('A' for Active; 'I' for Inactive)
ROOT
ATOM      1  C1  BNZ d   1       0.521  -2.288   1.168  0.00  0.00     0.000 A 
ATOM      2  C2  BNZ d   1       1.365  -1.392   0.568  0.00  0.00     0.000 A 
ATOM      3  C3  BNZ d   1       0.880  -0.250  -0.005  0.00  0.00     0.000 A 
ATOM      4  C4  BNZ d   1      -0.450  -0.025  -0.013  0.00  0.00     0.000 A 
ATOM      5  C5  BNZ d   1      -1.314  -0.924   0.579  0.00  0.00     0.000 A 
ATOM      6  C6  BNZ d   1      -0.819  -2.053   1.190  0.00  0.00     0.000 A 
ENDROOT
TORSDOF 0
ENDMDL
