MODEL 1
REMARK minimizedAffinity -2.51028514
REMARK minimizedRMSD -1
REMARK  0 active torsions:
REMARK  status: ('A' for Active; 'I' for Inactive)
ROOT
ATOM      1  C1  BNZ d   1      -1.160   1.190   0.675  0.00  0.00     0.000 A 
ATOM      2  C2  BNZ d   1      -2.337   0.696   1.172  0.00  0.00     0.000 A 
ATOM      3  C3  BNZ d   1      -2.703  -0.601   0.944  0.00  0.00     0.000 A 
ATOM      4  C4  BNZ d   1      -1.913  -1.390   0.188  0.00  0.00     0.000 A 
ATOM      5  C5  BNZ d   1      -0.728  -0.904  -0.328  0.00  0.00     0.000 A 
ATOM      6  C6  BNZ d   1      -0.344   0.391  -0.064  0.00  0.00     0.000 A 
ENDROOT
TORSDOF 0
ENDMDL
