MODEL 1
REMARK minimizedAffinity -2.99167585
REMARK minimizedRMSD -1
REMARK  0 active torsions:
REMARK  status: ('A' for Active; 'I' for Inactive)
ROOT
ATOM      1  C1  BNZ d   1       0.397   1.415   0.000  0.00  0.00     0.000 A 
ATOM      2  C2  BNZ d   1       1.021   0.211  -0.194  0.00  0.00     0.000 A 
ATOM      3  C3  BNZ d   1       0.363  -0.964   0.040  0.00  0.00     0.000 A 
ATOM      4  C4  BNZ d   1      -0.902  -0.934   0.507  0.00  0.00     0.000 A 
ATOM      5  C5  BNZ d   1      -1.541   0.271   0.717  0.00  0.00     0.000 A 
ATOM      6  C6  BNZ d   1      -0.890   1.452   0.442  0.00  0.00     0.000 A 
ENDROOT
TORSDOF 0
ENDMDL
