MODEL 1
REMARK minimizedAffinity -2.94048619
REMARK minimizedRMSD -1
REMARK  0 active torsions:
REMARK  status: ('A' for Active; 'I' for Inactive)
ROOT
ATOM      1  C1  BNZ d   1       0.249   0.128   0.286  0.00  0.00     0.000 A 
ATOM      2  C2  BNZ d   1      -0.454  -1.038   0.140  0.00  0.00     0.000 A 
ATOM      3  C3  BNZ d   1      -1.806  -1.070   0.336  0.00  0.00     0.000 A 
ATOM      4  C4  BNZ d   1      -2.447   0.054   0.718  0.00  0.00     0.000 A 
ATOM      5  C5  BNZ d   1      -1.751   1.235   0.879  0.00  0.00     0.000 A 
ATOM      6  C6  BNZ d   1      -0.396   1.272   0.642  0.00  0.00     0.000 A 
ENDROOT
TORSDOF 0
ENDMDL
