MODEL 1
REMARK minimizedAffinity -4.62347603
REMARK minimizedRMSD -1
REMARK  0 active torsions:
REMARK  status: ('A' for Active; 'I' for Inactive)
ROOT
ATOM      1  C1  BNZ d   1      -0.951  -2.419   0.813  0.00  0.00     0.000 A 
ATOM      2  C2  BNZ d   1      -1.404  -1.173   0.472  0.00  0.00     0.000 A 
ATOM      3  C3  BNZ d   1      -0.531  -0.185   0.112  0.00  0.00     0.000 A 
ATOM      4  C4  BNZ d   1       0.794  -0.432   0.132  0.00  0.00     0.000 A 
ATOM      5  C5  BNZ d   1       1.268  -1.681   0.483  0.00  0.00     0.000 A 
ATOM      6  C6  BNZ d   1       0.384  -2.684   0.807  0.00  0.00     0.000 A 
ENDROOT
TORSDOF 0
ENDMDL
