MODEL 1
REMARK minimizedAffinity -4.85735416
REMARK minimizedRMSD -1
REMARK  0 active torsions:
REMARK  status: ('A' for Active; 'I' for Inactive)
ROOT
ATOM      1  C1  BNZ d   1      -0.463  -0.159   0.346  0.00  0.00     0.000 A 
ATOM      2  C2  BNZ d   1      -1.554   0.215   1.084  0.00  0.00     0.000 A 
ATOM      3  C3  BNZ d   1      -2.351  -0.721   1.681  0.00  0.00     0.000 A 
ATOM      4  C4  BNZ d   1      -2.080  -2.031   1.506  0.00  0.00     0.000 A 
ATOM      5  C5  BNZ d   1      -0.989  -2.425   0.757  0.00  0.00     0.000 A 
ATOM      6  C6  BNZ d   1      -0.167  -1.478   0.190  0.00  0.00     0.000 A 
ENDROOT
TORSDOF 0
ENDMDL
