MODEL 1
REMARK minimizedAffinity -3.66431355
REMARK minimizedRMSD -1
REMARK  0 active torsions:
REMARK  status: ('A' for Active; 'I' for Inactive)
ROOT
ATOM      1  C1  BNZ d   1      -0.098  -0.719  -0.350  0.00  0.00     0.000 A 
ATOM      2  C2  BNZ d   1      -1.270  -1.144   0.216  0.00  0.00     0.000 A 
ATOM      3  C3  BNZ d   1      -2.193  -0.246   0.673  0.00  0.00     0.000 A 
ATOM      4  C4  BNZ d   1      -1.926   1.074   0.600  0.00  0.00     0.000 A 
ATOM      5  C5  BNZ d   1      -0.744   1.519   0.041  0.00  0.00     0.000 A 
ATOM      6  C6  BNZ d   1       0.166   0.612  -0.454  0.00  0.00     0.000 A 
ENDROOT
TORSDOF 0
ENDMDL
