MODEL 1
REMARK minimizedAffinity -3.84985495
REMARK minimizedRMSD -1
REMARK  0 active torsions:
REMARK  status: ('A' for Active; 'I' for Inactive)
ROOT
ATOM      1  C1  BNZ d   1      -1.222  -0.046   0.320  0.00  0.00     0.000 A 
ATOM      2  C2  BNZ d   1       0.039  -0.176  -0.197  0.00  0.00     0.000 A 
ATOM      3  C3  BNZ d   1       0.842   0.917  -0.366  0.00  0.00     0.000 A 
ATOM      4  C4  BNZ d   1       0.369   2.141  -0.057  0.00  0.00     0.000 A 
ATOM      5  C5  BNZ d   1      -0.904   2.290   0.456  0.00  0.00     0.000 A 
ATOM      6  C6  BNZ d   1      -1.696   1.183   0.661  0.00  0.00     0.000 A 
ENDROOT
TORSDOF 0
ENDMDL
