MODEL 1
REMARK minimizedAffinity -2.29111195
REMARK minimizedRMSD -1
REMARK  0 active torsions:
REMARK  status: ('A' for Active; 'I' for Inactive)
ROOT
ATOM      1  C1  BNZ d   1      -1.093  -1.451   0.101  0.00  0.00     0.000 A 
ATOM      2  C2  BNZ d   1      -1.669  -2.359   0.949  0.00  0.00     0.000 A 
ATOM      3  C3  BNZ d   1      -0.939  -2.949   1.943  0.00  0.00     0.000 A 
ATOM      4  C4  BNZ d   1       0.374  -2.662   2.061  0.00  0.00     0.000 A 
ATOM      5  C5  BNZ d   1       0.971  -1.756   1.207  0.00  0.00     0.000 A 
ATOM      6  C6  BNZ d   1       0.224  -1.135   0.233  0.00  0.00     0.000 A 
ENDROOT
TORSDOF 0
ENDMDL
