MODEL 1
REMARK minimizedAffinity -3.7339747
REMARK minimizedRMSD -1
REMARK  0 active torsions:
REMARK  status: ('A' for Active; 'I' for Inactive)
ROOT
ATOM      1  C1  BNZ d   1       0.159  -2.239   0.579  0.00  0.00     0.000 A 
ATOM      2  C2  BNZ d   1       1.202  -1.462   0.152  0.00  0.00     0.000 A 
ATOM      3  C3  BNZ d   1       1.030  -0.126  -0.084  0.00  0.00     0.000 A 
ATOM      4  C4  BNZ d   1      -0.194   0.421   0.067  0.00  0.00     0.000 A 
ATOM      5  C5  BNZ d   1      -1.258  -0.352   0.488  0.00  0.00     0.000 A 
ATOM      6  C6  BNZ d   1      -1.071  -1.687   0.762  0.00  0.00     0.000 A 
ENDROOT
TORSDOF 0
ENDMDL
