MODEL 1
REMARK minimizedAffinity -3.79417968
REMARK minimizedRMSD -1
REMARK  0 active torsions:
REMARK  status: ('A' for Active; 'I' for Inactive)
ROOT
ATOM      1  C1  BNZ d   1       0.963  -1.032   0.744  0.00  0.00     0.000 A 
ATOM      2  C2  BNZ d   1       0.211  -1.922   1.464  0.00  0.00     0.000 A 
ATOM      3  C3  BNZ d   1      -1.031  -1.580   1.919  0.00  0.00     0.000 A 
ATOM      4  C4  BNZ d   1      -1.503  -0.337   1.690  0.00  0.00     0.000 A 
ATOM      5  C5  BNZ d   1      -0.753   0.574   0.974  0.00  0.00     0.000 A 
ATOM      6  C6  BNZ d   1       0.481   0.213   0.483  0.00  0.00     0.000 A 
ENDROOT
TORSDOF 0
ENDMDL
