MODEL 1
REMARK minimizedAffinity -0.92010057
REMARK minimizedRMSD -1
REMARK  0 active torsions:
REMARK  status: ('A' for Active; 'I' for Inactive)
ROOT
ATOM      1  C1  BNZ d   1       1.973   2.114  -2.753  0.00  0.00     0.000 A 
ATOM      2  C2  BNZ d   1       2.061   1.581  -1.494  0.00  0.00     0.000 A 
ATOM      3  C3  BNZ d   1       0.939   1.375  -0.742  0.00  0.00     0.000 A 
ATOM      4  C4  BNZ d   1      -0.264   1.739  -1.232  0.00  0.00     0.000 A 
ATOM      5  C5  BNZ d   1      -0.368   2.286  -2.495  0.00  0.00     0.000 A 
ATOM      6  C6  BNZ d   1       0.760   2.456  -3.265  0.00  0.00     0.000 A 
ENDROOT
TORSDOF 0
ENDMDL
