MODEL 1
REMARK minimizedAffinity -3.2133491
REMARK minimizedRMSD -1
REMARK  0 active torsions:
REMARK  status: ('A' for Active; 'I' for Inactive)
ROOT
ATOM      1  C1  BNZ d   1       0.212   0.215  -0.358  0.00  0.00     0.000 A 
ATOM      2  C2  BNZ d   1       0.374  -1.087   0.035  0.00  0.00     0.000 A 
ATOM      3  C3  BNZ d   1      -0.585  -1.718   0.777  0.00  0.00     0.000 A 
ATOM      4  C4  BNZ d   1      -1.684  -1.036   1.159  0.00  0.00     0.000 A 
ATOM      5  C5  BNZ d   1      -1.857   0.280   0.779  0.00  0.00     0.000 A 
ATOM      6  C6  BNZ d   1      -0.908   0.900  -0.001  0.00  0.00     0.000 A 
ENDROOT
TORSDOF 0
ENDMDL
