MODEL 1
REMARK minimizedAffinity -3.09534883
REMARK minimizedRMSD -1
REMARK  0 active torsions:
REMARK  status: ('A' for Active; 'I' for Inactive)
ROOT
ATOM      1  C1  BNZ d   1      -0.771  -2.418   1.492  0.00  0.00     0.000 A 
ATOM      2  C2  BNZ d   1      -1.014  -1.072   1.413  0.00  0.00     0.000 A 
ATOM      3  C3  BNZ d   1      -0.132  -0.237   0.787  0.00  0.00     0.000 A 
ATOM      4  C4  BNZ d   1       1.010  -0.741   0.277  0.00  0.00     0.000 A 
ATOM      5  C5  BNZ d   1       1.274  -2.094   0.356  0.00  0.00     0.000 A 
ATOM      6  C6  BNZ d   1       0.365  -2.937   0.953  0.00  0.00     0.000 A 
ENDROOT
TORSDOF 0
ENDMDL
