MODEL 1
REMARK minimizedAffinity -2.95971084
REMARK minimizedRMSD -1
REMARK  0 active torsions:
REMARK  status: ('A' for Active; 'I' for Inactive)
ROOT
ATOM      1  C1  BNZ d   1      -1.164   1.015  -2.250  0.00  0.00     0.000 A 
ATOM      2  C2  BNZ d   1      -0.452   1.660  -3.226  0.00  0.00     0.000 A 
ATOM      3  C3  BNZ d   1       0.829   2.079  -2.997  0.00  0.00     0.000 A 
ATOM      4  C4  BNZ d   1       1.381   1.888  -1.781  0.00  0.00     0.000 A 
ATOM      5  C5  BNZ d   1       0.673   1.248  -0.784  0.00  0.00     0.000 A 
ATOM      6  C6  BNZ d   1      -0.602   0.793  -1.031  0.00  0.00     0.000 A 
ENDROOT
TORSDOF 0
ENDMDL
