MODEL 1
REMARK minimizedAffinity -3.85437298
REMARK minimizedRMSD -1
REMARK  1 active torsions:
REMARK  status: ('A' for Active; 'I' for Inactive)
REMARK    1  A    between atoms: C3_4  and  O_7 
ROOT
ATOM      1  C   UNL d   1      -1.464   0.347   1.908  0.00  0.00    -0.033 A 
ATOM      2  C1  UNL d   1      -0.372   1.211   1.803  0.00  0.00     0.039 A 
ATOM      3  C2  UNL d   1       0.425   1.196   0.656  0.00  0.00    -0.080 A 
ATOM      4  C3  UNL d   1       0.118   0.315  -0.377  0.00  0.00     0.150 A 
ATOM      5  C4  UNL d   1      -0.971  -0.545  -0.281  0.00  0.00    -0.007 A 
ATOM      6  C5  UNL d   1      -1.764  -0.530   0.865  0.00  0.00     0.039 A 
ENDROOT
BRANCH   4   7
ATOM      7  O   UNL d   1       0.869   0.261  -1.514  0.00  0.00    -0.526 OA
ATOM      8  H5  UNL d   1       1.604   0.891  -1.427  0.00  0.00     0.418 HD
ENDBRANCH   4   7
TORSDOF 1
ENDMDL
