MODEL 1
REMARK minimizedAffinity -3.23800278
REMARK minimizedRMSD -1
REMARK  1 active torsions:
REMARK  status: ('A' for Active; 'I' for Inactive)
REMARK    1  A    between atoms: C3_4  and  O_7 
ROOT
ATOM      1  C   UNL d   1       0.201  -0.602  -0.516  0.00  0.00    -0.033 A 
ATOM      2  C1  UNL d   1      -1.169  -0.329  -0.514  0.00  0.00     0.039 A 
ATOM      3  C2  UNL d   1      -1.752   0.321   0.575  0.00  0.00    -0.080 A 
ATOM      4  C3  UNL d   1      -0.956   0.694   1.654  0.00  0.00     0.150 A 
ATOM      5  C4  UNL d   1       0.410   0.428   1.658  0.00  0.00    -0.007 A 
ATOM      6  C5  UNL d   1       0.990  -0.222   0.570  0.00  0.00     0.039 A 
ENDROOT
BRANCH   4   7
ATOM      7  O   UNL d   1      -1.480   1.326   2.742  0.00  0.00    -0.526 OA
ATOM      8  H5  UNL d   1      -2.439   1.418   2.612  0.00  0.00     0.418 HD
ENDBRANCH   4   7
TORSDOF 1
ENDMDL
