MODEL 1
REMARK minimizedAffinity -4.16287994
REMARK minimizedRMSD -1
REMARK  1 active torsions:
REMARK  status: ('A' for Active; 'I' for Inactive)
REMARK    1  A    between atoms: C3_4  and  O_7 
ROOT
ATOM      1  C   UNL d   1      -0.366  -0.335  -0.194  0.00  0.00    -0.033 A 
ATOM      2  C1  UNL d   1      -1.616  -0.202   0.414  0.00  0.00     0.039 A 
ATOM      3  C2  UNL d   1      -1.784   0.680   1.483  0.00  0.00    -0.080 A 
ATOM      4  C3  UNL d   1      -0.696   1.424   1.933  0.00  0.00     0.150 A 
ATOM      5  C4  UNL d   1       0.551   1.299   1.330  0.00  0.00    -0.007 A 
ATOM      6  C5  UNL d   1       0.717   0.416   0.263  0.00  0.00     0.039 A 
ENDROOT
BRANCH   4   7
ATOM      7  O   UNL d   1      -0.811   2.294   2.976  0.00  0.00    -0.526 OA
ATOM      8  H5  UNL d   1      -1.722   2.254   3.312  0.00  0.00     0.418 HD
ENDBRANCH   4   7
TORSDOF 1
ENDMDL
