MODEL 1
REMARK minimizedAffinity -3.54474902
REMARK minimizedRMSD -1
REMARK  1 active torsions:
REMARK  status: ('A' for Active; 'I' for Inactive)
REMARK    1  A    between atoms: C3_4  and  O_7 
ROOT
ATOM      1  C   UNL d   1       0.197  -0.104   0.959  0.00  0.00    -0.033 A 
ATOM      2  C1  UNL d   1       1.337  -0.810   0.571  0.00  0.00     0.039 A 
ATOM      3  C2  UNL d   1       1.504  -1.193  -0.761  0.00  0.00    -0.080 A 
ATOM      4  C3  UNL d   1       0.525  -0.864  -1.695  0.00  0.00     0.150 A 
ATOM      5  C4  UNL d   1      -0.612  -0.157  -1.316  0.00  0.00    -0.007 A 
ATOM      6  C5  UNL d   1      -0.777   0.224   0.015  0.00  0.00     0.039 A 
ENDROOT
BRANCH   4   7
ATOM      7  O   UNL d   1       0.641  -1.221  -3.005  0.00  0.00    -0.526 OA
ATOM      8  H5  UNL d   1       1.462  -1.728  -3.114  0.00  0.00     0.418 HD
ENDBRANCH   4   7
TORSDOF 1
ENDMDL
