MODEL 1
REMARK minimizedAffinity -4.71721554
REMARK minimizedRMSD -1
REMARK  1 active torsions:
REMARK  status: ('A' for Active; 'I' for Inactive)
REMARK    1  A    between atoms: C3_4  and  O_7 
ROOT
ATOM      1  C   UNL d   1      -1.753  -0.412   0.195  0.00  0.00    -0.033 A 
ATOM      2  C1  UNL d   1      -0.468  -0.360  -0.348  0.00  0.00     0.039 A 
ATOM      3  C2  UNL d   1       0.580   0.197   0.387  0.00  0.00    -0.080 A 
ATOM      4  C3  UNL d   1       0.331   0.697   1.662  0.00  0.00     0.150 A 
ATOM      5  C4  UNL d   1      -0.946   0.645   2.211  0.00  0.00    -0.007 A 
ATOM      6  C5  UNL d   1      -1.992   0.089   1.475  0.00  0.00     0.039 A 
ENDROOT
BRANCH   4   7
ATOM      7  O   UNL d   1       1.321   1.254   2.415  0.00  0.00    -0.526 OA
ATOM      8  H5  UNL d   1       2.143   1.247   1.897  0.00  0.00     0.418 HD
ENDBRANCH   4   7
TORSDOF 1
ENDMDL
