MODEL 1
REMARK minimizedAffinity -4.51802635
REMARK minimizedRMSD -1
REMARK  1 active torsions:
REMARK  status: ('A' for Active; 'I' for Inactive)
REMARK    1  A    between atoms: C3_4  and  O_7 
ROOT
ATOM      1  C   UNL d   1      -0.661   0.312   1.023  0.00  0.00    -0.033 A 
ATOM      2  C1  UNL d   1       0.392   0.673   1.866  0.00  0.00     0.039 A 
ATOM      3  C2  UNL d   1       1.544  -0.113   1.923  0.00  0.00    -0.080 A 
ATOM      4  C3  UNL d   1       1.632  -1.255   1.132  0.00  0.00     0.150 A 
ATOM      5  C4  UNL d   1       0.588  -1.619   0.287  0.00  0.00    -0.007 A 
ATOM      6  C5  UNL d   1      -0.562  -0.833   0.232  0.00  0.00     0.039 A 
ENDROOT
BRANCH   4   7
ATOM      7  O   UNL d   1       2.734  -2.057   1.157  0.00  0.00    -0.526 OA
ATOM      8  H5  UNL d   1       3.361  -1.698   1.808  0.00  0.00     0.418 HD
ENDBRANCH   4   7
TORSDOF 1
ENDMDL
