MODEL 1
REMARK minimizedAffinity -3.02870727
REMARK minimizedRMSD -1
REMARK  1 active torsions:
REMARK  status: ('A' for Active; 'I' for Inactive)
REMARK    1  A    between atoms: C3_4  and  O_7 
ROOT
ATOM      1  C   UNL d   1      -0.685  -0.491  -0.564  0.00  0.00    -0.033 A 
ATOM      2  C1  UNL d   1       0.554  -0.161  -0.011  0.00  0.00     0.039 A 
ATOM      3  C2  UNL d   1       0.620   0.625   1.141  0.00  0.00    -0.080 A 
ATOM      4  C3  UNL d   1      -0.559   1.072   1.731  0.00  0.00     0.150 A 
ATOM      5  C4  UNL d   1      -1.797   0.744   1.188  0.00  0.00    -0.007 A 
ATOM      6  C5  UNL d   1      -1.860  -0.040   0.037  0.00  0.00     0.039 A 
ENDROOT
BRANCH   4   7
ATOM      7  O   UNL d   1      -0.545   1.845   2.854  0.00  0.00    -0.526 OA
ATOM      8  H5  UNL d   1       0.380   2.016   3.099  0.00  0.00     0.418 HD
ENDBRANCH   4   7
TORSDOF 1
ENDMDL
