MODEL 1
REMARK minimizedAffinity -0.052642189
REMARK minimizedRMSD -1
REMARK  1 active torsions:
REMARK  status: ('A' for Active; 'I' for Inactive)
REMARK    1  A    between atoms: C1_2  and  C2_3 
ROOT
ATOM      1  C2  UNL d   1       5.688  -0.650   5.178  0.00  0.00    -0.081 A 
ATOM      2  C3  UNL d   1       5.489  -0.776   3.798  0.00  0.00     0.006 A 
ATOM      3  C4  UNL d   1       5.153  -2.012   3.241  0.00  0.00     0.002 A 
ATOM      4  C5  UNL d   1       5.003  -3.140   4.054  0.00  0.00    -0.080 A 
ATOM      5  C6  UNL d   1       4.613  -4.466   3.472  0.00  0.00     0.076 C 
ATOM      6  C7  UNL d   1       5.219  -3.018   5.431  0.00  0.00     0.002 A 
ATOM      7  C8  UNL d   1       5.555  -1.783   5.989  0.00  0.00     0.006 A 
ENDROOT
BRANCH   1   8
ATOM      8  C1  UNL d   1       5.987   0.695   5.790  0.00  0.00     0.054 C 
ATOM      9  C   UNL d   1       4.873   1.692   5.504  0.00  0.00     0.018 C 
ENDBRANCH   1   8
TORSDOF 1
ENDMDL
