MODEL 1
REMARK minimizedAffinity 2.49092245
REMARK minimizedRMSD -1
REMARK  1 active torsions:
REMARK  status: ('A' for Active; 'I' for Inactive)
REMARK    1  A    between atoms: C1_2  and  C2_3 
ROOT
ATOM      1  C2  UNL d   1       1.398  -1.862  -2.721  0.00  0.00    -0.081 A 
ATOM      2  C3  UNL d   1       1.311  -0.466  -2.668  0.00  0.00     0.006 A 
ATOM      3  C4  UNL d   1       0.678   0.164  -1.594  0.00  0.00     0.002 A 
ATOM      4  C5  UNL d   1       0.129  -0.590  -0.552  0.00  0.00    -0.080 A 
ATOM      5  C6  UNL d   1      -0.526   0.075   0.622  0.00  0.00     0.076 C 
ATOM      6  C7  UNL d   1       0.201  -1.986  -0.613  0.00  0.00     0.002 A 
ATOM      7  C8  UNL d   1       0.833  -2.617  -1.687  0.00  0.00     0.006 A 
ENDROOT
BRANCH   1   8
ATOM      8  C1  UNL d   1       2.137  -2.543  -3.845  0.00  0.00     0.054 C 
ATOM      9  C   UNL d   1       1.598  -3.944  -4.093  0.00  0.00     0.018 C 
ENDBRANCH   1   8
TORSDOF 1
ENDMDL
