MODEL 1
REMARK minimizedAffinity 4.11800146
REMARK minimizedRMSD -1
REMARK  1 active torsions:
REMARK  status: ('A' for Active; 'I' for Inactive)
REMARK    1  A    between atoms: C1_2  and  C2_3 
ROOT
ATOM      1  C2  UNL d   1      -1.306  -1.861  -0.075  0.00  0.00    -0.081 A 
ATOM      2  C3  UNL d   1      -0.602  -3.030   0.236  0.00  0.00     0.006 A 
ATOM      3  C4  UNL d   1      -1.256  -4.264   0.267  0.00  0.00     0.002 A 
ATOM      4  C5  UNL d   1      -2.622  -4.351  -0.020  0.00  0.00    -0.080 A 
ATOM      5  C6  UNL d   1      -3.330  -5.673  -0.020  0.00  0.00     0.076 C 
ATOM      6  C7  UNL d   1      -3.330  -3.180  -0.314  0.00  0.00     0.002 A 
ATOM      7  C8  UNL d   1      -2.677  -1.946  -0.344  0.00  0.00     0.006 A 
ENDROOT
BRANCH   1   8
ATOM      8  C1  UNL d   1      -0.591  -0.538  -0.173  0.00  0.00     0.054 C 
ATOM      9  C   UNL d   1       0.601  -0.621  -1.115  0.00  0.00     0.018 C 
ENDBRANCH   1   8
TORSDOF 1
ENDMDL
