MODEL 1
REMARK minimizedAffinity 6.35920858
REMARK minimizedRMSD -1
REMARK  1 active torsions:
REMARK  status: ('A' for Active; 'I' for Inactive)
REMARK    1  A    between atoms: C1_2  and  C2_3 
ROOT
ATOM      1  C2  UNL d   1       4.137   4.941   1.547  0.00  0.00    -0.081 A 
ATOM      2  C3  UNL d   1       4.140   3.627   1.064  0.00  0.00     0.006 A 
ATOM      3  C4  UNL d   1       4.138   3.378  -0.311  0.00  0.00     0.002 A 
ATOM      4  C5  UNL d   1       4.142   4.437  -1.224  0.00  0.00    -0.080 A 
ATOM      5  C6  UNL d   1       4.171   4.183  -2.702  0.00  0.00     0.076 C 
ATOM      6  C7  UNL d   1       4.121   5.750  -0.742  0.00  0.00     0.002 A 
ATOM      7  C8  UNL d   1       4.122   6.000   0.632  0.00  0.00     0.006 A 
ENDROOT
BRANCH   1   8
ATOM      8  C1  UNL d   1       4.204   5.213   3.028  0.00  0.00     0.054 C 
ATOM      9  C   UNL d   1       5.456   5.998   3.390  0.00  0.00     0.018 C 
ENDBRANCH   1   8
TORSDOF 1
ENDMDL
