MODEL 1
REMARK minimizedAffinity 3.10782909
REMARK minimizedRMSD -1
REMARK  1 active torsions:
REMARK  status: ('A' for Active; 'I' for Inactive)
REMARK    1  A    between atoms: C1_2  and  C2_3 
ROOT
ATOM      1  C2  UNL d   1       5.385   1.686   4.837  0.00  0.00    -0.081 A 
ATOM      2  C3  UNL d   1       5.888   1.003   5.951  0.00  0.00     0.006 A 
ATOM      3  C4  UNL d   1       5.857  -0.393   6.000  0.00  0.00     0.002 A 
ATOM      4  C5  UNL d   1       5.331  -1.129   4.932  0.00  0.00    -0.080 A 
ATOM      5  C6  UNL d   1       5.320  -2.628   4.959  0.00  0.00     0.076 C 
ATOM      6  C7  UNL d   1       4.813  -0.446   3.827  0.00  0.00     0.002 A 
ATOM      7  C8  UNL d   1       4.842   0.949   3.778  0.00  0.00     0.006 A 
ENDROOT
BRANCH   1   8
ATOM      8  C1  UNL d   1       5.476   3.188   4.754  0.00  0.00     0.054 C 
ATOM      9  C   UNL d   1       5.818   3.644   3.343  0.00  0.00     0.018 C 
ENDBRANCH   1   8
TORSDOF 1
ENDMDL
