MODEL 1
REMARK minimizedAffinity 4.46796131
REMARK minimizedRMSD -1
REMARK  1 active torsions:
REMARK  status: ('A' for Active; 'I' for Inactive)
REMARK    1  A    between atoms: C1_2  and  C2_3 
ROOT
ATOM      1  C2  UNL d   1      -0.612  -0.952   0.002  0.00  0.00    -0.081 A 
ATOM      2  C3  UNL d   1      -0.077  -2.240   0.122  0.00  0.00     0.006 A 
ATOM      3  C4  UNL d   1      -0.863  -3.362  -0.151  0.00  0.00     0.002 A 
ATOM      4  C5  UNL d   1      -2.194  -3.214  -0.555  0.00  0.00    -0.080 A 
ATOM      5  C6  UNL d   1      -3.041  -4.409  -0.879  0.00  0.00     0.076 C 
ATOM      6  C7  UNL d   1      -2.735  -1.928  -0.657  0.00  0.00     0.002 A 
ATOM      7  C8  UNL d   1      -1.949  -0.806  -0.384  0.00  0.00     0.006 A 
ENDROOT
BRANCH   1   8
ATOM      8  C1  UNL d   1       0.252   0.262   0.233  0.00  0.00     0.054 C 
ATOM      9  C   UNL d   1      -0.168   1.418  -0.663  0.00  0.00     0.018 C 
ENDBRANCH   1   8
TORSDOF 1
ENDMDL
