MODEL 1
REMARK minimizedAffinity 4.56963921
REMARK minimizedRMSD -1
REMARK  1 active torsions:
REMARK  status: ('A' for Active; 'I' for Inactive)
REMARK    1  A    between atoms: C1_2  and  C2_3 
ROOT
ATOM      1  C2  UNL d   1       4.551   4.827   2.382  0.00  0.00    -0.081 A 
ATOM      2  C3  UNL d   1       4.357   3.595   1.745  0.00  0.00     0.006 A 
ATOM      3  C4  UNL d   1       4.128   3.539   0.368  0.00  0.00     0.002 A 
ATOM      4  C5  UNL d   1       4.097   4.711  -0.395  0.00  0.00    -0.080 A 
ATOM      5  C6  UNL d   1       3.882   4.662  -1.879  0.00  0.00     0.076 C 
ATOM      6  C7  UNL d   1       4.272   5.943   0.244  0.00  0.00     0.002 A 
ATOM      7  C8  UNL d   1       4.501   6.000   1.621  0.00  0.00     0.006 A 
ENDROOT
BRANCH   1   8
ATOM      8  C1  UNL d   1       4.862   4.887   3.856  0.00  0.00     0.054 C 
ATOM      9  C   UNL d   1       5.919   5.940   4.156  0.00  0.00     0.018 C 
ENDBRANCH   1   8
TORSDOF 1
ENDMDL
