MODEL 1
REMARK minimizedAffinity 0.318897665
REMARK minimizedRMSD -1
REMARK  1 active torsions:
REMARK  status: ('A' for Active; 'I' for Inactive)
REMARK    1  A    between atoms: C1_2  and  C2_3 
ROOT
ATOM      1  C2  UNL d   1      -0.704  -2.578  -0.569  0.00  0.00    -0.081 A 
ATOM      2  C3  UNL d   1      -0.425  -3.915  -0.260  0.00  0.00     0.006 A 
ATOM      3  C4  UNL d   1      -1.409  -4.896  -0.408  0.00  0.00     0.002 A 
ATOM      4  C5  UNL d   1      -2.684  -4.558  -0.875  0.00  0.00    -0.080 A 
ATOM      5  C6  UNL d   1      -3.739  -5.606  -1.067  0.00  0.00     0.076 C 
ATOM      6  C7  UNL d   1      -2.968  -3.220  -1.167  0.00  0.00     0.002 A 
ATOM      7  C8  UNL d   1      -1.985  -2.238  -1.018  0.00  0.00     0.006 A 
ENDROOT
BRANCH   1   8
ATOM      8  C1  UNL d   1       0.373  -1.528  -0.472  0.00  0.00     0.054 C 
ATOM      9  C   UNL d   1       1.729  -2.088  -0.878  0.00  0.00     0.018 C 
ENDBRANCH   1   8
TORSDOF 1
ENDMDL
