MODEL 1
REMARK minimizedAffinity 10.1158485
REMARK minimizedRMSD -1
REMARK  1 active torsions:
REMARK  status: ('A' for Active; 'I' for Inactive)
REMARK    1  A    between atoms: C1_2  and  C2_3 
ROOT
ATOM      1  C2  UNL d   1       1.835   2.473   0.015  0.00  0.00    -0.081 A 
ATOM      2  C3  UNL d   1       0.555   2.912   0.372  0.00  0.00     0.006 A 
ATOM      3  C4  UNL d   1      -0.563   2.111   0.125  0.00  0.00     0.002 A 
ATOM      4  C5  UNL d   1      -0.418   0.856  -0.476  0.00  0.00    -0.080 A 
ATOM      5  C6  UNL d   1      -1.605  -0.027  -0.720  0.00  0.00     0.076 C 
ATOM      6  C7  UNL d   1       0.860   0.425  -0.849  0.00  0.00     0.002 A 
ATOM      7  C8  UNL d   1       1.978   1.226  -0.603  0.00  0.00     0.006 A 
ENDROOT
BRANCH   1   8
ATOM      8  C1  UNL d   1       3.049   3.307   0.339  0.00  0.00     0.054 C 
ATOM      9  C   UNL d   1       3.682   3.876  -0.923  0.00  0.00     0.018 C 
ENDBRANCH   1   8
TORSDOF 1
ENDMDL
