MODEL 1
REMARK minimizedAffinity -4.70188475
REMARK minimizedRMSD -1
REMARK  1 active torsions:
REMARK  status: ('A' for Active; 'I' for Inactive)
REMARK    1  A    between atoms: C1_2  and  C2_3 
ROOT
ATOM      1  C2  UNL d   1       4.523   5.086   1.687  0.00  0.00    -0.081 A 
ATOM      2  C3  UNL d   1       3.774   4.138   0.979  0.00  0.00     0.006 A 
ATOM      3  C4  UNL d   1       3.821   4.097  -0.417  0.00  0.00     0.002 A 
ATOM      4  C5  UNL d   1       4.622   4.998  -1.127  0.00  0.00    -0.080 A 
ATOM      5  C6  UNL d   1       4.704   4.945  -2.623  0.00  0.00     0.076 C 
ATOM      6  C7  UNL d   1       5.356   5.956  -0.421  0.00  0.00     0.002 A 
ATOM      7  C8  UNL d   1       5.310   5.998   0.975  0.00  0.00     0.006 A 
ENDROOT
BRANCH   1   8
ATOM      8  C1  UNL d   1       4.526   5.090   3.194  0.00  0.00     0.054 C 
ATOM      9  C   UNL d   1       5.670   4.254   3.748  0.00  0.00     0.018 C 
ENDBRANCH   1   8
TORSDOF 1
ENDMDL
