MODEL 1
REMARK minimizedAffinity 2.20546699
REMARK minimizedRMSD -1
REMARK  1 active torsions:
REMARK  status: ('A' for Active; 'I' for Inactive)
REMARK    1  A    between atoms: C1_2  and  C2_3 
ROOT
ATOM      1  C2  UNL d   1       4.582   4.905   2.474  0.00  0.00    -0.081 A 
ATOM      2  C3  UNL d   1       5.068   3.806   1.756  0.00  0.00     0.006 A 
ATOM      3  C4  UNL d   1       5.047   3.806   0.360  0.00  0.00     0.002 A 
ATOM      4  C5  UNL d   1       4.548   4.908  -0.342  0.00  0.00    -0.080 A 
ATOM      5  C6  UNL d   1       4.548   4.934  -1.842  0.00  0.00     0.076 C 
ATOM      6  C7  UNL d   1       4.046   6.000   0.375  0.00  0.00     0.002 A 
ATOM      7  C8  UNL d   1       4.066   6.000   1.771  0.00  0.00     0.006 A 
ENDROOT
BRANCH   1   8
ATOM      8  C1  UNL d   1       4.662   4.935   3.979  0.00  0.00     0.054 C 
ATOM      9  C   UNL d   1       5.675   5.965   4.459  0.00  0.00     0.018 C 
ENDBRANCH   1   8
TORSDOF 1
ENDMDL
