MODEL 1
REMARK minimizedAffinity 1.34829903
REMARK minimizedRMSD -1
REMARK  1 active torsions:
REMARK  status: ('A' for Active; 'I' for Inactive)
REMARK    1  A    between atoms: C1_2  and  C2_3 
ROOT
ATOM      1  C2  UNL d   1       1.226   0.476   0.198  0.00  0.00    -0.081 A 
ATOM      2  C3  UNL d   1       0.248   1.102  -0.584  0.00  0.00     0.006 A 
ATOM      3  C4  UNL d   1      -1.057   0.603  -0.619  0.00  0.00     0.002 A 
ATOM      4  C5  UNL d   1      -1.406  -0.524   0.132  0.00  0.00    -0.080 A 
ATOM      5  C6  UNL d   1      -2.810  -1.052   0.126  0.00  0.00     0.076 C 
ATOM      6  C7  UNL d   1      -0.424  -1.160   0.899  0.00  0.00     0.002 A 
ATOM      7  C8  UNL d   1       0.880  -0.662   0.935  0.00  0.00     0.006 A 
ENDROOT
BRANCH   1   8
ATOM      8  C1  UNL d   1       2.617   1.050   0.290  0.00  0.00     0.054 C 
ATOM      9  C   UNL d   1       2.581   2.557   0.497  0.00  0.00     0.018 C 
ENDBRANCH   1   8
TORSDOF 1
ENDMDL
