MODEL 1
REMARK minimizedAffinity 7.06196976
REMARK minimizedRMSD -1
REMARK  1 active torsions:
REMARK  status: ('A' for Active; 'I' for Inactive)
REMARK    1  A    between atoms: C1_2  and  C2_3 
ROOT
ATOM      1  C2  UNL d   1       4.563   4.838   2.436  0.00  0.00    -0.081 A 
ATOM      2  C3  UNL d   1       4.126   3.676   1.789  0.00  0.00     0.006 A 
ATOM      3  C4  UNL d   1       3.906   3.673   0.409  0.00  0.00     0.002 A 
ATOM      4  C5  UNL d   1       4.126   4.830  -0.347  0.00  0.00    -0.080 A 
ATOM      5  C6  UNL d   1       3.923   4.832  -1.833  0.00  0.00     0.076 C 
ATOM      6  C7  UNL d   1       4.546   5.996   0.302  0.00  0.00     0.002 A 
ATOM      7  C8  UNL d   1       4.765   5.999   1.682  0.00  0.00     0.006 A 
ENDROOT
BRANCH   1   8
ATOM      8  C1  UNL d   1       4.863   4.826   3.913  0.00  0.00     0.054 C 
ATOM      9  C   UNL d   1       5.751   5.998   4.307  0.00  0.00     0.018 C 
ENDBRANCH   1   8
TORSDOF 1
ENDMDL
