MODEL 1
REMARK minimizedAffinity 4.4716115
REMARK minimizedRMSD -1
REMARK  1 active torsions:
REMARK  status: ('A' for Active; 'I' for Inactive)
REMARK    1  A    between atoms: C1_2  and  C2_3 
ROOT
ATOM      1  C2  UNL d   1       4.887   2.153   5.308  0.00  0.00    -0.081 A 
ATOM      2  C3  UNL d   1       5.800   3.069   5.845  0.00  0.00     0.006 A 
ATOM      3  C4  UNL d   1       5.999   4.310   5.235  0.00  0.00     0.002 A 
ATOM      4  C5  UNL d   1       5.284   4.659   4.085  0.00  0.00    -0.080 A 
ATOM      5  C6  UNL d   1       5.466   6.000   3.438  0.00  0.00     0.076 C 
ATOM      6  C7  UNL d   1       4.384   3.737   3.539  0.00  0.00     0.002 A 
ATOM      7  C8  UNL d   1       4.185   2.495   4.147  0.00  0.00     0.006 A 
ENDROOT
BRANCH   1   8
ATOM      8  C1  UNL d   1       4.622   0.840   6.000  0.00  0.00     0.054 C 
ATOM      9  C   UNL d   1       5.860  -0.045   5.998  0.00  0.00     0.018 C 
ENDBRANCH   1   8
TORSDOF 1
ENDMDL
