MODEL 1
REMARK minimizedAffinity -0.546820998
REMARK minimizedRMSD -1
REMARK  0 active torsions:
REMARK  status: ('A' for Active; 'I' for Inactive)
ROOT
ATOM      1  C   UNL d   1       0.721  -2.267   5.999  0.00  0.00     0.078 C 
ATOM      2  C1  UNL d   1       1.178  -1.987   4.599  0.00  0.00    -0.077 A 
ATOM      3  C2  UNL d   1       1.978  -2.903   3.905  0.00  0.00    -0.001 A 
ATOM      4  C3  UNL d   1       2.405  -2.625   2.606  0.00  0.00     0.003 A 
ATOM      5  C4  UNL d   1       2.037  -1.430   1.989  0.00  0.00    -0.005 A 
ATOM      6  C5  UNL d   1       1.243  -0.512   2.673  0.00  0.00     0.003 A 
ATOM      7  C6  UNL d   1       0.816  -0.788   3.972  0.00  0.00    -0.001 A 
ENDROOT
TORSDOF 0
ENDMDL
