MODEL 1
REMARK minimizedAffinity 5.73286247
REMARK minimizedRMSD -1
REMARK  0 active torsions:
REMARK  status: ('A' for Active; 'I' for Inactive)
ROOT
ATOM      1  C   UNL d   1       1.841  -3.026   5.970  0.00  0.00     0.078 C 
ATOM      2  C1  UNL d   1       1.787  -2.514   4.562  0.00  0.00    -0.077 A 
ATOM      3  C2  UNL d   1       1.160  -1.299   4.260  0.00  0.00    -0.001 A 
ATOM      4  C3  UNL d   1       1.108  -0.839   2.943  0.00  0.00     0.003 A 
ATOM      5  C4  UNL d   1       1.681  -1.588   1.918  0.00  0.00    -0.005 A 
ATOM      6  C5  UNL d   1       2.305  -2.799   2.208  0.00  0.00     0.003 A 
ATOM      7  C6  UNL d   1       2.358  -3.261   3.524  0.00  0.00    -0.001 A 
ENDROOT
TORSDOF 0
ENDMDL
