MODEL 1
REMARK minimizedAffinity 1.80665958
REMARK minimizedRMSD -1
REMARK  0 active torsions:
REMARK  status: ('A' for Active; 'I' for Inactive)
ROOT
ATOM      1  C   UNL d   1       1.520  -1.882   5.998  0.00  0.00     0.078 C 
ATOM      2  C1  UNL d   1       1.705  -1.893   4.510  0.00  0.00    -0.077 A 
ATOM      3  C2  UNL d   1       2.366  -2.950   3.872  0.00  0.00    -0.001 A 
ATOM      4  C3  UNL d   1       2.539  -2.941   2.487  0.00  0.00     0.003 A 
ATOM      5  C4  UNL d   1       2.055  -1.878   1.728  0.00  0.00    -0.005 A 
ATOM      6  C5  UNL d   1       1.398  -0.820   2.354  0.00  0.00     0.003 A 
ATOM      7  C6  UNL d   1       1.224  -0.827   3.739  0.00  0.00    -0.001 A 
ENDROOT
TORSDOF 0
ENDMDL
