MODEL 1
REMARK minimizedAffinity 10.9312658
REMARK minimizedRMSD -1
REMARK  0 active torsions:
REMARK  status: ('A' for Active; 'I' for Inactive)
ROOT
ATOM      1  C   UNL d   1      -5.980   4.539  -0.416  0.00  0.00     0.078 C 
ATOM      2  C1  UNL d   1      -5.966   4.652  -1.911  0.00  0.00    -0.077 A 
ATOM      3  C2  UNL d   1      -5.988   5.903  -2.540  0.00  0.00    -0.001 A 
ATOM      4  C3  UNL d   1      -5.985   5.993  -3.933  0.00  0.00     0.003 A 
ATOM      5  C4  UNL d   1      -5.962   4.836  -4.709  0.00  0.00    -0.005 A 
ATOM      6  C5  UNL d   1      -5.943   3.587  -4.092  0.00  0.00     0.003 A 
ATOM      7  C6  UNL d   1      -5.945   3.495  -2.699  0.00  0.00    -0.001 A 
ENDROOT
TORSDOF 0
ENDMDL
