MODEL 1
REMARK minimizedAffinity -1.77857828
REMARK minimizedRMSD -1
REMARK  0 active torsions:
REMARK  status: ('A' for Active; 'I' for Inactive)
ROOT
ATOM      1  C   UNL d   1      -2.405  -2.713  -0.338  0.00  0.00     0.078 C 
ATOM      2  C1  UNL d   1      -1.246  -2.266   0.503  0.00  0.00    -0.077 A 
ATOM      3  C2  UNL d   1      -1.057  -0.913   0.810  0.00  0.00    -0.001 A 
ATOM      4  C3  UNL d   1       0.031  -0.510   1.585  0.00  0.00     0.003 A 
ATOM      5  C4  UNL d   1       0.940  -1.454   2.060  0.00  0.00    -0.005 A 
ATOM      6  C5  UNL d   1       0.761  -2.802   1.758  0.00  0.00     0.003 A 
ATOM      7  C6  UNL d   1      -0.326  -3.207   0.982  0.00  0.00    -0.001 A 
ENDROOT
TORSDOF 0
ENDMDL
