MODEL 1
REMARK minimizedAffinity 13.2128773
REMARK minimizedRMSD -1
REMARK  0 active torsions:
REMARK  status: ('A' for Active; 'I' for Inactive)
ROOT
ATOM      1  C   UNL d   1       5.993  -5.740  -3.473  0.00  0.00     0.078 C 
ATOM      2  C1  UNL d   1       5.303  -4.855  -2.478  0.00  0.00    -0.077 A 
ATOM      3  C2  UNL d   1       6.000  -4.312  -1.392  0.00  0.00    -0.001 A 
ATOM      4  C3  UNL d   1       5.343  -3.498  -0.468  0.00  0.00     0.003 A 
ATOM      5  C4  UNL d   1       3.985  -3.220  -0.621  0.00  0.00    -0.005 A 
ATOM      6  C5  UNL d   1       3.283  -3.758  -1.697  0.00  0.00     0.003 A 
ATOM      7  C6  UNL d   1       3.939  -4.573  -2.622  0.00  0.00    -0.001 A 
ENDROOT
TORSDOF 0
ENDMDL
