MODEL 1
REMARK minimizedAffinity 5.85729504
REMARK minimizedRMSD -1
REMARK  0 active torsions:
REMARK  status: ('A' for Active; 'I' for Inactive)
ROOT
ATOM      1  C   UNL d   1       5.993   5.941   1.791  0.00  0.00     0.078 C 
ATOM      2  C1  UNL d   1       5.285   5.916   0.469  0.00  0.00    -0.077 A 
ATOM      3  C2  UNL d   1       5.999   5.999  -0.733  0.00  0.00    -0.001 A 
ATOM      4  C3  UNL d   1       5.326   5.985  -1.955  0.00  0.00     0.003 A 
ATOM      5  C4  UNL d   1       3.936   5.888  -1.988  0.00  0.00    -0.005 A 
ATOM      6  C5  UNL d   1       3.217   5.807  -0.797  0.00  0.00     0.003 A 
ATOM      7  C6  UNL d   1       3.889   5.822   0.426  0.00  0.00    -0.001 A 
ENDROOT
TORSDOF 0
ENDMDL
