MODEL 1
REMARK minimizedAffinity -0.413301826
REMARK minimizedRMSD -1
REMARK  0 active torsions:
REMARK  status: ('A' for Active; 'I' for Inactive)
ROOT
ATOM      1  C   UNL d   1      -2.646  -4.202  -0.181  0.00  0.00     0.078 C 
ATOM      2  C1  UNL d   1      -1.941  -2.936   0.206  0.00  0.00    -0.077 A 
ATOM      3  C2  UNL d   1      -0.572  -2.932   0.495  0.00  0.00    -0.001 A 
ATOM      4  C3  UNL d   1       0.069  -1.748   0.864  0.00  0.00     0.003 A 
ATOM      5  C4  UNL d   1      -0.653  -0.559   0.947  0.00  0.00    -0.005 A 
ATOM      6  C5  UNL d   1      -2.017  -0.553   0.663  0.00  0.00     0.003 A 
ATOM      7  C6  UNL d   1      -2.659  -1.736   0.294  0.00  0.00    -0.001 A 
ENDROOT
TORSDOF 0
ENDMDL
