MODEL 1
REMARK minimizedAffinity 4.04258204
REMARK minimizedRMSD -1
REMARK  1 active torsions:
REMARK  status: ('A' for Active; 'I' for Inactive)
REMARK    1  A    between atoms: C1_2  and  C2_3 
ROOT
ATOM      1  C2  UNL d   1      -2.845  -0.001   1.322  0.00  0.00    -0.081 A 
ATOM      2  C3  UNL d   1      -2.473  -0.956   0.368  0.00  0.00     0.006 A 
ATOM      3  C4  UNL d   1      -3.354  -1.316  -0.654  0.00  0.00     0.002 A 
ATOM      4  C5  UNL d   1      -4.618  -0.723  -0.744  0.00  0.00    -0.080 A 
ATOM      5  C6  UNL d   1      -5.561  -1.079  -1.854  0.00  0.00     0.076 C 
ATOM      6  C7  UNL d   1      -4.996   0.218   0.219  0.00  0.00     0.002 A 
ATOM      7  C8  UNL d   1      -4.116   0.579   1.242  0.00  0.00     0.006 A 
ENDROOT
BRANCH   1   8
ATOM      8  C1  UNL d   1      -1.873   0.437   2.388  0.00  0.00     0.054 C 
ATOM      9  C   UNL d   1      -1.137   1.705   1.978  0.00  0.00     0.018 C 
ENDBRANCH   1   8
TORSDOF 1
ENDMDL
