MODEL 1
REMARK minimizedAffinity 17.5797939
REMARK minimizedRMSD -1
REMARK  1 active torsions:
REMARK  status: ('A' for Active; 'I' for Inactive)
REMARK    1  A    between atoms: C1_2  and  C2_3 
ROOT
ATOM      1  C2  UNL d   1      -5.609   5.065  -0.638  0.00  0.00    -0.081 A 
ATOM      2  C3  UNL d   1      -5.998   5.700  -1.824  0.00  0.00     0.006 A 
ATOM      3  C4  UNL d   1      -6.000   5.002  -3.034  0.00  0.00     0.002 A 
ATOM      4  C5  UNL d   1      -5.620   3.656  -3.077  0.00  0.00    -0.080 A 
ATOM      5  C6  UNL d   1      -5.647   2.886  -4.364  0.00  0.00     0.076 C 
ATOM      6  C7  UNL d   1      -5.215   3.026  -1.895  0.00  0.00     0.002 A 
ATOM      7  C8  UNL d   1      -5.213   3.724  -0.686  0.00  0.00     0.006 A 
ENDROOT
BRANCH   1   8
ATOM      8  C1  UNL d   1      -5.668   5.796   0.678  0.00  0.00     0.054 C 
ATOM      9  C   UNL d   1      -5.901   4.836   1.835  0.00  0.00     0.018 C 
ENDBRANCH   1   8
TORSDOF 1
ENDMDL
