MODEL 1
REMARK minimizedAffinity 7.32134485
REMARK minimizedRMSD -1
REMARK  1 active torsions:
REMARK  status: ('A' for Active; 'I' for Inactive)
REMARK    1  A    between atoms: C1_2  and  C2_3 
ROOT
ATOM      1  C2  UNL d   1       0.831  -3.217   5.250  0.00  0.00    -0.081 A 
ATOM      2  C3  UNL d   1      -0.398  -2.662   4.875  0.00  0.00     0.006 A 
ATOM      3  C4  UNL d   1      -0.645  -1.299   5.057  0.00  0.00     0.002 A 
ATOM      4  C5  UNL d   1       0.336  -0.467   5.608  0.00  0.00    -0.080 A 
ATOM      5  C6  UNL d   1       0.095   1.003   5.780  0.00  0.00     0.076 C 
ATOM      6  C7  UNL d   1       1.558  -1.025   5.999  0.00  0.00     0.002 A 
ATOM      7  C8  UNL d   1       1.805  -2.388   5.818  0.00  0.00     0.006 A 
ENDROOT
BRANCH   1   8
ATOM      8  C1  UNL d   1       1.124  -4.673   4.996  0.00  0.00     0.054 C 
ATOM      9  C   UNL d   1       2.130  -5.219   5.999  0.00  0.00     0.018 C 
ENDBRANCH   1   8
TORSDOF 1
ENDMDL
