MODEL 1
REMARK minimizedAffinity 18.4147072
REMARK minimizedRMSD -1
REMARK  1 active torsions:
REMARK  status: ('A' for Active; 'I' for Inactive)
REMARK    1  A    between atoms: C1_2  and  C2_3 
ROOT
ATOM      1  C2  UNL d   1       0.151   0.661   3.669  0.00  0.00    -0.081 A 
ATOM      2  C3  UNL d   1       0.678   1.023   2.423  0.00  0.00     0.006 A 
ATOM      3  C4  UNL d   1       1.292   2.265   2.248  0.00  0.00     0.002 A 
ATOM      4  C5  UNL d   1       1.397   3.162   3.317  0.00  0.00    -0.080 A 
ATOM      5  C6  UNL d   1       2.081   4.486   3.150  0.00  0.00     0.076 C 
ATOM      6  C7  UNL d   1       0.855   2.808   4.557  0.00  0.00     0.002 A 
ATOM      7  C8  UNL d   1       0.240   1.566   4.732  0.00  0.00     0.006 A 
ENDROOT
BRANCH   1   8
ATOM      8  C1  UNL d   1      -0.454  -0.704   3.878  0.00  0.00     0.054 C 
ATOM      9  C   UNL d   1      -0.004  -1.313   5.199  0.00  0.00     0.018 C 
ENDBRANCH   1   8
TORSDOF 1
ENDMDL
