MODEL 1
REMARK minimizedAffinity 11.0265903
REMARK minimizedRMSD -1
REMARK  1 active torsions:
REMARK  status: ('A' for Active; 'I' for Inactive)
REMARK    1  A    between atoms: C1_2  and  C2_3 
ROOT
ATOM      1  C2  UNL d   1       4.794   1.120   0.298  0.00  0.00    -0.081 A 
ATOM      2  C3  UNL d   1       4.398  -0.053   0.953  0.00  0.00     0.006 A 
ATOM      3  C4  UNL d   1       4.796  -0.299   2.269  0.00  0.00     0.002 A 
ATOM      4  C5  UNL d   1       5.590   0.627   2.955  0.00  0.00    -0.080 A 
ATOM      5  C6  UNL d   1       5.999   0.390   4.378  0.00  0.00     0.076 C 
ATOM      6  C7  UNL d   1       6.000   1.791   2.295  0.00  0.00     0.002 A 
ATOM      7  C8  UNL d   1       5.603   2.036   0.979  0.00  0.00     0.006 A 
ENDROOT
BRANCH   1   8
ATOM      8  C1  UNL d   1       4.313   1.418  -1.099  0.00  0.00     0.054 C 
ATOM      9  C   UNL d   1       5.432   1.987  -1.960  0.00  0.00     0.018 C 
ENDBRANCH   1   8
TORSDOF 1
ENDMDL
