MODEL 1
REMARK minimizedAffinity -5.44669294
REMARK minimizedRMSD -1
REMARK  1 active torsions:
REMARK  status: ('A' for Active; 'I' for Inactive)
REMARK    1  A    between atoms: C1_2  and  C2_3 
ROOT
ATOM      1  C2  UNL d   1       0.247   0.485   0.724  0.00  0.00    -0.077 A 
ATOM      2  C3  UNL d   1       0.358  -0.332  -0.410  0.00  0.00     0.002 A 
ATOM      3  C4  UNL d   1       0.055  -1.692  -0.333  0.00  0.00     0.002 A 
ATOM      4  C5  UNL d   1      -0.365  -2.247   0.874  0.00  0.00    -0.004 A 
ATOM      5  C6  UNL d   1      -0.477  -1.443   2.008  0.00  0.00     0.002 A 
ATOM      6  C7  UNL d   1      -0.173  -0.083   1.933  0.00  0.00     0.002 A 
ENDROOT
BRANCH   1   7
ATOM      7  C1  UNL d   1       0.527   1.963   0.631  0.00  0.00     0.055 C 
ATOM      8  C   UNL d   1       1.885   2.230  -0.003  0.00  0.00     0.019 C 
ENDBRANCH   1   7
TORSDOF 1
ENDMDL
