MODEL 1
REMARK minimizedAffinity -2.81938076
REMARK minimizedRMSD -1
REMARK  1 active torsions:
REMARK  status: ('A' for Active; 'I' for Inactive)
REMARK    1  A    between atoms: C1_2  and  C2_3 
ROOT
ATOM      1  C2  UNL d   1      -0.392  -2.140  -0.534  0.00  0.00    -0.077 A 
ATOM      2  C3  UNL d   1      -1.134  -2.421   0.621  0.00  0.00     0.002 A 
ATOM      3  C4  UNL d   1      -1.198  -1.493   1.663  0.00  0.00     0.002 A 
ATOM      4  C5  UNL d   1      -0.525  -0.277   1.557  0.00  0.00    -0.004 A 
ATOM      5  C6  UNL d   1       0.217   0.011   0.413  0.00  0.00     0.002 A 
ATOM      6  C7  UNL d   1       0.283  -0.916  -0.629  0.00  0.00     0.002 A 
ENDROOT
BRANCH   1   7
ATOM      7  C1  UNL d   1      -0.362  -3.118  -1.679  0.00  0.00     0.055 C 
ATOM      8  C   UNL d   1       0.081  -2.446  -2.971  0.00  0.00     0.019 C 
ENDBRANCH   1   7
TORSDOF 1
ENDMDL
