MODEL 1
REMARK minimizedAffinity -5.38897133
REMARK minimizedRMSD -1
REMARK  1 active torsions:
REMARK  status: ('A' for Active; 'I' for Inactive)
REMARK    1  A    between atoms: C1_2  and  C2_3 
ROOT
ATOM      1  C2  UNL d   1       0.086  -1.255  -0.149  0.00  0.00    -0.077 A 
ATOM      2  C3  UNL d   1       0.152  -1.251  -1.549  0.00  0.00     0.002 A 
ATOM      3  C4  UNL d   1       0.284  -2.449  -2.254  0.00  0.00     0.002 A 
ATOM      4  C5  UNL d   1       0.347  -3.660  -1.567  0.00  0.00    -0.004 A 
ATOM      5  C6  UNL d   1       0.285  -3.674  -0.174  0.00  0.00     0.002 A 
ATOM      6  C7  UNL d   1       0.154  -2.477   0.532  0.00  0.00     0.002 A 
ENDROOT
BRANCH   1   7
ATOM      7  C1  UNL d   1      -0.106   0.032   0.610  0.00  0.00     0.055 C 
ATOM      8  C   UNL d   1      -1.582   0.352   0.794  0.00  0.00     0.019 C 
ENDBRANCH   1   7
TORSDOF 1
ENDMDL
