MODEL 1
REMARK minimizedAffinity -2.956146
REMARK minimizedRMSD -1
REMARK  1 active torsions:
REMARK  status: ('A' for Active; 'I' for Inactive)
REMARK    1  A    between atoms: C1_2  and  C2_3 
ROOT
ATOM      1  C2  UNL d   1       0.001  -0.696   0.302  0.00  0.00    -0.077 A 
ATOM      2  C3  UNL d   1       0.991  -1.571  -0.165  0.00  0.00     0.002 A 
ATOM      3  C4  UNL d   1       0.835  -2.951  -0.029  0.00  0.00     0.002 A 
ATOM      4  C5  UNL d   1      -0.311  -3.469   0.571  0.00  0.00    -0.004 A 
ATOM      5  C6  UNL d   1      -1.300  -2.607   1.041  0.00  0.00     0.002 A 
ATOM      6  C7  UNL d   1      -1.146  -1.227   0.907  0.00  0.00     0.002 A 
ENDROOT
BRANCH   1   7
ATOM      7  C1  UNL d   1       0.144   0.792   0.111  0.00  0.00     0.055 C 
ATOM      8  C   UNL d   1       0.606   1.472   1.392  0.00  0.00     0.019 C 
ENDBRANCH   1   7
TORSDOF 1
ENDMDL
