MODEL 1
REMARK minimizedAffinity -4.05880737
REMARK minimizedRMSD -1
REMARK  1 active torsions:
REMARK  status: ('A' for Active; 'I' for Inactive)
REMARK    1  A    between atoms: C1_2  and  C2_3 
ROOT
ATOM      1  C2  UNL d   1       0.164  -0.000   0.191  0.00  0.00    -0.077 A 
ATOM      2  C3  UNL d   1      -0.687  -0.519   1.177  0.00  0.00     0.002 A 
ATOM      3  C4  UNL d   1      -0.830  -1.900   1.330  0.00  0.00     0.002 A 
ATOM      4  C5  UNL d   1      -0.123  -2.771   0.505  0.00  0.00    -0.004 A 
ATOM      5  C6  UNL d   1       0.725  -2.265  -0.479  0.00  0.00     0.002 A 
ATOM      6  C7  UNL d   1       0.868  -0.885  -0.635  0.00  0.00     0.002 A 
ENDROOT
BRANCH   1   7
ATOM      7  C1  UNL d   1       0.358   1.488   0.056  0.00  0.00     0.055 C 
ATOM      8  C   UNL d   1       1.700   1.925   0.624  0.00  0.00     0.019 C 
ENDBRANCH   1   7
TORSDOF 1
ENDMDL
