MODEL 1
REMARK minimizedAffinity -2.79217958
REMARK minimizedRMSD -1
REMARK  2 active torsions:
REMARK  status: ('A' for Active; 'I' for Inactive)
REMARK    1  A    between atoms: C2'_3  and  C1'_4 
REMARK    2  A    between atoms: C1'_4  and  C1_5 
ROOT
ATOM      1  C1  I4B d   1       0.505   0.755   0.558  0.00  0.00    -0.075 A 
ATOM      2  C2  I4B d   1       1.352   0.174  -0.353  0.00  0.00     0.003 A 
ATOM      3  C3  I4B d   1       2.627   0.736  -0.601  0.00  0.00     0.002 A 
ATOM      4  C4  I4B d   1       2.992   1.901   0.043  0.00  0.00    -0.004 A 
ATOM      5  C5  I4B d   1       2.142   2.476   0.983  0.00  0.00     0.002 A 
ATOM      6  C6  I4B d   1       0.895   1.893   1.251  0.00  0.00     0.003 A 
ENDROOT
BRANCH   1   7
ATOM      7  C1' I4B d   1      -0.848   0.153   0.770  0.00  0.00     0.060 C 
BRANCH   7   8
ATOM      8  C2' I4B d   1      -0.684  -1.057   1.668  0.00  0.00    -0.013 C 
ATOM      9  C4' I4B d   1      -1.741  -1.088   2.740  0.00  0.00     0.013 C 
ATOM     10  C3' I4B d   1      -0.750  -2.284   0.808  0.00  0.00     0.013 C 
ENDBRANCH   7   8
ENDBRANCH   1   7
TORSDOF 2
ENDMDL
