MODEL 1
REMARK minimizedAffinity -3.18139791
REMARK minimizedRMSD -1
REMARK  2 active torsions:
REMARK  status: ('A' for Active; 'I' for Inactive)
REMARK    1  A    between atoms: C2'_3  and  C1'_4 
REMARK    2  A    between atoms: C1'_4  and  C1_5 
ROOT
ATOM      1  C1  I4B d   1      -0.374  -0.398  -0.164  0.00  0.00    -0.075 A 
ATOM      2  C2  I4B d   1       0.707   0.421  -0.376  0.00  0.00     0.003 A 
ATOM      3  C3  I4B d   1       0.940   1.528   0.475  0.00  0.00     0.002 A 
ATOM      4  C4  I4B d   1       0.044   1.808   1.487  0.00  0.00    -0.004 A 
ATOM      5  C5  I4B d   1      -1.038   0.964   1.714  0.00  0.00     0.002 A 
ATOM      6  C6  I4B d   1      -1.243  -0.154   0.892  0.00  0.00     0.003 A 
ENDROOT
BRANCH   1   7
ATOM      7  C1' I4B d   1      -0.608  -1.540  -1.102  0.00  0.00     0.060 C 
BRANCH   7   8
ATOM      8  C2' I4B d   1      -1.786  -1.184  -1.986  0.00  0.00    -0.013 C 
ATOM      9  C4' I4B d   1      -1.352  -0.970  -3.412  0.00  0.00     0.013 C 
ATOM     10  C3' I4B d   1      -2.792  -2.292  -1.886  0.00  0.00     0.013 C 
ENDBRANCH   7   8
ENDBRANCH   1   7
TORSDOF 2
ENDMDL
