MODEL 1
REMARK minimizedAffinity -1.82297421
REMARK minimizedRMSD -1
REMARK  2 active torsions:
REMARK  status: ('A' for Active; 'I' for Inactive)
REMARK    1  A    between atoms: C2'_3  and  C1'_4 
REMARK    2  A    between atoms: C1'_4  and  C1_5 
ROOT
ATOM      1  C1  I4B d   1      -0.788  -0.769  -1.603  0.00  0.00    -0.075 A 
ATOM      2  C2  I4B d   1      -1.930  -1.421  -1.209  0.00  0.00     0.003 A 
ATOM      3  C3  I4B d   1      -2.939  -1.726  -2.154  0.00  0.00     0.002 A 
ATOM      4  C4  I4B d   1      -2.789  -1.319  -3.464  0.00  0.00    -0.004 A 
ATOM      5  C5  I4B d   1      -1.621  -0.678  -3.866  0.00  0.00     0.002 A 
ATOM      6  C6  I4B d   1      -0.608  -0.412  -2.933  0.00  0.00     0.003 A 
ENDROOT
BRANCH   1   7
ATOM      7  C1' I4B d   1       0.242  -0.433  -0.572  0.00  0.00     0.060 C 
BRANCH   7   8
ATOM      8  C2' I4B d   1      -0.316   0.671   0.303  0.00  0.00    -0.013 C 
ATOM      9  C4' I4B d   1      -0.592   0.173   1.698  0.00  0.00     0.013 C 
ATOM     10  C3' I4B d   1       0.675   1.796   0.317  0.00  0.00     0.013 C 
ENDBRANCH   7   8
ENDBRANCH   1   7
TORSDOF 2
ENDMDL
