MODEL 1
REMARK minimizedAffinity -4.45807457
REMARK minimizedRMSD -1
REMARK  2 active torsions:
REMARK  status: ('A' for Active; 'I' for Inactive)
REMARK    1  A    between atoms: C2'_3  and  C1'_4 
REMARK    2  A    between atoms: C1'_4  and  C1_5 
ROOT
ATOM      1  C1  I4B d   1      -0.483  -0.946  -0.293  0.00  0.00    -0.075 A 
ATOM      2  C2  I4B d   1       0.813  -0.989  -0.744  0.00  0.00     0.003 A 
ATOM      3  C3  I4B d   1       1.743  -0.002  -0.337  0.00  0.00     0.002 A 
ATOM      4  C4  I4B d   1       1.324   1.033   0.475  0.00  0.00    -0.004 A 
ATOM      5  C5  I4B d   1       0.016   1.063   0.949  0.00  0.00     0.002 A 
ATOM      6  C6  I4B d   1      -0.891   0.061   0.572  0.00  0.00     0.003 A 
ENDROOT
BRANCH   1   7
ATOM      7  C1' I4B d   1      -1.446  -1.986  -0.769  0.00  0.00     0.060 C 
BRANCH   7   8
ATOM      8  C2' I4B d   1      -2.399  -1.328  -1.747  0.00  0.00    -0.013 C 
ATOM      9  C4' I4B d   1      -2.040  -1.668  -3.170  0.00  0.00     0.013 C 
ATOM     10  C3' I4B d   1      -3.789  -1.781  -1.416  0.00  0.00     0.013 C 
ENDBRANCH   7   8
ENDBRANCH   1   7
TORSDOF 2
ENDMDL
