MODEL 1
REMARK minimizedAffinity 0.233361214
REMARK minimizedRMSD -1
REMARK  2 active torsions:
REMARK  status: ('A' for Active; 'I' for Inactive)
REMARK    1  A    between atoms: C2'_3  and  C1'_4 
REMARK    2  A    between atoms: C1'_4  and  C1_5 
ROOT
ATOM      1  C1  I4B d   1       2.545   3.055  -3.523  0.00  0.00    -0.075 A 
ATOM      2  C2  I4B d   1       3.834   2.590  -3.610  0.00  0.00     0.003 A 
ATOM      3  C3  I4B d   1       4.495   2.553  -4.862  0.00  0.00     0.002 A 
ATOM      4  C4  I4B d   1       3.817   2.940  -6.000  0.00  0.00    -0.004 A 
ATOM      5  C5  I4B d   1       2.519   3.433  -5.906  0.00  0.00     0.002 A 
ATOM      6  C6  I4B d   1       1.883   3.502  -4.658  0.00  0.00     0.003 A 
ENDROOT
BRANCH   1   7
ATOM      7  C1' I4B d   1       1.866   3.049  -2.190  0.00  0.00     0.060 C 
BRANCH   7   8
ATOM      8  C2' I4B d   1       1.748   1.609  -1.733  0.00  0.00    -0.013 C 
ATOM      9  C4' I4B d   1       1.044   1.516  -0.404  0.00  0.00     0.013 C 
ATOM     10  C3' I4B d   1       1.009   0.846  -2.791  0.00  0.00     0.013 C 
ENDBRANCH   7   8
ENDBRANCH   1   7
TORSDOF 2
ENDMDL
