MODEL 1
REMARK minimizedAffinity -2.1540854
REMARK minimizedRMSD -1
REMARK  2 active torsions:
REMARK  status: ('A' for Active; 'I' for Inactive)
REMARK    1  A    between atoms: C2'_3  and  C1'_4 
REMARK    2  A    between atoms: C1'_4  and  C1_5 
ROOT
ATOM      1  C1  I4B d   1      -0.215   0.239  -0.309  0.00  0.00    -0.075 A 
ATOM      2  C2  I4B d   1       0.322   1.463  -0.623  0.00  0.00     0.003 A 
ATOM      3  C3  I4B d   1       0.644   2.384   0.402  0.00  0.00     0.002 A 
ATOM      4  C4  I4B d   1       0.368   2.063   1.716  0.00  0.00    -0.004 A 
ATOM      5  C5  I4B d   1      -0.155   0.813   2.034  0.00  0.00     0.002 A 
ATOM      6  C6  I4B d   1      -0.437  -0.110   1.017  0.00  0.00     0.003 A 
ENDROOT
BRANCH   1   7
ATOM      7  C1' I4B d   1      -0.574  -0.697  -1.419  0.00  0.00     0.060 C 
BRANCH   7   8
ATOM      8  C2' I4B d   1      -2.083  -0.837  -1.443  0.00  0.00    -0.013 C 
ATOM      9  C4' I4B d   1      -2.626  -0.649  -2.834  0.00  0.00     0.013 C 
ATOM     10  C3' I4B d   1      -2.430  -2.193  -0.904  0.00  0.00     0.013 C 
ENDBRANCH   7   8
ENDBRANCH   1   7
TORSDOF 2
ENDMDL
