MODEL 1
REMARK minimizedAffinity -5.41267872
REMARK minimizedRMSD -1
REMARK  2 active torsions:
REMARK  status: ('A' for Active; 'I' for Inactive)
REMARK    1  A    between atoms: C2'_3  and  C1'_4 
REMARK    2  A    between atoms: C1'_4  and  C1_5 
ROOT
ATOM      1  C1  I4B d   1       0.342  -0.107  -0.258  0.00  0.00    -0.075 A 
ATOM      2  C2  I4B d   1       1.466   0.635  -0.522  0.00  0.00     0.003 A 
ATOM      3  C3  I4B d   1       1.772   1.770   0.266  0.00  0.00     0.002 A 
ATOM      4  C4  I4B d   1       0.907   2.154   1.270  0.00  0.00    -0.004 A 
ATOM      5  C5  I4B d   1      -0.221   1.388   1.551  0.00  0.00     0.002 A 
ATOM      6  C6  I4B d   1      -0.499   0.243   0.790  0.00  0.00     0.003 A 
ENDROOT
BRANCH   1   7
ATOM      7  C1' I4B d   1       0.031  -1.280  -1.132  0.00  0.00     0.060 C 
BRANCH   7   8
ATOM      8  C2' I4B d   1      -1.355  -1.078  -1.710  0.00  0.00    -0.013 C 
ATOM      9  C4' I4B d   1      -1.308  -0.961  -3.211  0.00  0.00     0.013 C 
ATOM     10  C3' I4B d   1      -2.208  -2.236  -1.284  0.00  0.00     0.013 C 
ENDBRANCH   7   8
ENDBRANCH   1   7
TORSDOF 2
ENDMDL
