MODEL 1
REMARK minimizedAffinity -1.58196735
REMARK minimizedRMSD -1
REMARK  2 active torsions:
REMARK  status: ('A' for Active; 'I' for Inactive)
REMARK    1  A    between atoms: C2'_3  and  C1'_4 
REMARK    2  A    between atoms: C1'_4  and  C1_5 
ROOT
ATOM      1  C1  I4B d   1      -3.302   4.275  -4.863  0.00  0.00    -0.075 A 
ATOM      2  C2  I4B d   1      -4.305   3.339  -4.868  0.00  0.00     0.003 A 
ATOM      3  C3  I4B d   1      -5.636   3.721  -5.166  0.00  0.00     0.002 A 
ATOM      4  C4  I4B d   1      -5.925   5.050  -5.401  0.00  0.00    -0.004 A 
ATOM      5  C5  I4B d   1      -4.902   5.994  -5.418  0.00  0.00     0.002 A 
ATOM      6  C6  I4B d   1      -3.581   5.603  -5.160  0.00  0.00     0.003 A 
ENDROOT
BRANCH   1   7
ATOM      7  C1' I4B d   1      -1.914   3.842  -4.512  0.00  0.00     0.060 C 
BRANCH   7   8
ATOM      8  C2' I4B d   1      -1.255   4.968  -3.741  0.00  0.00    -0.013 C 
ATOM      9  C4' I4B d   1      -0.670   5.997  -4.672  0.00  0.00     0.013 C 
ATOM     10  C3' I4B d   1      -2.286   5.578  -2.839  0.00  0.00     0.013 C 
ENDBRANCH   7   8
ENDBRANCH   1   7
TORSDOF 2
ENDMDL
