MODEL 1
REMARK minimizedAffinity -2.30881453
REMARK minimizedRMSD -1
REMARK  2 active torsions:
REMARK  status: ('A' for Active; 'I' for Inactive)
REMARK    1  A    between atoms: C2'_3  and  C1'_4 
REMARK    2  A    between atoms: C1'_4  and  C1_5 
ROOT
ATOM      1  C1  I4B d   1      -0.447  -0.295  -0.224  0.00  0.00    -0.075 A 
ATOM      2  C2  I4B d   1       0.733   0.406  -0.181  0.00  0.00     0.003 A 
ATOM      3  C3  I4B d   1       1.065   1.173   0.962  0.00  0.00     0.002 A 
ATOM      4  C4  I4B d   1       0.172   1.251   2.011  0.00  0.00    -0.004 A 
ATOM      5  C5  I4B d   1      -1.013   0.522   1.975  0.00  0.00     0.002 A 
ATOM      6  C6  I4B d   1      -1.319  -0.266   0.856  0.00  0.00     0.003 A 
ENDROOT
BRANCH   1   7
ATOM      7  C1' I4B d   1      -0.781  -1.069  -1.460  0.00  0.00     0.060 C 
BRANCH   7   8
ATOM      8  C2' I4B d   1      -2.277  -1.307  -1.471  0.00  0.00    -0.013 C 
ATOM      9  C4' I4B d   1      -2.872  -0.978  -2.814  0.00  0.00     0.013 C 
ATOM     10  C3' I4B d   1      -2.520  -2.742  -1.108  0.00  0.00     0.013 C 
ENDBRANCH   7   8
ENDBRANCH   1   7
TORSDOF 2
ENDMDL
