MODEL 1
REMARK minimizedAffinity -4.01908922
REMARK minimizedRMSD -1
REMARK  2 active torsions:
REMARK  status: ('A' for Active; 'I' for Inactive)
REMARK    1  A    between atoms: C2'_3  and  C1'_4 
REMARK    2  A    between atoms: C1'_4  and  C1_5 
ROOT
ATOM      1  C1  I4B d   1      -3.950  -2.105  -1.640  0.00  0.00    -0.075 A 
ATOM      2  C2  I4B d   1      -2.791  -2.150  -0.906  0.00  0.00     0.003 A 
ATOM      3  C3  I4B d   1      -1.570  -1.711  -1.473  0.00  0.00     0.002 A 
ATOM      4  C4  I4B d   1      -1.545  -1.285  -2.785  0.00  0.00    -0.004 A 
ATOM      5  C5  I4B d   1      -2.725  -1.218  -3.520  0.00  0.00     0.002 A 
ATOM      6  C6  I4B d   1      -3.937  -1.619  -2.941  0.00  0.00     0.003 A 
ENDROOT
BRANCH   1   7
ATOM      7  C1' I4B d   1      -5.215  -2.608  -1.020  0.00  0.00     0.060 C 
BRANCH   7   8
ATOM      8  C2' I4B d   1      -4.844  -3.621   0.043  0.00  0.00    -0.013 C 
ATOM      9  C4' I4B d   1      -5.729  -3.488   1.255  0.00  0.00     0.013 C 
ATOM     10  C3' I4B d   1      -4.956  -4.988  -0.561  0.00  0.00     0.013 C 
ENDBRANCH   7   8
ENDBRANCH   1   7
TORSDOF 2
ENDMDL
