MODEL 1
REMARK minimizedAffinity -5.36002922
REMARK minimizedRMSD -1
REMARK  2 active torsions:
REMARK  status: ('A' for Active; 'I' for Inactive)
REMARK    1  A    between atoms: C2'_3  and  C1'_4 
REMARK    2  A    between atoms: C1'_4  and  C1_5 
ROOT
ATOM      1  C1  I4B d   1       1.439   1.217   0.435  0.00  0.00    -0.075 A 
ATOM      2  C2  I4B d   1       2.781   1.083   0.185  0.00  0.00     0.003 A 
ATOM      3  C3  I4B d   1       3.270  -0.064  -0.487  0.00  0.00     0.002 A 
ATOM      4  C4  I4B d   1       2.392  -1.068  -0.843  0.00  0.00    -0.004 A 
ATOM      5  C5  I4B d   1       1.028  -0.920  -0.608  0.00  0.00     0.002 A 
ATOM      6  C6  I4B d   1       0.546   0.236   0.024  0.00  0.00     0.003 A 
ENDROOT
BRANCH   1   7
ATOM      7  C1' I4B d   1       0.961   2.426   1.177  0.00  0.00     0.060 C 
BRANCH   7   8
ATOM      8  C2' I4B d   1       0.570   1.992   2.575  0.00  0.00    -0.013 C 
ATOM      9  C4' I4B d   1      -0.488   0.921   2.537  0.00  0.00     0.013 C 
ATOM     10  C3' I4B d   1       1.807   1.508   3.272  0.00  0.00     0.013 C 
ENDBRANCH   7   8
ENDBRANCH   1   7
TORSDOF 2
ENDMDL
