MODEL 1
REMARK minimizedAffinity -4.03339624
REMARK minimizedRMSD -1
REMARK  2 active torsions:
REMARK  status: ('A' for Active; 'I' for Inactive)
REMARK    1  A    between atoms: C2'_3  and  C1'_4 
REMARK    2  A    between atoms: C1'_4  and  C1_5 
ROOT
ATOM      1  C1  I4B d   1      -0.008  -0.829  -0.322  0.00  0.00    -0.075 A 
ATOM      2  C2  I4B d   1       1.194  -0.250  -0.644  0.00  0.00     0.003 A 
ATOM      3  C3  I4B d   1       1.638   0.903   0.048  0.00  0.00     0.002 A 
ATOM      4  C4  I4B d   1       0.830   1.470   1.012  0.00  0.00    -0.004 A 
ATOM      5  C5  I4B d   1      -0.379   0.869   1.353  0.00  0.00     0.002 A 
ATOM      6  C6  I4B d   1      -0.795  -0.295   0.690  0.00  0.00     0.003 A 
ENDROOT
BRANCH   1   7
ATOM      7  C1' I4B d   1      -0.461  -2.026  -1.095  0.00  0.00     0.060 C 
BRANCH   7   8
ATOM      8  C2' I4B d   1      -1.876  -1.767  -1.572  0.00  0.00    -0.013 C 
ATOM      9  C4' I4B d   1      -1.968  -1.842  -3.073  0.00  0.00     0.013 C 
ATOM     10  C3' I4B d   1      -2.776  -2.776  -0.923  0.00  0.00     0.013 C 
ENDBRANCH   7   8
ENDBRANCH   1   7
TORSDOF 2
ENDMDL
