MODEL 1
REMARK minimizedAffinity -1.94323063
REMARK minimizedRMSD -1
REMARK  2 active torsions:
REMARK  status: ('A' for Active; 'I' for Inactive)
REMARK    1  A    between atoms: C2'_3  and  C1'_4 
REMARK    2  A    between atoms: C1'_4  and  C1_5 
ROOT
ATOM      1  C1  I4B d   1      -0.630  -1.510  -1.384  0.00  0.00    -0.075 A 
ATOM      2  C2  I4B d   1      -0.179  -1.181  -2.638  0.00  0.00     0.003 A 
ATOM      3  C3  I4B d   1      -1.000  -1.402  -3.771  0.00  0.00     0.002 A 
ATOM      4  C4  I4B d   1      -2.235  -1.996  -3.611  0.00  0.00    -0.004 A 
ATOM      5  C5  I4B d   1      -2.700  -2.308  -2.337  0.00  0.00     0.002 A 
ATOM      6  C6  I4B d   1      -1.898  -2.052  -1.215  0.00  0.00     0.003 A 
ENDROOT
BRANCH   1   7
ATOM      7  C1' I4B d   1       0.275  -1.294  -0.213  0.00  0.00     0.060 C 
BRANCH   7   8
ATOM      8  C2' I4B d   1      -0.442  -0.392   0.771  0.00  0.00    -0.013 C 
ATOM      9  C4' I4B d   1      -0.596  -1.060   2.112  0.00  0.00     0.013 C 
ATOM     10  C3' I4B d   1       0.342   0.881   0.887  0.00  0.00     0.013 C 
ENDBRANCH   7   8
ENDBRANCH   1   7
TORSDOF 2
ENDMDL
