MODEL 1
REMARK minimizedAffinity -3.8344357
REMARK minimizedRMSD -1
REMARK  2 active torsions:
REMARK  status: ('A' for Active; 'I' for Inactive)
REMARK    1  A    between atoms: C2'_3  and  C1'_4 
REMARK    2  A    between atoms: C1'_4  and  C1_5 
ROOT
ATOM      1  C1  I4B d   1      -1.462  -1.230  -0.952  0.00  0.00    -0.075 A 
ATOM      2  C2  I4B d   1      -2.567  -2.020  -0.760  0.00  0.00     0.003 A 
ATOM      3  C3  I4B d   1      -3.515  -2.186  -1.799  0.00  0.00     0.002 A 
ATOM      4  C4  I4B d   1      -3.345  -1.507  -2.988  0.00  0.00    -0.004 A 
ATOM      5  C5  I4B d   1      -2.212  -0.724  -3.190  0.00  0.00     0.002 A 
ATOM      6  C6  I4B d   1      -1.258  -0.594  -2.170  0.00  0.00     0.003 A 
ENDROOT
BRANCH   1   7
ATOM      7  C1' I4B d   1      -0.498  -1.050   0.178  0.00  0.00     0.060 C 
BRANCH   7   8
ATOM      8  C2' I4B d   1      -0.050   0.397   0.183  0.00  0.00    -0.013 C 
ATOM      9  C4' I4B d   1      -0.550   1.118   1.407  0.00  0.00     0.013 C 
ATOM     10  C3' I4B d   1       1.448   0.418   0.117  0.00  0.00     0.013 C 
ENDBRANCH   7   8
ENDBRANCH   1   7
TORSDOF 2
ENDMDL
