MODEL 1
REMARK minimizedAffinity -1.56990635
REMARK minimizedRMSD -1
REMARK  2 active torsions:
REMARK  status: ('A' for Active; 'I' for Inactive)
REMARK    1  A    between atoms: C2'_3  and  C1'_4 
REMARK    2  A    between atoms: C1'_4  and  C1_5 
ROOT
ATOM      1  C1  I4B d   1      -0.195  -0.272  -0.086  0.00  0.00    -0.075 A 
ATOM      2  C2  I4B d   1       0.454   0.891  -0.418  0.00  0.00     0.003 A 
ATOM      3  C3  I4B d   1       0.638   1.907   0.552  0.00  0.00     0.002 A 
ATOM      4  C4  I4B d   1       0.116   1.739   1.818  0.00  0.00    -0.004 A 
ATOM      5  C5  I4B d   1      -0.521   0.550   2.160  0.00  0.00     0.002 A 
ATOM      6  C6  I4B d   1      -0.667  -0.468   1.205  0.00  0.00     0.003 A 
ENDROOT
BRANCH   1   7
ATOM      7  C1' I4B d   1      -0.400  -1.309  -1.144  0.00  0.00     0.060 C 
BRANCH   7   8
ATOM      8  C2' I4B d   1      -1.574  -0.877  -2.000  0.00  0.00    -0.013 C 
ATOM      9  C4' I4B d   1      -1.177  -0.756  -3.447  0.00  0.00     0.013 C 
ATOM     10  C3' I4B d   1      -2.672  -1.883  -1.821  0.00  0.00     0.013 C 
ENDBRANCH   7   8
ENDBRANCH   1   7
TORSDOF 2
ENDMDL
