MODEL 1
REMARK minimizedAffinity -1.89402878
REMARK minimizedRMSD -1
REMARK  2 active torsions:
REMARK  status: ('A' for Active; 'I' for Inactive)
REMARK    1  A    between atoms: C2'_3  and  C1'_4 
REMARK    2  A    between atoms: C1'_4  and  C1_5 
ROOT
ATOM      1  C1  I4B d   1      -0.134  -0.770  -0.273  0.00  0.00    -0.075 A 
ATOM      2  C2  I4B d   1       1.083  -0.408  -0.795  0.00  0.00     0.003 A 
ATOM      3  C3  I4B d   1       1.826   0.644  -0.207  0.00  0.00     0.002 A 
ATOM      4  C4  I4B d   1       1.295   1.336   0.863  0.00  0.00    -0.004 A 
ATOM      5  C5  I4B d   1       0.072   0.952   1.405  0.00  0.00     0.002 A 
ATOM      6  C6  I4B d   1      -0.642  -0.116   0.842  0.00  0.00     0.003 A 
ENDROOT
BRANCH   1   7
ATOM      7  C1' I4B d   1      -0.906  -1.865  -0.938  0.00  0.00     0.060 C 
BRANCH   7   8
ATOM      8  C2' I4B d   1      -1.870  -1.226  -1.918  0.00  0.00    -0.013 C 
ATOM      9  C4' I4B d   1      -1.432  -1.454  -3.341  0.00  0.00     0.013 C 
ATOM     10  C3' I4B d   1      -3.232  -1.804  -1.671  0.00  0.00     0.013 C 
ENDBRANCH   7   8
ENDBRANCH   1   7
TORSDOF 2
ENDMDL
