MODEL 1
REMARK minimizedAffinity -0.413491279
REMARK minimizedRMSD -1
REMARK  0 active torsions:
REMARK  status: ('A' for Active; 'I' for Inactive)
ROOT
ATOM      1  C   UNL d   1       4.278   2.281  -0.032  0.00  0.00     0.172 C 
ATOM      2  N   UNL d   1       4.710   1.141   0.742  0.00  0.00    -0.070 N 
ATOM      3  C1  UNL d   1       5.997   0.881   1.130  0.00  0.00    -0.004 A 
ATOM      4  C2  UNL d   1       5.992  -0.295   1.849  0.00  0.00    -0.047 A 
ATOM      5  C3  UNL d   1       4.655  -0.758   1.894  0.00  0.00    -0.047 A 
ATOM      6  C4  UNL d   1       3.883   0.150   1.201  0.00  0.00    -0.004 A 
ENDROOT
TORSDOF 0
ENDMDL
