MODEL 1
REMARK minimizedAffinity -2.08329344
REMARK minimizedRMSD -1
REMARK  0 active torsions:
REMARK  status: ('A' for Active; 'I' for Inactive)
ROOT
ATOM      1  C   UNL d   1       5.263  -1.499   2.341  0.00  0.00     0.172 C 
ATOM      2  N   UNL d   1       5.169  -0.219   1.680  0.00  0.00    -0.070 N 
ATOM      3  C1  UNL d   1       4.245   0.122   0.728  0.00  0.00    -0.004 A 
ATOM      4  C2  UNL d   1       4.489   1.425   0.351  0.00  0.00    -0.047 A 
ATOM      5  C3  UNL d   1       5.599   1.882   1.100  0.00  0.00    -0.047 A 
ATOM      6  C4  UNL d   1       6.000   0.845   1.915  0.00  0.00    -0.004 A 
ENDROOT
TORSDOF 0
ENDMDL
