MODEL 1
REMARK minimizedAffinity -1.86588597
REMARK minimizedRMSD -1
REMARK  0 active torsions:
REMARK  status: ('A' for Active; 'I' for Inactive)
ROOT
ATOM      1  C   UNL d   1      -4.019   1.671   3.617  0.00  0.00     0.172 C 
ATOM      2  N   UNL d   1      -2.648   1.605   3.167  0.00  0.00    -0.070 N 
ATOM      3  C1  UNL d   1      -1.657   2.492   3.495  0.00  0.00    -0.004 A 
ATOM      4  C2  UNL d   1      -0.500   2.081   2.868  0.00  0.00    -0.047 A 
ATOM      5  C3  UNL d   1      -0.807   0.909   2.138  0.00  0.00    -0.047 A 
ATOM      6  C4  UNL d   1      -2.143   0.636   2.341  0.00  0.00    -0.004 A 
ENDROOT
TORSDOF 0
ENDMDL
