MODEL 1
REMARK minimizedAffinity 1.28590167
REMARK minimizedRMSD -1
REMARK  0 active torsions:
REMARK  status: ('A' for Active; 'I' for Inactive)
ROOT
ATOM      1  C   UNL d   1      -5.996   5.442   5.489  0.00  0.00     0.172 C 
ATOM      2  N   UNL d   1      -5.542   4.085   5.296  0.00  0.00    -0.070 N 
ATOM      3  C1  UNL d   1      -4.599   3.680   4.389  0.00  0.00    -0.004 A 
ATOM      4  C2  UNL d   1      -4.449   2.316   4.517  0.00  0.00    -0.047 A 
ATOM      5  C3  UNL d   1      -5.333   1.886   5.535  0.00  0.00    -0.047 A 
ATOM      6  C4  UNL d   1      -5.998   3.001   5.999  0.00  0.00    -0.004 A 
ENDROOT
TORSDOF 0
ENDMDL
