MODEL 1
REMARK minimizedAffinity -0.0715017319
REMARK minimizedRMSD -1
REMARK  0 active torsions:
REMARK  status: ('A' for Active; 'I' for Inactive)
ROOT
ATOM      1  C   UNL d   1      -5.834   5.012   6.000  0.00  0.00     0.172 C 
ATOM      2  N   UNL d   1      -5.381   3.735   5.502  0.00  0.00    -0.070 N 
ATOM      3  C1  UNL d   1      -5.946   3.034   4.470  0.00  0.00    -0.004 A 
ATOM      4  C2  UNL d   1      -5.225   1.871   4.305  0.00  0.00    -0.047 A 
ATOM      5  C3  UNL d   1      -4.191   1.873   5.271  0.00  0.00    -0.047 A 
ATOM      6  C4  UNL d   1      -4.311   3.038   5.999  0.00  0.00    -0.004 A 
ENDROOT
TORSDOF 0
ENDMDL
