MODEL 1
REMARK minimizedAffinity 1.90385461
REMARK minimizedRMSD -1
REMARK  0 active torsions:
REMARK  status: ('A' for Active; 'I' for Inactive)
ROOT
ATOM      1  C   UNL d   1      -5.973   4.382   6.000  0.00  0.00     0.172 C 
ATOM      2  N   UNL d   1      -5.367   3.144   5.570  0.00  0.00    -0.070 N 
ATOM      3  C1  UNL d   1      -5.716   1.892   6.000  0.00  0.00    -0.004 A 
ATOM      4  C2  UNL d   1      -4.905   0.983   5.355  0.00  0.00    -0.047 A 
ATOM      5  C3  UNL d   1      -4.039   1.714   4.509  0.00  0.00    -0.047 A 
ATOM      6  C4  UNL d   1      -4.346   3.050   4.661  0.00  0.00    -0.004 A 
ENDROOT
TORSDOF 0
ENDMDL
