MODEL 1
REMARK minimizedAffinity 0.289233029
REMARK minimizedRMSD -1
REMARK  0 active torsions:
REMARK  status: ('A' for Active; 'I' for Inactive)
ROOT
ATOM      1  C   UNL d   1       1.413  -5.546  -2.950  0.00  0.00     0.172 C 
ATOM      2  N   UNL d   1       0.406  -5.255  -1.957  0.00  0.00    -0.070 N 
ATOM      3  C1  UNL d   1      -0.718  -6.000  -1.717  0.00  0.00    -0.004 A 
ATOM      4  C2  UNL d   1      -1.417  -5.392  -0.697  0.00  0.00    -0.047 A 
ATOM      5  C3  UNL d   1      -0.689  -4.242  -0.311  0.00  0.00    -0.047 A 
ATOM      6  C4  UNL d   1       0.435  -4.181  -1.107  0.00  0.00    -0.004 A 
ENDROOT
TORSDOF 0
ENDMDL
