MODEL 1
REMARK minimizedAffinity -0.172412336
REMARK minimizedRMSD -1
REMARK  0 active torsions:
REMARK  status: ('A' for Active; 'I' for Inactive)
ROOT
ATOM      1  C   UNL d   1      -2.527   2.539   2.615  0.00  0.00     0.172 C 
ATOM      2  N   UNL d   1      -1.539   1.586   2.169  0.00  0.00    -0.070 N 
ATOM      3  C1  UNL d   1      -1.725   0.233   2.063  0.00  0.00    -0.004 A 
ATOM      4  C2  UNL d   1      -0.549  -0.320   1.604  0.00  0.00    -0.047 A 
ATOM      5  C3  UNL d   1       0.376   0.737   1.429  0.00  0.00    -0.047 A 
ATOM      6  C4  UNL d   1      -0.263   1.905   1.787  0.00  0.00    -0.004 A 
ENDROOT
TORSDOF 0
ENDMDL
