MODEL 1
REMARK minimizedAffinity 1.18408608
REMARK minimizedRMSD -1
REMARK  0 active torsions:
REMARK  status: ('A' for Active; 'I' for Inactive)
ROOT
ATOM      1  C   UNL d   1      -5.975   4.964   5.923  0.00  0.00     0.172 C 
ATOM      2  N   UNL d   1      -5.344   3.792   5.363  0.00  0.00    -0.070 N 
ATOM      3  C1  UNL d   1      -5.595   3.265   4.124  0.00  0.00    -0.004 A 
ATOM      4  C2  UNL d   1      -4.795   2.155   3.967  0.00  0.00    -0.047 A 
ATOM      5  C3  UNL d   1      -4.037   2.008   5.153  0.00  0.00    -0.047 A 
ATOM      6  C4  UNL d   1      -4.397   3.034   6.000  0.00  0.00    -0.004 A 
ENDROOT
TORSDOF 0
ENDMDL
