MODEL 1
REMARK minimizedAffinity -2.23598552
REMARK minimizedRMSD -1
REMARK  0 active torsions:
REMARK  status: ('A' for Active; 'I' for Inactive)
ROOT
ATOM      1  C   UNL d   1      -3.708   2.198   5.045  0.00  0.00     0.172 C 
ATOM      2  N   UNL d   1      -2.878   2.197   3.864  0.00  0.00    -0.070 N 
ATOM      3  C1  UNL d   1      -3.303   2.459   2.589  0.00  0.00    -0.004 A 
ATOM      4  C2  UNL d   1      -2.213   2.358   1.751  0.00  0.00    -0.047 A 
ATOM      5  C3  UNL d   1      -1.094   2.023   2.551  0.00  0.00    -0.047 A 
ATOM      6  C4  UNL d   1      -1.534   1.929   3.854  0.00  0.00    -0.004 A 
ENDROOT
TORSDOF 0
ENDMDL
