MODEL 1
REMARK minimizedAffinity 3.35479927
REMARK minimizedRMSD -1
REMARK  0 active torsions:
REMARK  status: ('A' for Active; 'I' for Inactive)
ROOT
ATOM      1  C   UNL d   1      -3.171   2.595   3.613  0.00  0.00     0.172 C 
ATOM      2  N   UNL d   1      -4.235   2.777   4.573  0.00  0.00    -0.070 N 
ATOM      3  C1  UNL d   1      -5.001   1.780   5.113  0.00  0.00    -0.004 A 
ATOM      4  C2  UNL d   1      -5.899   2.361   5.982  0.00  0.00    -0.047 A 
ATOM      5  C3  UNL d   1      -5.665   3.757   5.962  0.00  0.00    -0.047 A 
ATOM      6  C4  UNL d   1      -4.629   3.987   5.081  0.00  0.00    -0.004 A 
ENDROOT
TORSDOF 0
ENDMDL
