MODEL 1
REMARK minimizedAffinity 0.673553467
REMARK minimizedRMSD -1
REMARK  0 active torsions:
REMARK  status: ('A' for Active; 'I' for Inactive)
ROOT
ATOM      1  C   UNL d   1       0.123  -3.985  -1.838  0.00  0.00     0.172 C 
ATOM      2  N   UNL d   1      -1.278  -3.682  -1.667  0.00  0.00    -0.070 N 
ATOM      3  C1  UNL d   1      -2.040  -2.923  -2.515  0.00  0.00    -0.004 A 
ATOM      4  C2  UNL d   1      -3.318  -2.872  -2.003  0.00  0.00    -0.047 A 
ATOM      5  C3  UNL d   1      -3.325  -3.625  -0.805  0.00  0.00    -0.047 A 
ATOM      6  C4  UNL d   1      -2.049  -4.115  -0.621  0.00  0.00    -0.004 A 
ENDROOT
TORSDOF 0
ENDMDL
