MODEL 1
REMARK minimizedAffinity 2.44795179
REMARK minimizedRMSD -1
REMARK  0 active torsions:
REMARK  status: ('A' for Active; 'I' for Inactive)
ROOT
ATOM      1  C   UNL d   1      -5.939   5.162   5.995  0.00  0.00     0.172 C 
ATOM      2  N   UNL d   1      -5.415   3.855   5.676  0.00  0.00    -0.070 N 
ATOM      3  C1  UNL d   1      -6.000   2.660   6.000  0.00  0.00    -0.004 A 
ATOM      4  C2  UNL d   1      -5.192   1.651   5.521  0.00  0.00    -0.047 A 
ATOM      5  C3  UNL d   1      -4.083   2.261   4.888  0.00  0.00    -0.047 A 
ATOM      6  C4  UNL d   1      -4.246   3.626   4.999  0.00  0.00    -0.004 A 
ENDROOT
TORSDOF 0
ENDMDL
