MODEL 1
REMARK minimizedAffinity 2.13186717
REMARK minimizedRMSD -1
REMARK  0 active torsions:
REMARK  status: ('A' for Active; 'I' for Inactive)
ROOT
ATOM      1  C   UNL d   1      -5.016  -1.686   0.810  0.00  0.00     0.172 C 
ATOM      2  N   UNL d   1      -4.345  -1.489  -0.453  0.00  0.00    -0.070 N 
ATOM      3  C1  UNL d   1      -3.974  -2.480  -1.323  0.00  0.00    -0.004 A 
ATOM      4  C2  UNL d   1      -3.365  -1.884  -2.406  0.00  0.00    -0.047 A 
ATOM      5  C3  UNL d   1      -3.370  -0.487  -2.180  0.00  0.00    -0.047 A 
ATOM      6  C4  UNL d   1      -3.983  -0.270  -0.964  0.00  0.00    -0.004 A 
ENDROOT
TORSDOF 0
ENDMDL
