MODEL 1
REMARK minimizedAffinity 1.07777429
REMARK minimizedRMSD -1
REMARK  0 active torsions:
REMARK  status: ('A' for Active; 'I' for Inactive)
ROOT
ATOM      1  C   UNL d   1       4.409   5.099  -5.462  0.00  0.00     0.172 C 
ATOM      2  N   UNL d   1       3.746   4.077  -4.686  0.00  0.00    -0.070 N 
ATOM      3  C1  UNL d   1       4.242   2.828  -4.422  0.00  0.00    -0.004 A 
ATOM      4  C2  UNL d   1       3.314   2.159  -3.654  0.00  0.00    -0.047 A 
ATOM      5  C3  UNL d   1       2.222   3.036  -3.450  0.00  0.00    -0.047 A 
ATOM      6  C4  UNL d   1       2.516   4.217  -4.099  0.00  0.00    -0.004 A 
ENDROOT
TORSDOF 0
ENDMDL
