MODEL 1
REMARK minimizedAffinity 4.55094957
REMARK minimizedRMSD -1
REMARK  0 active torsions:
REMARK  status: ('A' for Active; 'I' for Inactive)
ROOT
ATOM      1  C   UNL d   1      -3.981   1.795   3.984  0.00  0.00     0.172 C 
ATOM      2  N   UNL d   1      -2.961   2.383   3.148  0.00  0.00    -0.070 N 
ATOM      3  C1  UNL d   1      -1.647   1.999   3.103  0.00  0.00    -0.004 A 
ATOM      4  C2  UNL d   1      -1.004   2.802   2.186  0.00  0.00    -0.047 A 
ATOM      5  C3  UNL d   1      -1.964   3.700   1.662  0.00  0.00    -0.047 A 
ATOM      6  C4  UNL d   1      -3.167   3.418   2.275  0.00  0.00    -0.004 A 
ENDROOT
TORSDOF 0
ENDMDL
