MODEL 1
REMARK minimizedAffinity -4.66561127
REMARK minimizedRMSD -1
REMARK  1 active torsions:
REMARK  status: ('A' for Active; 'I' for Inactive)
REMARK    1  A    between atoms: N_2  and  C1_3 
ROOT
ATOM      1  C1  UNL d   1      -0.214   0.197   0.044  0.00  0.00     0.143 A 
ATOM      2  C2  UNL d   1       1.020  -0.417  -0.200  0.00  0.00    -0.057 A 
ATOM      3  C3  UNL d   1       1.433  -1.535   0.536  0.00  0.00     0.033 A 
ATOM      4  C4  UNL d   1       0.629  -2.042   1.552  0.00  0.00    -0.042 A 
ATOM      5  C5  UNL d   1      -0.589  -1.432   1.829  0.00  0.00     0.033 A 
ATOM      6  C6  UNL d   1      -0.999  -0.321   1.086  0.00  0.00    -0.057 A 
ENDROOT
BRANCH   1   7
ATOM      7  N   UNL d   1      -0.637   1.369  -0.586  0.00  0.00    -0.732 N 
ATOM      8  C   UNL d   1      -1.795   1.363  -1.454  0.00  0.00     0.284 C 
ATOM      9  H3  UNL d   1      -0.579   2.181   0.024  0.00  0.00     0.395 HD
ENDBRANCH   1   7
TORSDOF 1
ENDMDL
