MODEL 1
REMARK minimizedAffinity -4.25869417
REMARK minimizedRMSD -1
REMARK  1 active torsions:
REMARK  status: ('A' for Active; 'I' for Inactive)
REMARK    1  A    between atoms: N_2  and  C1_3 
ROOT
ATOM      1  C1  UNL d   1       0.404  -0.114  -0.261  0.00  0.00     0.143 A 
ATOM      2  C2  UNL d   1       1.767  -0.419  -0.342  0.00  0.00    -0.057 A 
ATOM      3  C3  UNL d   1       2.314  -1.495   0.369  0.00  0.00     0.033 A 
ATOM      4  C4  UNL d   1       1.509  -2.269   1.198  0.00  0.00    -0.042 A 
ATOM      5  C5  UNL d   1       0.157  -1.969   1.313  0.00  0.00     0.033 A 
ATOM      6  C6  UNL d   1      -0.385  -0.898   0.595  0.00  0.00    -0.057 A 
ENDROOT
BRANCH   1   7
ATOM      7  N   UNL d   1      -0.180   1.001  -0.866  0.00  0.00    -0.732 N 
ATOM      8  C   UNL d   1      -1.286   1.688  -0.233  0.00  0.00     0.284 C 
ATOM      9  H3  UNL d   1       0.509   1.621  -1.285  0.00  0.00     0.395 HD
ENDBRANCH   1   7
TORSDOF 1
ENDMDL
