MODEL 1
REMARK minimizedAffinity -2.54721689
REMARK minimizedRMSD -1
REMARK  1 active torsions:
REMARK  status: ('A' for Active; 'I' for Inactive)
REMARK    1  A    between atoms: N_2  and  C1_3 
ROOT
ATOM      1  C1  UNL d   1       0.897  -0.714   0.316  0.00  0.00     0.143 A 
ATOM      2  C2  UNL d   1       2.033  -1.414   0.736  0.00  0.00    -0.057 A 
ATOM      3  C3  UNL d   1       1.943  -2.446   1.679  0.00  0.00     0.033 A 
ATOM      4  C4  UNL d   1       0.714  -2.777   2.241  0.00  0.00    -0.042 A 
ATOM      5  C5  UNL d   1      -0.424  -2.078   1.857  0.00  0.00     0.033 A 
ATOM      6  C6  UNL d   1      -0.329  -1.054   0.910  0.00  0.00    -0.057 A 
ENDROOT
BRANCH   1   7
ATOM      7  N   UNL d   1       0.935   0.386  -0.544  0.00  0.00    -0.732 N 
ATOM      8  C   UNL d   1       2.197   0.886  -1.045  0.00  0.00     0.284 C 
ATOM      9  H3  UNL d   1       0.191   0.362  -1.238  0.00  0.00     0.395 HD
ENDBRANCH   1   7
TORSDOF 1
ENDMDL
