MODEL 1
REMARK minimizedAffinity -4.94688606
REMARK minimizedRMSD -1
REMARK  1 active torsions:
REMARK  status: ('A' for Active; 'I' for Inactive)
REMARK    1  A    between atoms: N_2  and  C1_3 
ROOT
ATOM      1  C1  UNL d   1       0.646  -1.082   0.255  0.00  0.00     0.143 A 
ATOM      2  C2  UNL d   1       1.464  -2.183  -0.022  0.00  0.00    -0.057 A 
ATOM      3  C3  UNL d   1       1.492  -3.298   0.823  0.00  0.00     0.033 A 
ATOM      4  C4  UNL d   1       0.721  -3.321   1.980  0.00  0.00    -0.042 A 
ATOM      5  C5  UNL d   1      -0.082  -2.228   2.289  0.00  0.00     0.033 A 
ATOM      6  C6  UNL d   1      -0.110  -1.120   1.437  0.00  0.00    -0.057 A 
ENDROOT
BRANCH   1   7
ATOM      7  N   UNL d   1       0.648   0.097  -0.494  0.00  0.00    -0.732 N 
ATOM      8  C   UNL d   1      -0.523   0.946  -0.535  0.00  0.00     0.284 C 
ATOM      9  H3  UNL d   1       1.527   0.604  -0.418  0.00  0.00     0.395 HD
ENDBRANCH   1   7
TORSDOF 1
ENDMDL
