MODEL 1
REMARK minimizedAffinity -5.52708626
REMARK minimizedRMSD -1
REMARK  1 active torsions:
REMARK  status: ('A' for Active; 'I' for Inactive)
REMARK    1  A    between atoms: N_2  and  C1_3 
ROOT
ATOM      1  C1  UNL d   1       0.122  -0.699   0.660  0.00  0.00     0.143 A 
ATOM      2  C2  UNL d   1       1.177  -1.505   0.220  0.00  0.00    -0.057 A 
ATOM      3  C3  UNL d   1       1.587  -2.628   0.950  0.00  0.00     0.033 A 
ATOM      4  C4  UNL d   1       0.965  -2.948   2.152  0.00  0.00    -0.042 A 
ATOM      5  C5  UNL d   1      -0.070  -2.147   2.622  0.00  0.00     0.033 A 
ATOM      6  C6  UNL d   1      -0.479  -1.031   1.885  0.00  0.00    -0.057 A 
ENDROOT
BRANCH   1   7
ATOM      7  N   UNL d   1      -0.267   0.485   0.030  0.00  0.00    -0.732 N 
ATOM      8  C   UNL d   1      -0.732   1.615   0.806  0.00  0.00     0.284 C 
ATOM      9  H3  UNL d   1       0.348   0.735  -0.741  0.00  0.00     0.395 HD
ENDBRANCH   1   7
TORSDOF 1
ENDMDL
