MODEL 1
REMARK minimizedAffinity -2.95728898
REMARK minimizedRMSD -1
REMARK  1 active torsions:
REMARK  status: ('A' for Active; 'I' for Inactive)
REMARK    1  A    between atoms: N_2  and  C1_3 
ROOT
ATOM      1  C1  UNL d   1       0.112  -0.036  -0.036  0.00  0.00     0.143 A 
ATOM      2  C2  UNL d   1       1.485  -0.043  -0.306  0.00  0.00    -0.057 A 
ATOM      3  C3  UNL d   1       2.286  -1.138   0.038  0.00  0.00     0.033 A 
ATOM      4  C4  UNL d   1       1.732  -2.237   0.686  0.00  0.00    -0.042 A 
ATOM      5  C5  UNL d   1       0.375  -2.241   0.987  0.00  0.00     0.033 A 
ATOM      6  C6  UNL d   1      -0.422  -1.147   0.635  0.00  0.00    -0.057 A 
ENDROOT
BRANCH   1   7
ATOM      7  N   UNL d   1      -0.720   1.063  -0.264  0.00  0.00    -0.732 N 
ATOM      8  C   UNL d   1      -1.266   1.314  -1.580  0.00  0.00     0.284 C 
ATOM      9  H3  UNL d   1      -1.380   1.215   0.496  0.00  0.00     0.395 HD
ENDBRANCH   1   7
TORSDOF 1
ENDMDL
