MODEL 1
REMARK minimizedAffinity -0.381616771
REMARK minimizedRMSD -1
REMARK  1 active torsions:
REMARK  status: ('A' for Active; 'I' for Inactive)
REMARK    1  A    between atoms: N_2  and  C1_3 
ROOT
ATOM      1  C1  UNL d   1      -0.778  -0.643   1.231  0.00  0.00     0.143 A 
ATOM      2  C2  UNL d   1      -0.844   0.416   0.319  0.00  0.00    -0.057 A 
ATOM      3  C3  UNL d   1       0.219   0.693  -0.549  0.00  0.00     0.033 A 
ATOM      4  C4  UNL d   1       1.383  -0.068  -0.499  0.00  0.00    -0.042 A 
ATOM      5  C5  UNL d   1       1.480  -1.109   0.416  0.00  0.00     0.033 A 
ATOM      6  C6  UNL d   1       0.413  -1.386   1.276  0.00  0.00    -0.057 A 
ENDROOT
BRANCH   1   7
ATOM      7  N   UNL d   1      -1.761  -0.909   2.187  0.00  0.00    -0.732 N 
ATOM      8  C   UNL d   1      -1.438  -1.640   3.393  0.00  0.00     0.284 C 
ATOM      9  H3  UNL d   1      -2.383  -0.117   2.335  0.00  0.00     0.395 HD
ENDBRANCH   1   7
TORSDOF 1
ENDMDL
