MODEL 1
REMARK minimizedAffinity -1.72549593
REMARK minimizedRMSD -1
REMARK  1 active torsions:
REMARK  status: ('A' for Active; 'I' for Inactive)
REMARK    1  A    between atoms: N_2  and  C1_3 
ROOT
ATOM      1  C1  UNL d   1      -0.919   1.430  -0.849  0.00  0.00     0.143 A 
ATOM      2  C2  UNL d   1      -0.712   2.357  -1.876  0.00  0.00    -0.057 A 
ATOM      3  C3  UNL d   1      -1.699   2.607  -2.838  0.00  0.00     0.033 A 
ATOM      4  C4  UNL d   1      -2.902   1.910  -2.807  0.00  0.00    -0.042 A 
ATOM      5  C5  UNL d   1      -3.119   0.966  -1.809  0.00  0.00     0.033 A 
ATOM      6  C6  UNL d   1      -2.133   0.726  -0.848  0.00  0.00    -0.057 A 
ENDROOT
BRANCH   1   7
ATOM      7  N   UNL d   1       0.060   1.066   0.078  0.00  0.00    -0.732 N 
ATOM      8  C   UNL d   1       1.422   0.821  -0.345  0.00  0.00     0.284 C 
ATOM      9  H3  UNL d   1      -0.017   1.587   0.949  0.00  0.00     0.395 HD
ENDBRANCH   1   7
TORSDOF 1
ENDMDL
