MODEL 1
REMARK minimizedAffinity -3.87316442
REMARK minimizedRMSD -1
REMARK  0 active torsions:
REMARK  status: ('A' for Active; 'I' for Inactive)
ROOT
ATOM      1  C   UNL d   1       1.523  -0.025  -2.891  0.00  0.00     0.172 C 
ATOM      2  N   UNL d   1       1.081   0.379  -1.577  0.00  0.00    -0.070 N 
ATOM      3  C1  UNL d   1       0.293  -0.361  -0.737  0.00  0.00    -0.004 A 
ATOM      4  C2  UNL d   1       0.098   0.370   0.414  0.00  0.00    -0.047 A 
ATOM      5  C3  UNL d   1       0.793   1.594   0.261  0.00  0.00    -0.047 A 
ATOM      6  C4  UNL d   1       1.393   1.572  -0.981  0.00  0.00    -0.004 A 
ENDROOT
TORSDOF 0
ENDMDL
