MODEL 1
REMARK minimizedAffinity -2.87486196
REMARK minimizedRMSD -1
REMARK  0 active torsions:
REMARK  status: ('A' for Active; 'I' for Inactive)
ROOT
ATOM      1  C   UNL d   1      -0.452  -0.033   1.143  0.00  0.00     0.172 C 
ATOM      2  N   UNL d   1       0.359   0.222  -0.024  0.00  0.00    -0.070 N 
ATOM      3  C1  UNL d   1       0.272  -0.444  -1.218  0.00  0.00    -0.004 A 
ATOM      4  C2  UNL d   1       1.211   0.094  -2.071  0.00  0.00    -0.047 A 
ATOM      5  C3  UNL d   1       1.887   1.118  -1.365  0.00  0.00    -0.047 A 
ATOM      6  C4  UNL d   1       1.339   1.176  -0.101  0.00  0.00    -0.004 A 
ENDROOT
TORSDOF 0
ENDMDL
