MODEL 1
REMARK minimizedAffinity -2.66210437
REMARK minimizedRMSD -1
REMARK  0 active torsions:
REMARK  status: ('A' for Active; 'I' for Inactive)
ROOT
ATOM      1  C   UNL d   1       1.679   0.226  -1.831  0.00  0.00     0.172 C 
ATOM      2  N   UNL d   1       0.861  -0.013  -0.666  0.00  0.00    -0.070 N 
ATOM      3  C1  UNL d   1       0.463   0.936   0.238  0.00  0.00    -0.004 A 
ATOM      4  C2  UNL d   1      -0.302   0.309   1.198  0.00  0.00    -0.047 A 
ATOM      5  C3  UNL d   1      -0.365  -1.064   0.860  0.00  0.00    -0.047 A 
ATOM      6  C4  UNL d   1       0.363  -1.235  -0.298  0.00  0.00    -0.004 A 
ENDROOT
TORSDOF 0
ENDMDL
