MODEL 1
REMARK minimizedAffinity -2.78464842
REMARK minimizedRMSD -1
REMARK  0 active torsions:
REMARK  status: ('A' for Active; 'I' for Inactive)
ROOT
ATOM      1  C   UNL d   1       1.432  -0.137  -2.763  0.00  0.00     0.172 C 
ATOM      2  N   UNL d   1       0.755  -0.365  -1.507  0.00  0.00    -0.070 N 
ATOM      3  C1  UNL d   1       0.570  -1.584  -0.910  0.00  0.00    -0.004 A 
ATOM      4  C2  UNL d   1      -0.115  -1.377   0.267  0.00  0.00    -0.047 A 
ATOM      5  C3  UNL d   1      -0.351   0.014   0.381  0.00  0.00    -0.047 A 
ATOM      6  C4  UNL d   1       0.199   0.616  -0.731  0.00  0.00    -0.004 A 
ENDROOT
TORSDOF 0
ENDMDL
