MODEL 1
REMARK minimizedAffinity -3.28412795
REMARK minimizedRMSD -1
REMARK  0 active torsions:
REMARK  status: ('A' for Active; 'I' for Inactive)
ROOT
ATOM      1  C   UNL d   1       5.227  -1.288  -1.072  0.00  0.00     0.172 C 
ATOM      2  N   UNL d   1       4.034  -0.568  -1.454  0.00  0.00    -0.070 N 
ATOM      3  C1  UNL d   1       3.002  -1.072  -2.200  0.00  0.00    -0.004 A 
ATOM      4  C2  UNL d   1       2.061  -0.076  -2.344  0.00  0.00    -0.047 A 
ATOM      5  C3  UNL d   1       2.544   1.066  -1.661  0.00  0.00    -0.047 A 
ATOM      6  C4  UNL d   1       3.767   0.733  -1.120  0.00  0.00    -0.004 A 
ENDROOT
TORSDOF 0
ENDMDL
