MODEL 1
REMARK minimizedAffinity -3.13803673
REMARK minimizedRMSD -1
REMARK  0 active torsions:
REMARK  status: ('A' for Active; 'I' for Inactive)
ROOT
ATOM      1  C   UNL d   1      -0.148  -0.253   0.270  0.00  0.00     0.172 C 
ATOM      2  N   UNL d   1       0.685   0.258  -0.793  0.00  0.00    -0.070 N 
ATOM      3  C1  UNL d   1       1.519   1.339  -0.704  0.00  0.00    -0.004 A 
ATOM      4  C2  UNL d   1       2.135   1.499  -1.927  0.00  0.00    -0.047 A 
ATOM      5  C3  UNL d   1       1.652   0.479  -2.781  0.00  0.00    -0.047 A 
ATOM      6  C4  UNL d   1       0.756  -0.276  -2.053  0.00  0.00    -0.004 A 
ENDROOT
TORSDOF 0
ENDMDL
