MODEL 1
REMARK minimizedAffinity -3.31187654
REMARK minimizedRMSD -1
REMARK  0 active torsions:
REMARK  status: ('A' for Active; 'I' for Inactive)
ROOT
ATOM      1  C   UNL d   1      -0.694   0.031   0.946  0.00  0.00     0.172 C 
ATOM      2  N   UNL d   1       0.329   0.450   0.017  0.00  0.00    -0.070 N 
ATOM      3  C1  UNL d   1       1.109   1.569   0.139  0.00  0.00    -0.004 A 
ATOM      4  C2  UNL d   1       1.957   1.613  -0.946  0.00  0.00    -0.047 A 
ATOM      5  C3  UNL d   1       1.676   0.482  -1.749  0.00  0.00    -0.047 A 
ATOM      6  C4  UNL d   1       0.664  -0.221  -1.130  0.00  0.00    -0.004 A 
ENDROOT
TORSDOF 0
ENDMDL
