MODEL 1
REMARK minimizedAffinity -3.41622329
REMARK minimizedRMSD -1
REMARK  0 active torsions:
REMARK  status: ('A' for Active; 'I' for Inactive)
ROOT
ATOM      1  C   UNL d   1      -0.863  -0.734   0.759  0.00  0.00     0.172 C 
ATOM      2  N   UNL d   1      -0.003  -1.073  -0.350  0.00  0.00    -0.070 N 
ATOM      3  C1  UNL d   1       0.347  -2.341  -0.730  0.00  0.00    -0.004 A 
ATOM      4  C2  UNL d   1       1.175  -2.240  -1.827  0.00  0.00    -0.047 A 
ATOM      5  C3  UNL d   1       1.329  -0.863  -2.115  0.00  0.00    -0.047 A 
ATOM      6  C4  UNL d   1       0.589  -0.164  -1.186  0.00  0.00    -0.004 A 
ENDROOT
TORSDOF 0
ENDMDL
