MODEL 1
REMARK minimizedAffinity -3.29188037
REMARK minimizedRMSD -1
REMARK  0 active torsions:
REMARK  status: ('A' for Active; 'I' for Inactive)
ROOT
ATOM      1  C   UNL d   1      -0.986  -0.327   1.121  0.00  0.00     0.172 C 
ATOM      2  N   UNL d   1      -0.129   0.029   0.015  0.00  0.00    -0.070 N 
ATOM      3  C1  UNL d   1       0.859   0.978   0.044  0.00  0.00    -0.004 A 
ATOM      4  C2  UNL d   1       1.443   1.016  -1.204  0.00  0.00    -0.047 A 
ATOM      5  C3  UNL d   1       0.783   0.059  -2.010  0.00  0.00    -0.047 A 
ATOM      6  C4  UNL d   1      -0.185  -0.538  -1.230  0.00  0.00    -0.004 A 
ENDROOT
TORSDOF 0
ENDMDL
