MODEL 1
REMARK minimizedAffinity -3.6532352
REMARK minimizedRMSD -1
REMARK  0 active torsions:
REMARK  status: ('A' for Active; 'I' for Inactive)
ROOT
ATOM      1  C   UNL d   1      -0.239  -0.745   0.922  0.00  0.00     0.172 C 
ATOM      2  N   UNL d   1       0.372  -0.723  -0.387  0.00  0.00    -0.070 N 
ATOM      3  C1  UNL d   1       0.584  -1.813  -1.188  0.00  0.00    -0.004 A 
ATOM      4  C2  UNL d   1       1.186  -1.374  -2.347  0.00  0.00    -0.047 A 
ATOM      5  C3  UNL d   1       1.342   0.028  -2.239  0.00  0.00    -0.047 A 
ATOM      6  C4  UNL d   1       0.830   0.405  -1.015  0.00  0.00    -0.004 A 
ENDROOT
TORSDOF 0
ENDMDL
