MODEL 1
REMARK minimizedAffinity -2.36882782
REMARK minimizedRMSD -1
REMARK  0 active torsions:
REMARK  status: ('A' for Active; 'I' for Inactive)
ROOT
ATOM      1  C   UNL d   1      -0.129  -0.139   0.904  0.00  0.00     0.172 C 
ATOM      2  N   UNL d   1       0.627   0.091  -0.304  0.00  0.00    -0.070 N 
ATOM      3  C1  UNL d   1       1.244   1.265  -0.649  0.00  0.00    -0.004 A 
ATOM      4  C2  UNL d   1       1.856   1.077  -1.870  0.00  0.00    -0.047 A 
ATOM      5  C3  UNL d   1       1.598  -0.255  -2.272  0.00  0.00    -0.047 A 
ATOM      6  C4  UNL d   1       0.835  -0.842  -1.285  0.00  0.00    -0.004 A 
ENDROOT
TORSDOF 0
ENDMDL
