MODEL 1
REMARK minimizedAffinity -3.67240119
REMARK minimizedRMSD -1
REMARK  0 active torsions:
REMARK  status: ('A' for Active; 'I' for Inactive)
ROOT
ATOM      1  C   UNL d   1      -0.594   0.207   0.944  0.00  0.00     0.172 C 
ATOM      2  N   UNL d   1       0.229   0.560  -0.188  0.00  0.00    -0.070 N 
ATOM      3  C1  UNL d   1       0.949   1.718  -0.322  0.00  0.00    -0.004 A 
ATOM      4  C2  UNL d   1       1.597   1.674  -1.538  0.00  0.00    -0.047 A 
ATOM      5  C3  UNL d   1       1.255   0.448  -2.156  0.00  0.00    -0.047 A 
ATOM      6  C4  UNL d   1       0.407  -0.222  -1.299  0.00  0.00    -0.004 A 
ENDROOT
TORSDOF 0
ENDMDL
