MODEL 1
REMARK minimizedAffinity -2.78886318
REMARK minimizedRMSD -1
REMARK  0 active torsions:
REMARK  status: ('A' for Active; 'I' for Inactive)
ROOT
ATOM      1  C   UNL d   1       0.895   2.158   0.582  0.00  0.00     0.172 C 
ATOM      2  N   UNL d   1       0.442   0.831   0.235  0.00  0.00    -0.070 N 
ATOM      3  C1  UNL d   1       0.605   0.224  -0.981  0.00  0.00    -0.004 A 
ATOM      4  C2  UNL d   1       0.037  -1.029  -0.907  0.00  0.00    -0.047 A 
ATOM      5  C3  UNL d   1      -0.486  -1.181   0.399  0.00  0.00    -0.047 A 
ATOM      6  C4  UNL d   1      -0.221  -0.014   1.085  0.00  0.00    -0.004 A 
ENDROOT
TORSDOF 0
ENDMDL
