MODEL 1
REMARK minimizedAffinity -2.81163788
REMARK minimizedRMSD -1
REMARK  0 active torsions:
REMARK  status: ('A' for Active; 'I' for Inactive)
ROOT
ATOM      1  C   UNL d   1       2.069   0.928  -1.796  0.00  0.00     0.172 C 
ATOM      2  N   UNL d   1       1.259   0.654  -0.632  0.00  0.00    -0.070 N 
ATOM      3  C1  UNL d   1       1.113   1.478   0.451  0.00  0.00    -0.004 A 
ATOM      4  C2  UNL d   1       0.262   0.859   1.341  0.00  0.00    -0.047 A 
ATOM      5  C3  UNL d   1      -0.116  -0.381   0.773  0.00  0.00    -0.047 A 
ATOM      6  C4  UNL d   1       0.516  -0.483  -0.449  0.00  0.00    -0.004 A 
ENDROOT
TORSDOF 0
ENDMDL
