MODEL 1
REMARK minimizedAffinity 16.8747845
REMARK minimizedRMSD -1
REMARK  0 active torsions:
REMARK  status: ('A' for Active; 'I' for Inactive)
ROOT
ATOM      1  C   UNL d   1       3.268   0.547  -1.343  0.00  0.00    -0.002 A 
ATOM      2  C1  UNL d   1       3.693   1.857  -1.510  0.00  0.00     0.010 A 
ATOM      3  C2  UNL d   1       3.562   2.783  -0.474  0.00  0.00     0.041 A 
ATOM      4  C3  UNL d   1       2.992   2.366   0.745  0.00  0.00    -0.075 A 
ATOM      5  S   UNL d   1       2.732   3.326   2.154  0.00  0.00     0.015 SA
ATOM      6  C4  UNL d   1       2.051   2.019   3.010  0.00  0.00     0.022 A 
ATOM      7  C5  UNL d   1       2.015   0.871   2.255  0.00  0.00     0.026 A 
ATOM      8  C6  UNL d   1       2.557   1.052   0.937  0.00  0.00    -0.082 A 
ATOM      9  C7  UNL d   1       2.703   0.137  -0.133  0.00  0.00     0.045 A 
ENDROOT
TORSDOF 0
ENDMDL
