MODEL 1
REMARK minimizedAffinity 17.9374142
REMARK minimizedRMSD -1
REMARK  0 active torsions:
REMARK  status: ('A' for Active; 'I' for Inactive)
ROOT
ATOM      1  C   UNL d   1       4.892  -2.321   1.697  0.00  0.00    -0.002 A 
ATOM      2  C1  UNL d   1       6.000  -1.486   1.741  0.00  0.00     0.010 A 
ATOM      3  C2  UNL d   1       5.934  -0.192   1.222  0.00  0.00     0.041 A 
ATOM      4  C3  UNL d   1       4.725   0.255   0.654  0.00  0.00    -0.075 A 
ATOM      5  S   UNL d   1       4.411   1.800  -0.042  0.00  0.00     0.015 SA
ATOM      6  C4  UNL d   1       2.799   1.389  -0.413  0.00  0.00     0.022 A 
ATOM      7  C5  UNL d   1       2.491   0.107  -0.022  0.00  0.00     0.026 A 
ATOM      8  C6  UNL d   1       3.595  -0.567   0.600  0.00  0.00    -0.082 A 
ATOM      9  C7  UNL d   1       3.694  -1.875   1.134  0.00  0.00     0.045 A 
ENDROOT
TORSDOF 0
ENDMDL
