MODEL 1
REMARK minimizedAffinity -2.17483425
REMARK minimizedRMSD -1
REMARK  0 active torsions:
REMARK  status: ('A' for Active; 'I' for Inactive)
ROOT
ATOM      1  C   UNL d   1       0.349  -1.032  -0.109  0.00  0.00    -0.002 A 
ATOM      2  C1  UNL d   1       1.282  -2.023  -0.379  0.00  0.00     0.010 A 
ATOM      3  C2  UNL d   1       2.607  -1.690  -0.671  0.00  0.00     0.041 A 
ATOM      4  C3  UNL d   1       2.981  -0.332  -0.685  0.00  0.00    -0.075 A 
ATOM      5  S   UNL d   1       4.546   0.312  -1.015  0.00  0.00     0.015 SA
ATOM      6  C4  UNL d   1       4.012   1.917  -0.804  0.00  0.00     0.022 A 
ATOM      7  C5  UNL d   1       2.675   1.978  -0.489  0.00  0.00     0.026 A 
ATOM      8  C6  UNL d   1       2.059   0.684  -0.415  0.00  0.00    -0.082 A 
ATOM      9  C7  UNL d   1       0.724   0.314  -0.124  0.00  0.00     0.045 A 
ENDROOT
TORSDOF 0
ENDMDL
