MODEL 1
REMARK minimizedAffinity 6.00602388
REMARK minimizedRMSD -1
REMARK  2 active torsions:
REMARK  status: ('A' for Active; 'I' for Inactive)
REMARK    1  A    between atoms: C1_2  and  C2_3 
REMARK    2  A    between atoms: C2_3  and  C3_4 
ROOT
ATOM      1  C3  UNL d   1      -3.461   0.451  -4.142  0.00  0.00    -0.075 A 
ATOM      2  C4  UNL d   1      -3.913  -0.464  -3.180  0.00  0.00     0.002 A 
ATOM      3  C5  UNL d   1      -3.004  -1.172  -2.393  0.00  0.00     0.002 A 
ATOM      4  C6  UNL d   1      -1.634  -0.983  -2.565  0.00  0.00    -0.004 A 
ATOM      5  C7  UNL d   1      -1.174  -0.089  -3.529  0.00  0.00     0.002 A 
ATOM      6  C8  UNL d   1      -2.081   0.625  -4.314  0.00  0.00     0.002 A 
ENDROOT
BRANCH   1   7
ATOM      7  C2  UNL d   1      -4.440   1.242  -4.975  0.00  0.00     0.056 C 
BRANCH   7   8
ATOM      8  C1  UNL d   1      -4.665   2.675  -4.481  0.00  0.00     0.007 C 
ATOM      9  C   UNL d   1      -5.087   2.747  -3.020  0.00  0.00     0.009 C 
ENDBRANCH   7   8
ENDBRANCH   1   7
TORSDOF 2
ENDMDL
