MODEL 1
REMARK minimizedAffinity 5.50970221
REMARK minimizedRMSD -1
REMARK  2 active torsions:
REMARK  status: ('A' for Active; 'I' for Inactive)
REMARK    1  A    between atoms: C1_2  and  C2_3 
REMARK    2  A    between atoms: C2_3  and  C3_4 
ROOT
ATOM      1  C3  UNL d   1       2.179  -0.240  -0.072  0.00  0.00    -0.075 A 
ATOM      2  C4  UNL d   1       1.656  -0.191  -1.372  0.00  0.00     0.002 A 
ATOM      3  C5  UNL d   1       1.249  -1.360  -2.016  0.00  0.00     0.002 A 
ATOM      4  C6  UNL d   1       1.368  -2.590  -1.374  0.00  0.00    -0.004 A 
ATOM      5  C7  UNL d   1       1.901  -2.652  -0.088  0.00  0.00     0.002 A 
ATOM      6  C8  UNL d   1       2.305  -1.484   0.560  0.00  0.00     0.002 A 
ENDROOT
BRANCH   1   7
ATOM      7  C2  UNL d   1       2.594   1.025   0.642  0.00  0.00     0.056 C 
BRANCH   7   8
ATOM      8  C1  UNL d   1       1.720   2.241   0.316  0.00  0.00     0.007 C 
ATOM      9  C   UNL d   1       2.506   3.543   0.246  0.00  0.00     0.009 C 
ENDBRANCH   7   8
ENDBRANCH   1   7
TORSDOF 2
ENDMDL
