MODEL 1
REMARK minimizedAffinity 1.61945391
REMARK minimizedRMSD -1
REMARK  2 active torsions:
REMARK  status: ('A' for Active; 'I' for Inactive)
REMARK    1  A    between atoms: C1_2  and  C2_3 
REMARK    2  A    between atoms: C2_3  and  C3_4 
ROOT
ATOM      1  C3  UNL d   1       1.810   0.122  -0.110  0.00  0.00    -0.075 A 
ATOM      2  C4  UNL d   1       0.599  -0.541  -0.355  0.00  0.00     0.002 A 
ATOM      3  C5  UNL d   1       0.582  -1.908  -0.629  0.00  0.00     0.002 A 
ATOM      4  C6  UNL d   1       1.775  -2.628  -0.673  0.00  0.00    -0.004 A 
ATOM      5  C7  UNL d   1       2.985  -1.976  -0.447  0.00  0.00     0.002 A 
ATOM      6  C8  UNL d   1       3.004  -0.609  -0.168  0.00  0.00     0.002 A 
ENDROOT
BRANCH   1   7
ATOM      7  C2  UNL d   1       1.832   1.596   0.217  0.00  0.00     0.056 C 
BRANCH   7   8
ATOM      8  C1  UNL d   1       0.485   2.299   0.020  0.00  0.00     0.007 C 
ATOM      9  C   UNL d   1      -0.317   2.433   1.308  0.00  0.00     0.009 C 
ENDBRANCH   7   8
ENDBRANCH   1   7
TORSDOF 2
ENDMDL
