MODEL 1
REMARK minimizedAffinity -3.27987742
REMARK minimizedRMSD -1
REMARK  1 active torsions:
REMARK  status: ('A' for Active; 'I' for Inactive)
REMARK    1  A    between atoms: C1_2  and  C2_3 
ROOT
ATOM      1  C2  UNL d   1      -0.461   0.609   1.115  0.00  0.00    -0.076 A 
ATOM      2  C3  UNL d   1      -1.720   0.575   0.492  0.00  0.00     0.004 A 
ATOM      3  C4  UNL d   1      -1.837   0.650  -0.895  0.00  0.00    -0.003 A 
ATOM      4  C5  UNL d   1      -0.696   0.759  -1.682  0.00  0.00     0.000 A 
ATOM      5  C6  UNL d   1       0.563   0.777  -1.082  0.00  0.00     0.000 A 
ATOM      6  C7  UNL d   1       0.699   0.686   0.314  0.00  0.00    -0.073 A 
ATOM      7  C8  UNL d   1       2.080   0.716   0.908  0.00  0.00     0.078 C 
ENDROOT
BRANCH   1   8
ATOM      8  C1  UNL d   1      -0.398   0.552   2.624  0.00  0.00     0.053 C 
ATOM      9  C   UNL d   1      -1.737   0.859   3.276  0.00  0.00     0.018 C 
ENDBRANCH   1   8
TORSDOF 1
ENDMDL
