MODEL 1
REMARK minimizedAffinity -2.59663439
REMARK minimizedRMSD -1
REMARK  1 active torsions:
REMARK  status: ('A' for Active; 'I' for Inactive)
REMARK    1  A    between atoms: C1_2  and  C2_3 
ROOT
ATOM      1  C2  UNL d   1      -1.008   0.343   0.737  0.00  0.00    -0.076 A 
ATOM      2  C3  UNL d   1      -2.354   0.701   0.550  0.00  0.00     0.004 A 
ATOM      3  C4  UNL d   1      -3.159   1.055   1.632  0.00  0.00    -0.003 A 
ATOM      4  C5  UNL d   1      -2.630   1.058   2.918  0.00  0.00     0.000 A 
ATOM      5  C6  UNL d   1      -1.292   0.722   3.120  0.00  0.00     0.000 A 
ATOM      6  C7  UNL d   1      -0.462   0.379   2.039  0.00  0.00    -0.073 A 
ATOM      7  C8  UNL d   1       0.972   0.020   2.315  0.00  0.00     0.078 C 
ENDROOT
BRANCH   1   8
ATOM      8  C1  UNL d   1      -0.190  -0.058  -0.470  0.00  0.00     0.053 C 
ATOM      9  C   UNL d   1       0.352   1.142  -1.231  0.00  0.00     0.018 C 
ENDBRANCH   1   8
TORSDOF 1
ENDMDL
