MODEL 1
REMARK minimizedAffinity -1.79195869
REMARK minimizedRMSD -1
REMARK  1 active torsions:
REMARK  status: ('A' for Active; 'I' for Inactive)
REMARK    1  A    between atoms: C1_2  and  C2_3 
ROOT
ATOM      1  C2  UNL d   1       0.504   0.054  -1.507  0.00  0.00    -0.076 A 
ATOM      2  C3  UNL d   1       1.606  -0.390  -0.755  0.00  0.00     0.004 A 
ATOM      3  C4  UNL d   1       1.612  -0.293   0.635  0.00  0.00    -0.003 A 
ATOM      4  C5  UNL d   1       0.515   0.249   1.297  0.00  0.00     0.000 A 
ATOM      5  C6  UNL d   1      -0.594   0.678   0.568  0.00  0.00     0.000 A 
ATOM      6  C7  UNL d   1      -0.622   0.572  -0.833  0.00  0.00    -0.073 A 
ATOM      7  C8  UNL d   1      -1.842   1.056  -1.569  0.00  0.00     0.078 C 
ENDROOT
BRANCH   1   8
ATOM      8  C1  UNL d   1       0.566  -0.052  -3.014  0.00  0.00     0.053 C 
ATOM      9  C   UNL d   1       0.436  -1.486  -3.504  0.00  0.00     0.018 C 
ENDBRANCH   1   8
TORSDOF 1
ENDMDL
