MODEL 1
REMARK minimizedAffinity -4.01480722
REMARK minimizedRMSD -1
REMARK  1 active torsions:
REMARK  status: ('A' for Active; 'I' for Inactive)
REMARK    1  A    between atoms: C1_2  and  C2_3 
ROOT
ATOM      1  C2  UNL d   1      -1.290   0.523   0.329  0.00  0.00    -0.076 A 
ATOM      2  C3  UNL d   1      -1.577   0.806   1.676  0.00  0.00     0.004 A 
ATOM      3  C4  UNL d   1      -0.585   0.732   2.652  0.00  0.00    -0.003 A 
ATOM      4  C5  UNL d   1       0.711   0.374   2.297  0.00  0.00     0.000 A 
ATOM      5  C6  UNL d   1       1.018   0.107   0.963  0.00  0.00     0.000 A 
ATOM      6  C7  UNL d   1       0.033   0.193  -0.036  0.00  0.00    -0.073 A 
ATOM      7  C8  UNL d   1       0.418  -0.111  -1.458  0.00  0.00     0.078 C 
ENDROOT
BRANCH   1   8
ATOM      8  C1  UNL d   1      -2.413   0.593  -0.681  0.00  0.00     0.053 C 
ATOM      9  C   UNL d   1      -3.782   0.419  -0.043  0.00  0.00     0.018 C 
ENDBRANCH   1   8
TORSDOF 1
ENDMDL
