MODEL 1
REMARK minimizedAffinity -1.23205209
REMARK minimizedRMSD -1
REMARK  1 active torsions:
REMARK  status: ('A' for Active; 'I' for Inactive)
REMARK    1  A    between atoms: C1_2  and  C2_3 
ROOT
ATOM      1  C2  UNL d   1      -0.416   0.846   2.662  0.00  0.00    -0.076 A 
ATOM      2  C3  UNL d   1      -1.724   0.440   2.346  0.00  0.00     0.004 A 
ATOM      3  C4  UNL d   1      -2.815   1.268   2.608  0.00  0.00    -0.003 A 
ATOM      4  C5  UNL d   1      -2.615   2.515   3.188  0.00  0.00     0.000 A 
ATOM      5  C6  UNL d   1      -1.322   2.942   3.491  0.00  0.00     0.000 A 
ATOM      6  C7  UNL d   1      -0.210   2.126   3.219  0.00  0.00    -0.073 A 
ATOM      7  C8  UNL d   1       1.161   2.634   3.572  0.00  0.00     0.078 C 
ENDROOT
BRANCH   1   8
ATOM      8  C1  UNL d   1       0.725  -0.105   2.380  0.00  0.00     0.053 C 
ATOM      9  C   UNL d   1       1.255   0.025   0.960  0.00  0.00     0.018 C 
ENDBRANCH   1   8
TORSDOF 1
ENDMDL
