MODEL 1
REMARK minimizedAffinity -3.83338833
REMARK minimizedRMSD -1
REMARK  1 active torsions:
REMARK  status: ('A' for Active; 'I' for Inactive)
REMARK    1  A    between atoms: C1_2  and  C2_3 
ROOT
ATOM      1  C2  UNL d   1      -0.529   0.293   0.446  0.00  0.00    -0.076 A 
ATOM      2  C3  UNL d   1       0.785   0.053   0.885  0.00  0.00     0.004 A 
ATOM      3  C4  UNL d   1       1.080  -0.053   2.243  0.00  0.00    -0.003 A 
ATOM      4  C5  UNL d   1       0.066   0.079   3.185  0.00  0.00     0.000 A 
ATOM      5  C6  UNL d   1      -1.246   0.301   2.767  0.00  0.00     0.000 A 
ATOM      6  C7  UNL d   1      -1.563   0.394   1.401  0.00  0.00    -0.073 A 
ATOM      7  C8  UNL d   1      -2.994   0.640   1.008  0.00  0.00     0.078 C 
ENDROOT
BRANCH   1   8
ATOM      8  C1  UNL d   1      -0.784   0.426  -1.038  0.00  0.00     0.053 C 
ATOM      9  C   UNL d   1       0.452   0.124  -1.871  0.00  0.00     0.018 C 
ENDBRANCH   1   8
TORSDOF 1
ENDMDL
