MODEL 1
REMARK minimizedAffinity -1.11241424
REMARK minimizedRMSD -1
REMARK  1 active torsions:
REMARK  status: ('A' for Active; 'I' for Inactive)
REMARK    1  A    between atoms: C1_2  and  C2_3 
ROOT
ATOM      1  C2  UNL d   1       0.682  -1.059  -2.086  0.00  0.00    -0.076 A 
ATOM      2  C3  UNL d   1       0.046  -1.192  -0.840  0.00  0.00     0.004 A 
ATOM      3  C4  UNL d   1       0.165  -0.203   0.135  0.00  0.00    -0.003 A 
ATOM      4  C5  UNL d   1       0.922   0.935  -0.120  0.00  0.00     0.000 A 
ATOM      5  C6  UNL d   1       1.545   1.092  -1.358  0.00  0.00     0.000 A 
ATOM      6  C7  UNL d   1       1.422   0.112  -2.358  0.00  0.00    -0.073 A 
ATOM      7  C8  UNL d   1       2.120   0.330  -3.672  0.00  0.00     0.078 C 
ENDROOT
BRANCH   1   8
ATOM      8  C1  UNL d   1       0.539  -2.176  -3.095  0.00  0.00     0.053 C 
ATOM      9  C   UNL d   1       1.751  -3.095  -3.122  0.00  0.00     0.018 C 
ENDBRANCH   1   8
TORSDOF 1
ENDMDL
