MODEL 1
REMARK minimizedAffinity -1.06922424
REMARK minimizedRMSD -1
REMARK  1 active torsions:
REMARK  status: ('A' for Active; 'I' for Inactive)
REMARK    1  A    between atoms: C1_2  and  C2_3 
ROOT
ATOM      1  C2  UNL d   1      -0.102   0.369  -0.552  0.00  0.00    -0.076 A 
ATOM      2  C3  UNL d   1       1.274   0.203  -0.319  0.00  0.00     0.004 A 
ATOM      3  C4  UNL d   1       1.770   0.064   0.976  0.00  0.00    -0.003 A 
ATOM      4  C5  UNL d   1       0.898   0.087   2.059  0.00  0.00     0.000 A 
ATOM      5  C6  UNL d   1      -0.472   0.233   1.845  0.00  0.00     0.000 A 
ATOM      6  C7  UNL d   1      -0.990   0.358   0.545  0.00  0.00    -0.073 A 
ATOM      7  C8  UNL d   1      -2.476   0.519   0.372  0.00  0.00     0.078 C 
ENDROOT
BRANCH   1   8
ATOM      8  C1  UNL d   1      -0.580   0.542  -1.976  0.00  0.00     0.053 C 
ATOM      9  C   UNL d   1       0.336  -0.134  -2.985  0.00  0.00     0.018 C 
ENDBRANCH   1   8
TORSDOF 1
ENDMDL
