MODEL 1
REMARK minimizedAffinity -3.31109118
REMARK minimizedRMSD -1
REMARK  1 active torsions:
REMARK  status: ('A' for Active; 'I' for Inactive)
REMARK    1  A    between atoms: C1_2  and  C2_3 
ROOT
ATOM      1  C2  UNL d   1      -0.147   0.323  -0.101  0.00  0.00    -0.076 A 
ATOM      2  C3  UNL d   1       1.139   0.136   0.435  0.00  0.00     0.004 A 
ATOM      3  C4  UNL d   1       1.332   0.002   1.809  0.00  0.00    -0.003 A 
ATOM      4  C5  UNL d   1       0.242   0.052   2.670  0.00  0.00     0.000 A 
ATOM      5  C6  UNL d   1      -1.044   0.219   2.155  0.00  0.00     0.000 A 
ATOM      6  C7  UNL d   1      -1.257   0.339   0.771  0.00  0.00    -0.073 A 
ATOM      7  C8  UNL d   1      -2.664   0.523   0.271  0.00  0.00     0.078 C 
ENDROOT
BRANCH   1   8
ATOM      8  C1  UNL d   1      -0.292   0.490  -1.596  0.00  0.00     0.053 C 
ATOM      9  C   UNL d   1       1.034   0.355  -2.329  0.00  0.00     0.018 C 
ENDBRANCH   1   8
TORSDOF 1
ENDMDL
