MODEL 1
REMARK minimizedAffinity -4.10696363
REMARK minimizedRMSD -1
REMARK  1 active torsions:
REMARK  status: ('A' for Active; 'I' for Inactive)
REMARK    1  A    between atoms: C1_2  and  C2_3 
ROOT
ATOM      1  C2  UNL d   1      -1.271   0.563   0.982  0.00  0.00    -0.076 A 
ATOM      2  C3  UNL d   1      -0.717   0.298   2.247  0.00  0.00     0.004 A 
ATOM      3  C4  UNL d   1       0.656   0.118   2.405  0.00  0.00    -0.003 A 
ATOM      4  C5  UNL d   1       1.498   0.201   1.301  0.00  0.00     0.000 A 
ATOM      5  C6  UNL d   1       0.968   0.480   0.042  0.00  0.00     0.000 A 
ATOM      6  C7  UNL d   1      -0.412   0.680  -0.132  0.00  0.00    -0.073 A 
ATOM      7  C8  UNL d   1      -0.931   0.973  -1.513  0.00  0.00     0.078 C 
ENDROOT
BRANCH   1   8
ATOM      8  C1  UNL d   1      -2.770   0.721   0.867  0.00  0.00     0.053 C 
ATOM      9  C   UNL d   1      -3.418   1.104   2.188  0.00  0.00     0.018 C 
ENDBRANCH   1   8
TORSDOF 1
ENDMDL
