MODEL 1
REMARK minimizedAffinity -0.550282121
REMARK minimizedRMSD -1
REMARK  0 active torsions:
REMARK  status: ('A' for Active; 'I' for Inactive)
ROOT
ATOM      1  C   UNL d   1      -0.719   0.121   1.540  0.00  0.00    -0.002 A 
ATOM      2  C1  UNL d   1      -1.187  -0.384   0.335  0.00  0.00     0.010 A 
ATOM      3  C2  UNL d   1      -0.319  -1.024  -0.552  0.00  0.00     0.041 A 
ATOM      4  C3  UNL d   1       1.040  -1.151  -0.203  0.00  0.00    -0.075 A 
ATOM      5  S   UNL d   1       2.286  -1.897  -1.132  0.00  0.00     0.015 SA
ATOM      6  C4  UNL d   1       3.469  -1.564   0.049  0.00  0.00     0.022 A 
ATOM      7  C5  UNL d   1       2.944  -0.900   1.132  0.00  0.00     0.026 A 
ATOM      8  C6  UNL d   1       1.535  -0.651   1.005  0.00  0.00    -0.082 A 
ATOM      9  C7  UNL d   1       0.630  -0.006   1.882  0.00  0.00     0.045 A 
ENDROOT
TORSDOF 0
ENDMDL
