MODEL 1
REMARK minimizedAffinity -2.62052345
REMARK minimizedRMSD -1
REMARK  0 active torsions:
REMARK  status: ('A' for Active; 'I' for Inactive)
ROOT
ATOM      1  C   UNL d   1      -2.670  -0.566   1.789  0.00  0.00    -0.002 A 
ATOM      2  C1  UNL d   1      -3.135  -0.396   0.492  0.00  0.00     0.010 A 
ATOM      3  C2  UNL d   1      -2.251  -0.090  -0.545  0.00  0.00     0.041 A 
ATOM      4  C3  UNL d   1      -0.879   0.042  -0.254  0.00  0.00    -0.075 A 
ATOM      5  S   UNL d   1       0.387   0.412  -1.364  0.00  0.00     0.015 SA
ATOM      6  C4  UNL d   1       1.575   0.353  -0.143  0.00  0.00     0.022 A 
ATOM      7  C5  UNL d   1       1.036   0.059   1.087  0.00  0.00     0.026 A 
ATOM      8  C6  UNL d   1      -0.387  -0.125   1.043  0.00  0.00    -0.082 A 
ATOM      9  C7  UNL d   1      -1.309  -0.434   2.073  0.00  0.00     0.045 A 
ENDROOT
TORSDOF 0
ENDMDL
