MODEL 1
REMARK minimizedAffinity 7.23262262
REMARK minimizedRMSD -1
REMARK  0 active torsions:
REMARK  status: ('A' for Active; 'I' for Inactive)
ROOT
ATOM      1  C   UNL d   1       2.155  -0.765   1.355  0.00  0.00    -0.002 A 
ATOM      2  C1  UNL d   1       1.842  -0.934   0.013  0.00  0.00     0.010 A 
ATOM      3  C2  UNL d   1       0.511  -1.007  -0.401  0.00  0.00     0.041 A 
ATOM      4  C3  UNL d   1      -0.510  -0.904   0.564  0.00  0.00    -0.075 A 
ATOM      5  S   UNL d   1      -2.211  -0.965   0.288  0.00  0.00     0.015 SA
ATOM      6  C4  UNL d   1      -2.562  -0.767   1.944  0.00  0.00     0.022 A 
ATOM      7  C5  UNL d   1      -1.421  -0.656   2.703  0.00  0.00     0.026 A 
ATOM      8  C6  UNL d   1      -0.220  -0.733   1.920  0.00  0.00    -0.082 A 
ATOM      9  C7  UNL d   1       1.140  -0.664   2.309  0.00  0.00     0.045 A 
ENDROOT
TORSDOF 0
ENDMDL
