MODEL 1
REMARK minimizedAffinity 5.45704079
REMARK minimizedRMSD -1
REMARK  0 active torsions:
REMARK  status: ('A' for Active; 'I' for Inactive)
ROOT
ATOM      1  C   UNL d   1       3.435   4.890   1.658  0.00  0.00    -0.002 A 
ATOM      2  C1  UNL d   1       4.408   4.554   2.588  0.00  0.00     0.010 A 
ATOM      3  C2  UNL d   1       4.164   4.695   3.955  0.00  0.00     0.041 A 
ATOM      4  C3  UNL d   1       2.912   5.184   4.377  0.00  0.00    -0.075 A 
ATOM      5  S   UNL d   1       2.388   5.439   5.999  0.00  0.00     0.015 SA
ATOM      6  C4  UNL d   1       0.859   6.000   5.497  0.00  0.00     0.022 A 
ATOM      7  C5  UNL d   1       0.734   5.999   4.128  0.00  0.00     0.026 A 
ATOM      8  C6  UNL d   1       1.915   5.528   3.460  0.00  0.00    -0.082 A 
ATOM      9  C7  UNL d   1       2.193   5.374   2.080  0.00  0.00     0.045 A 
ENDROOT
TORSDOF 0
ENDMDL
