MODEL 1
REMARK minimizedAffinity -1.47056329
REMARK minimizedRMSD -1
REMARK  0 active torsions:
REMARK  status: ('A' for Active; 'I' for Inactive)
ROOT
ATOM      1  C   UNL d   1       4.521   5.997   1.941  0.00  0.00    -0.002 A 
ATOM      2  C1  UNL d   1       5.365   6.000   3.043  0.00  0.00     0.010 A 
ATOM      3  C2  UNL d   1       4.843   6.000   4.338  0.00  0.00     0.041 A 
ATOM      4  C3  UNL d   1       3.445   5.995   4.508  0.00  0.00    -0.075 A 
ATOM      5  S   UNL d   1       2.580   5.994   6.000  0.00  0.00     0.015 SA
ATOM      6  C4  UNL d   1       1.070   5.989   5.210  0.00  0.00     0.022 A 
ATOM      7  C5  UNL d   1       1.203   5.988   3.842  0.00  0.00     0.026 A 
ATOM      8  C6  UNL d   1       2.574   5.992   3.415  0.00  0.00    -0.082 A 
ATOM      9  C7  UNL d   1       3.135   5.992   2.115  0.00  0.00     0.045 A 
ENDROOT
TORSDOF 0
ENDMDL
