MODEL 1
REMARK minimizedAffinity -2.29097915
REMARK minimizedRMSD -1
REMARK  0 active torsions:
REMARK  status: ('A' for Active; 'I' for Inactive)
ROOT
ATOM      1  C   UNL d   1       1.533   6.000   5.983  0.00  0.00    -0.002 A 
ATOM      2  C1  UNL d   1       0.700   5.999   4.873  0.00  0.00     0.010 A 
ATOM      3  C2  UNL d   1       1.236   5.997   3.584  0.00  0.00     0.041 A 
ATOM      4  C3  UNL d   1       2.636   5.995   3.427  0.00  0.00    -0.075 A 
ATOM      5  S   UNL d   1       3.516   5.991   1.945  0.00  0.00     0.015 SA
ATOM      6  C4  UNL d   1       5.018   5.991   2.751  0.00  0.00     0.022 A 
ATOM      7  C5  UNL d   1       4.870   5.993   4.117  0.00  0.00     0.026 A 
ATOM      8  C6  UNL d   1       3.495   5.995   4.530  0.00  0.00    -0.082 A 
ATOM      9  C7  UNL d   1       2.921   5.998   5.824  0.00  0.00     0.045 A 
ENDROOT
TORSDOF 0
ENDMDL
