MODEL 1
REMARK minimizedAffinity 1.95265639
REMARK minimizedRMSD -1
REMARK  0 active torsions:
REMARK  status: ('A' for Active; 'I' for Inactive)
ROOT
ATOM      1  C   UNL d   1       2.608  -0.094   3.488  0.00  0.00     0.023 A 
ATOM      2  C1  UNL d   1       3.842  -0.376   2.901  0.00  0.00     0.003 A 
ATOM      3  C2  UNL d   1       4.816  -1.071   3.621  0.00  0.00     0.048 A 
ATOM      4  C3  UNL d   1       4.550  -1.482   4.927  0.00  0.00     0.023 A 
ATOM      5  C4  UNL d   1       3.316  -1.203   5.517  0.00  0.00     0.048 A 
ATOM      6  C5  UNL d   1       2.346  -0.507   4.794  0.00  0.00     0.003 A 
ATOM      7  I   UNL d   1       5.998  -2.517   6.000  0.00  0.00    -0.146 I 
ENDROOT
TORSDOF 0
ENDMDL
