MODEL 1
REMARK minimizedAffinity 4.49173069
REMARK minimizedRMSD -1
REMARK  0 active torsions:
REMARK  status: ('A' for Active; 'I' for Inactive)
ROOT
ATOM      1  C   UNL d   1       1.249  -0.930   2.516  0.00  0.00     0.023 A 
ATOM      2  C1  UNL d   1       1.918  -1.108   1.306  0.00  0.00     0.003 A 
ATOM      3  C2  UNL d   1       3.281  -1.410   1.298  0.00  0.00     0.048 A 
ATOM      4  C3  UNL d   1       3.969  -1.535   2.505  0.00  0.00     0.023 A 
ATOM      5  C4  UNL d   1       3.303  -1.359   3.719  0.00  0.00     0.048 A 
ATOM      6  C5  UNL d   1       1.940  -1.055   3.721  0.00  0.00     0.003 A 
ATOM      7  I   UNL d   1       5.998  -1.985   2.496  0.00  0.00    -0.146 I 
ENDROOT
TORSDOF 0
ENDMDL
