MODEL 1
REMARK minimizedAffinity 10.5837498
REMARK minimizedRMSD -1
REMARK  0 active torsions:
REMARK  status: ('A' for Active; 'I' for Inactive)
ROOT
ATOM      1  C   UNL d   1      -4.084   2.244   2.835  0.00  0.00     0.023 A 
ATOM      2  C1  UNL d   1      -3.297   2.554   1.725  0.00  0.00     0.003 A 
ATOM      3  C2  UNL d   1      -3.842   3.271   0.659  0.00  0.00     0.048 A 
ATOM      4  C3  UNL d   1      -5.176   3.676   0.708  0.00  0.00     0.023 A 
ATOM      5  C4  UNL d   1      -5.967   3.369   1.816  0.00  0.00     0.048 A 
ATOM      6  C5  UNL d   1      -5.417   2.651   2.880  0.00  0.00     0.003 A 
ATOM      7  I   UNL d   1      -5.990   4.743  -0.878  0.00  0.00    -0.146 I 
ENDROOT
TORSDOF 0
ENDMDL
