MODEL 1
REMARK minimizedAffinity 11.0636845
REMARK minimizedRMSD -1
REMARK  0 active torsions:
REMARK  status: ('A' for Active; 'I' for Inactive)
ROOT
ATOM      1  C   UNL d   1       3.477  -1.592   3.510  0.00  0.00     0.023 A 
ATOM      2  C1  UNL d   1       3.601  -0.904   2.303  0.00  0.00     0.003 A 
ATOM      3  C2  UNL d   1       2.482  -0.709   1.491  0.00  0.00     0.048 A 
ATOM      4  C3  UNL d   1       1.242  -1.205   1.892  0.00  0.00     0.023 A 
ATOM      5  C4  UNL d   1       1.113  -1.893   3.099  0.00  0.00     0.048 A 
ATOM      6  C5  UNL d   1       2.235  -2.086   3.907  0.00  0.00     0.003 A 
ATOM      7  I   UNL d   1      -0.425  -0.916   0.685  0.00  0.00    -0.146 I 
ENDROOT
TORSDOF 0
ENDMDL
