MODEL 1
REMARK minimizedAffinity 7.11118555
REMARK minimizedRMSD -1
REMARK  0 active torsions:
REMARK  status: ('A' for Active; 'I' for Inactive)
ROOT
ATOM      1  C   UNL d   1       2.925  -3.459   4.454  0.00  0.00     0.023 A 
ATOM      2  C1  UNL d   1       2.572  -2.313   5.166  0.00  0.00     0.003 A 
ATOM      3  C2  UNL d   1       2.328  -1.116   4.489  0.00  0.00     0.048 A 
ATOM      4  C3  UNL d   1       2.438  -1.073   3.100  0.00  0.00     0.023 A 
ATOM      5  C4  UNL d   1       2.790  -2.217   2.383  0.00  0.00     0.048 A 
ATOM      6  C5  UNL d   1       3.034  -3.411   3.064  0.00  0.00     0.003 A 
ATOM      7  I   UNL d   1       2.075   0.707   2.090  0.00  0.00    -0.146 I 
ENDROOT
TORSDOF 0
ENDMDL
