MODEL 1
REMARK minimizedAffinity 6.93438148
REMARK minimizedRMSD -1
REMARK  0 active torsions:
REMARK  status: ('A' for Active; 'I' for Inactive)
ROOT
ATOM      1  C   UNL d   1       2.106  -3.794   4.635  0.00  0.00     0.023 A 
ATOM      2  C1  UNL d   1       2.668  -4.162   3.412  0.00  0.00     0.003 A 
ATOM      3  C2  UNL d   1       2.749  -3.234   2.372  0.00  0.00     0.048 A 
ATOM      4  C3  UNL d   1       2.267  -1.939   2.561  0.00  0.00     0.023 A 
ATOM      5  C4  UNL d   1       1.704  -1.566   3.783  0.00  0.00     0.048 A 
ATOM      6  C5  UNL d   1       1.624  -2.498   4.820  0.00  0.00     0.003 A 
ATOM      7  I   UNL d   1       2.387  -0.556   1.015  0.00  0.00    -0.146 I 
ENDROOT
TORSDOF 0
ENDMDL
