MODEL 1
REMARK minimizedAffinity 12.3060236
REMARK minimizedRMSD -1
REMARK  0 active torsions:
REMARK  status: ('A' for Active; 'I' for Inactive)
ROOT
ATOM      1  C   UNL d   1      -6.000   2.976   2.668  0.00  0.00     0.023 A 
ATOM      2  C1  UNL d   1      -6.000   3.552   1.397  0.00  0.00     0.003 A 
ATOM      3  C2  UNL d   1      -4.794   3.762   0.724  0.00  0.00     0.048 A 
ATOM      4  C3  UNL d   1      -3.593   3.393   1.327  0.00  0.00     0.023 A 
ATOM      5  C4  UNL d   1      -3.587   2.815   2.598  0.00  0.00     0.048 A 
ATOM      6  C5  UNL d   1      -4.795   2.608   3.267  0.00  0.00     0.003 A 
ATOM      7  I   UNL d   1      -1.797   3.704   0.328  0.00  0.00    -0.146 I 
ENDROOT
TORSDOF 0
ENDMDL
