MODEL 1
REMARK minimizedAffinity 11.0172529
REMARK minimizedRMSD -1
REMARK  0 active torsions:
REMARK  status: ('A' for Active; 'I' for Inactive)
ROOT
ATOM      1  C   UNL d   1       2.366  -0.012   2.063  0.00  0.00     0.023 A 
ATOM      2  C1  UNL d   1       3.222  -1.095   2.260  0.00  0.00     0.003 A 
ATOM      3  C2  UNL d   1       3.000  -1.979   3.317  0.00  0.00     0.048 A 
ATOM      4  C3  UNL d   1       1.919  -1.775   4.174  0.00  0.00     0.023 A 
ATOM      5  C4  UNL d   1       1.059  -0.693   3.981  0.00  0.00     0.048 A 
ATOM      6  C5  UNL d   1       1.285   0.189   2.923  0.00  0.00     0.003 A 
ATOM      7  I   UNL d   1       1.586  -3.090   5.749  0.00  0.00    -0.146 I 
ENDROOT
TORSDOF 0
ENDMDL
