MODEL 1
REMARK minimizedAffinity -5.1203723
REMARK minimizedRMSD -1
REMARK  1 active torsions:
REMARK  status: ('A' for Active; 'I' for Inactive)
REMARK    1  A    between atoms: C1_2  and  C2_3 
ROOT
ATOM      1  C2  UNL d   1       0.277   0.871   0.246  0.00  0.00    -0.077 A 
ATOM      2  C3  UNL d   1      -0.233   0.325   1.432  0.00  0.00     0.002 A 
ATOM      3  C4  UNL d   1      -1.271   0.962   2.114  0.00  0.00     0.002 A 
ATOM      4  C5  UNL d   1      -1.810   2.147   1.616  0.00  0.00    -0.004 A 
ATOM      5  C6  UNL d   1      -1.308   2.699   0.438  0.00  0.00     0.002 A 
ATOM      6  C7  UNL d   1      -0.270   2.064  -0.244  0.00  0.00     0.002 A 
ENDROOT
BRANCH   1   7
ATOM      7  C1  UNL d   1       1.363   0.159  -0.517  0.00  0.00     0.055 C 
ATOM      8  C   UNL d   1       0.976  -1.282  -0.818  0.00  0.00     0.019 C 
ENDBRANCH   1   7
TORSDOF 1
ENDMDL
