MODEL 1
REMARK minimizedAffinity -6.00551558
REMARK minimizedRMSD -1
REMARK  1 active torsions:
REMARK  status: ('A' for Active; 'I' for Inactive)
REMARK    1  A    between atoms: C1_2  and  C2_3 
ROOT
ATOM      1  C2  UNL d   1      -0.130   0.799   0.242  0.00  0.00    -0.077 A 
ATOM      2  C3  UNL d   1      -0.162   2.167  -0.065  0.00  0.00     0.002 A 
ATOM      3  C4  UNL d   1      -1.088   3.009   0.554  0.00  0.00     0.002 A 
ATOM      4  C5  UNL d   1      -1.986   2.494   1.487  0.00  0.00    -0.004 A 
ATOM      5  C6  UNL d   1      -1.964   1.134   1.797  0.00  0.00     0.002 A 
ATOM      6  C7  UNL d   1      -1.040   0.291   1.179  0.00  0.00     0.002 A 
ENDROOT
BRANCH   1   7
ATOM      7  C1  UNL d   1       0.900  -0.101  -0.387  0.00  0.00     0.055 C 
ATOM      8  C   UNL d   1       0.274  -1.396  -0.885  0.00  0.00     0.019 C 
ENDBRANCH   1   7
TORSDOF 1
ENDMDL
