MODEL 1
REMARK minimizedAffinity -3.73839784
REMARK minimizedRMSD -1
REMARK  1 active torsions:
REMARK  status: ('A' for Active; 'I' for Inactive)
REMARK    1  A    between atoms: C1_2  and  C2_3 
ROOT
ATOM      1  C2  UNL d   1      -0.455   0.800   1.232  0.00  0.00    -0.077 A 
ATOM      2  C3  UNL d   1      -0.279  -0.591   1.210  0.00  0.00     0.002 A 
ATOM      3  C4  UNL d   1       0.450  -1.195   0.185  0.00  0.00     0.002 A 
ATOM      4  C5  UNL d   1       1.013  -0.417  -0.825  0.00  0.00    -0.004 A 
ATOM      5  C6  UNL d   1       0.842   0.967  -0.813  0.00  0.00     0.002 A 
ATOM      6  C7  UNL d   1       0.113   1.573   0.210  0.00  0.00     0.002 A 
ENDROOT
BRANCH   1   7
ATOM      7  C1  UNL d   1      -1.199   1.458   2.364  0.00  0.00     0.055 C 
ATOM      8  C   UNL d   1      -1.473   2.925   2.067  0.00  0.00     0.019 C 
ENDBRANCH   1   7
TORSDOF 1
ENDMDL
