MODEL 1
REMARK minimizedAffinity -1.86990428
REMARK minimizedRMSD -1
REMARK  1 active torsions:
REMARK  status: ('A' for Active; 'I' for Inactive)
REMARK    1  A    between atoms: C1_2  and  C2_3 
ROOT
ATOM      1  C2  UNL d   1      -0.034  -1.346  -0.778  0.00  0.00    -0.077 A 
ATOM      2  C3  UNL d   1      -1.377  -1.357  -0.375  0.00  0.00     0.002 A 
ATOM      3  C4  UNL d   1      -1.753  -0.788   0.843  0.00  0.00     0.002 A 
ATOM      4  C5  UNL d   1      -0.794  -0.200   1.665  0.00  0.00    -0.004 A 
ATOM      5  C6  UNL d   1       0.544  -0.185   1.274  0.00  0.00     0.002 A 
ATOM      6  C7  UNL d   1       0.922  -0.755   0.058  0.00  0.00     0.002 A 
ENDROOT
BRANCH   1   7
ATOM      7  C1  UNL d   1       0.367  -1.916  -2.114  0.00  0.00     0.055 C 
ATOM      8  C   UNL d   1       0.038  -3.399  -2.204  0.00  0.00     0.019 C 
ENDBRANCH   1   7
TORSDOF 1
ENDMDL
