MODEL 1
REMARK minimizedAffinity -6.07731915
REMARK minimizedRMSD -1
REMARK  1 active torsions:
REMARK  status: ('A' for Active; 'I' for Inactive)
REMARK    1  A    between atoms: C1_2  and  C2_3 
ROOT
ATOM      1  C2  UNL d   1      -0.540   0.833   0.284  0.00  0.00    -0.077 A 
ATOM      2  C3  UNL d   1      -1.523   0.620   1.261  0.00  0.00     0.002 A 
ATOM      3  C4  UNL d   1      -2.239   1.697   1.787  0.00  0.00     0.002 A 
ATOM      4  C5  UNL d   1      -1.985   2.991   1.340  0.00  0.00    -0.004 A 
ATOM      5  C6  UNL d   1      -1.008   3.213   0.370  0.00  0.00     0.002 A 
ATOM      6  C7  UNL d   1      -0.290   2.139  -0.157  0.00  0.00     0.002 A 
ENDROOT
BRANCH   1   7
ATOM      7  C1  UNL d   1       0.200  -0.332  -0.321  0.00  0.00     0.055 C 
ATOM      8  C   UNL d   1       1.446   0.129  -1.063  0.00  0.00     0.019 C 
ENDBRANCH   1   7
TORSDOF 1
ENDMDL
