MODEL 1
REMARK minimizedAffinity -5.30044365
REMARK minimizedRMSD -1
REMARK  1 active torsions:
REMARK  status: ('A' for Active; 'I' for Inactive)
REMARK    1  A    between atoms: C1_2  and  C2_3 
ROOT
ATOM      1  C2  UNL d   1      -0.946   1.119   1.429  0.00  0.00    -0.077 A 
ATOM      2  C3  UNL d   1      -0.504  -0.201   1.595  0.00  0.00     0.002 A 
ATOM      3  C4  UNL d   1       0.312  -0.799   0.633  0.00  0.00     0.002 A 
ATOM      4  C5  UNL d   1       0.695  -0.085  -0.500  0.00  0.00    -0.004 A 
ATOM      5  C6  UNL d   1       0.258   1.228  -0.676  0.00  0.00     0.002 A 
ATOM      6  C7  UNL d   1      -0.558   1.827   0.284  0.00  0.00     0.002 A 
ENDROOT
BRANCH   1   7
ATOM      7  C1  UNL d   1      -1.785   1.782   2.489  0.00  0.00     0.055 C 
ATOM      8  C   UNL d   1      -2.733   2.808   1.884  0.00  0.00     0.019 C 
ENDBRANCH   1   7
TORSDOF 1
ENDMDL
