MODEL 1
REMARK minimizedAffinity -4.18504906
REMARK minimizedRMSD -1
REMARK  1 active torsions:
REMARK  status: ('A' for Active; 'I' for Inactive)
REMARK    1  A    between atoms: C1_2  and  C2_3 
ROOT
ATOM      1  C2  UNL d   1       0.547  -0.860  -0.674  0.00  0.00    -0.077 A 
ATOM      2  C3  UNL d   1      -0.456  -1.382  -1.502  0.00  0.00     0.002 A 
ATOM      3  C4  UNL d   1      -0.192  -2.477  -2.328  0.00  0.00     0.002 A 
ATOM      4  C5  UNL d   1       1.073  -3.061  -2.329  0.00  0.00    -0.004 A 
ATOM      5  C6  UNL d   1       2.078  -2.548  -1.510  0.00  0.00     0.002 A 
ATOM      6  C7  UNL d   1       1.816  -1.453  -0.685  0.00  0.00     0.002 A 
ENDROOT
BRANCH   1   7
ATOM      7  C1  UNL d   1       0.250   0.289   0.254  0.00  0.00     0.055 C 
ATOM      8  C   UNL d   1      -0.544  -0.170   1.468  0.00  0.00     0.019 C 
ENDBRANCH   1   7
TORSDOF 1
ENDMDL
