MODEL 1
REMARK minimizedAffinity -5.73391867
REMARK minimizedRMSD -1
REMARK  1 active torsions:
REMARK  status: ('A' for Active; 'I' for Inactive)
REMARK    1  A    between atoms: C1_2  and  C2_3 
ROOT
ATOM      1  C2  UNL d   1      -0.314   1.479  -0.468  0.00  0.00    -0.077 A 
ATOM      2  C3  UNL d   1      -0.987   2.606   0.024  0.00  0.00     0.002 A 
ATOM      3  C4  UNL d   1      -1.362   2.674   1.367  0.00  0.00     0.002 A 
ATOM      4  C5  UNL d   1      -1.065   1.621   2.229  0.00  0.00    -0.004 A 
ATOM      5  C6  UNL d   1      -0.398   0.495   1.749  0.00  0.00     0.002 A 
ATOM      6  C7  UNL d   1      -0.023   0.424   0.407  0.00  0.00     0.002 A 
ENDROOT
BRANCH   1   7
ATOM      7  C1  UNL d   1       0.136   1.425  -1.905  0.00  0.00     0.055 C 
ATOM      8  C   UNL d   1       1.550   1.963  -2.063  0.00  0.00     0.019 C 
ENDBRANCH   1   7
TORSDOF 1
ENDMDL
