MODEL 1
REMARK minimizedAffinity -4.82887554
REMARK minimizedRMSD -1
REMARK  1 active torsions:
REMARK  status: ('A' for Active; 'I' for Inactive)
REMARK    1  A    between atoms: C1_2  and  C2_3 
ROOT
ATOM      1  C2  UNL d   1       0.066  -0.107  -0.068  0.00  0.00    -0.077 A 
ATOM      2  C3  UNL d   1      -0.004   1.209  -0.545  0.00  0.00     0.002 A 
ATOM      3  C4  UNL d   1      -0.725   2.177   0.157  0.00  0.00     0.002 A 
ATOM      4  C5  UNL d   1      -1.377   1.840   1.341  0.00  0.00    -0.004 A 
ATOM      5  C6  UNL d   1      -1.315   0.533   1.823  0.00  0.00     0.002 A 
ATOM      6  C7  UNL d   1      -0.596  -0.436   1.122  0.00  0.00     0.002 A 
ENDROOT
BRANCH   1   7
ATOM      7  C1  UNL d   1       0.884  -1.141  -0.798  0.00  0.00     0.055 C 
ATOM      8  C   UNL d   1       0.116  -1.725  -1.974  0.00  0.00     0.019 C 
ENDBRANCH   1   7
TORSDOF 1
ENDMDL
