MODEL 1
REMARK minimizedAffinity -5.24855185
REMARK minimizedRMSD -1
REMARK  1 active torsions:
REMARK  status: ('A' for Active; 'I' for Inactive)
REMARK    1  A    between atoms: C1_2  and  C2_3 
ROOT
ATOM      1  C2  UNL d   1      -0.624   2.482  -0.022  0.00  0.00    -0.077 A 
ATOM      2  C3  UNL d   1      -0.558   1.096   0.180  0.00  0.00     0.002 A 
ATOM      3  C4  UNL d   1      -1.343   0.487   1.160  0.00  0.00     0.002 A 
ATOM      4  C5  UNL d   1      -2.203   1.255   1.943  0.00  0.00    -0.004 A 
ATOM      5  C6  UNL d   1      -2.275   2.634   1.750  0.00  0.00     0.002 A 
ATOM      6  C7  UNL d   1      -1.490   3.244   0.772  0.00  0.00     0.002 A 
ENDROOT
BRANCH   1   7
ATOM      7  C1  UNL d   1       0.186   3.134  -1.112  0.00  0.00     0.055 C 
ATOM      8  C   UNL d   1      -0.679   4.036  -1.980  0.00  0.00     0.019 C 
ENDBRANCH   1   7
TORSDOF 1
ENDMDL
