MODEL 1
REMARK minimizedAffinity -2.70517707
REMARK minimizedRMSD -1
REMARK  1 active torsions:
REMARK  status: ('A' for Active; 'I' for Inactive)
REMARK    1  A    between atoms: C1_2  and  C2_3 
ROOT
ATOM      1  C2  UNL d   1      -0.533   0.346   0.230  0.00  0.00    -0.077 A 
ATOM      2  C3  UNL d   1      -1.641   0.908  -0.421  0.00  0.00     0.002 A 
ATOM      3  C4  UNL d   1      -2.485   1.789   0.256  0.00  0.00     0.002 A 
ATOM      4  C5  UNL d   1      -2.229   2.121   1.585  0.00  0.00    -0.004 A 
ATOM      5  C6  UNL d   1      -1.131   1.566   2.242  0.00  0.00     0.002 A 
ATOM      6  C7  UNL d   1      -0.287   0.684   1.567  0.00  0.00     0.002 A 
ENDROOT
BRANCH   1   7
ATOM      7  C1  UNL d   1       0.407  -0.566  -0.513  0.00  0.00     0.055 C 
ATOM      8  C   UNL d   1      -0.348  -1.489  -1.458  0.00  0.00     0.019 C 
ENDBRANCH   1   7
TORSDOF 1
ENDMDL
