MODEL 1
REMARK minimizedAffinity -4.18994331
REMARK minimizedRMSD -1
REMARK  0 active torsions:
REMARK  status: ('A' for Active; 'I' for Inactive)
ROOT
ATOM      1  C   UNL d   1       0.888  -2.067   1.581  0.00  0.00     0.023 A 
ATOM      2  C1  UNL d   1       1.577  -1.462   0.530  0.00  0.00     0.003 A 
ATOM      3  C2  UNL d   1       0.972  -0.442  -0.207  0.00  0.00     0.048 A 
ATOM      4  C3  UNL d   1      -0.321  -0.031   0.113  0.00  0.00     0.023 A 
ATOM      5  C4  UNL d   1      -1.014  -0.633   1.165  0.00  0.00     0.048 A 
ATOM      6  C5  UNL d   1      -0.405  -1.653   1.898  0.00  0.00     0.003 A 
ATOM      7  I   UNL d   1      -1.224   1.488  -0.982  0.00  0.00    -0.146 I 
ENDROOT
TORSDOF 0
ENDMDL
