MODEL 1
REMARK minimizedAffinity -5.64790726
REMARK minimizedRMSD -1
REMARK  0 active torsions:
REMARK  status: ('A' for Active; 'I' for Inactive)
ROOT
ATOM      1  C   UNL d   1       0.862  -2.935   2.002  0.00  0.00     0.023 A 
ATOM      2  C1  UNL d   1       1.534  -2.429   0.889  0.00  0.00     0.003 A 
ATOM      3  C2  UNL d   1       1.068  -1.275   0.256  0.00  0.00     0.048 A 
ATOM      4  C3  UNL d   1      -0.070  -0.632   0.741  0.00  0.00     0.023 A 
ATOM      5  C4  UNL d   1      -0.745  -1.134   1.855  0.00  0.00     0.048 A 
ATOM      6  C5  UNL d   1      -0.276  -2.288   2.485  0.00  0.00     0.003 A 
ATOM      7  I   UNL d   1      -0.765   1.086  -0.199  0.00  0.00    -0.146 I 
ENDROOT
TORSDOF 0
ENDMDL
