MODEL 1
REMARK minimizedAffinity -4.23385572
REMARK minimizedRMSD -1
REMARK  0 active torsions:
REMARK  status: ('A' for Active; 'I' for Inactive)
ROOT
ATOM      1  C   UNL d   1       1.712  -2.156   1.038  0.00  0.00     0.023 A 
ATOM      2  C1  UNL d   1       2.308  -1.230   0.182  0.00  0.00     0.003 A 
ATOM      3  C2  UNL d   1       1.540  -0.218  -0.398  0.00  0.00     0.048 A 
ATOM      4  C3  UNL d   1       0.177  -0.137  -0.116  0.00  0.00     0.023 A 
ATOM      5  C4  UNL d   1      -0.424  -1.061   0.741  0.00  0.00     0.048 A 
ATOM      6  C5  UNL d   1       0.348  -2.072   1.317  0.00  0.00     0.003 A 
ATOM      7  I   UNL d   1      -0.968   1.369  -0.977  0.00  0.00    -0.146 I 
ENDROOT
TORSDOF 0
ENDMDL
