MODEL 1
REMARK minimizedAffinity -3.60882378
REMARK minimizedRMSD -1
REMARK  0 active torsions:
REMARK  status: ('A' for Active; 'I' for Inactive)
ROOT
ATOM      1  C   UNL d   1       1.681  -2.018   0.963  0.00  0.00     0.023 A 
ATOM      2  C1  UNL d   1       2.272  -1.133   0.061  0.00  0.00     0.003 A 
ATOM      3  C2  UNL d   1       1.527  -0.083  -0.479  0.00  0.00     0.048 A 
ATOM      4  C3  UNL d   1       0.191   0.077  -0.112  0.00  0.00     0.023 A 
ATOM      5  C4  UNL d   1      -0.405  -0.806   0.791  0.00  0.00     0.048 A 
ATOM      6  C5  UNL d   1       0.344  -1.855   1.328  0.00  0.00     0.003 A 
ATOM      7  I   UNL d   1      -0.920   1.639  -0.914  0.00  0.00    -0.146 I 
ENDROOT
TORSDOF 0
ENDMDL
