MODEL 1
REMARK minimizedAffinity -4.42796564
REMARK minimizedRMSD -1
REMARK  0 active torsions:
REMARK  status: ('A' for Active; 'I' for Inactive)
ROOT
ATOM      1  C   UNL d   1       1.214  -2.766   2.172  0.00  0.00     0.023 A 
ATOM      2  C1  UNL d   1      -0.056  -2.239   2.412  0.00  0.00     0.003 A 
ATOM      3  C2  UNL d   1      -0.558  -1.225   1.595  0.00  0.00     0.048 A 
ATOM      4  C3  UNL d   1       0.214  -0.742   0.539  0.00  0.00     0.023 A 
ATOM      5  C4  UNL d   1       1.485  -1.267   0.294  0.00  0.00     0.048 A 
ATOM      6  C5  UNL d   1       1.983  -2.281   1.115  0.00  0.00     0.003 A 
ATOM      7  I   UNL d   1      -0.531   0.768  -0.679  0.00  0.00    -0.146 I 
ENDROOT
TORSDOF 0
ENDMDL
