MODEL 1
REMARK minimizedAffinity -3.38942242
REMARK minimizedRMSD -1
REMARK  0 active torsions:
REMARK  status: ('A' for Active; 'I' for Inactive)
ROOT
ATOM      1  C   UNL d   1       0.241  -2.621   2.378  0.00  0.00     0.023 A 
ATOM      2  C1  UNL d   1      -0.705  -1.665   2.011  0.00  0.00     0.003 A 
ATOM      3  C2  UNL d   1      -0.422  -0.759   0.986  0.00  0.00     0.048 A 
ATOM      4  C3  UNL d   1       0.808  -0.816   0.332  0.00  0.00     0.023 A 
ATOM      5  C4  UNL d   1       1.758  -1.772   0.697  0.00  0.00     0.048 A 
ATOM      6  C5  UNL d   1       1.471  -2.675   1.722  0.00  0.00     0.003 A 
ATOM      7  I   UNL d   1       1.231   0.530  -1.193  0.00  0.00    -0.146 I 
ENDROOT
TORSDOF 0
ENDMDL
