MODEL 1
REMARK minimizedAffinity -3.44596577
REMARK minimizedRMSD -1
REMARK  0 active torsions:
REMARK  status: ('A' for Active; 'I' for Inactive)
ROOT
ATOM      1  C   UNL d   1       0.962  -2.632   2.270  0.00  0.00     0.023 A 
ATOM      2  C1  UNL d   1       1.481  -2.118   1.082  0.00  0.00     0.003 A 
ATOM      3  C2  UNL d   1       0.835  -1.064   0.433  0.00  0.00     0.048 A 
ATOM      4  C3  UNL d   1      -0.331  -0.527   0.979  0.00  0.00     0.023 A 
ATOM      5  C4  UNL d   1      -0.854  -1.037   2.168  0.00  0.00     0.048 A 
ATOM      6  C5  UNL d   1      -0.204  -2.092   2.813  0.00  0.00     0.003 A 
ATOM      7  I   UNL d   1      -1.295   1.042   0.016  0.00  0.00    -0.146 I 
ENDROOT
TORSDOF 0
ENDMDL
