MODEL 1
REMARK minimizedAffinity -3.49397063
REMARK minimizedRMSD -1
REMARK  0 active torsions:
REMARK  status: ('A' for Active; 'I' for Inactive)
ROOT
ATOM      1  C   UNL d   1       1.738  -2.694   1.481  0.00  0.00     0.023 A 
ATOM      2  C1  UNL d   1       2.271  -2.037   0.371  0.00  0.00     0.003 A 
ATOM      3  C2  UNL d   1       1.587  -0.963  -0.201  0.00  0.00     0.048 A 
ATOM      4  C3  UNL d   1       0.371  -0.549   0.343  0.00  0.00     0.023 A 
ATOM      5  C4  UNL d   1      -0.165  -1.202   1.454  0.00  0.00     0.048 A 
ATOM      6  C5  UNL d   1       0.522  -2.276   2.022  0.00  0.00     0.003 A 
ATOM      7  I   UNL d   1      -0.648   1.051  -0.507  0.00  0.00    -0.146 I 
ENDROOT
TORSDOF 0
ENDMDL
