MODEL 1
REMARK minimizedAffinity -4.65931511
REMARK minimizedRMSD -1
REMARK  0 active torsions:
REMARK  status: ('A' for Active; 'I' for Inactive)
ROOT
ATOM      1  C   UNL d   1       0.950  -3.376   1.803  0.00  0.00     0.023 A 
ATOM      2  C1  UNL d   1       1.553  -3.072   0.582  0.00  0.00     0.003 A 
ATOM      3  C2  UNL d   1       1.218  -1.894  -0.089  0.00  0.00     0.048 A 
ATOM      4  C3  UNL d   1       0.281  -1.024   0.467  0.00  0.00     0.023 A 
ATOM      5  C4  UNL d   1      -0.323  -1.323   1.689  0.00  0.00     0.048 A 
ATOM      6  C5  UNL d   1       0.014  -2.503   2.356  0.00  0.00     0.003 A 
ATOM      7  I   UNL d   1      -0.218   0.730  -0.530  0.00  0.00    -0.146 I 
ENDROOT
TORSDOF 0
ENDMDL
