MODEL 1
REMARK minimizedAffinity -5.12521744
REMARK minimizedRMSD -1
REMARK  0 active torsions:
REMARK  status: ('A' for Active; 'I' for Inactive)
ROOT
ATOM      1  C   UNL d   1       1.143  -3.220   1.829  0.00  0.00     0.023 A 
ATOM      2  C1  UNL d   1       0.130  -2.513   2.476  0.00  0.00     0.003 A 
ATOM      3  C2  UNL d   1      -0.374  -1.339   1.912  0.00  0.00     0.048 A 
ATOM      4  C3  UNL d   1       0.138  -0.880   0.699  0.00  0.00     0.023 A 
ATOM      5  C4  UNL d   1       1.151  -1.585   0.047  0.00  0.00     0.048 A 
ATOM      6  C5  UNL d   1       1.653  -2.757   0.616  0.00  0.00     0.003 A 
ATOM      7  I   UNL d   1      -0.612   0.866  -0.144  0.00  0.00    -0.146 I 
ENDROOT
TORSDOF 0
ENDMDL
