MODEL 1
REMARK minimizedAffinity 0.523244023
REMARK minimizedRMSD -1
REMARK  0 active torsions:
REMARK  status: ('A' for Active; 'I' for Inactive)
ROOT
ATOM      1  C   UNL d   1       0.937   0.228  -0.686  0.00  0.00     0.023 A 
ATOM      2  C1  UNL d   1      -0.318   0.756  -0.382  0.00  0.00     0.003 A 
ATOM      3  C2  UNL d   1      -1.056   0.237   0.683  0.00  0.00     0.048 A 
ATOM      4  C3  UNL d   1      -0.533  -0.811   1.441  0.00  0.00     0.023 A 
ATOM      5  C4  UNL d   1       0.722  -1.342   1.141  0.00  0.00     0.048 A 
ATOM      6  C5  UNL d   1       1.456  -0.820   0.075  0.00  0.00     0.003 A 
ATOM      7  I   UNL d   1      -1.630  -1.586   3.027  0.00  0.00    -0.146 I 
ENDROOT
TORSDOF 0
ENDMDL
