MODEL 1
REMARK minimizedAffinity -0.447627038
REMARK minimizedRMSD -1
REMARK  0 active torsions:
REMARK  status: ('A' for Active; 'I' for Inactive)
ROOT
ATOM      1  C   UNL d   1      -0.520   1.592  -0.560  0.00  0.00     0.023 A 
ATOM      2  C1  UNL d   1       0.849   1.516  -0.817  0.00  0.00     0.003 A 
ATOM      3  C2  UNL d   1       1.603   0.466  -0.289  0.00  0.00     0.048 A 
ATOM      4  C3  UNL d   1       0.982  -0.506   0.494  0.00  0.00     0.023 A 
ATOM      5  C4  UNL d   1      -0.388  -0.435   0.753  0.00  0.00     0.048 A 
ATOM      6  C5  UNL d   1      -1.138   0.617   0.224  0.00  0.00     0.003 A 
ATOM      7  I   UNL d   1       2.102  -2.070   1.280  0.00  0.00    -0.146 I 
ENDROOT
TORSDOF 0
ENDMDL
