MODEL 1
REMARK minimizedAffinity 18.3167629
REMARK minimizedRMSD -1
REMARK  0 active torsions:
REMARK  status: ('A' for Active; 'I' for Inactive)
ROOT
ATOM      1  C   UNL d   1       0.471  -3.146   0.585  0.00  0.00     0.124 A 
ATOM      2  C1  UNL d   1      -0.083  -4.166  -0.176  0.00  0.00     0.062 A 
ATOM      3  C2  UNL d   1       0.454  -4.483  -1.420  0.00  0.00     0.162 A 
ATOM      4  C3  UNL d   1       1.554  -3.779  -1.912  0.00  0.00    -0.034 A 
ATOM      5  C4  UNL d   1       2.105  -2.754  -1.142  0.00  0.00     0.162 A 
ATOM      6  C5  UNL d   1       1.565  -2.441   0.101  0.00  0.00     0.062 A 
ATOM      7  F   UNL d   1       2.102  -1.455   0.835  0.00  0.00    -0.097 F 
ATOM      8  F1  UNL d   1       3.163  -2.057  -1.584  0.00  0.00    -0.096 F 
ATOM      9  I   UNL d   1       2.360  -4.250  -3.772  0.00  0.00    -0.060 I 
ATOM     10  F2  UNL d   1      -0.102  -5.473  -2.134  0.00  0.00    -0.096 F 
ATOM     11  F3  UNL d   1      -1.140  -4.848   0.288  0.00  0.00    -0.097 F 
ATOM     12  F4  UNL d   1      -0.048  -2.843   1.781  0.00  0.00    -0.092 F 
ENDROOT
TORSDOF 0
ENDMDL
