MODEL 1
REMARK minimizedAffinity 15.2767859
REMARK minimizedRMSD -1
REMARK  0 active torsions:
REMARK  status: ('A' for Active; 'I' for Inactive)
ROOT
ATOM      1  C   UNL d   1       1.167   4.887  -4.700  0.00  0.00     0.124 A 
ATOM      2  C1  UNL d   1       2.445   4.695  -5.207  0.00  0.00     0.062 A 
ATOM      3  C2  UNL d   1       3.156   3.540  -4.894  0.00  0.00     0.162 A 
ATOM      4  C3  UNL d   1       2.590   2.567  -4.070  0.00  0.00    -0.034 A 
ATOM      5  C4  UNL d   1       1.305   2.768  -3.563  0.00  0.00     0.162 A 
ATOM      6  C5  UNL d   1       0.599   3.924  -3.878  0.00  0.00     0.062 A 
ATOM      7  F   UNL d   1      -0.636   4.108  -3.388  0.00  0.00    -0.097 F 
ATOM      8  F1  UNL d   1       0.731   1.853  -2.768  0.00  0.00    -0.096 F 
ATOM      9  I   UNL d   1       3.650   0.839  -3.599  0.00  0.00    -0.060 I 
ATOM     10  F2  UNL d   1       4.389   3.381  -5.398  0.00  0.00    -0.096 F 
ATOM     11  F3  UNL d   1       2.997   5.625  -6.000  0.00  0.00    -0.097 F 
ATOM     12  F4  UNL d   1       0.486   6.000  -5.002  0.00  0.00    -0.092 F 
ENDROOT
TORSDOF 0
ENDMDL
