MODEL 1
REMARK minimizedAffinity 0.947735786
REMARK minimizedRMSD -1
REMARK  0 active torsions:
REMARK  status: ('A' for Active; 'I' for Inactive)
ROOT
ATOM      1  C   UNL d   1       0.073   0.132   1.005  0.00  0.00     0.124 A 
ATOM      2  C1  UNL d   1      -0.888  -0.629   1.655  0.00  0.00     0.062 A 
ATOM      3  C2  UNL d   1      -1.985  -0.011   2.250  0.00  0.00     0.162 A 
ATOM      4  C3  UNL d   1      -2.127   1.375   2.195  0.00  0.00    -0.034 A 
ATOM      5  C4  UNL d   1      -1.155   2.134   1.540  0.00  0.00     0.162 A 
ATOM      6  C5  UNL d   1      -0.061   1.512   0.947  0.00  0.00     0.062 A 
ATOM      7  F   UNL d   1       0.867   2.248   0.319  0.00  0.00    -0.097 F 
ATOM      8  F1  UNL d   1      -1.261   3.469   1.469  0.00  0.00    -0.096 F 
ATOM      9  I   UNL d   1      -3.765   2.302   3.083  0.00  0.00    -0.060 I 
ATOM     10  F2  UNL d   1      -2.899  -0.771   2.872  0.00  0.00    -0.096 F 
ATOM     11  F3  UNL d   1      -0.760  -1.962   1.713  0.00  0.00    -0.097 F 
ATOM     12  F4  UNL d   1       1.128  -0.465   0.435  0.00  0.00    -0.092 F 
ENDROOT
TORSDOF 0
ENDMDL
