MODEL 1
REMARK minimizedAffinity 9.94546795
REMARK minimizedRMSD -1
REMARK  0 active torsions:
REMARK  status: ('A' for Active; 'I' for Inactive)
ROOT
ATOM      1  C   UNL d   1       2.845  -0.638   1.765  0.00  0.00     0.124 A 
ATOM      2  C1  UNL d   1       2.114  -0.842   2.927  0.00  0.00     0.062 A 
ATOM      3  C2  UNL d   1       0.779  -0.452   2.992  0.00  0.00     0.162 A 
ATOM      4  C3  UNL d   1       0.166   0.145   1.890  0.00  0.00    -0.034 A 
ATOM      5  C4  UNL d   1       0.908   0.349   0.725  0.00  0.00     0.162 A 
ATOM      6  C5  UNL d   1       2.242  -0.043   0.665  0.00  0.00     0.062 A 
ATOM      7  F   UNL d   1       2.947   0.155  -0.458  0.00  0.00    -0.097 F 
ATOM      8  F1  UNL d   1       0.350   0.920  -0.352  0.00  0.00    -0.096 F 
ATOM      9  I   UNL d   1      -1.829   0.730   1.983  0.00  0.00    -0.060 I 
ATOM     10  F2  UNL d   1       0.097  -0.662   4.127  0.00  0.00    -0.096 F 
ATOM     11  F3  UNL d   1       2.695  -1.416   3.990  0.00  0.00    -0.097 F 
ATOM     12  F4  UNL d   1       4.129  -1.013   1.705  0.00  0.00    -0.092 F 
ENDROOT
TORSDOF 0
ENDMDL
