MODEL 1
REMARK minimizedAffinity 4.52730036
REMARK minimizedRMSD -1
REMARK  0 active torsions:
REMARK  status: ('A' for Active; 'I' for Inactive)
ROOT
ATOM      1  C   UNL d   1      -1.499   1.268   1.871  0.00  0.00     0.124 A 
ATOM      2  C1  UNL d   1      -0.556   2.132   1.331  0.00  0.00     0.062 A 
ATOM      3  C2  UNL d   1       0.666   1.641   0.881  0.00  0.00     0.162 A 
ATOM      4  C3  UNL d   1       0.953   0.279   0.969  0.00  0.00    -0.034 A 
ATOM      5  C4  UNL d   1       0.000  -0.584   1.514  0.00  0.00     0.162 A 
ATOM      6  C5  UNL d   1      -1.220  -0.088   1.962  0.00  0.00     0.062 A 
ATOM      7  F   UNL d   1      -2.130  -0.924   2.484  0.00  0.00    -0.097 F 
ATOM      8  F1  UNL d   1       0.243  -1.899   1.614  0.00  0.00    -0.096 F 
ATOM      9  I   UNL d   1       2.780  -0.459   0.299  0.00  0.00    -0.060 I 
ATOM     10  F2  UNL d   1       1.559   2.498   0.364  0.00  0.00    -0.096 F 
ATOM     11  F3  UNL d   1      -0.823   3.443   1.242  0.00  0.00    -0.097 F 
ATOM     12  F4  UNL d   1      -2.674   1.743   2.303  0.00  0.00    -0.092 F 
ENDROOT
TORSDOF 0
ENDMDL
