MODEL 1
REMARK minimizedAffinity 22.2008877
REMARK minimizedRMSD -1
REMARK  0 active torsions:
REMARK  status: ('A' for Active; 'I' for Inactive)
ROOT
ATOM      1  C   UNL d   1       3.719   3.390  -3.343  0.00  0.00     0.124 A 
ATOM      2  C1  UNL d   1       4.809   2.633  -2.936  0.00  0.00     0.062 A 
ATOM      3  C2  UNL d   1       4.670   1.266  -2.718  0.00  0.00     0.162 A 
ATOM      4  C3  UNL d   1       3.435   0.645  -2.907  0.00  0.00    -0.034 A 
ATOM      5  C4  UNL d   1       2.343   1.412  -3.316  0.00  0.00     0.162 A 
ATOM      6  C5  UNL d   1       2.487   2.779  -3.533  0.00  0.00     0.062 A 
ATOM      7  F   UNL d   1       1.433   3.508  -3.926  0.00  0.00    -0.097 F 
ATOM      8  F1  UNL d   1       1.142   0.847  -3.508  0.00  0.00    -0.096 F 
ATOM      9  I   UNL d   1       3.223  -1.400  -2.583  0.00  0.00    -0.060 I 
ATOM     10  F2  UNL d   1       5.741   0.559  -2.325  0.00  0.00    -0.096 F 
ATOM     11  F3  UNL d   1       6.000   3.221  -2.751  0.00  0.00    -0.097 F 
ATOM     12  F4  UNL d   1       3.855   4.705  -3.551  0.00  0.00    -0.092 F 
ENDROOT
TORSDOF 0
ENDMDL
