MODEL 1
REMARK minimizedAffinity 10.3006659
REMARK minimizedRMSD -1
REMARK  0 active torsions:
REMARK  status: ('A' for Active; 'I' for Inactive)
ROOT
ATOM      1  C   UNL d   1       1.282   0.951   0.355  0.00  0.00     0.124 A 
ATOM      2  C1  UNL d   1       1.952  -0.032   1.070  0.00  0.00     0.062 A 
ATOM      3  C2  UNL d   1       1.282  -0.772   2.040  0.00  0.00     0.162 A 
ATOM      4  C3  UNL d   1      -0.068  -0.533   2.300  0.00  0.00    -0.034 A 
ATOM      5  C4  UNL d   1      -0.734   0.459   1.578  0.00  0.00     0.162 A 
ATOM      6  C5  UNL d   1      -0.060   1.195   0.610  0.00  0.00     0.062 A 
ATOM      7  F   UNL d   1      -0.709   2.145  -0.080  0.00  0.00    -0.097 F 
ATOM      8  F1  UNL d   1      -2.032   0.715   1.803  0.00  0.00    -0.096 F 
ATOM      9  I   UNL d   1      -1.073  -1.637   3.749  0.00  0.00    -0.060 I 
ATOM     10  F2  UNL d   1       1.954  -1.716   2.715  0.00  0.00    -0.096 F 
ATOM     11  F3  UNL d   1       3.249  -0.270   0.827  0.00  0.00    -0.097 F 
ATOM     12  F4  UNL d   1       1.930   1.662  -0.577  0.00  0.00    -0.092 F 
ENDROOT
TORSDOF 0
ENDMDL
