MODEL 1
REMARK minimizedAffinity 5.24972057
REMARK minimizedRMSD -1
REMARK  0 active torsions:
REMARK  status: ('A' for Active; 'I' for Inactive)
ROOT
ATOM      1  C   UNL d   1      -1.268   1.844   1.841  0.00  0.00     0.124 A 
ATOM      2  C1  UNL d   1      -0.207   2.621   1.397  0.00  0.00     0.062 A 
ATOM      3  C2  UNL d   1       0.992   2.020   1.022  0.00  0.00     0.162 A 
ATOM      4  C3  UNL d   1       1.135   0.634   1.087  0.00  0.00    -0.034 A 
ATOM      5  C4  UNL d   1       0.064  -0.141   1.535  0.00  0.00     0.162 A 
ATOM      6  C5  UNL d   1      -1.132   0.464   1.909  0.00  0.00     0.062 A 
ATOM      7  F   UNL d   1      -2.156  -0.288   2.338  0.00  0.00    -0.097 F 
ATOM      8  F1  UNL d   1       0.167  -1.476   1.610  0.00  0.00    -0.096 F 
ATOM      9  I   UNL d   1       2.925  -0.268   0.526  0.00  0.00    -0.060 I 
ATOM     10  F2  UNL d   1       2.000   2.795   0.597  0.00  0.00    -0.096 F 
ATOM     11  F3  UNL d   1      -0.335   3.954   1.331  0.00  0.00    -0.097 F 
ATOM     12  F4  UNL d   1      -2.419   2.424   2.203  0.00  0.00    -0.092 F 
ENDROOT
TORSDOF 0
ENDMDL
