MODEL 1
REMARK minimizedAffinity 11.2952194
REMARK minimizedRMSD -1
REMARK  0 active torsions:
REMARK  status: ('A' for Active; 'I' for Inactive)
ROOT
ATOM      1  C   UNL d   1      -1.995   1.778   2.284  0.00  0.00     0.124 A 
ATOM      2  C1  UNL d   1      -2.003   0.394   2.189  0.00  0.00     0.062 A 
ATOM      3  C2  UNL d   1      -0.844  -0.291   1.837  0.00  0.00     0.162 A 
ATOM      4  C3  UNL d   1       0.335   0.408   1.576  0.00  0.00    -0.034 A 
ATOM      5  C4  UNL d   1       0.335   1.801   1.672  0.00  0.00     0.162 A 
ATOM      6  C5  UNL d   1      -0.826   2.480   2.025  0.00  0.00     0.062 A 
ATOM      7  F   UNL d   1      -0.816   3.818   2.116  0.00  0.00    -0.097 F 
ATOM      8  F1  UNL d   1       1.451   2.504   1.429  0.00  0.00    -0.096 F 
ATOM      9  I   UNL d   1       2.070  -0.612   1.049  0.00  0.00    -0.060 I 
ATOM     10  F2  UNL d   1      -0.881  -1.629   1.753  0.00  0.00    -0.096 F 
ATOM     11  F3  UNL d   1      -3.132  -0.287   2.438  0.00  0.00    -0.097 F 
ATOM     12  F4  UNL d   1      -3.112   2.435   2.622  0.00  0.00    -0.092 F 
ENDROOT
TORSDOF 0
ENDMDL
