MODEL 1
REMARK minimizedAffinity 3.42832923
REMARK minimizedRMSD -1
REMARK  0 active torsions:
REMARK  status: ('A' for Active; 'I' for Inactive)
ROOT
ATOM      1  C   UNL d   1       0.491   1.227   0.714  0.00  0.00     0.124 A 
ATOM      2  C1  UNL d   1       0.536  -0.159   0.664  0.00  0.00     0.062 A 
ATOM      3  C2  UNL d   1      -0.468  -0.914   1.264  0.00  0.00     0.162 A 
ATOM      4  C3  UNL d   1      -1.526  -0.283   1.919  0.00  0.00    -0.034 A 
ATOM      5  C4  UNL d   1      -1.563   1.111   1.966  0.00  0.00     0.162 A 
ATOM      6  C5  UNL d   1      -0.558   1.861   1.365  0.00  0.00     0.062 A 
ATOM      7  F   UNL d   1      -0.602   3.200   1.415  0.00  0.00    -0.097 F 
ATOM      8  F1  UNL d   1      -2.566   1.750   2.588  0.00  0.00    -0.096 F 
ATOM      9  I   UNL d   1      -3.029  -1.408   2.817  0.00  0.00    -0.060 I 
ATOM     10  F2  UNL d   1      -0.400  -2.252   1.200  0.00  0.00    -0.096 F 
ATOM     11  F3  UNL d   1       1.549  -0.774   0.037  0.00  0.00    -0.097 F 
ATOM     12  F4  UNL d   1       1.459   1.951   0.137  0.00  0.00    -0.092 F 
ENDROOT
TORSDOF 0
ENDMDL
