MODEL 1
REMARK minimizedAffinity 5.14548683
REMARK minimizedRMSD -1
REMARK  0 active torsions:
REMARK  status: ('A' for Active; 'I' for Inactive)
ROOT
ATOM      1  C   UNL d   1       0.034   0.312   0.994  0.00  0.00     0.124 A 
ATOM      2  C1  UNL d   1      -0.189   1.665   0.776  0.00  0.00     0.062 A 
ATOM      3  C2  UNL d   1      -1.347   2.269   1.258  0.00  0.00     0.162 A 
ATOM      4  C3  UNL d   1      -2.290   1.522   1.964  0.00  0.00    -0.034 A 
ATOM      5  C4  UNL d   1      -2.059   0.162   2.177  0.00  0.00     0.162 A 
ATOM      6  C5  UNL d   1      -0.900  -0.438   1.694  0.00  0.00     0.062 A 
ATOM      7  F   UNL d   1      -0.686  -1.745   1.905  0.00  0.00    -0.097 F 
ATOM      8  F1  UNL d   1      -2.945  -0.586   2.851  0.00  0.00    -0.096 F 
ATOM      9  I   UNL d   1      -4.022   2.422   2.686  0.00  0.00    -0.060 I 
ATOM     10  F2  UNL d   1      -1.536   3.578   1.034  0.00  0.00    -0.096 F 
ATOM     11  F3  UNL d   1       0.712   2.391   0.099  0.00  0.00    -0.097 F 
ATOM     12  F4  UNL d   1       1.148  -0.267   0.528  0.00  0.00    -0.092 F 
ENDROOT
TORSDOF 0
ENDMDL
