MODEL 1
REMARK minimizedAffinity 5.23579025
REMARK minimizedRMSD -1
REMARK  0 active torsions:
REMARK  status: ('A' for Active; 'I' for Inactive)
ROOT
ATOM      1  C   UNL d   1      -0.040   1.696   1.180  0.00  0.00     0.124 A 
ATOM      2  C1  UNL d   1      -0.020   0.308   1.197  0.00  0.00     0.062 A 
ATOM      3  C2  UNL d   1      -1.065  -0.400   1.782  0.00  0.00     0.162 A 
ATOM      4  C3  UNL d   1      -2.141   0.278   2.356  0.00  0.00    -0.034 A 
ATOM      5  C4  UNL d   1      -2.153   1.674   2.336  0.00  0.00     0.162 A 
ATOM      6  C5  UNL d   1      -1.106   2.377   1.750  0.00  0.00     0.062 A 
ATOM      7  F   UNL d   1      -1.127   3.718   1.735  0.00  0.00    -0.097 F 
ATOM      8  F1  UNL d   1      -3.172   2.358   2.879  0.00  0.00    -0.096 F 
ATOM      9  I   UNL d   1      -3.706  -0.777   3.232  0.00  0.00    -0.060 I 
ATOM     10  F2  UNL d   1      -1.020  -1.741   1.783  0.00  0.00    -0.096 F 
ATOM     11  F3  UNL d   1       1.009  -0.353   0.648  0.00  0.00    -0.097 F 
ATOM     12  F4  UNL d   1       0.968   2.375   0.617  0.00  0.00    -0.092 F 
ENDROOT
TORSDOF 0
ENDMDL
