MODEL 1
REMARK minimizedAffinity 12.594471
REMARK minimizedRMSD -1
REMARK  0 active torsions:
REMARK  status: ('A' for Active; 'I' for Inactive)
ROOT
ATOM      1  C   UNL d   1       0.659   1.305   0.972  0.00  0.00     0.124 A 
ATOM      2  C1  UNL d   1       0.990  -0.020   1.221  0.00  0.00     0.062 A 
ATOM      3  C2  UNL d   1       0.124  -0.833   1.947  0.00  0.00     0.162 A 
ATOM      4  C3  UNL d   1      -1.082  -0.324   2.429  0.00  0.00    -0.034 A 
ATOM      5  C4  UNL d   1      -1.407   1.010   2.175  0.00  0.00     0.162 A 
ATOM      6  C5  UNL d   1      -0.539   1.818   1.449  0.00  0.00     0.062 A 
ATOM      7  F   UNL d   1      -0.860   3.098   1.209  0.00  0.00    -0.097 F 
ATOM      8  F1  UNL d   1      -2.558   1.531   2.623  0.00  0.00    -0.096 F 
ATOM      9  I   UNL d   1      -2.378  -1.536   3.515  0.00  0.00    -0.060 I 
ATOM     10  F2  UNL d   1       0.470  -2.110   2.172  0.00  0.00    -0.096 F 
ATOM     11  F3  UNL d   1       2.147  -0.519   0.762  0.00  0.00    -0.097 F 
ATOM     12  F4  UNL d   1       1.494   2.085   0.274  0.00  0.00    -0.092 F 
ENDROOT
TORSDOF 0
ENDMDL
