MODEL 1
REMARK minimizedAffinity 7.96152735
REMARK minimizedRMSD -1
REMARK  0 active torsions:
REMARK  status: ('A' for Active; 'I' for Inactive)
ROOT
ATOM      1  C   UNL d   1      -1.468   1.251   1.611  0.00  0.00     0.124 A 
ATOM      2  C1  UNL d   1      -0.374   2.033   1.268  0.00  0.00     0.062 A 
ATOM      3  C2  UNL d   1       0.841   1.436   0.947  0.00  0.00     0.162 A 
ATOM      4  C3  UNL d   1       0.970   0.047   0.968  0.00  0.00    -0.034 A 
ATOM      5  C4  UNL d   1      -0.134  -0.734   1.315  0.00  0.00     0.162 A 
ATOM      6  C5  UNL d   1      -1.347  -0.132   1.634  0.00  0.00     0.062 A 
ATOM      7  F   UNL d   1      -2.403  -0.890   1.966  0.00  0.00    -0.097 F 
ATOM      8  F1  UNL d   1      -0.046  -2.072   1.344  0.00  0.00    -0.096 F 
ATOM      9  I   UNL d   1       2.786  -0.850   0.489  0.00  0.00    -0.060 I 
ATOM     10  F2  UNL d   1       1.881   2.217   0.619  0.00  0.00    -0.096 F 
ATOM     11  F3  UNL d   1      -0.488   3.369   1.246  0.00  0.00    -0.097 F 
ATOM     12  F4  UNL d   1      -2.636   1.828   1.920  0.00  0.00    -0.092 F 
ENDROOT
TORSDOF 0
ENDMDL
