MODEL 1
REMARK minimizedAffinity 7.13798141
REMARK minimizedRMSD -1
REMARK  0 active torsions:
REMARK  status: ('A' for Active; 'I' for Inactive)
ROOT
ATOM      1  C   UNL d   1      -2.548   0.496   2.256  0.00  0.00     0.124 A 
ATOM      2  C1  UNL d   1      -1.973  -0.767   2.223  0.00  0.00     0.062 A 
ATOM      3  C2  UNL d   1      -0.692  -0.941   1.707  0.00  0.00     0.162 A 
ATOM      4  C3  UNL d   1       0.024   0.153   1.219  0.00  0.00    -0.034 A 
ATOM      5  C4  UNL d   1      -0.561   1.420   1.255  0.00  0.00     0.162 A 
ATOM      6  C5  UNL d   1      -1.841   1.588   1.772  0.00  0.00     0.062 A 
ATOM      7  F   UNL d   1      -2.395   2.809   1.803  0.00  0.00    -0.097 F 
ATOM      8  F1  UNL d   1       0.099   2.493   0.794  0.00  0.00    -0.096 F 
ATOM      9  I   UNL d   1       1.939  -0.102   0.446  0.00  0.00    -0.060 I 
ATOM     10  F2  UNL d   1      -0.162  -2.172   1.688  0.00  0.00    -0.096 F 
ATOM     11  F3  UNL d   1      -2.654  -1.824   2.690  0.00  0.00    -0.097 F 
ATOM     12  F4  UNL d   1      -3.781   0.659   2.753  0.00  0.00    -0.092 F 
ENDROOT
TORSDOF 0
ENDMDL
