MODEL 1
REMARK minimizedAffinity 18.377636
REMARK minimizedRMSD -1
REMARK  0 active torsions:
REMARK  status: ('A' for Active; 'I' for Inactive)
ROOT
ATOM      1  C4' PXY d   1      -2.238  -2.680   5.741  0.00  0.00     0.077 C 
ATOM      2  C1' PXY d   1      -0.644  -0.731   0.538  0.00  0.00     0.077 C 
ATOM      3  C1  PXY d   1      -1.062  -1.230   1.907  0.00  0.00    -0.082 A 
ATOM      4  C2  PXY d   1      -0.756  -2.463   2.276  0.00  0.00     0.003 A 
ATOM      5  C3  PXY d   1      -1.154  -2.941   3.498  0.00  0.00     0.003 A 
ATOM      6  C4  PXY d   1      -1.827  -2.131   4.372  0.00  0.00    -0.082 A 
ATOM      7  C5  PXY d   1      -2.135  -0.868   4.008  0.00  0.00     0.003 A 
ATOM      8  C6  PXY d   1      -1.757  -0.415   2.747  0.00  0.00     0.003 A 
ENDROOT
TORSDOF 0
ENDMDL
