MODEL 1
REMARK minimizedAffinity 12.2245932
REMARK minimizedRMSD -1
REMARK  0 active torsions:
REMARK  status: ('A' for Active; 'I' for Inactive)
ROOT
ATOM      1  C4' PXY d   1      -0.275  -6.000   2.169  0.00  0.00     0.077 C 
ATOM      2  C1' PXY d   1      -2.241  -1.289  -0.543  0.00  0.00     0.077 C 
ATOM      3  C1  PXY d   1      -1.729  -2.531   0.158  0.00  0.00    -0.082 A 
ATOM      4  C2  PXY d   1      -1.650  -2.552   1.479  0.00  0.00     0.003 A 
ATOM      5  C3  PXY d   1      -1.159  -3.656   2.127  0.00  0.00     0.003 A 
ATOM      6  C4  PXY d   1      -0.795  -4.770   1.420  0.00  0.00    -0.082 A 
ATOM      7  C5  PXY d   1      -0.882  -4.761   0.073  0.00  0.00     0.003 A 
ATOM      8  C6  PXY d   1      -1.344  -3.615  -0.569  0.00  0.00     0.003 A 
ENDROOT
TORSDOF 0
ENDMDL
