MODEL 1
REMARK minimizedAffinity 11.6442394
REMARK minimizedRMSD -1
REMARK  0 active torsions:
REMARK  status: ('A' for Active; 'I' for Inactive)
ROOT
ATOM      1  C4' PXY d   1      -1.533  -3.132   3.089  0.00  0.00     0.077 C 
ATOM      2  C1' PXY d   1      -1.188  -2.011  -2.571  0.00  0.00     0.077 C 
ATOM      3  C1  PXY d   1      -1.275  -2.317  -1.089  0.00  0.00    -0.082 A 
ATOM      4  C2  PXY d   1      -2.033  -1.564  -0.309  0.00  0.00     0.003 A 
ATOM      5  C3  PXY d   1      -2.099  -1.807   1.039  0.00  0.00     0.003 A 
ATOM      6  C4  PXY d   1      -1.422  -2.865   1.585  0.00  0.00    -0.082 A 
ATOM      7  C5  PXY d   1      -0.655  -3.644   0.794  0.00  0.00     0.003 A 
ATOM      8  C6  PXY d   1      -0.569  -3.356  -0.564  0.00  0.00     0.003 A 
ENDROOT
TORSDOF 0
ENDMDL
