MODEL 1
REMARK minimizedAffinity 14.0564127
REMARK minimizedRMSD -1
REMARK  0 active torsions:
REMARK  status: ('A' for Active; 'I' for Inactive)
ROOT
ATOM      1  C4' PXY d   1      -2.547  -3.918   3.837  0.00  0.00     0.077 C 
ATOM      2  C1' PXY d   1      -1.026  -2.418  -1.535  0.00  0.00     0.077 C 
ATOM      3  C1  PXY d   1      -1.420  -2.824  -0.128  0.00  0.00    -0.082 A 
ATOM      4  C2  PXY d   1      -2.404  -2.186   0.485  0.00  0.00     0.003 A 
ATOM      5  C3  PXY d   1      -2.752  -2.519   1.769  0.00  0.00     0.003 A 
ATOM      6  C4  PXY d   1      -2.122  -3.549   2.413  0.00  0.00    -0.082 A 
ATOM      7  C5  PXY d   1      -1.123  -4.211   1.790  0.00  0.00     0.003 A 
ATOM      8  C6  PXY d   1      -0.758  -3.831   0.502  0.00  0.00     0.003 A 
ENDROOT
TORSDOF 0
ENDMDL
