MODEL 1
REMARK minimizedAffinity 6.14477491
REMARK minimizedRMSD -1
REMARK  0 active torsions:
REMARK  status: ('A' for Active; 'I' for Inactive)
ROOT
ATOM      1  C4' PXY d   1      -0.761  -5.999   1.148  0.00  0.00     0.077 C 
ATOM      2  C1' PXY d   1      -2.115  -0.756  -0.876  0.00  0.00     0.077 C 
ATOM      3  C1  PXY d   1      -1.764  -2.136  -0.356  0.00  0.00    -0.082 A 
ATOM      4  C2  PXY d   1      -1.709  -2.350   0.948  0.00  0.00     0.003 A 
ATOM      5  C3  PXY d   1      -1.361  -3.583   1.435  0.00  0.00     0.003 A 
ATOM      6  C4  PXY d   1      -1.120  -4.624   0.578  0.00  0.00    -0.082 A 
ATOM      7  C5  PXY d   1      -1.186  -4.417  -0.754  0.00  0.00     0.003 A 
ATOM      8  C6  PXY d   1      -1.499  -3.146  -1.228  0.00  0.00     0.003 A 
ENDROOT
TORSDOF 0
ENDMDL
