MODEL 1
REMARK minimizedAffinity 14.8762865
REMARK minimizedRMSD -1
REMARK  0 active torsions:
REMARK  status: ('A' for Active; 'I' for Inactive)
ROOT
ATOM      1  C4' PXY d   1      -1.869  -1.510  -3.840  0.00  0.00     0.077 C 
ATOM      2  C1' PXY d   1      -2.240  -2.290   1.876  0.00  0.00     0.077 C 
ATOM      3  C1  PXY d   1      -2.153  -2.078   0.378  0.00  0.00    -0.082 A 
ATOM      4  C2  PXY d   1      -1.503  -2.955  -0.370  0.00  0.00     0.003 A 
ATOM      5  C3  PXY d   1      -1.388  -2.762  -1.723  0.00  0.00     0.003 A 
ATOM      6  C4  PXY d   1      -1.990  -1.689  -2.324  0.00  0.00    -0.082 A 
ATOM      7  C5  PXY d   1      -2.664  -0.795  -1.569  0.00  0.00     0.003 A 
ATOM      8  C6  PXY d   1      -2.734  -0.987  -0.192  0.00  0.00     0.003 A 
ENDROOT
TORSDOF 0
ENDMDL
