MODEL 1
REMARK minimizedAffinity 5.03935146
REMARK minimizedRMSD -1
REMARK  0 active torsions:
REMARK  status: ('A' for Active; 'I' for Inactive)
ROOT
ATOM      1  C4' PXY d   1      -0.209  -5.998   1.767  0.00  0.00     0.077 C 
ATOM      2  C1' PXY d   1      -2.509  -0.941   0.171  0.00  0.00     0.077 C 
ATOM      3  C1  PXY d   1      -1.907  -2.264   0.602  0.00  0.00    -0.082 A 
ATOM      4  C2  PXY d   1      -1.150  -2.944  -0.243  0.00  0.00     0.003 A 
ATOM      5  C3  PXY d   1      -0.624  -4.157   0.119  0.00  0.00     0.003 A 
ATOM      6  C4  PXY d   1      -0.830  -4.654   1.378  0.00  0.00    -0.082 A 
ATOM      7  C5  PXY d   1      -1.592  -3.960   2.250  0.00  0.00     0.003 A 
ATOM      8  C6  PXY d   1      -2.151  -2.750   1.849  0.00  0.00     0.003 A 
ENDROOT
TORSDOF 0
ENDMDL
