MODEL 1
REMARK minimizedAffinity 4.62779665
REMARK minimizedRMSD -1
REMARK  0 active torsions:
REMARK  status: ('A' for Active; 'I' for Inactive)
ROOT
ATOM      1  C4' PXY d   1      -0.133  -4.772   0.590  0.00  0.00     0.077 C 
ATOM      2  C1' PXY d   1      -3.408  -0.061  -0.116  0.00  0.00     0.077 C 
ATOM      3  C1  PXY d   1      -2.549  -1.298   0.056  0.00  0.00    -0.082 A 
ATOM      4  C2  PXY d   1      -2.565  -1.950   1.207  0.00  0.00     0.003 A 
ATOM      5  C3  PXY d   1      -1.770  -3.052   1.391  0.00  0.00     0.003 A 
ATOM      6  C4  PXY d   1      -0.991  -3.523   0.368  0.00  0.00    -0.082 A 
ATOM      7  C5  PXY d   1      -0.978  -2.870  -0.813  0.00  0.00     0.003 A 
ATOM      8  C6  PXY d   1      -1.761  -1.729  -0.966  0.00  0.00     0.003 A 
ENDROOT
TORSDOF 0
ENDMDL
