MODEL 1
REMARK minimizedAffinity 10.8438911
REMARK minimizedRMSD -1
REMARK  0 active torsions:
REMARK  status: ('A' for Active; 'I' for Inactive)
ROOT
ATOM      1  C4' PXY d   1      -2.395  -1.304   5.926  0.00  0.00     0.077 C 
ATOM      2  C1' PXY d   1      -5.951   3.252   5.997  0.00  0.00     0.077 C 
ATOM      3  C1  PXY d   1      -5.009   2.064   5.973  0.00  0.00    -0.082 A 
ATOM      4  C2  PXY d   1      -5.503   0.837   5.985  0.00  0.00     0.003 A 
ATOM      5  C3  PXY d   1      -4.665  -0.248   5.996  0.00  0.00     0.003 A 
ATOM      6  C4  PXY d   1      -3.308  -0.076   5.940  0.00  0.00    -0.082 A 
ATOM      7  C5  PXY d   1      -2.796   1.173   5.916  0.00  0.00     0.003 A 
ATOM      8  C6  PXY d   1      -3.663   2.262   5.948  0.00  0.00     0.003 A 
ENDROOT
TORSDOF 0
ENDMDL
