MODEL 1
REMARK minimizedAffinity 6.15502739
REMARK minimizedRMSD -1
REMARK  0 active torsions:
REMARK  status: ('A' for Active; 'I' for Inactive)
ROOT
ATOM      1  C4' PXY d   1      -6.000   6.000  -5.057  0.00  0.00     0.077 C 
ATOM      2  C1' PXY d   1      -1.078   3.025  -4.470  0.00  0.00     0.077 C 
ATOM      3  C1  PXY d   1      -2.371   3.800  -4.636  0.00  0.00    -0.082 A 
ATOM      4  C2  PXY d   1      -2.544   4.932  -3.973  0.00  0.00     0.003 A 
ATOM      5  C3  PXY d   1      -3.720   5.629  -4.087  0.00  0.00     0.003 A 
ATOM      6  C4  PXY d   1      -4.707   5.190  -4.928  0.00  0.00    -0.082 A 
ATOM      7  C5  PXY d   1      -4.533   4.041  -5.615  0.00  0.00     0.003 A 
ATOM      8  C6  PXY d   1      -3.349   3.327  -5.455  0.00  0.00     0.003 A 
ENDROOT
TORSDOF 0
ENDMDL
