MODEL 1
REMARK minimizedAffinity 9.6887188
REMARK minimizedRMSD -1
REMARK  0 active torsions:
REMARK  status: ('A' for Active; 'I' for Inactive)
ROOT
ATOM      1  C4' PXY d   1      -0.393  -6.000   1.503  0.00  0.00     0.077 C 
ATOM      2  C1' PXY d   1      -2.357  -0.783  -0.028  0.00  0.00     0.077 C 
ATOM      3  C1  PXY d   1      -1.842  -2.155   0.361  0.00  0.00    -0.082 A 
ATOM      4  C2  PXY d   1      -2.044  -2.605   1.588  0.00  0.00     0.003 A 
ATOM      5  C3  PXY d   1      -1.558  -3.830   1.966  0.00  0.00     0.003 A 
ATOM      6  C4  PXY d   1      -0.903  -4.624   1.063  0.00  0.00    -0.082 A 
ATOM      7  C5  PXY d   1      -0.702  -4.176  -0.194  0.00  0.00     0.003 A 
ATOM      8  C6  PXY d   1      -1.168  -2.913  -0.546  0.00  0.00     0.003 A 
ENDROOT
TORSDOF 0
ENDMDL
