MODEL 1
REMARK minimizedAffinity 10.7521648
REMARK minimizedRMSD -1
REMARK  0 active torsions:
REMARK  status: ('A' for Active; 'I' for Inactive)
ROOT
ATOM      1  C4' PXY d   1      -5.624   3.902   1.384  0.00  0.00     0.077 C 
ATOM      2  C1' PXY d   1      -4.178   5.999  -3.805  0.00  0.00     0.077 C 
ATOM      3  C1  PXY d   1      -4.563   5.460  -2.441  0.00  0.00    -0.082 A 
ATOM      4  C2  PXY d   1      -3.846   4.493  -1.893  0.00  0.00     0.003 A 
ATOM      5  C3  PXY d   1      -4.199   3.972  -0.675  0.00  0.00     0.003 A 
ATOM      6  C4  PXY d   1      -5.266   4.483   0.014  0.00  0.00    -0.082 A 
ATOM      7  C5  PXY d   1      -5.997   5.477  -0.534  0.00  0.00     0.003 A 
ATOM      8  C6  PXY d   1      -5.647   5.964  -1.790  0.00  0.00     0.003 A 
ENDROOT
TORSDOF 0
ENDMDL
