MODEL 1
REMARK minimizedAffinity 12.6597319
REMARK minimizedRMSD -1
REMARK  0 active torsions:
REMARK  status: ('A' for Active; 'I' for Inactive)
ROOT
ATOM      1  C4' PXY d   1      -3.358   4.489   6.000  0.00  0.00     0.077 C 
ATOM      2  C1' PXY d   1      -5.877  -0.713   5.950  0.00  0.00     0.077 C 
ATOM      3  C1  PXY d   1      -5.228   0.657   5.958  0.00  0.00    -0.082 A 
ATOM      4  C2  PXY d   1      -3.908   0.755   5.944  0.00  0.00     0.003 A 
ATOM      5  C3  PXY d   1      -3.304   1.985   5.983  0.00  0.00     0.003 A 
ATOM      6  C4  PXY d   1      -4.058   3.128   5.983  0.00  0.00    -0.082 A 
ATOM      7  C5  PXY d   1      -5.405   3.036   5.986  0.00  0.00     0.003 A 
ATOM      8  C6  PXY d   1      -5.999   1.777   5.988  0.00  0.00     0.003 A 
ENDROOT
TORSDOF 0
ENDMDL
