MODEL 1
REMARK minimizedAffinity 5.01044512
REMARK minimizedRMSD -1
REMARK  0 active torsions:
REMARK  status: ('A' for Active; 'I' for Inactive)
ROOT
ATOM      1  C4' PXY d   1      -1.911  -1.664   5.675  0.00  0.00     0.077 C 
ATOM      2  C1' PXY d   1      -5.968   2.440   6.000  0.00  0.00     0.077 C 
ATOM      3  C1  PXY d   1      -4.912   1.356   5.921  0.00  0.00    -0.082 A 
ATOM      4  C2  PXY d   1      -3.641   1.690   5.771  0.00  0.00     0.003 A 
ATOM      5  C3  PXY d   1      -2.676   0.721   5.665  0.00  0.00     0.003 A 
ATOM      6  C4  PXY d   1      -3.010  -0.603   5.769  0.00  0.00    -0.082 A 
ATOM      7  C5  PXY d   1      -4.304  -0.952   5.934  0.00  0.00     0.003 A 
ATOM      8  C6  PXY d   1      -5.272   0.046   5.997  0.00  0.00     0.003 A 
ENDROOT
TORSDOF 0
ENDMDL
