MODEL 1
REMARK minimizedAffinity 9.32842541
REMARK minimizedRMSD -1
REMARK  0 active torsions:
REMARK  status: ('A' for Active; 'I' for Inactive)
ROOT
ATOM      1  C4' PXY d   1       5.217   0.035  -3.822  0.00  0.00     0.077 C 
ATOM      2  C1' PXY d   1       1.549   1.560   0.378  0.00  0.00     0.077 C 
ATOM      3  C1  PXY d   1       2.502   1.162  -0.732  0.00  0.00    -0.082 A 
ATOM      4  C2  PXY d   1       3.506   0.341  -0.470  0.00  0.00     0.003 A 
ATOM      5  C3  PXY d   1       4.396  -0.003  -1.455  0.00  0.00     0.003 A 
ATOM      6  C4  PXY d   1       4.225   0.456  -2.734  0.00  0.00    -0.082 A 
ATOM      7  C5  PXY d   1       3.198   1.286  -3.012  0.00  0.00     0.003 A 
ATOM      8  C6  PXY d   1       2.330   1.656  -1.989  0.00  0.00     0.003 A 
ENDROOT
TORSDOF 0
ENDMDL
