MODEL 1
REMARK minimizedAffinity 7.4265914
REMARK minimizedRMSD -1
REMARK  0 active torsions:
REMARK  status: ('A' for Active; 'I' for Inactive)
ROOT
ATOM      1  C4' PXY d   1      -1.878  -2.448   5.259  0.00  0.00     0.077 C 
ATOM      2  C1' PXY d   1      -5.296   2.156   5.995  0.00  0.00     0.077 C 
ATOM      3  C1  PXY d   1      -4.392   0.956   5.794  0.00  0.00    -0.082 A 
ATOM      4  C2  PXY d   1      -4.866  -0.262   6.000  0.00  0.00     0.003 A 
ATOM      5  C3  PXY d   1      -4.054  -1.357   5.854  0.00  0.00     0.003 A 
ATOM      6  C4  PXY d   1      -2.757  -1.207   5.441  0.00  0.00    -0.082 A 
ATOM      7  C5  PXY d   1      -2.268   0.031   5.219  0.00  0.00     0.003 A 
ATOM      8  C6  PXY d   1      -3.098   1.132   5.413  0.00  0.00     0.003 A 
ENDROOT
TORSDOF 0
ENDMDL
