MODEL 1
REMARK minimizedAffinity 4.00132799
REMARK minimizedRMSD -1
REMARK  0 active torsions:
REMARK  status: ('A' for Active; 'I' for Inactive)
ROOT
ATOM      1  C4' PXY d   1      -6.000   6.000  -5.273  0.00  0.00     0.077 C 
ATOM      2  C1' PXY d   1      -1.505   2.403  -4.750  0.00  0.00     0.077 C 
ATOM      3  C1  PXY d   1      -2.688   3.340  -4.898  0.00  0.00    -0.082 A 
ATOM      4  C2  PXY d   1      -2.648   4.537  -4.336  0.00  0.00     0.003 A 
ATOM      5  C3  PXY d   1      -3.721   5.385  -4.433  0.00  0.00     0.003 A 
ATOM      6  C4  PXY d   1      -4.825   5.024  -5.158  0.00  0.00    -0.082 A 
ATOM      7  C5  PXY d   1      -4.869   3.809  -5.744  0.00  0.00     0.003 A 
ATOM      8  C6  PXY d   1      -3.786   2.947  -5.599  0.00  0.00     0.003 A 
ENDROOT
TORSDOF 0
ENDMDL
