MODEL 1
REMARK minimizedAffinity 6.10591221
REMARK minimizedRMSD -1
REMARK  0 active torsions:
REMARK  status: ('A' for Active; 'I' for Inactive)
ROOT
ATOM      1  C4' PXY d   1      -4.284  -1.006  -0.108  0.00  0.00     0.077 C 
ATOM      2  C1' PXY d   1       0.939  -0.719  -2.568  0.00  0.00     0.077 C 
ATOM      3  C1  PXY d   1      -0.436  -0.786  -1.932  0.00  0.00    -0.082 A 
ATOM      4  C2  PXY d   1      -0.550  -1.108  -0.654  0.00  0.00     0.003 A 
ATOM      5  C3  PXY d   1      -1.787  -1.205  -0.071  0.00  0.00     0.003 A 
ATOM      6  C4  PXY d   1      -2.916  -0.917  -0.790  0.00  0.00    -0.082 A 
ATOM      7  C5  PXY d   1      -2.807  -0.577  -2.092  0.00  0.00     0.003 A 
ATOM      8  C6  PXY d   1      -1.545  -0.525  -2.676  0.00  0.00     0.003 A 
ENDROOT
TORSDOF 0
ENDMDL
