MODEL 1
REMARK minimizedAffinity 3.29920101
REMARK minimizedRMSD -1
REMARK  0 active torsions:
REMARK  status: ('A' for Active; 'I' for Inactive)
ROOT
ATOM      1  C4' PXY d   1      -3.350   1.497  -4.127  0.00  0.00     0.077 C 
ATOM      2  C1' PXY d   1      -0.792  -2.042  -0.340  0.00  0.00     0.077 C 
ATOM      3  C1  PXY d   1      -1.475  -1.117  -1.328  0.00  0.00    -0.082 A 
ATOM      4  C2  PXY d   1      -0.860  -0.795  -2.454  0.00  0.00     0.003 A 
ATOM      5  C3  PXY d   1      -1.449   0.065  -3.344  0.00  0.00     0.003 A 
ATOM      6  C4  PXY d   1      -2.703   0.559  -3.104  0.00  0.00    -0.082 A 
ATOM      7  C5  PXY d   1      -3.342   0.227  -1.962  0.00  0.00     0.003 A 
ATOM      8  C6  PXY d   1      -2.709  -0.615  -1.052  0.00  0.00     0.003 A 
ENDROOT
TORSDOF 0
ENDMDL
