MODEL 1
REMARK minimizedAffinity 20.5170174
REMARK minimizedRMSD -1
REMARK  0 active torsions:
REMARK  status: ('A' for Active; 'I' for Inactive)
ROOT
ATOM      1  C4' PXY d   1      -2.992  -1.141   1.967  0.00  0.00     0.077 C 
ATOM      2  C1' PXY d   1      -0.812  -1.742  -3.353  0.00  0.00     0.077 C 
ATOM      3  C1  PXY d   1      -1.391  -1.574  -1.962  0.00  0.00    -0.082 A 
ATOM      4  C2  PXY d   1      -0.722  -2.031  -0.916  0.00  0.00     0.003 A 
ATOM      5  C3  PXY d   1      -1.246  -1.916   0.346  0.00  0.00     0.003 A 
ATOM      6  C4  PXY d   1      -2.442  -1.280   0.545  0.00  0.00    -0.082 A 
ATOM      7  C5  PXY d   1      -3.125  -0.801  -0.516  0.00  0.00     0.003 A 
ATOM      8  C6  PXY d   1      -2.596  -0.964  -1.793  0.00  0.00     0.003 A 
ENDROOT
TORSDOF 0
ENDMDL
