MODEL 1
REMARK minimizedAffinity 5.46505785
REMARK minimizedRMSD -1
REMARK  0 active torsions:
REMARK  status: ('A' for Active; 'I' for Inactive)
ROOT
ATOM      1  C1  BNZ d   1       1.929  -0.560  -1.967  0.00  0.00     0.000 A 
ATOM      2  C2  BNZ d   1       2.252  -1.351  -0.897  0.00  0.00     0.000 A 
ATOM      3  C3  BNZ d   1       2.141  -2.712  -0.975  0.00  0.00     0.000 A 
ATOM      4  C4  BNZ d   1       1.669  -3.275  -2.105  0.00  0.00     0.000 A 
ATOM      5  C5  BNZ d   1       1.330  -2.490  -3.189  0.00  0.00     0.000 A 
ATOM      6  C6  BNZ d   1       1.480  -1.123  -3.121  0.00  0.00     0.000 A 
ENDROOT
TORSDOF 0
ENDMDL
