MODEL 1
REMARK minimizedAffinity 8.50773716
REMARK minimizedRMSD -1
REMARK  0 active torsions:
REMARK  status: ('A' for Active; 'I' for Inactive)
ROOT
ATOM      1  C1  BNZ d   1      -1.443  -4.920  -2.130  0.00  0.00     0.000 A 
ATOM      2  C2  BNZ d   1      -2.749  -5.156  -2.468  0.00  0.00     0.000 A 
ATOM      3  C3  BNZ d   1      -3.453  -4.251  -3.212  0.00  0.00     0.000 A 
ATOM      4  C4  BNZ d   1      -2.864  -3.095  -3.582  0.00  0.00     0.000 A 
ATOM      5  C5  BNZ d   1      -1.551  -2.839  -3.241  0.00  0.00     0.000 A 
ATOM      6  C6  BNZ d   1      -0.833  -3.770  -2.526  0.00  0.00     0.000 A 
ENDROOT
TORSDOF 0
ENDMDL
