MODEL 1
REMARK minimizedAffinity 9.45689964
REMARK minimizedRMSD -1
REMARK  0 active torsions:
REMARK  status: ('A' for Active; 'I' for Inactive)
ROOT
ATOM      1  C1  BNZ d   1       0.476   1.538   3.666  0.00  0.00     0.000 A 
ATOM      2  C2  BNZ d   1      -0.162   1.953   4.805  0.00  0.00     0.000 A 
ATOM      3  C3  BNZ d   1       0.536   2.160   5.962  0.00  0.00     0.000 A 
ATOM      4  C4  BNZ d   1       1.862   1.915   5.990  0.00  0.00     0.000 A 
ATOM      5  C5  BNZ d   1       2.518   1.488   4.852  0.00  0.00     0.000 A 
ATOM      6  C6  BNZ d   1       1.819   1.317   3.679  0.00  0.00     0.000 A 
ENDROOT
TORSDOF 0
ENDMDL
