MODEL 1
REMARK minimizedAffinity 0.0458572321
REMARK minimizedRMSD -1
REMARK  0 active torsions:
REMARK  status: ('A' for Active; 'I' for Inactive)
ROOT
ATOM      1  C1  BNZ d   1      -0.400  -1.490  -0.590  0.00  0.00     0.000 A 
ATOM      2  C2  BNZ d   1       0.357  -2.627  -0.501  0.00  0.00     0.000 A 
ATOM      3  C3  BNZ d   1      -0.107  -3.727   0.165  0.00  0.00     0.000 A 
ATOM      4  C4  BNZ d   1      -1.308  -3.675   0.775  0.00  0.00     0.000 A 
ATOM      5  C5  BNZ d   1      -2.080  -2.532   0.703  0.00  0.00     0.000 A 
ATOM      6  C6  BNZ d   1      -1.627  -1.440  -0.002  0.00  0.00     0.000 A 
ENDROOT
TORSDOF 0
ENDMDL
