MODEL 1
REMARK minimizedAffinity 7.60463953
REMARK minimizedRMSD -1
REMARK  0 active torsions:
REMARK  status: ('A' for Active; 'I' for Inactive)
ROOT
ATOM      1  C1  BNZ d   1      -3.737   4.572  -4.889  0.00  0.00     0.000 A 
ATOM      2  C2  BNZ d   1      -3.004   4.193  -3.797  0.00  0.00     0.000 A 
ATOM      3  C3  BNZ d   1      -2.282   3.033  -3.807  0.00  0.00     0.000 A 
ATOM      4  C4  BNZ d   1      -2.324   2.234  -4.893  0.00  0.00     0.000 A 
ATOM      5  C5  BNZ d   1      -3.066   2.598  -5.999  0.00  0.00     0.000 A 
ATOM      6  C6  BNZ d   1      -3.761   3.786  -6.000  0.00  0.00     0.000 A 
ENDROOT
TORSDOF 0
ENDMDL
