MODEL 1
REMARK minimizedAffinity 10.69067
REMARK minimizedRMSD -1
REMARK  0 active torsions:
REMARK  status: ('A' for Active; 'I' for Inactive)
ROOT
ATOM      1  C1  BNZ d   1       2.926  -0.227  -0.286  0.00  0.00     0.000 A 
ATOM      2  C2  BNZ d   1       2.062  -1.105  -0.884  0.00  0.00     0.000 A 
ATOM      3  C3  BNZ d   1       1.356  -0.743  -1.997  0.00  0.00     0.000 A 
ATOM      4  C4  BNZ d   1       1.483   0.507  -2.487  0.00  0.00     0.000 A 
ATOM      5  C5  BNZ d   1       2.343   1.407  -1.889  0.00  0.00     0.000 A 
ATOM      6  C6  BNZ d   1       3.082   1.027  -0.792  0.00  0.00     0.000 A 
ENDROOT
TORSDOF 0
ENDMDL
