MODEL 1
REMARK minimizedAffinity 8.73319817
REMARK minimizedRMSD -1
REMARK  0 active torsions:
REMARK  status: ('A' for Active; 'I' for Inactive)
ROOT
ATOM      1  C1  BNZ d   1      -3.533   2.365  -5.999  0.00  0.00     0.000 A 
ATOM      2  C2  BNZ d   1      -3.026   3.638  -5.988  0.00  0.00     0.000 A 
ATOM      3  C3  BNZ d   1      -3.858   4.722  -5.957  0.00  0.00     0.000 A 
ATOM      4  C4  BNZ d   1      -5.194   4.533  -5.978  0.00  0.00     0.000 A 
ATOM      5  C5  BNZ d   1      -5.720   3.257  -5.998  0.00  0.00     0.000 A 
ATOM      6  C6  BNZ d   1      -4.879   2.167  -5.990  0.00  0.00     0.000 A 
ENDROOT
TORSDOF 0
ENDMDL
