MODEL 1
REMARK minimizedAffinity 8.24327183
REMARK minimizedRMSD -1
REMARK  0 active torsions:
REMARK  status: ('A' for Active; 'I' for Inactive)
ROOT
ATOM      1  C1  BNZ d   1       2.190   0.486  -2.060  0.00  0.00     0.000 A 
ATOM      2  C2  BNZ d   1       1.280  -0.444  -2.488  0.00  0.00     0.000 A 
ATOM      3  C3  BNZ d   1       1.187  -1.664  -1.879  0.00  0.00     0.000 A 
ATOM      4  C4  BNZ d   1       2.030  -1.968  -0.870  0.00  0.00     0.000 A 
ATOM      5  C5  BNZ d   1       2.959  -1.045  -0.434  0.00  0.00     0.000 A 
ATOM      6  C6  BNZ d   1       3.023   0.197  -1.024  0.00  0.00     0.000 A 
ENDROOT
TORSDOF 0
ENDMDL
