MODEL 1
REMARK minimizedAffinity -2.32423759
REMARK minimizedRMSD -1
REMARK  0 active torsions:
REMARK  status: ('A' for Active; 'I' for Inactive)
ROOT
ATOM      1  C1  BNZ d   1      -1.860  -5.254  -3.403  0.00  0.00     0.000 A 
ATOM      2  C2  BNZ d   1      -1.209  -6.000  -4.349  0.00  0.00     0.000 A 
ATOM      3  C3  BNZ d   1      -1.622  -5.994  -5.652  0.00  0.00     0.000 A 
ATOM      4  C4  BNZ d   1      -2.709  -5.276  -5.999  0.00  0.00     0.000 A 
ATOM      5  C5  BNZ d   1      -3.382  -4.526  -5.055  0.00  0.00     0.000 A 
ATOM      6  C6  BNZ d   1      -2.940  -4.503  -3.753  0.00  0.00     0.000 A 
ENDROOT
TORSDOF 0
ENDMDL
