MODEL 1
REMARK minimizedAffinity 4.91043091
REMARK minimizedRMSD -1
REMARK  0 active torsions:
REMARK  status: ('A' for Active; 'I' for Inactive)
ROOT
ATOM      1  C1  BNZ d   1      -2.352  -4.121  -4.552  0.00  0.00     0.000 A 
ATOM      2  C2  BNZ d   1      -1.610  -5.158  -5.051  0.00  0.00     0.000 A 
ATOM      3  C3  BNZ d   1      -0.708  -5.816  -4.263  0.00  0.00     0.000 A 
ATOM      4  C4  BNZ d   1      -0.521  -5.412  -2.990  0.00  0.00     0.000 A 
ATOM      5  C5  BNZ d   1      -1.255  -4.363  -2.474  0.00  0.00     0.000 A 
ATOM      6  C6  BNZ d   1      -2.190  -3.727  -3.259  0.00  0.00     0.000 A 
ENDROOT
TORSDOF 0
ENDMDL
