MODEL 1
REMARK minimizedAffinity 0.631133318
REMARK minimizedRMSD -1
REMARK  0 active torsions:
REMARK  status: ('A' for Active; 'I' for Inactive)
ROOT
ATOM      1  C1  BNZ d   1      -2.455  -3.736  -3.600  0.00  0.00     0.000 A 
ATOM      2  C2  BNZ d   1      -1.094  -3.754  -3.455  0.00  0.00     0.000 A 
ATOM      3  C3  BNZ d   1      -0.375  -4.882  -3.739  0.00  0.00     0.000 A 
ATOM      4  C4  BNZ d   1      -1.022  -6.000  -4.128  0.00  0.00     0.000 A 
ATOM      5  C5  BNZ d   1      -2.395  -6.000  -4.269  0.00  0.00     0.000 A 
ATOM      6  C6  BNZ d   1      -3.111  -4.851  -4.020  0.00  0.00     0.000 A 
ENDROOT
TORSDOF 0
ENDMDL
