MODEL 1
REMARK minimizedAffinity -2.8915267
REMARK minimizedRMSD -1
REMARK  0 active torsions:
REMARK  status: ('A' for Active; 'I' for Inactive)
ROOT
ATOM      1  C1  BNZ d   1      -2.983  -3.637  -4.528  0.00  0.00     0.000 A 
ATOM      2  C2  BNZ d   1      -1.695  -3.678  -4.067  0.00  0.00     0.000 A 
ATOM      3  C3  BNZ d   1      -1.007  -4.858  -4.017  0.00  0.00     0.000 A 
ATOM      4  C4  BNZ d   1      -1.620  -6.000  -4.389  0.00  0.00     0.000 A 
ATOM      5  C5  BNZ d   1      -2.922  -5.976  -4.848  0.00  0.00     0.000 A 
ATOM      6  C6  BNZ d   1      -3.599  -4.781  -4.934  0.00  0.00     0.000 A 
ENDROOT
TORSDOF 0
ENDMDL
