MODEL 1
REMARK minimizedAffinity 4.37318134
REMARK minimizedRMSD -1
REMARK  0 active torsions:
REMARK  status: ('A' for Active; 'I' for Inactive)
ROOT
ATOM      1  C1  BNZ d   1       1.191  -0.945  -2.566  0.00  0.00     0.000 A 
ATOM      2  C2  BNZ d   1       1.982  -0.508  -1.537  0.00  0.00     0.000 A 
ATOM      3  C3  BNZ d   1       2.195  -1.290  -0.437  0.00  0.00     0.000 A 
ATOM      4  C4  BNZ d   1       1.587  -2.491  -0.349  0.00  0.00     0.000 A 
ATOM      5  C5  BNZ d   1       0.780  -2.942  -1.374  0.00  0.00     0.000 A 
ATOM      6  C6  BNZ d   1       0.599  -2.168  -2.497  0.00  0.00     0.000 A 
ENDROOT
TORSDOF 0
ENDMDL
