MODEL 1
REMARK minimizedAffinity 6.41594601
REMARK minimizedRMSD -1
REMARK  0 active torsions:
REMARK  status: ('A' for Active; 'I' for Inactive)
ROOT
ATOM      1  C1  BNZ d   1      -4.844   5.991  -5.984  0.00  0.00     0.000 A 
ATOM      2  C2  BNZ d   1      -3.474   5.966  -5.974  0.00  0.00     0.000 A 
ATOM      3  C3  BNZ d   1      -2.796   4.779  -5.984  0.00  0.00     0.000 A 
ATOM      4  C4  BNZ d   1      -3.486   3.621  -5.963  0.00  0.00     0.000 A 
ATOM      5  C5  BNZ d   1      -4.866   3.629  -5.963  0.00  0.00     0.000 A 
ATOM      6  C6  BNZ d   1      -5.546   4.825  -5.993  0.00  0.00     0.000 A 
ENDROOT
TORSDOF 0
ENDMDL
