MODEL 1
REMARK minimizedAffinity 9.73971176
REMARK minimizedRMSD -1
REMARK  0 active torsions:
REMARK  status: ('A' for Active; 'I' for Inactive)
ROOT
ATOM      1  C1  BNZ d   1      -3.404  -1.011   4.285  0.00  0.00     0.000 A 
ATOM      2  C2  BNZ d   1      -3.601  -0.608   2.991  0.00  0.00     0.000 A 
ATOM      3  C3  BNZ d   1      -3.787   0.712   2.689  0.00  0.00     0.000 A 
ATOM      4  C4  BNZ d   1      -3.815   1.621   3.684  0.00  0.00     0.000 A 
ATOM      5  C5  BNZ d   1      -3.628   1.230   4.995  0.00  0.00     0.000 A 
ATOM      6  C6  BNZ d   1      -3.402  -0.095   5.291  0.00  0.00     0.000 A 
ENDROOT
TORSDOF 0
ENDMDL
