MODEL 1
REMARK minimizedAffinity 0.0412174612
REMARK minimizedRMSD -1
REMARK  2 active torsions:
REMARK  status: ('A' for Active; 'I' for Inactive)
REMARK    1  A    between atoms: C1_2  and  C2_3 
REMARK    2  A    between atoms: C2_3  and  C3_4 
ROOT
ATOM      1  C3  UNL d   1       0.315  -1.260   2.328  0.00  0.00    -0.075 A 
ATOM      2  C4  UNL d   1       0.616  -0.762   1.053  0.00  0.00     0.002 A 
ATOM      3  C5  UNL d   1       1.658  -1.312   0.305  0.00  0.00     0.002 A 
ATOM      4  C6  UNL d   1       2.417  -2.357   0.826  0.00  0.00    -0.004 A 
ATOM      5  C7  UNL d   1       2.137  -2.849   2.099  0.00  0.00     0.002 A 
ATOM      6  C8  UNL d   1       1.092  -2.304   2.848  0.00  0.00     0.002 A 
ENDROOT
BRANCH   1   7
ATOM      7  C2  UNL d   1      -0.830  -0.690   3.130  0.00  0.00     0.056 C 
BRANCH   7   8
ATOM      8  C1  UNL d   1      -1.717   0.283   2.345  0.00  0.00     0.007 C 
ATOM      9  C   UNL d   1      -2.838   0.884   3.184  0.00  0.00     0.009 C 
ENDBRANCH   7   8
ENDBRANCH   1   7
TORSDOF 2
ENDMDL
