MODEL 1
REMARK minimizedAffinity -2.41105819
REMARK minimizedRMSD -1
REMARK  2 active torsions:
REMARK  status: ('A' for Active; 'I' for Inactive)
REMARK    1  A    between atoms: C1_2  and  C2_3 
REMARK    2  A    between atoms: C2_3  and  C3_4 
ROOT
ATOM      1  C3  UNL d   1       1.792  -3.340   2.625  0.00  0.00    -0.075 A 
ATOM      2  C4  UNL d   1       1.598  -1.951   2.650  0.00  0.00     0.002 A 
ATOM      3  C5  UNL d   1       0.364  -1.415   3.022  0.00  0.00     0.002 A 
ATOM      4  C6  UNL d   1      -0.691  -2.259   3.363  0.00  0.00    -0.004 A 
ATOM      5  C7  UNL d   1      -0.514  -3.640   3.325  0.00  0.00     0.002 A 
ATOM      6  C8  UNL d   1       0.720  -4.179   2.957  0.00  0.00     0.002 A 
ENDROOT
BRANCH   1   7
ATOM      7  C2  UNL d   1       3.133  -3.926   2.252  0.00  0.00     0.056 C 
BRANCH   7   8
ATOM      8  C1  UNL d   1       3.743  -4.825   3.332  0.00  0.00     0.007 C 
ATOM      9  C   UNL d   1       4.703  -4.088   4.255  0.00  0.00     0.009 C 
ENDBRANCH   7   8
ENDBRANCH   1   7
TORSDOF 2
ENDMDL
