MODEL 1
REMARK minimizedAffinity 2.69567442
REMARK minimizedRMSD -1
REMARK  2 active torsions:
REMARK  status: ('A' for Active; 'I' for Inactive)
REMARK    1  A    between atoms: C1_2  and  C2_3 
REMARK    2  A    between atoms: C2_3  and  C3_4 
ROOT
ATOM      1  C3  UNL d   1       0.642  -2.132   2.377  0.00  0.00    -0.075 A 
ATOM      2  C4  UNL d   1       0.004  -3.364   2.581  0.00  0.00     0.002 A 
ATOM      3  C5  UNL d   1       0.609  -4.552   2.169  0.00  0.00     0.002 A 
ATOM      4  C6  UNL d   1       1.852  -4.523   1.540  0.00  0.00    -0.004 A 
ATOM      5  C7  UNL d   1       2.488  -3.303   1.318  0.00  0.00     0.002 A 
ATOM      6  C8  UNL d   1       1.887  -2.113   1.733  0.00  0.00     0.002 A 
ENDROOT
BRANCH   1   7
ATOM      7  C2  UNL d   1       0.006  -0.846   2.847  0.00  0.00     0.056 C 
BRANCH   7   8
ATOM      8  C1  UNL d   1      -1.451  -0.998   3.295  0.00  0.00     0.007 C 
ATOM      9  C   UNL d   1      -2.270   0.274   3.115  0.00  0.00     0.009 C 
ENDBRANCH   7   8
ENDBRANCH   1   7
TORSDOF 2
ENDMDL
