MODEL 1
REMARK minimizedAffinity -1.26367533
REMARK minimizedRMSD -1
REMARK  2 active torsions:
REMARK  status: ('A' for Active; 'I' for Inactive)
REMARK    1  A    between atoms: C1_2  and  C2_3 
REMARK    2  A    between atoms: C2_3  and  C3_4 
ROOT
ATOM      1  C3  UNL d   1       3.356   5.112  -5.849  0.00  0.00    -0.075 A 
ATOM      2  C4  UNL d   1       4.435   5.997  -5.993  0.00  0.00     0.002 A 
ATOM      3  C5  UNL d   1       5.747   5.538  -5.882  0.00  0.00     0.002 A 
ATOM      4  C6  UNL d   1       5.998   4.194  -5.617  0.00  0.00    -0.004 A 
ATOM      5  C7  UNL d   1       4.935   3.309  -5.455  0.00  0.00     0.002 A 
ATOM      6  C8  UNL d   1       3.620   3.765  -5.570  0.00  0.00     0.002 A 
ENDROOT
BRANCH   1   7
ATOM      7  C2  UNL d   1       1.934   5.597  -5.996  0.00  0.00     0.056 C 
BRANCH   7   8
ATOM      8  C1  UNL d   1       0.880   4.497  -5.834  0.00  0.00     0.007 C 
ATOM      9  C   UNL d   1       0.390   4.342  -4.400  0.00  0.00     0.009 C 
ENDBRANCH   7   8
ENDBRANCH   1   7
TORSDOF 2
ENDMDL
