MODEL 1
REMARK minimizedAffinity 9.83801937
REMARK minimizedRMSD -1
REMARK  2 active torsions:
REMARK  status: ('A' for Active; 'I' for Inactive)
REMARK    1  A    between atoms: C1_2  and  C2_3 
REMARK    2  A    between atoms: C2_3  and  C3_4 
ROOT
ATOM      1  C3  UNL d   1      -2.794   2.611   4.175  0.00  0.00    -0.075 A 
ATOM      2  C4  UNL d   1      -4.145   2.987   4.195  0.00  0.00     0.002 A 
ATOM      3  C5  UNL d   1      -4.600   3.948   5.099  0.00  0.00     0.002 A 
ATOM      4  C6  UNL d   1      -3.715   4.536   5.999  0.00  0.00    -0.004 A 
ATOM      5  C7  UNL d   1      -2.374   4.159   6.000  0.00  0.00     0.002 A 
ATOM      6  C8  UNL d   1      -1.915   3.201   5.094  0.00  0.00     0.002 A 
ENDROOT
BRANCH   1   7
ATOM      7  C2  UNL d   1      -2.289   1.594   3.180  0.00  0.00     0.056 C 
BRANCH   7   8
ATOM      8  C1  UNL d   1      -0.829   1.183   3.394  0.00  0.00     0.007 C 
ATOM      9  C   UNL d   1      -0.516  -0.214   2.876  0.00  0.00     0.009 C 
ENDBRANCH   7   8
ENDBRANCH   1   7
TORSDOF 2
ENDMDL
