MODEL 1
REMARK minimizedAffinity 6.26505423
REMARK minimizedRMSD -1
REMARK  2 active torsions:
REMARK  status: ('A' for Active; 'I' for Inactive)
REMARK    1  A    between atoms: C1_2  and  C2_3 
REMARK    2  A    between atoms: C2_3  and  C3_4 
ROOT
ATOM      1  C3  UNL d   1      -1.092   3.669  -4.119  0.00  0.00    -0.075 A 
ATOM      2  C4  UNL d   1      -2.120   4.519  -4.552  0.00  0.00     0.002 A 
ATOM      3  C5  UNL d   1      -3.447   4.253  -4.217  0.00  0.00     0.002 A 
ATOM      4  C6  UNL d   1      -3.765   3.131  -3.455  0.00  0.00    -0.004 A 
ATOM      5  C7  UNL d   1      -2.754   2.271  -3.032  0.00  0.00     0.002 A 
ATOM      6  C8  UNL d   1      -1.424   2.537  -3.363  0.00  0.00     0.002 A 
ENDROOT
BRANCH   1   7
ATOM      7  C2  UNL d   1       0.350   3.967  -4.454  0.00  0.00     0.056 C 
BRANCH   7   8
ATOM      8  C1  UNL d   1       0.540   4.734  -5.767  0.00  0.00     0.007 C 
ATOM      9  C   UNL d   1       1.977   5.181  -5.998  0.00  0.00     0.009 C 
ENDBRANCH   7   8
ENDBRANCH   1   7
TORSDOF 2
ENDMDL
