MODEL 1
REMARK minimizedAffinity 12.0971212
REMARK minimizedRMSD -1
REMARK  2 active torsions:
REMARK  status: ('A' for Active; 'I' for Inactive)
REMARK    1  A    between atoms: C1_2  and  C2_3 
REMARK    2  A    between atoms: C2_3  and  C3_4 
ROOT
ATOM      1  C3  UNL d   1      -1.041  -0.307   2.915  0.00  0.00    -0.075 A 
ATOM      2  C4  UNL d   1       0.323   0.013   2.973  0.00  0.00     0.002 A 
ATOM      3  C5  UNL d   1       1.265  -0.780   2.319  0.00  0.00     0.002 A 
ATOM      4  C6  UNL d   1       0.858  -1.907   1.609  0.00  0.00    -0.004 A 
ATOM      5  C7  UNL d   1      -0.492  -2.244   1.558  0.00  0.00     0.002 A 
ATOM      6  C8  UNL d   1      -1.438  -1.450   2.208  0.00  0.00     0.002 A 
ENDROOT
BRANCH   1   7
ATOM      7  C2  UNL d   1      -2.069   0.564   3.597  0.00  0.00     0.056 C 
BRANCH   7   8
ATOM      8  C1  UNL d   1      -3.199   1.034   2.674  0.00  0.00     0.007 C 
ATOM      9  C   UNL d   1      -4.252   1.869   3.391  0.00  0.00     0.009 C 
ENDBRANCH   7   8
ENDBRANCH   1   7
TORSDOF 2
ENDMDL
