MODEL 1
REMARK minimizedAffinity -4.8487606
REMARK minimizedRMSD -1
REMARK  1 active torsions:
REMARK  status: ('A' for Active; 'I' for Inactive)
REMARK    1  A    between atoms: N_2  and  C1_3 
ROOT
ATOM      1  C1  UNL d   1       0.682  -0.176  -0.005  0.00  0.00     0.143 A 
ATOM      2  C2  UNL d   1       2.040  -0.475  -0.154  0.00  0.00    -0.057 A 
ATOM      3  C3  UNL d   1       2.589  -1.647   0.379  0.00  0.00     0.033 A 
ATOM      4  C4  UNL d   1       1.791  -2.530   1.099  0.00  0.00    -0.042 A 
ATOM      5  C5  UNL d   1       0.444  -2.242   1.281  0.00  0.00     0.033 A 
ATOM      6  C6  UNL d   1      -0.100  -1.073   0.740  0.00  0.00    -0.057 A 
ENDROOT
BRANCH   1   7
ATOM      7  N   UNL d   1       0.097   1.021  -0.428  0.00  0.00    -0.732 N 
ATOM      8  C   UNL d   1      -1.073   1.009  -1.278  0.00  0.00     0.284 C 
ATOM      9  H3  UNL d   1       0.068   1.720   0.311  0.00  0.00     0.395 HD
ENDBRANCH   1   7
TORSDOF 1
ENDMDL
