MODEL 1
REMARK minimizedAffinity -2.97281456
REMARK minimizedRMSD -1
REMARK  1 active torsions:
REMARK  status: ('A' for Active; 'I' for Inactive)
REMARK    1  A    between atoms: N_2  and  C1_3 
ROOT
ATOM      1  C1  UNL d   1       0.435   0.311   0.481  0.00  0.00     0.143 A 
ATOM      2  C2  UNL d   1       1.813   0.274   0.246  0.00  0.00    -0.057 A 
ATOM      3  C3  UNL d   1       2.563  -0.879   0.508  0.00  0.00     0.033 A 
ATOM      4  C4  UNL d   1       1.951  -2.009   1.039  0.00  0.00    -0.042 A 
ATOM      5  C5  UNL d   1       0.586  -1.986   1.305  0.00  0.00     0.033 A 
ATOM      6  C6  UNL d   1      -0.159  -0.834   1.035  0.00  0.00    -0.057 A 
ENDROOT
BRANCH   1   7
ATOM      7  N   UNL d   1      -0.349   1.459   0.334  0.00  0.00    -0.732 N 
ATOM      8  C   UNL d   1      -0.970   1.769  -0.935  0.00  0.00     0.284 C 
ATOM      9  H3  UNL d   1      -0.944   1.628   1.142  0.00  0.00     0.395 HD
ENDBRANCH   1   7
TORSDOF 1
ENDMDL
