MODEL 1
REMARK minimizedAffinity -4.66750002
REMARK minimizedRMSD -1
REMARK  1 active torsions:
REMARK  status: ('A' for Active; 'I' for Inactive)
REMARK    1  A    between atoms: N_2  and  C1_3 
ROOT
ATOM      1  C1  UNL d   1       0.383  -0.193   0.033  0.00  0.00     0.143 A 
ATOM      2  C2  UNL d   1      -0.214  -1.399   0.417  0.00  0.00    -0.057 A 
ATOM      3  C3  UNL d   1       0.558  -2.529   0.714  0.00  0.00     0.033 A 
ATOM      4  C4  UNL d   1       1.944  -2.481   0.604  0.00  0.00    -0.042 A 
ATOM      5  C5  UNL d   1       2.557  -1.300   0.200  0.00  0.00     0.033 A 
ATOM      6  C6  UNL d   1       1.781  -0.173  -0.089  0.00  0.00    -0.057 A 
ENDROOT
BRANCH   1   7
ATOM      7  N   UNL d   1      -0.334   0.936  -0.370  0.00  0.00    -0.732 N 
ATOM      8  C   UNL d   1      -1.045   0.946  -1.631  0.00  0.00     0.284 C 
ATOM      9  H3  UNL d   1      -0.843   1.367   0.397  0.00  0.00     0.395 HD
ENDBRANCH   1   7
TORSDOF 1
ENDMDL
