MODEL 1
REMARK minimizedAffinity -2.5267458
REMARK minimizedRMSD -1
REMARK  1 active torsions:
REMARK  status: ('A' for Active; 'I' for Inactive)
REMARK    1  A    between atoms: N_2  and  C1_3 
ROOT
ATOM      1  C1  UNL d   1      -1.085   0.705  -1.163  0.00  0.00     0.143 A 
ATOM      2  C2  UNL d   1      -2.469   0.883  -1.264  0.00  0.00    -0.057 A 
ATOM      3  C3  UNL d   1      -3.075   1.179  -2.491  0.00  0.00     0.033 A 
ATOM      4  C4  UNL d   1      -2.301   1.330  -3.637  0.00  0.00    -0.042 A 
ATOM      5  C5  UNL d   1      -0.921   1.182  -3.555  0.00  0.00     0.033 A 
ATOM      6  C6  UNL d   1      -0.323   0.880  -2.328  0.00  0.00    -0.057 A 
ENDROOT
BRANCH   1   7
ATOM      7  N   UNL d   1      -0.413   0.508   0.046  0.00  0.00    -0.732 N 
ATOM      8  C   UNL d   1       0.809  -0.267   0.092  0.00  0.00     0.284 C 
ATOM      9  H3  UNL d   1      -0.396   1.346   0.622  0.00  0.00     0.395 HD
ENDBRANCH   1   7
TORSDOF 1
ENDMDL
