MODEL 1
REMARK minimizedAffinity -3.45372772
REMARK minimizedRMSD -1
REMARK  1 active torsions:
REMARK  status: ('A' for Active; 'I' for Inactive)
REMARK    1  A    between atoms: N_2  and  C1_3 
ROOT
ATOM      1  C1  UNL d   1       0.610   0.092   0.148  0.00  0.00     0.143 A 
ATOM      2  C2  UNL d   1       1.996   0.233   0.269  0.00  0.00    -0.057 A 
ATOM      3  C3  UNL d   1       2.808  -0.851   0.623  0.00  0.00     0.033 A 
ATOM      4  C4  UNL d   1       2.243  -2.093   0.892  0.00  0.00    -0.042 A 
ATOM      5  C5  UNL d   1       0.864  -2.251   0.802  0.00  0.00     0.033 A 
ATOM      6  C6  UNL d   1       0.059  -1.166   0.442  0.00  0.00    -0.057 A 
ENDROOT
BRANCH   1   7
ATOM      7  N   UNL d   1      -0.261   1.154  -0.104  0.00  0.00    -0.732 N 
ATOM      8  C   UNL d   1      -0.920   1.279  -1.386  0.00  0.00     0.284 C 
ATOM      9  H3  UNL d   1      -0.859   1.364   0.692  0.00  0.00     0.395 HD
ENDBRANCH   1   7
TORSDOF 1
ENDMDL
