MODEL 1
REMARK minimizedAffinity -2.23320031
REMARK minimizedRMSD -1
REMARK  1 active torsions:
REMARK  status: ('A' for Active; 'I' for Inactive)
REMARK    1  A    between atoms: N_2  and  C1_3 
ROOT
ATOM      1  C1  UNL d   1       2.327  -0.778   1.011  0.00  0.00     0.143 A 
ATOM      2  C2  UNL d   1       1.020  -0.298   0.880  0.00  0.00    -0.057 A 
ATOM      3  C3  UNL d   1       0.412  -0.179  -0.376  0.00  0.00     0.033 A 
ATOM      4  C4  UNL d   1       1.115  -0.513  -1.529  0.00  0.00    -0.042 A 
ATOM      5  C5  UNL d   1       2.424  -0.969  -1.425  0.00  0.00     0.033 A 
ATOM      6  C6  UNL d   1       3.022  -1.092  -0.167  0.00  0.00    -0.057 A 
ENDROOT
BRANCH   1   7
ATOM      7  N   UNL d   1       3.020  -0.826   2.223  0.00  0.00    -0.732 N 
ATOM      8  C   UNL d   1       4.206  -0.022   2.426  0.00  0.00     0.284 C 
ATOM      9  H3  UNL d   1       2.396  -0.857   3.026  0.00  0.00     0.395 HD
ENDBRANCH   1   7
TORSDOF 1
ENDMDL
