MODEL 1
REMARK minimizedAffinity -3.57967472
REMARK minimizedRMSD -1
REMARK  1 active torsions:
REMARK  status: ('A' for Active; 'I' for Inactive)
REMARK    1  A    between atoms: N_2  and  C1_3 
ROOT
ATOM      1  C1  UNL d   1       0.374  -0.060  -0.309  0.00  0.00     0.143 A 
ATOM      2  C2  UNL d   1       1.745   0.136  -0.508  0.00  0.00    -0.057 A 
ATOM      3  C3  UNL d   1       2.691  -0.747   0.027  0.00  0.00     0.033 A 
ATOM      4  C4  UNL d   1       2.282  -1.830   0.798  0.00  0.00    -0.042 A 
ATOM      5  C5  UNL d   1       0.926  -2.031   1.030  0.00  0.00     0.033 A 
ATOM      6  C6  UNL d   1      -0.014  -1.149   0.488  0.00  0.00    -0.057 A 
ENDROOT
BRANCH   1   7
ATOM      7  N   UNL d   1      -0.610   0.836  -0.731  0.00  0.00    -0.732 N 
ATOM      8  C   UNL d   1      -1.450   0.527  -1.868  0.00  0.00     0.284 C 
ATOM      9  H3  UNL d   1      -1.106   1.265   0.048  0.00  0.00     0.395 HD
ENDBRANCH   1   7
TORSDOF 1
ENDMDL
