MODEL 1
REMARK minimizedAffinity -4.95604515
REMARK minimizedRMSD -1
REMARK  1 active torsions:
REMARK  status: ('A' for Active; 'I' for Inactive)
REMARK    1  A    between atoms: N_2  and  C1_3 
ROOT
ATOM      1  C1  UNL d   1       0.141  -0.202   0.031  0.00  0.00     0.143 A 
ATOM      2  C2  UNL d   1      -0.596  -1.100   0.810  0.00  0.00    -0.057 A 
ATOM      3  C3  UNL d   1       0.016  -2.199   1.426  0.00  0.00     0.033 A 
ATOM      4  C4  UNL d   1       1.375  -2.435   1.247  0.00  0.00    -0.042 A 
ATOM      5  C5  UNL d   1       2.122  -1.569   0.457  0.00  0.00     0.033 A 
ATOM      6  C6  UNL d   1       1.507  -0.470  -0.150  0.00  0.00    -0.057 A 
ENDROOT
BRANCH   1   7
ATOM      7  N   UNL d   1      -0.428   0.853  -0.687  0.00  0.00    -0.732 N 
ATOM      8  C   UNL d   1      -1.646   0.658  -1.444  0.00  0.00     0.284 C 
ATOM      9  H3  UNL d   1      -0.392   1.734  -0.178  0.00  0.00     0.395 HD
ENDBRANCH   1   7
TORSDOF 1
ENDMDL
