MODEL 1
REMARK minimizedAffinity -4.35818624
REMARK minimizedRMSD -1
REMARK  1 active torsions:
REMARK  status: ('A' for Active; 'I' for Inactive)
REMARK    1  A    between atoms: N_2  and  C1_3 
ROOT
ATOM      1  C1  UNL d   1       0.323  -0.079   0.266  0.00  0.00     0.143 A 
ATOM      2  C2  UNL d   1      -0.206  -1.251   0.817  0.00  0.00    -0.057 A 
ATOM      3  C3  UNL d   1       0.587  -2.391   0.996  0.00  0.00     0.033 A 
ATOM      4  C4  UNL d   1       1.920  -2.388   0.599  0.00  0.00    -0.042 A 
ATOM      5  C5  UNL d   1       2.460  -1.243   0.025  0.00  0.00     0.033 A 
ATOM      6  C6  UNL d   1       1.665  -0.105  -0.145  0.00  0.00    -0.057 A 
ENDROOT
BRANCH   1   7
ATOM      7  N   UNL d   1      -0.439   1.054  -0.029  0.00  0.00    -0.732 N 
ATOM      8  C   UNL d   1      -1.110   1.180  -1.304  0.00  0.00     0.284 C 
ATOM      9  H3  UNL d   1      -0.993   1.367   0.766  0.00  0.00     0.395 HD
ENDBRANCH   1   7
TORSDOF 1
ENDMDL
