MODEL 1
REMARK minimizedAffinity -2.91697431
REMARK minimizedRMSD -1
REMARK  1 active torsions:
REMARK  status: ('A' for Active; 'I' for Inactive)
REMARK    1  A    between atoms: N_2  and  C1_3 
ROOT
ATOM      1  C1  UNL d   1       0.737   0.251  -0.131  0.00  0.00     0.143 A 
ATOM      2  C2  UNL d   1       1.862   0.665   0.591  0.00  0.00    -0.057 A 
ATOM      3  C3  UNL d   1       2.937  -0.202   0.821  0.00  0.00     0.033 A 
ATOM      4  C4  UNL d   1       2.893  -1.512   0.357  0.00  0.00    -0.042 A 
ATOM      5  C5  UNL d   1       1.774  -1.953  -0.341  0.00  0.00     0.033 A 
ATOM      6  C6  UNL d   1       0.707  -1.081  -0.573  0.00  0.00    -0.057 A 
ENDROOT
BRANCH   1   7
ATOM      7  N   UNL d   1      -0.405   1.035  -0.308  0.00  0.00    -0.732 N 
ATOM      8  C   UNL d   1      -0.755   1.543  -1.617  0.00  0.00     0.284 C 
ATOM      9  H3  UNL d   1      -1.198   0.693   0.230  0.00  0.00     0.395 HD
ENDBRANCH   1   7
TORSDOF 1
ENDMDL
