MODEL 1
REMARK minimizedAffinity -5.2068572
REMARK minimizedRMSD -1
REMARK  1 active torsions:
REMARK  status: ('A' for Active; 'I' for Inactive)
REMARK    1  A    between atoms: N_2  and  C1_3 
ROOT
ATOM      1  C1  UNL d   1       1.082  -0.475   0.371  0.00  0.00     0.143 A 
ATOM      2  C2  UNL d   1       2.361  -1.039   0.438  0.00  0.00    -0.057 A 
ATOM      3  C3  UNL d   1       2.632  -2.125   1.278  0.00  0.00     0.033 A 
ATOM      4  C4  UNL d   1       1.634  -2.650   2.092  0.00  0.00    -0.042 A 
ATOM      5  C5  UNL d   1       0.362  -2.089   2.061  0.00  0.00     0.033 A 
ATOM      6  C6  UNL d   1       0.095  -1.009   1.214  0.00  0.00    -0.057 A 
ENDROOT
BRANCH   1   7
ATOM      7  N   UNL d   1       0.773   0.668  -0.371  0.00  0.00    -0.732 N 
ATOM      8  C   UNL d   1      -0.297   1.549   0.044  0.00  0.00     0.284 C 
ATOM      9  H3  UNL d   1       1.605   1.151  -0.703  0.00  0.00     0.395 HD
ENDBRANCH   1   7
TORSDOF 1
ENDMDL
