MODEL 1
REMARK minimizedAffinity -5.18988514
REMARK minimizedRMSD -1
REMARK  1 active torsions:
REMARK  status: ('A' for Active; 'I' for Inactive)
REMARK    1  A    between atoms: N_2  and  C1_3 
ROOT
ATOM      1  C1  UNL d   1       0.037   0.282   0.513  0.00  0.00     0.143 A 
ATOM      2  C2  UNL d   1       1.315  -0.081   0.072  0.00  0.00    -0.057 A 
ATOM      3  C3  UNL d   1       2.037  -1.102   0.701  0.00  0.00     0.033 A 
ATOM      4  C4  UNL d   1       1.504  -1.761   1.805  0.00  0.00    -0.042 A 
ATOM      5  C5  UNL d   1       0.247  -1.400   2.275  0.00  0.00     0.033 A 
ATOM      6  C6  UNL d   1      -0.472  -0.384   1.638  0.00  0.00    -0.057 A 
ENDROOT
BRANCH   1   7
ATOM      7  N   UNL d   1      -0.690   1.355  -0.009  0.00  0.00    -0.732 N 
ATOM      8  C   UNL d   1      -0.898   1.480  -1.435  0.00  0.00     0.284 C 
ATOM      9  H3  UNL d   1      -1.509   1.578   0.552  0.00  0.00     0.395 HD
ENDBRANCH   1   7
TORSDOF 1
ENDMDL
