MODEL 1
REMARK minimizedAffinity -1.9869262
REMARK minimizedRMSD -1
REMARK  1 active torsions:
REMARK  status: ('A' for Active; 'I' for Inactive)
REMARK    1  A    between atoms: N_2  and  C1_3 
ROOT
ATOM      1  C1  UNL d   1       1.019  -0.509   0.494  0.00  0.00     0.143 A 
ATOM      2  C2  UNL d   1       0.539   0.488  -0.363  0.00  0.00    -0.057 A 
ATOM      3  C3  UNL d   1      -0.659   1.161  -0.095  0.00  0.00     0.033 A 
ATOM      4  C4  UNL d   1      -1.415   0.829   1.024  0.00  0.00    -0.042 A 
ATOM      5  C5  UNL d   1      -0.971  -0.175   1.876  0.00  0.00     0.033 A 
ATOM      6  C6  UNL d   1       0.230  -0.840   1.607  0.00  0.00    -0.057 A 
ENDROOT
BRANCH   1   7
ATOM      7  N   UNL d   1       2.151  -1.283   0.230  0.00  0.00    -0.732 N 
ATOM      8  C   UNL d   1       2.224  -2.658   0.673  0.00  0.00     0.284 C 
ATOM      9  H3  UNL d   1       2.518  -1.128  -0.706  0.00  0.00     0.395 HD
ENDBRANCH   1   7
TORSDOF 1
ENDMDL
