MODEL 1
REMARK minimizedAffinity -5.3924365
REMARK minimizedRMSD -1
REMARK  1 active torsions:
REMARK  status: ('A' for Active; 'I' for Inactive)
REMARK    1  A    between atoms: N_2  and  C1_3 
ROOT
ATOM      1  C1  UNL d   1       0.489   0.003  -0.124  0.00  0.00     0.143 A 
ATOM      2  C2  UNL d   1       1.861  -0.074   0.143  0.00  0.00    -0.057 A 
ATOM      3  C3  UNL d   1       2.435  -1.240   0.662  0.00  0.00     0.033 A 
ATOM      4  C4  UNL d   1       1.641  -2.345   0.951  0.00  0.00    -0.042 A 
ATOM      5  C5  UNL d   1       0.272  -2.283   0.717  0.00  0.00     0.033 A 
ATOM      6  C6  UNL d   1      -0.295  -1.117   0.192  0.00  0.00    -0.057 A 
ENDROOT
BRANCH   1   7
ATOM      7  N   UNL d   1      -0.157   1.167  -0.548  0.00  0.00    -0.732 N 
ATOM      8  C   UNL d   1      -1.296   1.096  -1.437  0.00  0.00     0.284 C 
ATOM      9  H3  UNL d   1      -0.254   1.850   0.199  0.00  0.00     0.395 HD
ENDBRANCH   1   7
TORSDOF 1
ENDMDL
