MODEL 1
REMARK minimizedAffinity -1.54662728
REMARK minimizedRMSD -1
REMARK  0 active torsions:
REMARK  status: ('A' for Active; 'I' for Inactive)
ROOT
ATOM      1  C   UNL d   1       1.146   0.442  -2.719  0.00  0.00     0.078 C 
ATOM      2  C1  UNL d   1       0.513   0.057  -1.415  0.00  0.00    -0.077 A 
ATOM      3  C2  UNL d   1      -0.033   1.027  -0.564  0.00  0.00    -0.001 A 
ATOM      4  C3  UNL d   1      -0.610   0.655   0.651  0.00  0.00     0.003 A 
ATOM      5  C4  UNL d   1      -0.646  -0.686   1.027  0.00  0.00    -0.005 A 
ATOM      6  C5  UNL d   1      -0.103  -1.657   0.189  0.00  0.00     0.003 A 
ATOM      7  C6  UNL d   1       0.474  -1.288  -1.027  0.00  0.00    -0.001 A 
ENDROOT
TORSDOF 0
ENDMDL
