MODEL 1
REMARK minimizedAffinity -4.25039816
REMARK minimizedRMSD -1
REMARK  0 active torsions:
REMARK  status: ('A' for Active; 'I' for Inactive)
ROOT
ATOM      1  C   UNL d   1      -1.597   0.387   1.009  0.00  0.00     0.078 C 
ATOM      2  C1  UNL d   1      -0.503   0.375  -0.016  0.00  0.00    -0.077 A 
ATOM      3  C2  UNL d   1      -0.479  -0.586  -1.034  0.00  0.00    -0.001 A 
ATOM      4  C3  UNL d   1       0.551  -0.592  -1.976  0.00  0.00     0.003 A 
ATOM      5  C4  UNL d   1       1.565   0.361  -1.909  0.00  0.00    -0.005 A 
ATOM      6  C5  UNL d   1       1.551   1.321  -0.899  0.00  0.00     0.003 A 
ATOM      7  C6  UNL d   1       0.522   1.328   0.044  0.00  0.00    -0.001 A 
ENDROOT
TORSDOF 0
ENDMDL
