MODEL 1
REMARK minimizedAffinity -4.4884243
REMARK minimizedRMSD -1
REMARK  0 active torsions:
REMARK  status: ('A' for Active; 'I' for Inactive)
ROOT
ATOM      1  C   UNL d   1       1.133   1.253  -1.902  0.00  0.00     0.078 C 
ATOM      2  C1  UNL d   1       1.276  -0.240  -1.888  0.00  0.00    -0.077 A 
ATOM      3  C2  UNL d   1       0.320  -1.050  -1.265  0.00  0.00    -0.001 A 
ATOM      4  C3  UNL d   1       0.471  -2.438  -1.251  0.00  0.00     0.003 A 
ATOM      5  C4  UNL d   1       1.578  -3.027  -1.859  0.00  0.00    -0.005 A 
ATOM      6  C5  UNL d   1       2.536  -2.229  -2.480  0.00  0.00     0.003 A 
ATOM      7  C6  UNL d   1       2.387  -0.841  -2.495  0.00  0.00    -0.001 A 
ENDROOT
TORSDOF 0
ENDMDL
