MODEL 1
REMARK minimizedAffinity -2.29287314
REMARK minimizedRMSD -1
REMARK  0 active torsions:
REMARK  status: ('A' for Active; 'I' for Inactive)
ROOT
ATOM      1  C   UNL d   1       1.822   0.103  -2.276  0.00  0.00     0.078 C 
ATOM      2  C1  UNL d   1       0.852   0.157  -1.133  0.00  0.00    -0.077 A 
ATOM      3  C2  UNL d   1       0.214  -1.001  -0.673  0.00  0.00    -0.001 A 
ATOM      4  C3  UNL d   1      -0.694  -0.934   0.385  0.00  0.00     0.003 A 
ATOM      5  C4  UNL d   1      -0.972   0.290   0.991  0.00  0.00    -0.005 A 
ATOM      6  C5  UNL d   1      -0.344   1.448   0.539  0.00  0.00     0.003 A 
ATOM      7  C6  UNL d   1       0.564   1.383  -0.519  0.00  0.00    -0.001 A 
ENDROOT
TORSDOF 0
ENDMDL
