MODEL 1
REMARK minimizedAffinity -4.53664112
REMARK minimizedRMSD -1
REMARK  0 active torsions:
REMARK  status: ('A' for Active; 'I' for Inactive)
ROOT
ATOM      1  C   UNL d   1      -0.673  -1.084   1.150  0.00  0.00     0.078 C 
ATOM      2  C1  UNL d   1       0.065  -0.661  -0.085  0.00  0.00    -0.077 A 
ATOM      3  C2  UNL d   1       0.880   0.477  -0.085  0.00  0.00    -0.001 A 
ATOM      4  C3  UNL d   1       1.553   0.865  -1.244  0.00  0.00     0.003 A 
ATOM      5  C4  UNL d   1       1.417   0.120  -2.414  0.00  0.00    -0.005 A 
ATOM      6  C5  UNL d   1       0.606  -1.013  -2.425  0.00  0.00     0.003 A 
ATOM      7  C6  UNL d   1      -0.068  -1.402  -1.266  0.00  0.00    -0.001 A 
ENDROOT
TORSDOF 0
ENDMDL
