MODEL 1
REMARK minimizedAffinity -5.15623617
REMARK minimizedRMSD -1
REMARK  0 active torsions:
REMARK  status: ('A' for Active; 'I' for Inactive)
ROOT
ATOM      1  C   UNL d   1       1.065  -2.057  -2.260  0.00  0.00     0.078 C 
ATOM      2  C1  UNL d   1       1.035  -0.804  -1.436  0.00  0.00    -0.077 A 
ATOM      3  C2  UNL d   1       0.315  -0.748  -0.236  0.00  0.00    -0.001 A 
ATOM      4  C3  UNL d   1       0.288   0.428   0.516  0.00  0.00     0.003 A 
ATOM      5  C4  UNL d   1       0.977   1.556   0.076  0.00  0.00    -0.005 A 
ATOM      6  C5  UNL d   1       1.694   1.510  -1.118  0.00  0.00     0.003 A 
ATOM      7  C6  UNL d   1       1.722   0.335  -1.871  0.00  0.00    -0.001 A 
ENDROOT
TORSDOF 0
ENDMDL
