MODEL 1
REMARK minimizedAffinity -2.17818427
REMARK minimizedRMSD -1
REMARK  0 active torsions:
REMARK  status: ('A' for Active; 'I' for Inactive)
ROOT
ATOM      1  C   UNL d   1       1.840   0.306  -3.291  0.00  0.00     0.078 C 
ATOM      2  C1  UNL d   1       1.187   0.353  -1.942  0.00  0.00    -0.077 A 
ATOM      3  C2  UNL d   1       0.686   1.555  -1.426  0.00  0.00    -0.001 A 
ATOM      4  C3  UNL d   1       0.089   1.586  -0.165  0.00  0.00     0.003 A 
ATOM      5  C4  UNL d   1      -0.012   0.420   0.591  0.00  0.00    -0.005 A 
ATOM      6  C5  UNL d   1       0.485  -0.780   0.087  0.00  0.00     0.003 A 
ATOM      7  C6  UNL d   1       1.083  -0.813  -1.174  0.00  0.00    -0.001 A 
ENDROOT
TORSDOF 0
ENDMDL
