MODEL 1
REMARK minimizedAffinity -4.43058443
REMARK minimizedRMSD -1
REMARK  0 active torsions:
REMARK  status: ('A' for Active; 'I' for Inactive)
ROOT
ATOM      1  C   UNL d   1      -0.851  -0.523   1.308  0.00  0.00     0.078 C 
ATOM      2  C1  UNL d   1      -0.125  -0.109   0.063  0.00  0.00    -0.077 A 
ATOM      3  C2  UNL d   1       0.248  -1.052  -0.902  0.00  0.00    -0.001 A 
ATOM      4  C3  UNL d   1       0.932  -0.653  -2.052  0.00  0.00     0.003 A 
ATOM      5  C4  UNL d   1       1.251   0.690  -2.246  0.00  0.00    -0.005 A 
ATOM      6  C5  UNL d   1       0.885   1.635  -1.290  0.00  0.00     0.003 A 
ATOM      7  C6  UNL d   1       0.201   1.238  -0.140  0.00  0.00    -0.001 A 
ENDROOT
TORSDOF 0
ENDMDL
