MODEL 1
REMARK minimizedAffinity -3.21232915
REMARK minimizedRMSD -1
REMARK  0 active torsions:
REMARK  status: ('A' for Active; 'I' for Inactive)
ROOT
ATOM      1  C   UNL d   1       2.311   0.443  -1.783  0.00  0.00     0.078 C 
ATOM      2  C1  UNL d   1       1.103   0.264  -0.913  0.00  0.00    -0.077 A 
ATOM      3  C2  UNL d   1       0.446  -0.970  -0.836  0.00  0.00    -0.001 A 
ATOM      4  C3  UNL d   1      -0.684  -1.120  -0.030  0.00  0.00     0.003 A 
ATOM      5  C4  UNL d   1      -1.167  -0.038   0.705  0.00  0.00    -0.005 A 
ATOM      6  C5  UNL d   1      -0.521   1.194   0.632  0.00  0.00     0.003 A 
ATOM      7  C6  UNL d   1       0.608   1.345  -0.174  0.00  0.00    -0.001 A 
ENDROOT
TORSDOF 0
ENDMDL
