MODEL 1
REMARK minimizedAffinity -5.3065815
REMARK minimizedRMSD -1
REMARK  0 active torsions:
REMARK  status: ('A' for Active; 'I' for Inactive)
ROOT
ATOM      1  C   UNL d   1       1.831  -0.002  -3.262  0.00  0.00     0.078 C 
ATOM      2  C1  UNL d   1       1.083   0.082  -1.965  0.00  0.00    -0.077 A 
ATOM      3  C2  UNL d   1       0.390  -1.024  -1.458  0.00  0.00    -0.001 A 
ATOM      4  C3  UNL d   1      -0.310  -0.928  -0.254  0.00  0.00     0.003 A 
ATOM      5  C4  UNL d   1      -0.324   0.272   0.453  0.00  0.00    -0.005 A 
ATOM      6  C5  UNL d   1       0.360   1.379  -0.045  0.00  0.00     0.003 A 
ATOM      7  C6  UNL d   1       1.060   1.286  -1.248  0.00  0.00    -0.001 A 
ENDROOT
TORSDOF 0
ENDMDL
