MODEL 1
REMARK minimizedAffinity -3.9970088
REMARK minimizedRMSD -1
REMARK  0 active torsions:
REMARK  status: ('A' for Active; 'I' for Inactive)
ROOT
ATOM      1  C   UNL d   1       2.030   0.084  -3.062  0.00  0.00     0.078 C 
ATOM      2  C1  UNL d   1       1.261   0.111  -1.774  0.00  0.00    -0.077 A 
ATOM      3  C2  UNL d   1       0.490  -0.986  -1.372  0.00  0.00    -0.001 A 
ATOM      4  C3  UNL d   1      -0.228  -0.943  -0.176  0.00  0.00     0.003 A 
ATOM      5  C4  UNL d   1      -0.183   0.195   0.627  0.00  0.00    -0.005 A 
ATOM      6  C5  UNL d   1       0.579   1.292   0.234  0.00  0.00     0.003 A 
ATOM      7  C6  UNL d   1       1.298   1.251  -0.962  0.00  0.00    -0.001 A 
ENDROOT
TORSDOF 0
ENDMDL
