MODEL 1
REMARK minimizedAffinity -5.44243908
REMARK minimizedRMSD -1
REMARK  0 active torsions:
REMARK  status: ('A' for Active; 'I' for Inactive)
ROOT
ATOM      1  C   UNL d   1       1.031  -0.489  -2.745  0.00  0.00     0.078 C 
ATOM      2  C1  UNL d   1       0.539  -0.615  -1.334  0.00  0.00    -0.077 A 
ATOM      3  C2  UNL d   1       0.325   0.519  -0.541  0.00  0.00    -0.001 A 
ATOM      4  C3  UNL d   1      -0.124   0.386   0.774  0.00  0.00     0.003 A 
ATOM      5  C4  UNL d   1      -0.361  -0.879   1.308  0.00  0.00    -0.005 A 
ATOM      6  C5  UNL d   1      -0.149  -2.014   0.527  0.00  0.00     0.003 A 
ATOM      7  C6  UNL d   1       0.300  -1.883  -0.788  0.00  0.00    -0.001 A 
ENDROOT
TORSDOF 0
ENDMDL
