MODEL 1
REMARK minimizedAffinity -3.45619583
REMARK minimizedRMSD -1
REMARK  0 active torsions:
REMARK  status: ('A' for Active; 'I' for Inactive)
ROOT
ATOM      1  C   UNL d   1       0.263   0.509  -0.620  0.00  0.00     0.078 C 
ATOM      2  C1  UNL d   1      -0.768   0.094   0.387  0.00  0.00    -0.077 A 
ATOM      3  C2  UNL d   1      -0.512  -0.938   1.299  0.00  0.00    -0.001 A 
ATOM      4  C3  UNL d   1      -1.485  -1.320   2.224  0.00  0.00     0.003 A 
ATOM      5  C4  UNL d   1      -2.721  -0.677   2.246  0.00  0.00    -0.005 A 
ATOM      6  C5  UNL d   1      -2.986   0.348   1.341  0.00  0.00     0.003 A 
ATOM      7  C6  UNL d   1      -2.015   0.732   0.415  0.00  0.00    -0.001 A 
ENDROOT
TORSDOF 0
ENDMDL
