MODEL 1
REMARK minimizedAffinity -4.0525322
REMARK minimizedRMSD -1
REMARK  0 active torsions:
REMARK  status: ('A' for Active; 'I' for Inactive)
ROOT
ATOM      1  C   UNL d   1       1.174   0.303  -3.019  0.00  0.00     0.078 C 
ATOM      2  C1  UNL d   1       0.551   0.319  -1.655  0.00  0.00    -0.077 A 
ATOM      3  C2  UNL d   1      -0.168  -0.783  -1.178  0.00  0.00    -0.001 A 
ATOM      4  C3  UNL d   1      -0.751  -0.751   0.090  0.00  0.00     0.003 A 
ATOM      5  C4  UNL d   1      -0.622   0.383   0.890  0.00  0.00    -0.005 A 
ATOM      6  C5  UNL d   1       0.090   1.486   0.423  0.00  0.00     0.003 A 
ATOM      7  C6  UNL d   1       0.674   1.455  -0.845  0.00  0.00    -0.001 A 
ENDROOT
TORSDOF 0
ENDMDL
