MODEL 1
REMARK minimizedAffinity -3.54463124
REMARK minimizedRMSD -1
REMARK  0 active torsions:
REMARK  status: ('A' for Active; 'I' for Inactive)
ROOT
ATOM      1  C   UNL d   1       1.678  -0.313  -3.165  0.00  0.00     0.078 C 
ATOM      2  C1  UNL d   1       1.099  -0.103  -1.798  0.00  0.00    -0.077 A 
ATOM      3  C2  UNL d   1       0.347  -1.104  -1.171  0.00  0.00    -0.001 A 
ATOM      4  C3  UNL d   1      -0.194  -0.891   0.098  0.00  0.00     0.003 A 
ATOM      5  C4  UNL d   1       0.010   0.323   0.751  0.00  0.00    -0.005 A 
ATOM      6  C5  UNL d   1       0.755   1.326   0.134  0.00  0.00     0.003 A 
ATOM      7  C6  UNL d   1       1.297   1.115  -1.135  0.00  0.00    -0.001 A 
ENDROOT
TORSDOF 0
ENDMDL
