MODEL 1
REMARK minimizedAffinity -4.54207611
REMARK minimizedRMSD -1
REMARK  2 active torsions:
REMARK  status: ('A' for Active; 'I' for Inactive)
REMARK    1  A    between atoms: C2'_3  and  C1'_4 
REMARK    2  A    between atoms: C1'_4  and  C1_5 
ROOT
ATOM      1  C1  I4B d   1       0.555  -1.146  -0.475  0.00  0.00    -0.075 A 
ATOM      2  C2  I4B d   1       0.381  -1.295   0.878  0.00  0.00     0.003 A 
ATOM      3  C3  I4B d   1       0.244  -0.157   1.709  0.00  0.00     0.002 A 
ATOM      4  C4  I4B d   1       0.337   1.104   1.155  0.00  0.00    -0.004 A 
ATOM      5  C5  I4B d   1       0.492   1.253  -0.220  0.00  0.00     0.002 A 
ATOM      6  C6  I4B d   1       0.589   0.121  -1.043  0.00  0.00     0.003 A 
ENDROOT
BRANCH   1   7
ATOM      7  C1' I4B d   1       0.730  -2.370  -1.318  0.00  0.00     0.060 C 
BRANCH   7   8
ATOM      8  C2' I4B d   1      -0.558  -3.167  -1.256  0.00  0.00    -0.013 C 
ATOM      9  C4' I4B d   1      -1.123  -3.397  -2.633  0.00  0.00     0.013 C 
ATOM     10  C3' I4B d   1      -0.265  -4.465  -0.566  0.00  0.00     0.013 C 
ENDBRANCH   7   8
ENDBRANCH   1   7
TORSDOF 2
ENDMDL
