MODEL 1
REMARK minimizedAffinity -4.34542751
REMARK minimizedRMSD -1
REMARK  2 active torsions:
REMARK  status: ('A' for Active; 'I' for Inactive)
REMARK    1  A    between atoms: C2'_3  and  C1'_4 
REMARK    2  A    between atoms: C1'_4  and  C1_5 
ROOT
ATOM      1  C1  I4B d   1       0.110   0.023  -0.433  0.00  0.00    -0.075 A 
ATOM      2  C2  I4B d   1       0.124  -0.299   0.901  0.00  0.00     0.003 A 
ATOM      3  C3  I4B d   1      -0.137   0.693   1.877  0.00  0.00     0.002 A 
ATOM      4  C4  I4B d   1      -0.355   1.997   1.480  0.00  0.00    -0.004 A 
ATOM      5  C5  I4B d   1      -0.391   2.317   0.126  0.00  0.00     0.002 A 
ATOM      6  C6  I4B d   1      -0.170   1.322  -0.838  0.00  0.00     0.003 A 
ENDROOT
BRANCH   1   7
ATOM      7  C1' I4B d   1       0.422  -1.042  -1.435  0.00  0.00     0.060 C 
BRANCH   7   8
ATOM      8  C2' I4B d   1      -0.276  -2.314  -0.998  0.00  0.00    -0.013 C 
ATOM      9  C4' I4B d   1      -1.429  -2.643  -1.909  0.00  0.00     0.013 C 
ATOM     10  C3' I4B d   1       0.737  -3.419  -0.986  0.00  0.00     0.013 C 
ENDBRANCH   7   8
ENDBRANCH   1   7
TORSDOF 2
ENDMDL
