MODEL 1
REMARK minimizedAffinity -3.40588951
REMARK minimizedRMSD -1
REMARK  2 active torsions:
REMARK  status: ('A' for Active; 'I' for Inactive)
REMARK    1  A    between atoms: C2'_3  and  C1'_4 
REMARK    2  A    between atoms: C1'_4  and  C1_5 
ROOT
ATOM      1  C1  I4B d   1       0.648   0.067  -0.331  0.00  0.00    -0.075 A 
ATOM      2  C2  I4B d   1       0.231   1.099  -1.135  0.00  0.00     0.003 A 
ATOM      3  C3  I4B d   1      -0.063   2.366  -0.574  0.00  0.00     0.002 A 
ATOM      4  C4  I4B d   1       0.024   2.540   0.793  0.00  0.00    -0.004 A 
ATOM      5  C5  I4B d   1       0.468   1.499   1.603  0.00  0.00     0.002 A 
ATOM      6  C6  I4B d   1       0.794   0.258   1.037  0.00  0.00     0.003 A 
ENDROOT
BRANCH   1   7
ATOM      7  C1' I4B d   1       0.918  -1.266  -0.952  0.00  0.00     0.060 C 
BRANCH   7   8
ATOM      8  C2' I4B d   1      -0.409  -1.975  -1.133  0.00  0.00    -0.013 C 
ATOM      9  C4' I4B d   1      -0.219  -3.343  -1.733  0.00  0.00     0.013 C 
ATOM     10  C3' I4B d   1      -1.075  -2.060   0.208  0.00  0.00     0.013 C 
ENDBRANCH   7   8
ENDBRANCH   1   7
TORSDOF 2
ENDMDL
