MODEL 1
REMARK minimizedAffinity 3.2259469
REMARK minimizedRMSD -1
REMARK  2 active torsions:
REMARK  status: ('A' for Active; 'I' for Inactive)
REMARK    1  A    between atoms: C2'_3  and  C1'_4 
REMARK    2  A    between atoms: C1'_4  and  C1_5 
ROOT
ATOM      1  C1  I4B d   1       0.452  -0.315   1.360  0.00  0.00    -0.075 A 
ATOM      2  C2  I4B d   1       1.011   0.939   1.398  0.00  0.00     0.003 A 
ATOM      3  C3  I4B d   1       0.328   2.004   2.033  0.00  0.00     0.002 A 
ATOM      4  C4  I4B d   1      -0.924   1.785   2.569  0.00  0.00    -0.004 A 
ATOM      5  C5  I4B d   1      -1.479   0.509   2.551  0.00  0.00     0.002 A 
ATOM      6  C6  I4B d   1      -0.781  -0.551   1.953  0.00  0.00     0.003 A 
ENDROOT
BRANCH   1   7
ATOM      7  C1' I4B d   1       1.186  -1.410   0.653  0.00  0.00     0.060 C 
BRANCH   7   8
ATOM      8  C2' I4B d   1       0.467  -1.686  -0.652  0.00  0.00    -0.013 C 
ATOM      9  C4' I4B d   1       0.652  -0.553  -1.627  0.00  0.00     0.013 C 
ATOM     10  C3' I4B d   1       0.997  -2.973  -1.210  0.00  0.00     0.013 C 
ENDBRANCH   7   8
ENDBRANCH   1   7
TORSDOF 2
ENDMDL
