MODEL 1
REMARK minimizedAffinity -4.5237174
REMARK minimizedRMSD -1
REMARK  2 active torsions:
REMARK  status: ('A' for Active; 'I' for Inactive)
REMARK    1  A    between atoms: C2'_3  and  C1'_4 
REMARK    2  A    between atoms: C1'_4  and  C1_5 
ROOT
ATOM      1  C1  I4B d   1       0.307  -1.147  -0.501  0.00  0.00    -0.075 A 
ATOM      2  C2  I4B d   1       0.938  -1.329  -1.706  0.00  0.00     0.003 A 
ATOM      3  C3  I4B d   1       0.469  -2.308  -2.616  0.00  0.00     0.002 A 
ATOM      4  C4  I4B d   1      -0.596  -3.110  -2.261  0.00  0.00    -0.004 A 
ATOM      5  C5  I4B d   1      -1.249  -2.909  -1.048  0.00  0.00     0.002 A 
ATOM      6  C6  I4B d   1      -0.803  -1.913  -0.168  0.00  0.00     0.003 A 
ENDROOT
BRANCH   1   7
ATOM      7  C1' I4B d   1       0.849  -0.128   0.450  0.00  0.00     0.060 C 
BRANCH   7   8
ATOM      8  C2' I4B d   1      -0.321   0.652   1.016  0.00  0.00    -0.013 C 
ATOM      9  C4' I4B d   1      -0.357   0.566   2.519  0.00  0.00     0.013 C 
ATOM     10  C3' I4B d   1      -0.195   2.074   0.557  0.00  0.00     0.013 C 
ENDBRANCH   7   8
ENDBRANCH   1   7
TORSDOF 2
ENDMDL
