MODEL 1
REMARK minimizedAffinity 9.36426258
REMARK minimizedRMSD -1
REMARK  0 active torsions:
REMARK  status: ('A' for Active; 'I' for Inactive)
ROOT
ATOM      1  C   UNL d   1      -3.674   0.488   0.139  0.00  0.00     0.124 A 
ATOM      2  C1  UNL d   1      -3.219   1.116   1.291  0.00  0.00     0.062 A 
ATOM      3  C2  UNL d   1      -2.253   0.506   2.085  0.00  0.00     0.162 A 
ATOM      4  C3  UNL d   1      -1.733  -0.739   1.731  0.00  0.00    -0.034 A 
ATOM      5  C4  UNL d   1      -2.196  -1.365   0.572  0.00  0.00     0.162 A 
ATOM      6  C5  UNL d   1      -3.162  -0.751  -0.219  0.00  0.00     0.062 A 
ATOM      7  F   UNL d   1      -3.600  -1.359  -1.331  0.00  0.00    -0.097 F 
ATOM      8  F1  UNL d   1      -1.718  -2.562   0.202  0.00  0.00    -0.096 F 
ATOM      9  I   UNL d   1      -0.288  -1.654   2.917  0.00  0.00    -0.060 I 
ATOM     10  F2  UNL d   1      -1.832   1.135   3.193  0.00  0.00    -0.096 F 
ATOM     11  F3  UNL d   1      -3.712   2.312   1.640  0.00  0.00    -0.097 F 
ATOM     12  F4  UNL d   1      -4.604   1.076  -0.623  0.00  0.00    -0.092 F 
ENDROOT
TORSDOF 0
ENDMDL
