MODEL 1
REMARK minimizedAffinity -1.53194237
REMARK minimizedRMSD -1
REMARK  0 active torsions:
REMARK  status: ('A' for Active; 'I' for Inactive)
ROOT
ATOM      1  C   UNL d   1      -2.837  -0.231   0.753  0.00  0.00     0.124 A 
ATOM      2  C1  UNL d   1      -1.713   0.183   1.454  0.00  0.00     0.062 A 
ATOM      3  C2  UNL d   1      -0.446  -0.234   1.054  0.00  0.00     0.162 A 
ATOM      4  C3  UNL d   1      -0.297  -1.068  -0.053  0.00  0.00    -0.034 A 
ATOM      5  C4  UNL d   1      -1.433  -1.481  -0.752  0.00  0.00     0.162 A 
ATOM      6  C5  UNL d   1      -2.696  -1.062  -0.349  0.00  0.00     0.062 A 
ATOM      7  F   UNL d   1      -3.781  -1.463  -1.027  0.00  0.00    -0.097 F 
ATOM      8  F1  UNL d   1      -1.325  -2.284  -1.822  0.00  0.00    -0.096 F 
ATOM      9  I   UNL d   1       1.595  -1.693  -0.654  0.00  0.00    -0.060 I 
ATOM     10  F2  UNL d   1       0.622   0.182   1.750  0.00  0.00    -0.096 F 
ATOM     11  F3  UNL d   1      -1.847   0.985   2.520  0.00  0.00    -0.097 F 
ATOM     12  F4  UNL d   1      -4.055   0.171   1.141  0.00  0.00    -0.092 F 
ENDROOT
TORSDOF 0
ENDMDL
