MODEL 1
REMARK minimizedAffinity 7.62117243
REMARK minimizedRMSD -1
REMARK  0 active torsions:
REMARK  status: ('A' for Active; 'I' for Inactive)
ROOT
ATOM      1  C   UNL d   1       0.153  -1.752  -4.994  0.00  0.00     0.124 A 
ATOM      2  C1  UNL d   1      -0.106  -0.388  -4.993  0.00  0.00     0.062 A 
ATOM      3  C2  UNL d   1      -0.827   0.186  -3.950  0.00  0.00     0.162 A 
ATOM      4  C3  UNL d   1      -1.294  -0.603  -2.899  0.00  0.00    -0.034 A 
ATOM      5  C4  UNL d   1      -1.031  -1.974  -2.908  0.00  0.00     0.162 A 
ATOM      6  C5  UNL d   1      -0.310  -2.543  -3.952  0.00  0.00     0.062 A 
ATOM      7  F   UNL d   1      -0.061  -3.861  -3.951  0.00  0.00    -0.097 F 
ATOM      8  F1  UNL d   1      -1.465  -2.761  -1.913  0.00  0.00    -0.096 F 
ATOM      9  I   UNL d   1      -2.373   0.253  -1.338  0.00  0.00    -0.060 I 
ATOM     10  F2  UNL d   1      -1.063   1.506  -3.975  0.00  0.00    -0.096 F 
ATOM     11  F3  UNL d   1       0.339   0.378  -5.999  0.00  0.00    -0.097 F 
ATOM     12  F4  UNL d   1       0.846  -2.303  -5.999  0.00  0.00    -0.092 F 
ENDROOT
TORSDOF 0
ENDMDL
