MODEL 1
REMARK minimizedAffinity 2.45312047
REMARK minimizedRMSD -1
REMARK  0 active torsions:
REMARK  status: ('A' for Active; 'I' for Inactive)
ROOT
ATOM      1  C   UNL d   1       0.804  -1.572   3.533  0.00  0.00     0.124 A 
ATOM      2  C1  UNL d   1      -0.404  -2.251   3.460  0.00  0.00     0.062 A 
ATOM      3  C2  UNL d   1      -1.487  -1.685   2.795  0.00  0.00     0.162 A 
ATOM      4  C3  UNL d   1      -1.367  -0.431   2.195  0.00  0.00    -0.034 A 
ATOM      5  C4  UNL d   1      -0.150   0.247   2.273  0.00  0.00     0.162 A 
ATOM      6  C5  UNL d   1       0.930  -0.323   2.940  0.00  0.00     0.062 A 
ATOM      7  F   UNL d   1       2.096   0.335   3.009  0.00  0.00    -0.097 F 
ATOM      8  F1  UNL d   1      -0.000   1.454   1.708  0.00  0.00    -0.096 F 
ATOM      9  I   UNL d   1      -2.985   0.420   1.200  0.00  0.00    -0.060 I 
ATOM     10  F2  UNL d   1      -2.642  -2.364   2.740  0.00  0.00    -0.096 F 
ATOM     11  F3  UNL d   1      -0.528  -3.457   4.033  0.00  0.00    -0.097 F 
ATOM     12  F4  UNL d   1       1.844  -2.119   4.175  0.00  0.00    -0.092 F 
ENDROOT
TORSDOF 0
ENDMDL
