MODEL 1
REMARK minimizedAffinity 17.2089043
REMARK minimizedRMSD -1
REMARK  0 active torsions:
REMARK  status: ('A' for Active; 'I' for Inactive)
ROOT
ATOM      1  C   UNL d   1       2.913  -1.932  -3.172  0.00  0.00     0.124 A 
ATOM      2  C1  UNL d   1       2.835  -1.120  -4.295  0.00  0.00     0.062 A 
ATOM      3  C2  UNL d   1       1.609  -0.902  -4.916  0.00  0.00     0.162 A 
ATOM      4  C3  UNL d   1       0.450  -1.495  -4.415  0.00  0.00    -0.034 A 
ATOM      5  C4  UNL d   1       0.537  -2.311  -3.286  0.00  0.00     0.162 A 
ATOM      6  C5  UNL d   1       1.765  -2.527  -2.669  0.00  0.00     0.062 A 
ATOM      7  F   UNL d   1       1.839  -3.311  -1.584  0.00  0.00    -0.097 F 
ATOM      8  F1  UNL d   1      -0.557  -2.897  -2.778  0.00  0.00    -0.096 F 
ATOM      9  I   UNL d   1      -1.385  -1.170  -5.342  0.00  0.00    -0.060 I 
ATOM     10  F2  UNL d   1       1.562  -0.112  -6.000  0.00  0.00    -0.096 F 
ATOM     11  F3  UNL d   1       3.943  -0.545  -4.784  0.00  0.00    -0.097 F 
ATOM     12  F4  UNL d   1       4.094  -2.142  -2.577  0.00  0.00    -0.092 F 
ENDROOT
TORSDOF 0
ENDMDL
