MODEL 1
REMARK minimizedAffinity 12.8587551
REMARK minimizedRMSD -1
REMARK  0 active torsions:
REMARK  status: ('A' for Active; 'I' for Inactive)
ROOT
ATOM      1  C   UNL d   1      -1.401  -1.712   2.273  0.00  0.00     0.124 A 
ATOM      2  C1  UNL d   1      -1.529  -0.461   1.685  0.00  0.00     0.062 A 
ATOM      3  C2  UNL d   1      -0.406   0.336   1.485  0.00  0.00     0.162 A 
ATOM      4  C3  UNL d   1       0.856  -0.115   1.873  0.00  0.00    -0.034 A 
ATOM      5  C4  UNL d   1       0.977  -1.373   2.464  0.00  0.00     0.162 A 
ATOM      6  C5  UNL d   1      -0.149  -2.167   2.662  0.00  0.00     0.062 A 
ATOM      7  F   UNL d   1      -0.023  -3.375   3.231  0.00  0.00    -0.097 F 
ATOM      8  F1  UNL d   1       2.175  -1.838   2.849  0.00  0.00    -0.096 F 
ATOM      9  I   UNL d   1       2.538   1.075   1.575  0.00  0.00    -0.060 I 
ATOM     10  F2  UNL d   1      -0.559   1.541   0.914  0.00  0.00    -0.096 F 
ATOM     11  F3  UNL d   1      -2.737  -0.019   1.309  0.00  0.00    -0.097 F 
ATOM     12  F4  UNL d   1      -2.483  -2.477   2.466  0.00  0.00    -0.092 F 
ENDROOT
TORSDOF 0
ENDMDL
