MODEL 1
REMARK minimizedAffinity 15.9213438
REMARK minimizedRMSD -1
REMARK  0 active torsions:
REMARK  status: ('A' for Active; 'I' for Inactive)
ROOT
ATOM      1  C   UNL d   1      -0.034  -1.677   2.366  0.00  0.00     0.124 A 
ATOM      2  C1  UNL d   1       1.318  -1.375   2.451  0.00  0.00     0.062 A 
ATOM      3  C2  UNL d   1       1.775  -0.106   2.106  0.00  0.00     0.162 A 
ATOM      4  C3  UNL d   1       0.878   0.871   1.672  0.00  0.00    -0.034 A 
ATOM      5  C4  UNL d   1      -0.480   0.559   1.588  0.00  0.00     0.162 A 
ATOM      6  C5  UNL d   1      -0.931  -0.711   1.935  0.00  0.00     0.062 A 
ATOM      7  F   UNL d   1      -2.238  -1.001   1.851  0.00  0.00    -0.097 F 
ATOM      8  F1  UNL d   1      -1.369   1.474   1.175  0.00  0.00    -0.096 F 
ATOM      9  I   UNL d   1       1.557   2.769   1.154  0.00  0.00    -0.060 I 
ATOM     10  F2  UNL d   1       3.087   0.159   2.198  0.00  0.00    -0.096 F 
ATOM     11  F3  UNL d   1       2.188  -2.307   2.867  0.00  0.00    -0.097 F 
ATOM     12  F4  UNL d   1      -0.470  -2.899   2.698  0.00  0.00    -0.092 F 
ENDROOT
TORSDOF 0
ENDMDL
