MODEL 1
REMARK minimizedAffinity 5.86992788
REMARK minimizedRMSD -1
REMARK  0 active torsions:
REMARK  status: ('A' for Active; 'I' for Inactive)
ROOT
ATOM      1  C   UNL d   1      -1.608  -1.518   2.392  0.00  0.00     0.124 A 
ATOM      2  C1  UNL d   1      -0.326  -1.906   2.758  0.00  0.00     0.062 A 
ATOM      3  C2  UNL d   1       0.744  -1.031   2.593  0.00  0.00     0.162 A 
ATOM      4  C3  UNL d   1       0.537   0.241   2.060  0.00  0.00    -0.034 A 
ATOM      5  C4  UNL d   1      -0.755   0.624   1.694  0.00  0.00     0.162 A 
ATOM      6  C5  UNL d   1      -1.821  -0.254   1.860  0.00  0.00     0.062 A 
ATOM      7  F   UNL d   1      -3.058   0.122   1.506  0.00  0.00    -0.097 F 
ATOM      8  F1  UNL d   1      -0.989   1.840   1.178  0.00  0.00    -0.096 F 
ATOM      9  I   UNL d   1       2.134   1.552   1.813  0.00  0.00    -0.060 I 
ATOM     10  F2  UNL d   1       1.971  -1.433   2.956  0.00  0.00    -0.096 F 
ATOM     11  F3  UNL d   1      -0.118  -3.127   3.271  0.00  0.00    -0.097 F 
ATOM     12  F4  UNL d   1      -2.635  -2.363   2.550  0.00  0.00    -0.092 F 
ENDROOT
TORSDOF 0
ENDMDL
