MODEL 1
REMARK minimizedAffinity 5.85081387
REMARK minimizedRMSD -1
REMARK  0 active torsions:
REMARK  status: ('A' for Active; 'I' for Inactive)
ROOT
ATOM      1  C   UNL d   1      -2.092  -0.452   1.667  0.00  0.00     0.124 A 
ATOM      2  C1  UNL d   1      -2.037  -1.541   2.525  0.00  0.00     0.062 A 
ATOM      3  C2  UNL d   1      -0.847  -1.865   3.170  0.00  0.00     0.162 A 
ATOM      4  C3  UNL d   1       0.299  -1.098   2.959  0.00  0.00    -0.034 A 
ATOM      5  C4  UNL d   1       0.236  -0.004   2.094  0.00  0.00     0.162 A 
ATOM      6  C5  UNL d   1      -0.956   0.315   1.452  0.00  0.00     0.062 A 
ATOM      7  F   UNL d   1      -1.008   1.368   0.623  0.00  0.00    -0.097 F 
ATOM      8  F1  UNL d   1       1.318   0.755   1.869  0.00  0.00    -0.096 F 
ATOM      9  I   UNL d   1       2.081  -1.579   3.921  0.00  0.00    -0.060 I 
ATOM     10  F2  UNL d   1      -0.822  -2.923   3.994  0.00  0.00    -0.096 F 
ATOM     11  F3  UNL d   1      -3.133  -2.285   2.734  0.00  0.00    -0.097 F 
ATOM     12  F4  UNL d   1      -3.239  -0.143   1.048  0.00  0.00    -0.092 F 
ENDROOT
TORSDOF 0
ENDMDL
