MODEL 1
REMARK minimizedAffinity 4.52259493
REMARK minimizedRMSD -1
REMARK  0 active torsions:
REMARK  status: ('A' for Active; 'I' for Inactive)
ROOT
ATOM      1  C   UNL d   1      -1.503  -1.469   2.650  0.00  0.00     0.124 A 
ATOM      2  C1  UNL d   1      -1.705  -0.222   2.074  0.00  0.00     0.062 A 
ATOM      3  C2  UNL d   1      -0.619   0.597   1.779  0.00  0.00     0.162 A 
ATOM      4  C3  UNL d   1       0.679   0.172   2.059  0.00  0.00    -0.034 A 
ATOM      5  C4  UNL d   1       0.875  -1.083   2.639  0.00  0.00     0.162 A 
ATOM      6  C5  UNL d   1      -0.214  -1.898   2.932  0.00  0.00     0.062 A 
ATOM      7  F   UNL d   1      -0.017  -3.102   3.489  0.00  0.00    -0.097 F 
ATOM      8  F1  UNL d   1       2.110  -1.523   2.922  0.00  0.00    -0.096 F 
ATOM      9  I   UNL d   1       2.306   1.394   1.620  0.00  0.00    -0.060 I 
ATOM     10  F2  UNL d   1      -0.844   1.796   1.222  0.00  0.00    -0.096 F 
ATOM     11  F3  UNL d   1      -2.950   0.195   1.801  0.00  0.00    -0.097 F 
ATOM     12  F4  UNL d   1      -2.550  -2.255   2.933  0.00  0.00    -0.092 F 
ENDROOT
TORSDOF 0
ENDMDL
