MODEL 1
REMARK minimizedAffinity 4.02561378
REMARK minimizedRMSD -1
REMARK  0 active torsions:
REMARK  status: ('A' for Active; 'I' for Inactive)
ROOT
ATOM      1  C   UNL d   1      -0.690  -0.913   1.626  0.00  0.00     0.124 A 
ATOM      2  C1  UNL d   1      -1.269   0.080   2.403  0.00  0.00     0.062 A 
ATOM      3  C2  UNL d   1      -2.509   0.609   2.053  0.00  0.00     0.162 A 
ATOM      4  C3  UNL d   1      -3.177   0.145   0.921  0.00  0.00    -0.034 A 
ATOM      5  C4  UNL d   1      -2.588  -0.853   0.143  0.00  0.00     0.162 A 
ATOM      6  C5  UNL d   1      -1.349  -1.378   0.497  0.00  0.00     0.062 A 
ATOM      7  F   UNL d   1      -0.790  -2.337  -0.255  0.00  0.00    -0.097 F 
ATOM      8  F1  UNL d   1      -3.203  -1.322  -0.952  0.00  0.00    -0.096 F 
ATOM      9  I   UNL d   1      -5.031   0.933   0.395  0.00  0.00    -0.060 I 
ATOM     10  F2  UNL d   1      -3.045   1.568   2.823  0.00  0.00    -0.096 F 
ATOM     11  F3  UNL d   1      -0.634   0.533   3.494  0.00  0.00    -0.097 F 
ATOM     12  F4  UNL d   1       0.503  -1.419   1.964  0.00  0.00    -0.092 F 
ENDROOT
TORSDOF 0
ENDMDL
