MODEL 1
REMARK minimizedAffinity -1.32042825
REMARK minimizedRMSD -1
REMARK  0 active torsions:
REMARK  status: ('A' for Active; 'I' for Inactive)
ROOT
ATOM      1  C   UNL d   1      -2.350   5.951  -5.851  0.00  0.00     0.020 A 
ATOM      2  C1  UNL d   1      -3.736   5.941  -6.000  0.00  0.00     0.020 A 
ATOM      3  C2  UNL d   1      -4.560   5.948  -4.872  0.00  0.00     0.034 A 
ATOM      4  C3  UNL d   1      -3.998   5.966  -3.590  0.00  0.00     0.017 A 
ATOM      5  C4  UNL d   1      -2.606   5.977  -3.442  0.00  0.00     0.017 A 
ATOM      6  C5  UNL d   1      -1.786   5.969  -4.575  0.00  0.00     0.034 A 
ATOM      7 Cl   UNL d   1      -1.839   5.999  -1.893  0.00  0.00    -0.070 Cl
ATOM      8 Cl1  UNL d   1      -5.076   5.975  -2.240  0.00  0.00    -0.070 Cl
ENDROOT
TORSDOF 0
ENDMDL
