MODEL 1
REMARK minimizedAffinity 7.57377911
REMARK minimizedRMSD -1
REMARK  0 active torsions:
REMARK  status: ('A' for Active; 'I' for Inactive)
ROOT
ATOM      1  C   UNL d   1      -5.722  -1.761   4.276  0.00  0.00     0.020 A 
ATOM      2  C1  UNL d   1      -5.193  -1.880   2.992  0.00  0.00     0.020 A 
ATOM      3  C2  UNL d   1      -4.092  -1.108   2.616  0.00  0.00     0.034 A 
ATOM      4  C3  UNL d   1      -3.516  -0.213   3.526  0.00  0.00     0.017 A 
ATOM      5  C4  UNL d   1      -4.048  -0.095   4.815  0.00  0.00     0.017 A 
ATOM      6  C5  UNL d   1      -5.150  -0.871   5.186  0.00  0.00     0.034 A 
ATOM      7 Cl   UNL d   1      -3.391   0.986   5.993  0.00  0.00    -0.070 Cl
ATOM      8 Cl1  UNL d   1      -2.156   0.710   2.994  0.00  0.00    -0.070 Cl
ENDROOT
TORSDOF 0
ENDMDL
