MODEL 1
REMARK minimizedAffinity 4.27203989
REMARK minimizedRMSD -1
REMARK  0 active torsions:
REMARK  status: ('A' for Active; 'I' for Inactive)
ROOT
ATOM      1  C   UNL d   1      -4.927  -1.453   3.642  0.00  0.00     0.020 A 
ATOM      2  C1  UNL d   1      -4.424  -1.633   2.354  0.00  0.00     0.020 A 
ATOM      3  C2  UNL d   1      -3.262  -0.966   1.959  0.00  0.00     0.034 A 
ATOM      4  C3  UNL d   1      -2.600  -0.117   2.853  0.00  0.00     0.017 A 
ATOM      5  C4  UNL d   1      -3.106   0.062   4.145  0.00  0.00     0.017 A 
ATOM      6  C5  UNL d   1      -4.269  -0.608   4.535  0.00  0.00     0.034 A 
ATOM      7 Cl   UNL d   1      -2.343   1.093   5.304  0.00  0.00    -0.070 Cl
ATOM      8 Cl1  UNL d   1      -1.168   0.675   2.297  0.00  0.00    -0.070 Cl
ENDROOT
TORSDOF 0
ENDMDL
