MODEL 1
REMARK minimizedAffinity 15.9120121
REMARK minimizedRMSD -1
REMARK  0 active torsions:
REMARK  status: ('A' for Active; 'I' for Inactive)
ROOT
ATOM      1  C   UNL d   1      -5.640   0.454  -0.145  0.00  0.00     0.020 A 
ATOM      2  C1  UNL d   1      -5.640   1.642  -0.875  0.00  0.00     0.020 A 
ATOM      3  C2  UNL d   1      -5.752   1.606  -2.267  0.00  0.00     0.034 A 
ATOM      4  C3  UNL d   1      -5.864   0.381  -2.933  0.00  0.00     0.017 A 
ATOM      5  C4  UNL d   1      -5.864  -0.811  -2.199  0.00  0.00     0.017 A 
ATOM      6  C5  UNL d   1      -5.752  -0.770  -0.806  0.00  0.00     0.034 A 
ATOM      7 Cl   UNL d   1      -6.000  -2.362  -2.951  0.00  0.00    -0.070 Cl
ATOM      8 Cl1  UNL d   1      -6.000   0.412  -4.655  0.00  0.00    -0.070 Cl
ENDROOT
TORSDOF 0
ENDMDL
