MODEL 1
REMARK minimizedAffinity 18.234993
REMARK minimizedRMSD -1
REMARK  0 active torsions:
REMARK  status: ('A' for Active; 'I' for Inactive)
ROOT
ATOM      1  C   UNL d   1       1.336  -2.696   2.960  0.00  0.00     0.020 A 
ATOM      2  C1  UNL d   1       1.465  -1.574   3.778  0.00  0.00     0.020 A 
ATOM      3  C2  UNL d   1       0.554  -0.521   3.668  0.00  0.00     0.034 A 
ATOM      4  C3  UNL d   1      -0.489  -0.587   2.737  0.00  0.00     0.017 A 
ATOM      5  C4  UNL d   1      -0.618  -1.714   1.917  0.00  0.00     0.017 A 
ATOM      6  C5  UNL d   1       0.296  -2.765   2.031  0.00  0.00     0.034 A 
ATOM      7 Cl   UNL d   1      -1.880  -1.868   0.745  0.00  0.00    -0.070 Cl
ATOM      8 Cl1  UNL d   1      -1.579   0.751   2.655  0.00  0.00    -0.070 Cl
ENDROOT
TORSDOF 0
ENDMDL
