MODEL 1
REMARK minimizedAffinity 14.5450668
REMARK minimizedRMSD -1
REMARK  0 active torsions:
REMARK  status: ('A' for Active; 'I' for Inactive)
ROOT
ATOM      1  C   UNL d   1      -1.853  -0.588   2.596  0.00  0.00     0.020 A 
ATOM      2  C1  UNL d   1      -1.347  -0.007   3.758  0.00  0.00     0.020 A 
ATOM      3  C2  UNL d   1      -2.135   0.877   4.498  0.00  0.00     0.034 A 
ATOM      4  C3  UNL d   1      -3.434   1.183   4.075  0.00  0.00     0.017 A 
ATOM      5  C4  UNL d   1      -3.941   0.600   2.909  0.00  0.00     0.017 A 
ATOM      6  C5  UNL d   1      -3.147  -0.285   2.172  0.00  0.00     0.034 A 
ATOM      7 Cl   UNL d   1      -5.534   0.929   2.324  0.00  0.00    -0.070 Cl
ATOM      8 Cl1  UNL d   1      -4.353   2.285   5.038  0.00  0.00    -0.070 Cl
ENDROOT
TORSDOF 0
ENDMDL
