MODEL 1
REMARK minimizedAffinity 12.7083292
REMARK minimizedRMSD -1
REMARK  0 active torsions:
REMARK  status: ('A' for Active; 'I' for Inactive)
ROOT
ATOM      1  C   UNL d   1      -0.744  -1.957   0.924  0.00  0.00     0.020 A 
ATOM      2  C1  UNL d   1       0.113  -1.542   1.943  0.00  0.00     0.020 A 
ATOM      3  C2  UNL d   1      -0.326  -0.613   2.889  0.00  0.00     0.034 A 
ATOM      4  C3  UNL d   1      -1.624  -0.096   2.818  0.00  0.00     0.017 A 
ATOM      5  C4  UNL d   1      -2.483  -0.513   1.795  0.00  0.00     0.017 A 
ATOM      6  C5  UNL d   1      -2.039  -1.443   0.850  0.00  0.00     0.034 A 
ATOM      7 Cl   UNL d   1      -4.100   0.080   1.643  0.00  0.00    -0.070 Cl
ATOM      8 Cl1  UNL d   1      -2.100   1.049   4.022  0.00  0.00    -0.070 Cl
ENDROOT
TORSDOF 0
ENDMDL
