MODEL 1
REMARK minimizedAffinity 7.76437378
REMARK minimizedRMSD -1
REMARK  0 active torsions:
REMARK  status: ('A' for Active; 'I' for Inactive)
ROOT
ATOM      1  C   UNL d   1      -1.470   0.402   4.595  0.00  0.00     0.020 A 
ATOM      2  C1  UNL d   1      -2.358   0.751   3.578  0.00  0.00     0.020 A 
ATOM      3  C2  UNL d   1      -2.202   0.211   2.299  0.00  0.00     0.034 A 
ATOM      4  C3  UNL d   1      -1.155  -0.679   2.034  0.00  0.00     0.017 A 
ATOM      5  C4  UNL d   1      -0.264  -1.028   3.056  0.00  0.00     0.017 A 
ATOM      6  C5  UNL d   1      -0.425  -0.485   4.334  0.00  0.00     0.034 A 
ATOM      7 Cl   UNL d   1       1.052  -2.120   2.805  0.00  0.00    -0.070 Cl
ATOM      8 Cl1  UNL d   1      -1.022  -1.308   0.430  0.00  0.00    -0.070 Cl
ENDROOT
TORSDOF 0
ENDMDL
