MODEL 1
REMARK minimizedAffinity 5.61401367
REMARK minimizedRMSD -1
REMARK  0 active torsions:
REMARK  status: ('A' for Active; 'I' for Inactive)
ROOT
ATOM      1  C   UNL d   1      -5.988  -4.049   5.994  0.00  0.00     0.020 A 
ATOM      2  C1  UNL d   1      -5.712  -5.416   5.982  0.00  0.00     0.020 A 
ATOM      3  C2  UNL d   1      -5.106  -5.996   4.865  0.00  0.00     0.034 A 
ATOM      4  C3  UNL d   1      -4.775  -5.209   3.756  0.00  0.00     0.017 A 
ATOM      5  C4  UNL d   1      -5.053  -3.837   3.769  0.00  0.00     0.017 A 
ATOM      6  C5  UNL d   1      -5.660  -3.262   4.890  0.00  0.00     0.034 A 
ATOM      7 Cl   UNL d   1      -4.674  -2.802   2.438  0.00  0.00    -0.070 Cl
ATOM      8 Cl1  UNL d   1      -4.028  -5.992   2.410  0.00  0.00    -0.070 Cl
ENDROOT
TORSDOF 0
ENDMDL
