MODEL 1
REMARK minimizedAffinity 12.9979553
REMARK minimizedRMSD -1
REMARK  0 active torsions:
REMARK  status: ('A' for Active; 'I' for Inactive)
ROOT
ATOM      1  C   UNL d   1      -3.375   0.776   2.185  0.00  0.00     0.020 A 
ATOM      2  C1  UNL d   1      -3.520   1.489   3.374  0.00  0.00     0.020 A 
ATOM      3  C2  UNL d   1      -2.687   1.211   4.460  0.00  0.00     0.034 A 
ATOM      4  C3  UNL d   1      -1.705   0.218   4.358  0.00  0.00     0.017 A 
ATOM      5  C4  UNL d   1      -1.560  -0.496   3.164  0.00  0.00     0.017 A 
ATOM      6  C5  UNL d   1      -2.397  -0.214   2.079  0.00  0.00     0.034 A 
ATOM      7 Cl   UNL d   1      -0.372  -1.735   2.962  0.00  0.00    -0.070 Cl
ATOM      8 Cl1  UNL d   1      -0.710  -0.072   5.741  0.00  0.00    -0.070 Cl
ENDROOT
TORSDOF 0
ENDMDL
