MODEL 1
REMARK minimizedAffinity 3.70069003
REMARK minimizedRMSD -1
REMARK  0 active torsions:
REMARK  status: ('A' for Active; 'I' for Inactive)
ROOT
ATOM      1  C   UNL d   1      -1.957  -0.994   1.471  0.00  0.00     0.020 A 
ATOM      2  C1  UNL d   1      -1.694  -0.570   2.772  0.00  0.00     0.020 A 
ATOM      3  C2  UNL d   1      -0.766  -1.259   3.557  0.00  0.00     0.034 A 
ATOM      4  C3  UNL d   1      -0.099  -2.376   3.040  0.00  0.00     0.017 A 
ATOM      5  C4  UNL d   1      -0.364  -2.800   1.733  0.00  0.00     0.017 A 
ATOM      6  C5  UNL d   1      -1.294  -2.107   0.952  0.00  0.00     0.034 A 
ATOM      7 Cl   UNL d   1       0.420  -4.169   1.027  0.00  0.00    -0.070 Cl
ATOM      8 Cl1  UNL d   1       1.035  -3.180   4.066  0.00  0.00    -0.070 Cl
ENDROOT
TORSDOF 0
ENDMDL
