MODEL 1
REMARK minimizedAffinity 7.22315979
REMARK minimizedRMSD -1
REMARK  0 active torsions:
REMARK  status: ('A' for Active; 'I' for Inactive)
ROOT
ATOM      1  C   UNL d   1      -3.783   5.993  -5.977  0.00  0.00     0.020 A 
ATOM      2  C1  UNL d   1      -2.425   5.947  -5.664  0.00  0.00     0.020 A 
ATOM      3  C2  UNL d   1      -2.018   5.906  -4.329  0.00  0.00     0.034 A 
ATOM      4  C3  UNL d   1      -2.969   5.912  -3.302  0.00  0.00     0.017 A 
ATOM      5  C4  UNL d   1      -4.332   5.959  -3.618  0.00  0.00     0.017 A 
ATOM      6  C5  UNL d   1      -4.734   6.000  -4.956  0.00  0.00     0.034 A 
ATOM      7 Cl   UNL d   1      -5.564   5.970  -2.406  0.00  0.00    -0.070 Cl
ATOM      8 Cl1  UNL d   1      -2.394   5.860  -1.674  0.00  0.00    -0.070 Cl
ENDROOT
TORSDOF 0
ENDMDL
