MODEL 1
REMARK minimizedAffinity 13.0215197
REMARK minimizedRMSD -1
REMARK  0 active torsions:
REMARK  status: ('A' for Active; 'I' for Inactive)
ROOT
ATOM      1  C   UNL d   1      -2.589   0.883   2.181  0.00  0.00     0.020 A 
ATOM      2  C1  UNL d   1      -3.463  -0.113   1.746  0.00  0.00     0.020 A 
ATOM      3  C2  UNL d   1      -2.957  -1.309   1.231  0.00  0.00     0.034 A 
ATOM      4  C3  UNL d   1      -1.575  -1.512   1.149  0.00  0.00     0.017 A 
ATOM      5  C4  UNL d   1      -0.699  -0.511   1.586  0.00  0.00     0.017 A 
ATOM      6  C5  UNL d   1      -1.210   0.684   2.101  0.00  0.00     0.034 A 
ATOM      7 Cl   UNL d   1       1.019  -0.688   1.517  0.00  0.00    -0.070 Cl
ATOM      8 Cl1  UNL d   1      -1.020  -3.014   0.502  0.00  0.00    -0.070 Cl
ENDROOT
TORSDOF 0
ENDMDL
