MODEL 1
REMARK minimizedAffinity 16.2356491
REMARK minimizedRMSD -1
REMARK  0 active torsions:
REMARK  status: ('A' for Active; 'I' for Inactive)
ROOT
ATOM      1  C   UNL d   1       5.158   5.254  -2.203  0.00  0.00     0.020 A 
ATOM      2  C1  UNL d   1       6.000   5.309  -3.313  0.00  0.00     0.020 A 
ATOM      3  C2  UNL d   1       5.669   4.609  -4.475  0.00  0.00     0.034 A 
ATOM      4  C3  UNL d   1       4.494   3.851  -4.530  0.00  0.00     0.017 A 
ATOM      5  C4  UNL d   1       3.649   3.797  -3.415  0.00  0.00     0.017 A 
ATOM      6  C5  UNL d   1       3.985   4.500  -2.254  0.00  0.00     0.034 A 
ATOM      7 Cl   UNL d   1       2.182   2.884  -3.408  0.00  0.00    -0.070 Cl
ATOM      8 Cl1  UNL d   1       4.147   3.011  -6.000  0.00  0.00    -0.070 Cl
ENDROOT
TORSDOF 0
ENDMDL
