MODEL 1
REMARK minimizedAffinity 4.99458838
REMARK minimizedRMSD -1
REMARK  0 active torsions:
REMARK  status: ('A' for Active; 'I' for Inactive)
ROOT
ATOM      1  C   UNL d   1      -5.410  -4.886   6.000  0.00  0.00     0.020 A 
ATOM      2  C1  UNL d   1      -5.976  -5.964   5.320  0.00  0.00     0.020 A 
ATOM      3  C2  UNL d   1      -6.000  -5.973   3.923  0.00  0.00     0.034 A 
ATOM      4  C3  UNL d   1      -5.457  -4.903   3.203  0.00  0.00     0.017 A 
ATOM      5  C4  UNL d   1      -4.889  -3.822   3.887  0.00  0.00     0.017 A 
ATOM      6  C5  UNL d   1      -4.868  -3.818   5.285  0.00  0.00     0.034 A 
ATOM      7 Cl   UNL d   1      -4.199  -2.466   3.067  0.00  0.00    -0.070 Cl
ATOM      8 Cl1  UNL d   1      -5.520  -4.981   1.478  0.00  0.00    -0.070 Cl
ENDROOT
TORSDOF 0
ENDMDL
