MODEL 1
REMARK minimizedAffinity 13.5654573
REMARK minimizedRMSD -1
REMARK  0 active torsions:
REMARK  status: ('A' for Active; 'I' for Inactive)
ROOT
ATOM      1  C   UNL d   1      -1.550  -1.370   1.814  0.00  0.00     0.020 A 
ATOM      2  C1  UNL d   1      -0.996  -0.825   2.972  0.00  0.00     0.020 A 
ATOM      3  C2  UNL d   1      -1.658   0.205   3.645  0.00  0.00     0.034 A 
ATOM      4  C3  UNL d   1      -2.877   0.692   3.161  0.00  0.00     0.017 A 
ATOM      5  C4  UNL d   1      -3.432   0.144   1.999  0.00  0.00     0.017 A 
ATOM      6  C5  UNL d   1      -2.766  -0.886   1.329  0.00  0.00     0.034 A 
ATOM      7 Cl   UNL d   1      -4.933   0.694   1.341  0.00  0.00    -0.070 Cl
ATOM      8 Cl1  UNL d   1      -3.640   1.966   4.044  0.00  0.00    -0.070 Cl
ENDROOT
TORSDOF 0
ENDMDL
