MODEL 1
REMARK minimizedAffinity 13.2118645
REMARK minimizedRMSD -1
REMARK  0 active torsions:
REMARK  status: ('A' for Active; 'I' for Inactive)
ROOT
ATOM      1  C   UNL d   1       0.959   6.000  -1.769  0.00  0.00     0.020 A 
ATOM      2  C1  UNL d   1       0.197   5.125  -2.543  0.00  0.00     0.020 A 
ATOM      3  C2  UNL d   1       0.828   4.154  -3.323  0.00  0.00     0.034 A 
ATOM      4  C3  UNL d   1       2.224   4.056  -3.332  0.00  0.00     0.017 A 
ATOM      5  C4  UNL d   1       2.988   4.934  -2.555  0.00  0.00     0.017 A 
ATOM      6  C5  UNL d   1       2.351   5.905  -1.775  0.00  0.00     0.034 A 
ATOM      7 Cl   UNL d   1       4.714   4.874  -2.515  0.00  0.00    -0.070 Cl
ATOM      8 Cl1  UNL d   1       2.937   2.831  -4.321  0.00  0.00    -0.070 Cl
ENDROOT
TORSDOF 0
ENDMDL
