MODEL 1
REMARK minimizedAffinity 13.6856108
REMARK minimizedRMSD -1
REMARK  0 active torsions:
REMARK  status: ('A' for Active; 'I' for Inactive)
ROOT
ATOM      1  C   UNL d   1      -3.818  -3.373   0.723  0.00  0.00     0.020 A 
ATOM      2  C1  UNL d   1      -4.173  -2.034   0.560  0.00  0.00     0.020 A 
ATOM      3  C2  UNL d   1      -3.225  -1.030   0.767  0.00  0.00     0.034 A 
ATOM      4  C3  UNL d   1      -1.917  -1.363   1.138  0.00  0.00     0.017 A 
ATOM      5  C4  UNL d   1      -1.561  -2.706   1.301  0.00  0.00     0.017 A 
ATOM      6  C5  UNL d   1      -2.514  -3.708   1.093  0.00  0.00     0.034 A 
ATOM      7 Cl   UNL d   1       0.033  -3.194   1.758  0.00  0.00    -0.070 Cl
ATOM      8 Cl1  UNL d   1      -0.796  -0.069   1.377  0.00  0.00    -0.070 Cl
ENDROOT
TORSDOF 0
ENDMDL
