MODEL 1
REMARK minimizedAffinity 11.1873741
REMARK minimizedRMSD -1
REMARK  0 active torsions:
REMARK  status: ('A' for Active; 'I' for Inactive)
ROOT
ATOM      1  C   UNL d   1       1.953   3.747  -2.618  0.00  0.00     0.020 A 
ATOM      2  C1  UNL d   1       2.816   4.701  -2.080  0.00  0.00     0.020 A 
ATOM      3  C2  UNL d   1       4.060   4.929  -2.670  0.00  0.00     0.034 A 
ATOM      4  C3  UNL d   1       4.446   4.202  -3.803  0.00  0.00     0.017 A 
ATOM      5  C4  UNL d   1       3.579   3.245  -4.342  0.00  0.00     0.017 A 
ATOM      6  C5  UNL d   1       2.334   3.021  -3.747  0.00  0.00     0.034 A 
ATOM      7 Cl   UNL d   1       3.985   2.309  -5.738  0.00  0.00    -0.070 Cl
ATOM      8 Cl1  UNL d   1       5.999   4.537  -4.482  0.00  0.00    -0.070 Cl
ENDROOT
TORSDOF 0
ENDMDL
