MODEL 1
REMARK minimizedAffinity 1.2124064
REMARK minimizedRMSD -1
REMARK  0 active torsions:
REMARK  status: ('A' for Active; 'I' for Inactive)
ROOT
ATOM      1  C   UNL d   1       1.442   1.509   0.331  0.00  0.00     0.172 C 
ATOM      2  N   UNL d   1       1.914   0.149   0.449  0.00  0.00    -0.070 N 
ATOM      3  C1  UNL d   1       2.726  -0.331   1.441  0.00  0.00    -0.004 A 
ATOM      4  C2  UNL d   1       2.945  -1.669   1.197  0.00  0.00    -0.047 A 
ATOM      5  C3  UNL d   1       2.241  -2.005   0.016  0.00  0.00    -0.047 A 
ATOM      6  C4  UNL d   1       1.611  -0.861  -0.426  0.00  0.00    -0.004 A 
ENDROOT
TORSDOF 0
ENDMDL
