MODEL 1
REMARK minimizedAffinity -0.860686362
REMARK minimizedRMSD -1
REMARK  0 active torsions:
REMARK  status: ('A' for Active; 'I' for Inactive)
ROOT
ATOM      1  C   UNL d   1       5.168   5.265   4.799  0.00  0.00     0.172 C 
ATOM      2  N   UNL d   1       4.501   4.129   4.208  0.00  0.00    -0.070 N 
ATOM      3  C1  UNL d   1       5.077   3.213   3.369  0.00  0.00    -0.004 A 
ATOM      4  C2  UNL d   1       4.113   2.289   3.027  0.00  0.00    -0.047 A 
ATOM      5  C3  UNL d   1       2.916   2.664   3.682  0.00  0.00    -0.047 A 
ATOM      6  C4  UNL d   1       3.185   3.806   4.407  0.00  0.00    -0.004 A 
ENDROOT
TORSDOF 0
ENDMDL
