MODEL 1
REMARK minimizedAffinity 4.38366318
REMARK minimizedRMSD -1
REMARK  0 active torsions:
REMARK  status: ('A' for Active; 'I' for Inactive)
ROOT
ATOM      1  C   UNL d   1      -0.004   4.053   1.177  0.00  0.00     0.172 C 
ATOM      2  N   UNL d   1      -0.461   3.009   2.063  0.00  0.00    -0.070 N 
ATOM      3  C1  UNL d   1      -1.766   2.653   2.271  0.00  0.00    -0.004 A 
ATOM      4  C2  UNL d   1      -1.782   1.620   3.183  0.00  0.00    -0.047 A 
ATOM      5  C3  UNL d   1      -0.439   1.347   3.537  0.00  0.00    -0.047 A 
ATOM      6  C4  UNL d   1       0.358   2.222   2.829  0.00  0.00    -0.004 A 
ENDROOT
TORSDOF 0
ENDMDL
