MODEL 1
REMARK minimizedAffinity 2.48195291
REMARK minimizedRMSD -1
REMARK  0 active torsions:
REMARK  status: ('A' for Active; 'I' for Inactive)
ROOT
ATOM      1  C   UNL d   1       1.811   1.644   0.541  0.00  0.00     0.172 C 
ATOM      2  N   UNL d   1       1.881   0.246   0.186  0.00  0.00    -0.070 N 
ATOM      3  C1  UNL d   1       3.018  -0.516   0.164  0.00  0.00    -0.004 A 
ATOM      4  C2  UNL d   1       2.665  -1.790  -0.223  0.00  0.00    -0.047 A 
ATOM      5  C3  UNL d   1       1.267  -1.794  -0.442  0.00  0.00    -0.047 A 
ATOM      6  C4  UNL d   1       0.807  -0.521  -0.181  0.00  0.00    -0.004 A 
ENDROOT
TORSDOF 0
ENDMDL
