MODEL 1
REMARK minimizedAffinity 0.417494386
REMARK minimizedRMSD -1
REMARK  0 active torsions:
REMARK  status: ('A' for Active; 'I' for Inactive)
ROOT
ATOM      1  C   UNL d   1       0.021  -2.875  -1.039  0.00  0.00     0.172 C 
ATOM      2  N   UNL d   1       1.142  -2.123  -0.528  0.00  0.00    -0.070 N 
ATOM      3  C1  UNL d   1       1.230  -0.758  -0.474  0.00  0.00    -0.004 A 
ATOM      4  C2  UNL d   1       2.451  -0.435   0.077  0.00  0.00    -0.047 A 
ATOM      5  C3  UNL d   1       3.121  -1.648   0.363  0.00  0.00    -0.047 A 
ATOM      6  C4  UNL d   1       2.288  -2.678  -0.022  0.00  0.00    -0.004 A 
ENDROOT
TORSDOF 0
ENDMDL
