MODEL 1
REMARK minimizedAffinity -0.527704835
REMARK minimizedRMSD -1
REMARK  0 active torsions:
REMARK  status: ('A' for Active; 'I' for Inactive)
ROOT
ATOM      1  C   UNL d   1       5.733   2.398  -0.967  0.00  0.00     0.172 C 
ATOM      2  N   UNL d   1       5.841   3.787  -0.587  0.00  0.00    -0.070 N 
ATOM      3  C1  UNL d   1       5.897   4.848  -1.450  0.00  0.00    -0.004 A 
ATOM      4  C2  UNL d   1       5.996   5.999  -0.698  0.00  0.00    -0.047 A 
ATOM      5  C3  UNL d   1       5.999   5.616   0.664  0.00  0.00    -0.047 A 
ATOM      6  C4  UNL d   1       5.902   4.241   0.704  0.00  0.00    -0.004 A 
ENDROOT
TORSDOF 0
ENDMDL
