MODEL 1
REMARK minimizedAffinity -2.26749802
REMARK minimizedRMSD -1
REMARK  0 active torsions:
REMARK  status: ('A' for Active; 'I' for Inactive)
ROOT
ATOM      1  C   UNL d   1       3.993   0.413  -0.995  0.00  0.00     0.172 C 
ATOM      2  N   UNL d   1       3.295  -0.764  -1.457  0.00  0.00    -0.070 N 
ATOM      3  C1  UNL d   1       2.423  -1.516  -0.717  0.00  0.00    -0.004 A 
ATOM      4  C2  UNL d   1       1.972  -2.546  -1.514  0.00  0.00    -0.047 A 
ATOM      5  C3  UNL d   1       2.596  -2.408  -2.777  0.00  0.00    -0.047 A 
ATOM      6  C4  UNL d   1       3.410  -1.297  -2.713  0.00  0.00    -0.004 A 
ENDROOT
TORSDOF 0
ENDMDL
