MODEL 1
REMARK minimizedAffinity -0.347243756
REMARK minimizedRMSD -1
REMARK  0 active torsions:
REMARK  status: ('A' for Active; 'I' for Inactive)
ROOT
ATOM      1  C   UNL d   1      -0.872  -1.183  -0.031  0.00  0.00     0.172 C 
ATOM      2  N   UNL d   1       0.406  -0.566  -0.299  0.00  0.00    -0.070 N 
ATOM      3  C1  UNL d   1       1.532  -1.217  -0.729  0.00  0.00    -0.004 A 
ATOM      4  C2  UNL d   1       2.533  -0.280  -0.866  0.00  0.00    -0.047 A 
ATOM      5  C3  UNL d   1       1.991   0.976  -0.506  0.00  0.00    -0.047 A 
ATOM      6  C4  UNL d   1       0.673   0.770  -0.159  0.00  0.00    -0.004 A 
ENDROOT
TORSDOF 0
ENDMDL
