MODEL 1
REMARK minimizedAffinity -3.12739611
REMARK minimizedRMSD -1
REMARK  1 active torsions:
REMARK  status: ('A' for Active; 'I' for Inactive)
REMARK    1  A    between atoms: C1_2  and  C2_3 
ROOT
ATOM      1  C2  UNL d   1      -1.395   0.362   0.863  0.00  0.00    -0.081 A 
ATOM      2  C3  UNL d   1      -0.971   1.594   1.375  0.00  0.00     0.006 A 
ATOM      3  C4  UNL d   1      -1.602   2.153   2.489  0.00  0.00     0.002 A 
ATOM      4  C5  UNL d   1      -2.663   1.487   3.112  0.00  0.00    -0.080 A 
ATOM      5  C6  UNL d   1      -3.329   2.063   4.327  0.00  0.00     0.076 C 
ATOM      6  C7  UNL d   1      -3.098   0.265   2.590  0.00  0.00     0.002 A 
ATOM      7  C8  UNL d   1      -2.468  -0.295   1.477  0.00  0.00     0.006 A 
ENDROOT
BRANCH   1   8
ATOM      8  C1  UNL d   1      -0.674  -0.275  -0.298  0.00  0.00     0.054 C 
ATOM      9  C   UNL d   1      -0.103  -1.633   0.084  0.00  0.00     0.018 C 
ENDBRANCH   1   8
TORSDOF 1
ENDMDL
