MODEL 1
REMARK minimizedAffinity -3.75242901
REMARK minimizedRMSD -1
REMARK  1 active torsions:
REMARK  status: ('A' for Active; 'I' for Inactive)
REMARK    1  A    between atoms: C1_2  and  C2_3 
ROOT
ATOM      1  C2  UNL d   1      -0.952   0.369   0.353  0.00  0.00    -0.081 A 
ATOM      2  C3  UNL d   1      -1.128   1.553  -0.373  0.00  0.00     0.006 A 
ATOM      3  C4  UNL d   1      -0.277   1.865  -1.436  0.00  0.00     0.002 A 
ATOM      4  C5  UNL d   1       0.757   0.994  -1.797  0.00  0.00    -0.080 A 
ATOM      5  C6  UNL d   1       1.658   1.302  -2.956  0.00  0.00     0.076 C 
ATOM      6  C7  UNL d   1       0.943  -0.181  -1.061  0.00  0.00     0.002 A 
ATOM      7  C8  UNL d   1       0.093  -0.493   0.003  0.00  0.00     0.006 A 
ENDROOT
BRANCH   1   8
ATOM      8  C1  UNL d   1      -1.907  -0.001   1.458  0.00  0.00     0.054 C 
ATOM      9  C   UNL d   1      -1.968   1.084   2.524  0.00  0.00     0.018 C 
ENDBRANCH   1   8
TORSDOF 1
ENDMDL
