MODEL 1
REMARK minimizedAffinity -5.65820885
REMARK minimizedRMSD -1
REMARK  1 active torsions:
REMARK  status: ('A' for Active; 'I' for Inactive)
REMARK    1  A    between atoms: C1_2  and  C2_3 
ROOT
ATOM      1  C2  UNL d   1       0.814  -0.332  -0.553  0.00  0.00    -0.081 A 
ATOM      2  C3  UNL d   1       1.176   0.286   0.650  0.00  0.00     0.006 A 
ATOM      3  C4  UNL d   1       0.202   0.638   1.587  0.00  0.00     0.002 A 
ATOM      4  C5  UNL d   1      -1.149   0.371   1.340  0.00  0.00    -0.080 A 
ATOM      5  C6  UNL d   1      -2.202   0.716   2.351  0.00  0.00     0.076 C 
ATOM      6  C7  UNL d   1      -1.513  -0.231   0.131  0.00  0.00     0.002 A 
ATOM      7  C8  UNL d   1      -0.539  -0.582  -0.806  0.00  0.00     0.006 A 
ENDROOT
BRANCH   1   8
ATOM      8  C1  UNL d   1       1.868  -0.771  -1.537  0.00  0.00     0.054 C 
ATOM      9  C   UNL d   1       2.908   0.319  -1.757  0.00  0.00     0.018 C 
ENDBRANCH   1   8
TORSDOF 1
ENDMDL
