MODEL 1
REMARK minimizedAffinity -2.99212217
REMARK minimizedRMSD -1
REMARK  1 active torsions:
REMARK  status: ('A' for Active; 'I' for Inactive)
REMARK    1  A    between atoms: C1_2  and  C2_3 
ROOT
ATOM      1  C2  UNL d   1      -0.689  -0.024  -0.042  0.00  0.00    -0.081 A 
ATOM      2  C3  UNL d   1       0.214  -1.083  -0.196  0.00  0.00     0.006 A 
ATOM      3  C4  UNL d   1       1.218  -1.022  -1.165  0.00  0.00     0.002 A 
ATOM      4  C5  UNL d   1       1.342   0.100  -1.990  0.00  0.00    -0.080 A 
ATOM      5  C6  UNL d   1       2.434   0.191  -3.014  0.00  0.00     0.076 C 
ATOM      6  C7  UNL d   1       0.429   1.151  -1.848  0.00  0.00     0.002 A 
ATOM      7  C8  UNL d   1      -0.575   1.091  -0.880  0.00  0.00     0.006 A 
ENDROOT
BRANCH   1   8
ATOM      8  C1  UNL d   1      -1.732  -0.058   1.045  0.00  0.00     0.054 C 
ATOM      9  C   UNL d   1      -1.290   0.742   2.262  0.00  0.00     0.018 C 
ENDBRANCH   1   8
TORSDOF 1
ENDMDL
