MODEL 1
REMARK minimizedAffinity -4.43691635
REMARK minimizedRMSD -1
REMARK  1 active torsions:
REMARK  status: ('A' for Active; 'I' for Inactive)
REMARK    1  A    between atoms: C1_2  and  C2_3 
ROOT
ATOM      1  C2  UNL d   1      -0.902   0.304   0.321  0.00  0.00    -0.081 A 
ATOM      2  C3  UNL d   1      -0.450  -0.982   0.643  0.00  0.00     0.006 A 
ATOM      3  C4  UNL d   1       0.779  -1.441   0.164  0.00  0.00     0.002 A 
ATOM      4  C5  UNL d   1       1.580  -0.621  -0.637  0.00  0.00    -0.080 A 
ATOM      5  C6  UNL d   1       2.915  -1.091  -1.132  0.00  0.00     0.076 C 
ATOM      6  C7  UNL d   1       1.121   0.657  -0.973  0.00  0.00     0.002 A 
ATOM      7  C8  UNL d   1      -0.108   1.117  -0.495  0.00  0.00     0.006 A 
ENDROOT
BRANCH   1   8
ATOM      8  C1  UNL d   1      -2.197   0.826   0.889  0.00  0.00     0.054 C 
ATOM      9  C   UNL d   1      -2.366   0.419   2.346  0.00  0.00     0.018 C 
ENDBRANCH   1   8
TORSDOF 1
ENDMDL
