MODEL 1
REMARK minimizedAffinity -4.07786798
REMARK minimizedRMSD -1
REMARK  1 active torsions:
REMARK  status: ('A' for Active; 'I' for Inactive)
REMARK    1  A    between atoms: C1_2  and  C2_3 
ROOT
ATOM      1  C2  UNL d   1       1.490   0.765  -1.896  0.00  0.00    -0.081 A 
ATOM      2  C3  UNL d   1       2.193  -0.440  -2.018  0.00  0.00     0.006 A 
ATOM      3  C4  UNL d   1       1.851  -1.542  -1.231  0.00  0.00     0.002 A 
ATOM      4  C5  UNL d   1       0.797  -1.461  -0.315  0.00  0.00    -0.080 A 
ATOM      5  C6  UNL d   1       0.400  -2.646   0.514  0.00  0.00     0.076 C 
ATOM      6  C7  UNL d   1       0.107  -0.251  -0.180  0.00  0.00     0.002 A 
ATOM      7  C8  UNL d   1       0.448   0.851  -0.966  0.00  0.00     0.006 A 
ENDROOT
BRANCH   1   8
ATOM      8  C1  UNL d   1       1.815   1.935  -2.789  0.00  0.00     0.054 C 
ATOM      9  C   UNL d   1       0.666   2.933  -2.832  0.00  0.00     0.018 C 
ENDBRANCH   1   8
TORSDOF 1
ENDMDL
