MODEL 1
REMARK minimizedAffinity -4.56617355
REMARK minimizedRMSD -1
REMARK  1 active torsions:
REMARK  status: ('A' for Active; 'I' for Inactive)
REMARK    1  A    between atoms: C1_2  and  C2_3 
ROOT
ATOM      1  C2  UNL d   1      -0.832  -0.103   0.963  0.00  0.00    -0.081 A 
ATOM      2  C3  UNL d   1      -0.163  -1.331   1.048  0.00  0.00     0.006 A 
ATOM      3  C4  UNL d   1       0.928  -1.601   0.219  0.00  0.00     0.002 A 
ATOM      4  C5  UNL d   1       1.374  -0.646  -0.702  0.00  0.00    -0.080 A 
ATOM      5  C6  UNL d   1       2.563  -0.912  -1.577  0.00  0.00     0.076 C 
ATOM      6  C7  UNL d   1       0.695   0.573  -0.799  0.00  0.00     0.002 A 
ATOM      7  C8  UNL d   1      -0.397   0.843   0.029  0.00  0.00     0.006 A 
ENDROOT
BRANCH   1   8
ATOM      8  C1  UNL d   1      -1.969   0.216   1.900  0.00  0.00     0.054 C 
ATOM      9  C   UNL d   1      -1.518   1.141   3.021  0.00  0.00     0.018 C 
ENDBRANCH   1   8
TORSDOF 1
ENDMDL
