MODEL 1
REMARK minimizedAffinity -1.04071093
REMARK minimizedRMSD -1
REMARK  1 active torsions:
REMARK  status: ('A' for Active; 'I' for Inactive)
REMARK    1  A    between atoms: C1_2  and  C2_3 
ROOT
ATOM      1  C2  UNL d   1      -0.958   0.908   2.374  0.00  0.00    -0.081 A 
ATOM      2  C3  UNL d   1      -0.209   2.065   2.126  0.00  0.00     0.006 A 
ATOM      3  C4  UNL d   1       0.272   2.335   0.843  0.00  0.00     0.002 A 
ATOM      4  C5  UNL d   1       0.007   1.459  -0.214  0.00  0.00    -0.080 A 
ATOM      5  C6  UNL d   1       0.492   1.754  -1.602  0.00  0.00     0.076 C 
ATOM      6  C7  UNL d   1      -0.727   0.294   0.036  0.00  0.00     0.002 A 
ATOM      7  C8  UNL d   1      -1.208   0.023   1.319  0.00  0.00     0.006 A 
ENDROOT
BRANCH   1   8
ATOM      8  C1  UNL d   1      -1.534   0.645   3.742  0.00  0.00     0.054 C 
ATOM      9  C   UNL d   1      -2.686  -0.347   3.677  0.00  0.00     0.018 C 
ENDBRANCH   1   8
TORSDOF 1
ENDMDL
