MODEL 1
REMARK minimizedAffinity -3.652776
REMARK minimizedRMSD -1
REMARK  1 active torsions:
REMARK  status: ('A' for Active; 'I' for Inactive)
REMARK    1  A    between atoms: C1_2  and  C2_3 
ROOT
ATOM      1  C2  UNL d   1       0.308  -0.296  -0.109  0.00  0.00    -0.081 A 
ATOM      2  C3  UNL d   1       0.802   0.982  -0.399  0.00  0.00     0.006 A 
ATOM      3  C4  UNL d   1       1.870   1.145  -1.284  0.00  0.00     0.002 A 
ATOM      4  C5  UNL d   1       2.458   0.034  -1.899  0.00  0.00    -0.080 A 
ATOM      5  C6  UNL d   1       3.586   0.197  -2.874  0.00  0.00     0.076 C 
ATOM      6  C7  UNL d   1       1.976  -1.244  -1.596  0.00  0.00     0.002 A 
ATOM      7  C8  UNL d   1       0.908  -1.407  -0.711  0.00  0.00     0.006 A 
ENDROOT
BRANCH   1   8
ATOM      8  C1  UNL d   1      -0.886  -0.470   0.795  0.00  0.00     0.054 C 
ATOM      9  C   UNL d   1      -1.704   0.810   0.882  0.00  0.00     0.018 C 
ENDBRANCH   1   8
TORSDOF 1
ENDMDL
