MODEL 1
REMARK minimizedAffinity -1.38969231
REMARK minimizedRMSD -1
REMARK  1 active torsions:
REMARK  status: ('A' for Active; 'I' for Inactive)
REMARK    1  A    between atoms: C1_2  and  C2_3 
ROOT
ATOM      1  C2  UNL d   1      -0.820   0.418   1.534  0.00  0.00    -0.081 A 
ATOM      2  C3  UNL d   1      -0.019  -0.715   1.726  0.00  0.00     0.006 A 
ATOM      3  C4  UNL d   1       0.597  -1.338   0.638  0.00  0.00     0.002 A 
ATOM      4  C5  UNL d   1       0.431  -0.835  -0.657  0.00  0.00    -0.080 A 
ATOM      5  C6  UNL d   1       1.112  -1.477  -1.829  0.00  0.00     0.076 C 
ATOM      6  C7  UNL d   1      -0.383   0.286  -0.850  0.00  0.00     0.002 A 
ATOM      7  C8  UNL d   1      -1.000   0.910   0.237  0.00  0.00     0.006 A 
ENDROOT
BRANCH   1   8
ATOM      8  C1  UNL d   1      -1.434   1.131   2.712  0.00  0.00     0.054 C 
ATOM      9  C   UNL d   1      -1.267   0.326   3.994  0.00  0.00     0.018 C 
ENDBRANCH   1   8
TORSDOF 1
ENDMDL
