MODEL 1
REMARK minimizedAffinity 0.115272582
REMARK minimizedRMSD -1
REMARK  1 active torsions:
REMARK  status: ('A' for Active; 'I' for Inactive)
REMARK    1  A    between atoms: C1_2  and  C2_3 
ROOT
ATOM      1  C2  UNL d   1       4.875  -1.216   4.936  0.00  0.00    -0.081 A 
ATOM      2  C3  UNL d   1       5.599  -1.768   6.000  0.00  0.00     0.006 A 
ATOM      3  C4  UNL d   1       5.954  -3.119   5.989  0.00  0.00     0.002 A 
ATOM      4  C5  UNL d   1       5.599  -3.938   4.912  0.00  0.00    -0.080 A 
ATOM      5  C6  UNL d   1       6.000  -5.382   4.873  0.00  0.00     0.076 C 
ATOM      6  C7  UNL d   1       4.860  -3.390   3.857  0.00  0.00     0.002 A 
ATOM      7  C8  UNL d   1       4.504  -2.040   3.868  0.00  0.00     0.006 A 
ENDROOT
BRANCH   1   8
ATOM      8  C1  UNL d   1       4.546   0.255   4.915  0.00  0.00     0.054 C 
ATOM      9  C   UNL d   1       5.773   1.101   5.224  0.00  0.00     0.018 C 
ENDBRANCH   1   8
TORSDOF 1
ENDMDL
