MODEL 1
REMARK minimizedAffinity -4.57223749
REMARK minimizedRMSD -1
REMARK  1 active torsions:
REMARK  status: ('A' for Active; 'I' for Inactive)
REMARK    1  A    between atoms: C1_2  and  C2_3 
ROOT
ATOM      1  C2  UNL d   1       0.915   0.189  -1.244  0.00  0.00    -0.081 A 
ATOM      2  C3  UNL d   1       0.187   1.369  -1.048  0.00  0.00     0.006 A 
ATOM      3  C4  UNL d   1      -0.896   1.395  -0.167  0.00  0.00     0.002 A 
ATOM      4  C5  UNL d   1      -1.264   0.245   0.539  0.00  0.00    -0.080 A 
ATOM      5  C6  UNL d   1      -2.407   0.267   1.511  0.00  0.00     0.076 C 
ATOM      6  C7  UNL d   1      -0.548  -0.939   0.331  0.00  0.00     0.002 A 
ATOM      7  C8  UNL d   1       0.535  -0.965  -0.551  0.00  0.00     0.006 A 
ENDROOT
BRANCH   1   8
ATOM      8  C1  UNL d   1       2.124   0.174  -2.144  0.00  0.00     0.054 C 
ATOM      9  C   UNL d   1       2.675  -1.235  -2.308  0.00  0.00     0.018 C 
ENDBRANCH   1   8
TORSDOF 1
ENDMDL
