MODEL 1
REMARK minimizedAffinity -4.11350012
REMARK minimizedRMSD -1
REMARK  1 active torsions:
REMARK  status: ('A' for Active; 'I' for Inactive)
REMARK    1  A    between atoms: C1_2  and  C2_3 
ROOT
ATOM      1  C2  UNL d   1       0.473  -0.815  -0.561  0.00  0.00    -0.081 A 
ATOM      2  C3  UNL d   1       0.168   0.545  -0.699  0.00  0.00     0.006 A 
ATOM      3  C4  UNL d   1       0.894   1.348  -1.581  0.00  0.00     0.002 A 
ATOM      4  C5  UNL d   1       1.932   0.804  -2.345  0.00  0.00    -0.080 A 
ATOM      5  C6  UNL d   1       2.700   1.648  -3.318  0.00  0.00     0.076 C 
ATOM      6  C7  UNL d   1       2.249  -0.550  -2.194  0.00  0.00     0.002 A 
ATOM      7  C8  UNL d   1       1.523  -1.354  -1.312  0.00  0.00     0.006 A 
ENDROOT
BRANCH   1   8
ATOM      8  C1  UNL d   1      -0.351  -1.698   0.342  0.00  0.00     0.054 C 
ATOM      9  C   UNL d   1      -0.387  -3.131  -0.169  0.00  0.00     0.018 C 
ENDBRANCH   1   8
TORSDOF 1
ENDMDL
