MODEL 1
REMARK minimizedAffinity -2.21248794
REMARK minimizedRMSD -1
REMARK  1 active torsions:
REMARK  status: ('A' for Active; 'I' for Inactive)
REMARK    1  A    between atoms: N_2  and  C1_3 
ROOT
ATOM      1  C1  UNL d   1       0.345  -0.488  -0.620  0.00  0.00     0.143 A 
ATOM      2  C2  UNL d   1       1.263  -0.967   0.322  0.00  0.00    -0.057 A 
ATOM      3  C3  UNL d   1       1.889  -2.209   0.159  0.00  0.00     0.033 A 
ATOM      4  C4  UNL d   1       1.584  -3.010  -0.937  0.00  0.00    -0.042 A 
ATOM      5  C5  UNL d   1       0.656  -2.565  -1.872  0.00  0.00     0.033 A 
ATOM      6  C6  UNL d   1       0.040  -1.321  -1.708  0.00  0.00    -0.057 A 
ENDROOT
BRANCH   1   7
ATOM      7  N   UNL d   1      -0.383   0.694  -0.464  0.00  0.00    -0.732 N 
ATOM      8  C   UNL d   1       0.295   1.962  -0.308  0.00  0.00     0.284 C 
ATOM      9  H3  UNL d   1      -1.199   0.730  -1.071  0.00  0.00     0.395 HD
ENDBRANCH   1   7
TORSDOF 1
ENDMDL
