MODEL 1
REMARK minimizedAffinity -4.87466288
REMARK minimizedRMSD -1
REMARK  1 active torsions:
REMARK  status: ('A' for Active; 'I' for Inactive)
REMARK    1  A    between atoms: N_2  and  C1_3 
ROOT
ATOM      1  C1  UNL d   1       0.204   0.079  -0.035  0.00  0.00     0.143 A 
ATOM      2  C2  UNL d   1       0.292  -1.158  -0.682  0.00  0.00    -0.057 A 
ATOM      3  C3  UNL d   1       1.347  -2.041  -0.420  0.00  0.00     0.033 A 
ATOM      4  C4  UNL d   1       2.351  -1.689   0.476  0.00  0.00    -0.042 A 
ATOM      5  C5  UNL d   1       2.296  -0.454   1.113  0.00  0.00     0.033 A 
ATOM      6  C6  UNL d   1       1.237   0.421   0.852  0.00  0.00    -0.057 A 
ENDROOT
BRANCH   1   7
ATOM      7  N   UNL d   1      -0.766   1.041  -0.325  0.00  0.00    -0.732 N 
ATOM      8  C   UNL d   1      -2.167   0.773  -0.082  0.00  0.00     0.284 C 
ATOM      9  H3  UNL d   1      -0.472   1.980  -0.066  0.00  0.00     0.395 HD
ENDBRANCH   1   7
TORSDOF 1
ENDMDL
