MODEL 1
REMARK minimizedAffinity -4.75083923
REMARK minimizedRMSD -1
REMARK  1 active torsions:
REMARK  status: ('A' for Active; 'I' for Inactive)
REMARK    1  A    between atoms: N_2  and  C1_3 
ROOT
ATOM      1  C1  UNL d   1       0.303  -0.211   0.024  0.00  0.00     0.143 A 
ATOM      2  C2  UNL d   1       0.626  -1.309  -0.780  0.00  0.00    -0.057 A 
ATOM      3  C3  UNL d   1       1.768  -2.080  -0.532  0.00  0.00     0.033 A 
ATOM      4  C4  UNL d   1       2.626  -1.748   0.511  0.00  0.00    -0.042 A 
ATOM      5  C5  UNL d   1       2.338  -0.645   1.308  0.00  0.00     0.033 A 
ATOM      6  C6  UNL d   1       1.193   0.117   1.060  0.00  0.00    -0.057 A 
ENDROOT
BRANCH   1   7
ATOM      7  N   UNL d   1      -0.764   0.653  -0.231  0.00  0.00    -0.732 N 
ATOM      8  C   UNL d   1      -1.991   0.554   0.530  0.00  0.00     0.284 C 
ATOM      9  H3  UNL d   1      -0.458   1.608  -0.403  0.00  0.00     0.395 HD
ENDBRANCH   1   7
TORSDOF 1
ENDMDL
