MODEL 1
REMARK minimizedAffinity -5.30822754
REMARK minimizedRMSD -1
REMARK  1 active torsions:
REMARK  status: ('A' for Active; 'I' for Inactive)
REMARK    1  A    between atoms: N_2  and  C1_3 
ROOT
ATOM      1  C1  UNL d   1       0.671  -0.040   0.181  0.00  0.00     0.143 A 
ATOM      2  C2  UNL d   1       0.997  -1.401   0.178  0.00  0.00    -0.057 A 
ATOM      3  C3  UNL d   1       2.255  -1.847   0.602  0.00  0.00     0.033 A 
ATOM      4  C4  UNL d   1       3.221  -0.935   1.012  0.00  0.00    -0.042 A 
ATOM      5  C5  UNL d   1       2.928   0.424   1.000  0.00  0.00     0.033 A 
ATOM      6  C6  UNL d   1       1.668   0.863   0.581  0.00  0.00    -0.057 A 
ENDROOT
BRANCH   1   7
ATOM      7  N   UNL d   1      -0.526   0.474  -0.322  0.00  0.00    -0.732 N 
ATOM      8  C   UNL d   1      -1.769   0.283   0.394  0.00  0.00     0.284 C 
ATOM      9  H3  UNL d   1      -0.414   1.404  -0.718  0.00  0.00     0.395 HD
ENDBRANCH   1   7
TORSDOF 1
ENDMDL
