MODEL 1
REMARK minimizedAffinity -4.51135206
REMARK minimizedRMSD -1
REMARK  1 active torsions:
REMARK  status: ('A' for Active; 'I' for Inactive)
REMARK    1  A    between atoms: N_2  and  C1_3 
ROOT
ATOM      1  C1  UNL d   1       0.858  -0.783  -0.334  0.00  0.00     0.143 A 
ATOM      2  C2  UNL d   1       1.603  -1.460  -1.306  0.00  0.00    -0.057 A 
ATOM      3  C3  UNL d   1       2.980  -1.662  -1.156  0.00  0.00     0.033 A 
ATOM      4  C4  UNL d   1       3.645  -1.164  -0.040  0.00  0.00    -0.042 A 
ATOM      5  C5  UNL d   1       2.929  -0.466   0.927  0.00  0.00     0.033 A 
ATOM      6  C6  UNL d   1       1.553  -0.273   0.775  0.00  0.00    -0.057 A 
ENDROOT
BRANCH   1   7
ATOM      7  N   UNL d   1      -0.495  -0.464  -0.472  0.00  0.00    -0.732 N 
ATOM      8  C   UNL d   1      -0.953   0.897  -0.299  0.00  0.00     0.284 C 
ATOM      9  H3  UNL d   1      -0.932  -0.954  -1.249  0.00  0.00     0.395 HD
ENDBRANCH   1   7
TORSDOF 1
ENDMDL
