MODEL 1
REMARK minimizedAffinity -1.99122143
REMARK minimizedRMSD -1
REMARK  1 active torsions:
REMARK  status: ('A' for Active; 'I' for Inactive)
REMARK    1  A    between atoms: N_2  and  C1_3 
ROOT
ATOM      1  C1  UNL d   1       1.858  -0.267   0.270  0.00  0.00     0.143 A 
ATOM      2  C2  UNL d   1       1.595  -1.132  -0.798  0.00  0.00    -0.057 A 
ATOM      3  C3  UNL d   1       0.286  -1.507  -1.122  0.00  0.00     0.033 A 
ATOM      4  C4  UNL d   1      -0.785  -1.046  -0.364  0.00  0.00    -0.042 A 
ATOM      5  C5  UNL d   1      -0.546  -0.205   0.717  0.00  0.00     0.033 A 
ATOM      6  C6  UNL d   1       0.763   0.171   1.032  0.00  0.00    -0.057 A 
ENDROOT
BRANCH   1   7
ATOM      7  N   UNL d   1       3.144   0.065   0.704  0.00  0.00    -0.732 N 
ATOM      8  C   UNL d   1       3.753   1.318   0.313  0.00  0.00     0.284 C 
ATOM      9  H3  UNL d   1       3.303  -0.190   1.676  0.00  0.00     0.395 HD
ENDBRANCH   1   7
TORSDOF 1
ENDMDL
