MODEL 1
REMARK minimizedAffinity -4.14611721
REMARK minimizedRMSD -1
REMARK  1 active torsions:
REMARK  status: ('A' for Active; 'I' for Inactive)
REMARK    1  A    between atoms: N_2  and  C1_3 
ROOT
ATOM      1  C1  UNL d   1      -0.845   0.218  -0.130  0.00  0.00     0.143 A 
ATOM      2  C2  UNL d   1       0.336   0.139   0.615  0.00  0.00    -0.057 A 
ATOM      3  C3  UNL d   1       1.234  -0.921   0.442  0.00  0.00     0.033 A 
ATOM      4  C4  UNL d   1       0.951  -1.940  -0.462  0.00  0.00    -0.042 A 
ATOM      5  C5  UNL d   1      -0.230  -1.895  -1.195  0.00  0.00     0.033 A 
ATOM      6  C6  UNL d   1      -1.119  -0.830  -1.023  0.00  0.00    -0.057 A 
ENDROOT
BRANCH   1   7
ATOM      7  N   UNL d   1      -1.825   1.194   0.066  0.00  0.00    -0.732 N 
ATOM      8  C   UNL d   1      -3.227   0.877  -0.105  0.00  0.00     0.284 C 
ATOM      9  H3  UNL d   1      -1.628   1.786   0.870  0.00  0.00     0.395 HD
ENDBRANCH   1   7
TORSDOF 1
ENDMDL
