MODEL 1
REMARK minimizedAffinity -2.0439322
REMARK minimizedRMSD -1
REMARK  1 active torsions:
REMARK  status: ('A' for Active; 'I' for Inactive)
REMARK    1  A    between atoms: N_2  and  C1_3 
ROOT
ATOM      1  C1  UNL d   1       0.194  -0.653  -1.474  0.00  0.00     0.143 A 
ATOM      2  C2  UNL d   1       1.549  -0.450  -1.190  0.00  0.00    -0.057 A 
ATOM      3  C3  UNL d   1       2.368  -1.503  -0.767  0.00  0.00     0.033 A 
ATOM      4  C4  UNL d   1       1.839  -2.778  -0.592  0.00  0.00    -0.042 A 
ATOM      5  C5  UNL d   1       0.489  -2.998  -0.845  0.00  0.00     0.033 A 
ATOM      6  C6  UNL d   1      -0.322  -1.943  -1.273  0.00  0.00    -0.057 A 
ENDROOT
BRANCH   1   7
ATOM      7  N   UNL d   1      -0.694   0.374  -1.803  0.00  0.00    -0.732 N 
ATOM      8  C   UNL d   1      -2.034   0.391  -1.258  0.00  0.00     0.284 C 
ATOM      9  H3  UNL d   1      -0.243   1.285  -1.827  0.00  0.00     0.395 HD
ENDBRANCH   1   7
TORSDOF 1
ENDMDL
