MODEL 1
REMARK minimizedAffinity 4.89390421
REMARK minimizedRMSD -1
REMARK  0 active torsions:
REMARK  status: ('A' for Active; 'I' for Inactive)
ROOT
ATOM      1  C4' PXY d   1       3.111  -2.818  -0.132  0.00  0.00     0.077 C 
ATOM      2  C1' PXY d   1       1.929   2.722  -1.279  0.00  0.00     0.077 C 
ATOM      3  C1  PXY d   1       2.227   1.266  -0.982  0.00  0.00    -0.082 A 
ATOM      4  C2  PXY d   1       3.154   0.957  -0.090  0.00  0.00     0.003 A 
ATOM      5  C3  PXY d   1       3.459  -0.355   0.167  0.00  0.00     0.003 A 
ATOM      6  C4  PXY d   1       2.770  -1.361  -0.456  0.00  0.00    -0.082 A 
ATOM      7  C5  PXY d   1       1.816  -1.054  -1.360  0.00  0.00     0.003 A 
ATOM      8  C6  PXY d   1       1.550   0.284  -1.637  0.00  0.00     0.003 A 
ENDROOT
TORSDOF 0
ENDMDL
