MODEL 1
REMARK minimizedAffinity 3.83006406
REMARK minimizedRMSD -1
REMARK  0 active torsions:
REMARK  status: ('A' for Active; 'I' for Inactive)
ROOT
ATOM      1  C4' PXY d   1       0.137   4.076   2.922  0.00  0.00     0.077 C 
ATOM      2  C1' PXY d   1       4.641   5.988   5.999  0.00  0.00     0.077 C 
ATOM      3  C1  PXY d   1       3.452   5.490   5.202  0.00  0.00    -0.082 A 
ATOM      4  C2  PXY d   1       3.628   4.566   4.271  0.00  0.00     0.003 A 
ATOM      5  C3  PXY d   1       2.569   4.128   3.519  0.00  0.00     0.003 A 
ATOM      6  C4  PXY d   1       1.307   4.602   3.758  0.00  0.00    -0.082 A 
ATOM      7  C5  PXY d   1       1.117   5.537   4.713  0.00  0.00     0.003 A 
ATOM      8  C6  PXY d   1       2.212   5.999   5.437  0.00  0.00     0.003 A 
ENDROOT
TORSDOF 0
ENDMDL
