MODEL 1
REMARK minimizedAffinity 7.65798521
REMARK minimizedRMSD -1
REMARK  0 active torsions:
REMARK  status: ('A' for Active; 'I' for Inactive)
ROOT
ATOM      1  C4' PXY d   1      -2.775   0.489   2.692  0.00  0.00     0.077 C 
ATOM      2  C1' PXY d   1       2.739  -1.076   3.442  0.00  0.00     0.077 C 
ATOM      3  C1  PXY d   1       1.291  -0.675   3.236  0.00  0.00    -0.082 A 
ATOM      4  C2  PXY d   1       0.913   0.566   3.497  0.00  0.00     0.003 A 
ATOM      5  C3  PXY d   1      -0.399   0.937   3.347  0.00  0.00     0.003 A 
ATOM      6  C4  PXY d   1      -1.322   0.042   2.875  0.00  0.00    -0.082 A 
ATOM      7  C5  PXY d   1      -0.941  -1.222   2.597  0.00  0.00     0.003 A 
ATOM      8  C6  PXY d   1       0.386  -1.590   2.795  0.00  0.00     0.003 A 
ENDROOT
TORSDOF 0
ENDMDL
