MODEL 1
REMARK minimizedAffinity 2.24185538
REMARK minimizedRMSD -1
REMARK  0 active torsions:
REMARK  status: ('A' for Active; 'I' for Inactive)
ROOT
ATOM      1  C4' PXY d   1      -5.850   5.155  -5.996  0.00  0.00     0.077 C 
ATOM      2  C1' PXY d   1      -1.184   2.155  -4.369  0.00  0.00     0.077 C 
ATOM      3  C1  PXY d   1      -2.409   2.934  -4.806  0.00  0.00    -0.082 A 
ATOM      4  C2  PXY d   1      -2.560   4.189  -4.415  0.00  0.00     0.003 A 
ATOM      5  C3  PXY d   1      -3.677   4.898  -4.775  0.00  0.00     0.003 A 
ATOM      6  C4  PXY d   1      -4.624   4.333  -5.587  0.00  0.00    -0.082 A 
ATOM      7  C5  PXY d   1      -4.472   3.057  -5.998  0.00  0.00     0.003 A 
ATOM      8  C6  PXY d   1      -3.351   2.341  -5.588  0.00  0.00     0.003 A 
ENDROOT
TORSDOF 0
ENDMDL
