MODEL 1
REMARK minimizedAffinity 5.29118538
REMARK minimizedRMSD -1
REMARK  0 active torsions:
REMARK  status: ('A' for Active; 'I' for Inactive)
ROOT
ATOM      1  C4' PXY d   1       2.732  -1.687   3.210  0.00  0.00     0.077 C 
ATOM      2  C1' PXY d   1       5.385  -6.000   6.000  0.00  0.00     0.077 C 
ATOM      3  C1  PXY d   1       4.688  -4.862   5.280  0.00  0.00    -0.082 A 
ATOM      4  C2  PXY d   1       4.096  -5.089   4.118  0.00  0.00     0.003 A 
ATOM      5  C3  PXY d   1       3.488  -4.065   3.438  0.00  0.00     0.003 A 
ATOM      6  C4  PXY d   1       3.440  -2.807   3.977  0.00  0.00    -0.082 A 
ATOM      7  C5  PXY d   1       4.033  -2.571   5.167  0.00  0.00     0.003 A 
ATOM      8  C6  PXY d   1       4.679  -3.614   5.822  0.00  0.00     0.003 A 
ENDROOT
TORSDOF 0
ENDMDL
