MODEL 1
REMARK minimizedAffinity 4.14378548
REMARK minimizedRMSD -1
REMARK  0 active torsions:
REMARK  status: ('A' for Active; 'I' for Inactive)
ROOT
ATOM      1  C4' PXY d   1      -0.747  -1.892   1.988  0.00  0.00     0.077 C 
ATOM      2  C1' PXY d   1       2.213  -0.394  -2.746  0.00  0.00     0.077 C 
ATOM      3  C1  PXY d   1       1.448  -0.792  -1.500  0.00  0.00    -0.082 A 
ATOM      4  C2  PXY d   1       0.133  -0.932  -1.556  0.00  0.00     0.003 A 
ATOM      5  C3  PXY d   1      -0.578  -1.260  -0.431  0.00  0.00     0.003 A 
ATOM      6  C4  PXY d   1       0.068  -1.500   0.752  0.00  0.00    -0.082 A 
ATOM      7  C5  PXY d   1       1.410  -1.370   0.815  0.00  0.00     0.003 A 
ATOM      8  C6  PXY d   1       2.109  -0.996  -0.329  0.00  0.00     0.003 A 
ENDROOT
TORSDOF 0
ENDMDL
