MODEL 1
REMARK minimizedAffinity 3.91504979
REMARK minimizedRMSD -1
REMARK  0 active torsions:
REMARK  status: ('A' for Active; 'I' for Inactive)
ROOT
ATOM      1  C4' PXY d   1       1.853  -1.373   3.988  0.00  0.00     0.077 C 
ATOM      2  C1' PXY d   1      -1.961  -1.419  -0.357  0.00  0.00     0.077 C 
ATOM      3  C1  PXY d   1      -0.969  -1.414   0.790  0.00  0.00    -0.082 A 
ATOM      4  C2  PXY d   1      -0.039  -0.474   0.846  0.00  0.00     0.003 A 
ATOM      5  C3  PXY d   1       0.886  -0.473   1.859  0.00  0.00     0.003 A 
ATOM      6  C4  PXY d   1       0.825  -1.412   2.853  0.00  0.00    -0.082 A 
ATOM      7  C5  PXY d   1      -0.128  -2.368   2.809  0.00  0.00     0.003 A 
ATOM      8  C6  PXY d   1      -1.032  -2.376   1.751  0.00  0.00     0.003 A 
ENDROOT
TORSDOF 0
ENDMDL
