MODEL 1
REMARK minimizedAffinity 5.61316824
REMARK minimizedRMSD -1
REMARK  0 active torsions:
REMARK  status: ('A' for Active; 'I' for Inactive)
ROOT
ATOM      1  C4' PXY d   1       0.034  -1.099  -2.339  0.00  0.00     0.077 C 
ATOM      2  C1' PXY d   1       3.534   2.587   0.416  0.00  0.00     0.077 C 
ATOM      3  C1  PXY d   1       2.625   1.610  -0.304  0.00  0.00    -0.082 A 
ATOM      4  C2  PXY d   1       1.779   2.057  -1.219  0.00  0.00     0.003 A 
ATOM      5  C3  PXY d   1       0.927   1.192  -1.857  0.00  0.00     0.003 A 
ATOM      6  C4  PXY d   1       0.978  -0.151  -1.593  0.00  0.00    -0.082 A 
ATOM      7  C5  PXY d   1       1.845  -0.615  -0.669  0.00  0.00     0.003 A 
ATOM      8  C6  PXY d   1       2.673   0.284  -0.003  0.00  0.00     0.003 A 
ENDROOT
TORSDOF 0
ENDMDL
