MODEL 1
REMARK minimizedAffinity -3.92804003
REMARK minimizedRMSD -1
REMARK  1 active torsions:
REMARK  status: ('A' for Active; 'I' for Inactive)
REMARK    1  A    between atoms: C1_2  and  C2_3 
ROOT
ATOM      1  C2  UNL d   1      -0.346   0.262   0.552  0.00  0.00    -0.081 A 
ATOM      2  C3  UNL d   1       0.982   0.390   0.128  0.00  0.00     0.006 A 
ATOM      3  C4  UNL d   1       1.549  -0.564  -0.721  0.00  0.00     0.002 A 
ATOM      4  C5  UNL d   1       0.796  -1.656  -1.166  0.00  0.00    -0.080 A 
ATOM      5  C6  UNL d   1       1.383  -2.670  -2.101  0.00  0.00     0.076 C 
ATOM      6  C7  UNL d   1      -0.526  -1.793  -0.728  0.00  0.00     0.002 A 
ATOM      7  C8  UNL d   1      -1.093  -0.840   0.122  0.00  0.00     0.006 A 
ENDROOT
BRANCH   1   8
ATOM      8  C1  UNL d   1      -0.980   1.323   1.415  0.00  0.00     0.054 C 
ATOM      9  C   UNL d   1      -2.266   1.847   0.793  0.00  0.00     0.018 C 
ENDBRANCH   1   8
TORSDOF 1
ENDMDL
