MODEL 1
REMARK minimizedAffinity -3.46155214
REMARK minimizedRMSD -1
REMARK  1 active torsions:
REMARK  status: ('A' for Active; 'I' for Inactive)
REMARK    1  A    between atoms: C1_2  and  C2_3 
ROOT
ATOM      1  C2  UNL d   1       0.563  -1.587  -0.987  0.00  0.00    -0.081 A 
ATOM      2  C3  UNL d   1       1.456  -0.734  -0.327  0.00  0.00     0.006 A 
ATOM      3  C4  UNL d   1       0.984   0.237   0.559  0.00  0.00     0.002 A 
ATOM      4  C5  UNL d   1      -0.387   0.365   0.807  0.00  0.00    -0.080 A 
ATOM      5  C6  UNL d   1      -0.904   1.383   1.779  0.00  0.00     0.076 C 
ATOM      6  C7  UNL d   1      -1.280  -0.475   0.134  0.00  0.00     0.002 A 
ATOM      7  C8  UNL d   1      -0.809  -1.445  -0.753  0.00  0.00     0.006 A 
ENDROOT
BRANCH   1   8
ATOM      8  C1  UNL d   1       1.073  -2.677  -1.895  0.00  0.00     0.054 C 
ATOM      9  C   UNL d   1       0.080  -2.981  -3.007  0.00  0.00     0.018 C 
ENDBRANCH   1   8
TORSDOF 1
ENDMDL
