MODEL 1
REMARK minimizedAffinity -4.41792774
REMARK minimizedRMSD -1
REMARK  1 active torsions:
REMARK  status: ('A' for Active; 'I' for Inactive)
REMARK    1  A    between atoms: C1_2  and  C2_3 
ROOT
ATOM      1  C2  UNL d   1       0.433   0.429  -0.889  0.00  0.00    -0.081 A 
ATOM      2  C3  UNL d   1       0.333   1.802  -1.143  0.00  0.00     0.006 A 
ATOM      3  C4  UNL d   1      -0.212   2.662  -0.186  0.00  0.00     0.002 A 
ATOM      4  C5  UNL d   1      -0.659   2.164   1.042  0.00  0.00    -0.080 A 
ATOM      5  C6  UNL d   1      -1.219   3.079   2.090  0.00  0.00     0.076 C 
ATOM      6  C7  UNL d   1      -0.575   0.789   1.289  0.00  0.00     0.002 A 
ATOM      7  C8  UNL d   1      -0.031  -0.070   0.333  0.00  0.00     0.006 A 
ENDROOT
BRANCH   1   8
ATOM      8  C1  UNL d   1       1.080  -0.491  -1.893  0.00  0.00     0.054 C 
ATOM      9  C   UNL d   1       1.262  -1.891  -1.324  0.00  0.00     0.018 C 
ENDBRANCH   1   8
TORSDOF 1
ENDMDL
