MODEL 1
REMARK minimizedAffinity -4.03765583
REMARK minimizedRMSD -1
REMARK  1 active torsions:
REMARK  status: ('A' for Active; 'I' for Inactive)
REMARK    1  A    between atoms: C1_2  and  C2_3 
ROOT
ATOM      1  C2  UNL d   1      -1.168   1.371   0.586  0.00  0.00    -0.081 A 
ATOM      2  C3  UNL d   1      -0.834   0.412   1.550  0.00  0.00     0.006 A 
ATOM      3  C4  UNL d   1      -0.065  -0.702   1.204  0.00  0.00     0.002 A 
ATOM      4  C5  UNL d   1       0.390  -0.870  -0.108  0.00  0.00    -0.080 A 
ATOM      5  C6  UNL d   1       1.241  -2.046  -0.486  0.00  0.00     0.076 C 
ATOM      6  C7  UNL d   1       0.042   0.079  -1.075  0.00  0.00     0.002 A 
ATOM      7  C8  UNL d   1      -0.728   1.192  -0.730  0.00  0.00     0.006 A 
ENDROOT
BRANCH   1   8
ATOM      8  C1  UNL d   1      -1.942   2.606   0.970  0.00  0.00     0.054 C 
ATOM      9  C   UNL d   1      -1.288   3.864   0.416  0.00  0.00     0.018 C 
ENDBRANCH   1   8
TORSDOF 1
ENDMDL
