MODEL 1
REMARK minimizedAffinity -5.12375641
REMARK minimizedRMSD -1
REMARK  1 active torsions:
REMARK  status: ('A' for Active; 'I' for Inactive)
REMARK    1  A    between atoms: C1_2  and  C2_3 
ROOT
ATOM      1  C2  UNL d   1       0.384  -2.872  -0.842  0.00  0.00    -0.081 A 
ATOM      2  C3  UNL d   1       0.162  -2.248   0.392  0.00  0.00     0.006 A 
ATOM      3  C4  UNL d   1      -0.020  -0.865   0.464  0.00  0.00     0.002 A 
ATOM      4  C5  UNL d   1       0.009  -0.084  -0.697  0.00  0.00    -0.080 A 
ATOM      5  C6  UNL d   1      -0.215   1.398  -0.637  0.00  0.00     0.076 C 
ATOM      6  C7  UNL d   1       0.248  -0.705  -1.927  0.00  0.00     0.002 A 
ATOM      7  C8  UNL d   1       0.431  -2.088  -2.000  0.00  0.00     0.006 A 
ENDROOT
BRANCH   1   8
ATOM      8  C1  UNL d   1       0.516  -4.371  -0.930  0.00  0.00     0.054 C 
ATOM      9  C   UNL d   1       1.188  -4.941   0.311  0.00  0.00     0.018 C 
ENDBRANCH   1   8
TORSDOF 1
ENDMDL
