MODEL 1
REMARK minimizedAffinity -4.38765192
REMARK minimizedRMSD -1
REMARK  1 active torsions:
REMARK  status: ('A' for Active; 'I' for Inactive)
REMARK    1  A    between atoms: C1_2  and  C2_3 
ROOT
ATOM      1  C2  UNL d   1       0.248  -0.664  -0.391  0.00  0.00    -0.081 A 
ATOM      2  C3  UNL d   1      -0.837  -0.962   0.443  0.00  0.00     0.006 A 
ATOM      3  C4  UNL d   1      -1.618   0.063   0.981  0.00  0.00     0.002 A 
ATOM      4  C5  UNL d   1      -1.333   1.401   0.689  0.00  0.00    -0.080 A 
ATOM      5  C6  UNL d   1      -2.183   2.510   1.236  0.00  0.00     0.076 C 
ATOM      6  C7  UNL d   1      -0.239   1.700  -0.130  0.00  0.00     0.002 A 
ATOM      7  C8  UNL d   1       0.544   0.675  -0.668  0.00  0.00     0.006 A 
ENDROOT
BRANCH   1   8
ATOM      8  C1  UNL d   1       1.054  -1.769  -1.025  0.00  0.00     0.054 C 
ATOM      9  C   UNL d   1       0.160  -2.913  -1.482  0.00  0.00     0.018 C 
ENDBRANCH   1   8
TORSDOF 1
ENDMDL
