MODEL 1
REMARK minimizedAffinity -5.28846836
REMARK minimizedRMSD -1
REMARK  1 active torsions:
REMARK  status: ('A' for Active; 'I' for Inactive)
REMARK    1  A    between atoms: C1_2  and  C2_3 
ROOT
ATOM      1  C2  UNL d   1       0.503  -1.036   0.076  0.00  0.00    -0.081 A 
ATOM      2  C3  UNL d   1       0.039  -0.840   1.382  0.00  0.00     0.006 A 
ATOM      3  C4  UNL d   1      -0.651   0.326   1.721  0.00  0.00     0.002 A 
ATOM      4  C5  UNL d   1      -0.897   1.311   0.758  0.00  0.00    -0.080 A 
ATOM      5  C6  UNL d   1      -1.664   2.553   1.101  0.00  0.00     0.076 C 
ATOM      6  C7  UNL d   1      -0.419   1.123  -0.543  0.00  0.00     0.002 A 
ATOM      7  C8  UNL d   1       0.273  -0.043  -0.882  0.00  0.00     0.006 A 
ENDROOT
BRANCH   1   8
ATOM      8  C1  UNL d   1       1.191  -2.321  -0.308  0.00  0.00     0.054 C 
ATOM      9  C   UNL d   1       0.550  -2.946  -1.538  0.00  0.00     0.018 C 
ENDBRANCH   1   8
TORSDOF 1
ENDMDL
