MODEL 1
REMARK minimizedAffinity -3.72519946
REMARK minimizedRMSD -1
REMARK  1 active torsions:
REMARK  status: ('A' for Active; 'I' for Inactive)
REMARK    1  A    between atoms: C1_2  and  C2_3 
ROOT
ATOM      1  C2  UNL d   1       0.168   0.248  -0.064  0.00  0.00    -0.081 A 
ATOM      2  C3  UNL d   1      -0.431   0.147   1.198  0.00  0.00     0.006 A 
ATOM      3  C4  UNL d   1      -1.404   1.067   1.596  0.00  0.00     0.002 A 
ATOM      4  C5  UNL d   1      -1.798   2.099   0.738  0.00  0.00    -0.080 A 
ATOM      5  C6  UNL d   1      -2.862   3.076   1.141  0.00  0.00     0.076 C 
ATOM      6  C7  UNL d   1      -1.186   2.211  -0.516  0.00  0.00     0.002 A 
ATOM      7  C8  UNL d   1      -0.214   1.292  -0.914  0.00  0.00     0.006 A 
ENDROOT
BRANCH   1   8
ATOM      8  C1  UNL d   1       1.170  -0.781  -0.521  0.00  0.00     0.054 C 
ATOM      9  C   UNL d   1       0.506  -1.867  -1.355  0.00  0.00     0.018 C 
ENDBRANCH   1   8
TORSDOF 1
ENDMDL
