MODEL 1
REMARK minimizedAffinity -4.23811436
REMARK minimizedRMSD -1
REMARK  1 active torsions:
REMARK  status: ('A' for Active; 'I' for Inactive)
REMARK    1  A    between atoms: C1_2  and  C2_3 
ROOT
ATOM      1  C2  UNL d   1      -0.377   1.429  -0.100  0.00  0.00    -0.081 A 
ATOM      2  C3  UNL d   1       0.187   1.205  -1.362  0.00  0.00     0.006 A 
ATOM      3  C4  UNL d   1       0.626  -0.071  -1.725  0.00  0.00     0.002 A 
ATOM      4  C5  UNL d   1       0.501  -1.144  -0.836  0.00  0.00    -0.080 A 
ATOM      5  C6  UNL d   1       0.940  -2.524  -1.224  0.00  0.00     0.076 C 
ATOM      6  C7  UNL d   1      -0.047  -0.916   0.431  0.00  0.00     0.002 A 
ATOM      7  C8  UNL d   1      -0.485   0.359   0.795  0.00  0.00     0.006 A 
ENDROOT
BRANCH   1   8
ATOM      8  C1  UNL d   1      -0.911   2.790   0.270  0.00  0.00     0.054 C 
ATOM      9  C   UNL d   1      -1.858   2.708   1.458  0.00  0.00     0.018 C 
ENDBRANCH   1   8
TORSDOF 1
ENDMDL
