MODEL 1
REMARK minimizedAffinity -2.86652207
REMARK minimizedRMSD -1
REMARK  1 active torsions:
REMARK  status: ('A' for Active; 'I' for Inactive)
REMARK    1  A    between atoms: C1_2  and  C2_3 
ROOT
ATOM      1  C2  UNL d   1      -0.113   1.759   0.168  0.00  0.00    -0.081 A 
ATOM      2  C3  UNL d   1      -0.941   1.883   1.290  0.00  0.00     0.006 A 
ATOM      3  C4  UNL d   1      -1.199   0.778   2.105  0.00  0.00     0.002 A 
ATOM      4  C5  UNL d   1      -0.628  -0.466   1.816  0.00  0.00    -0.080 A 
ATOM      5  C6  UNL d   1      -0.872  -1.653   2.699  0.00  0.00     0.076 C 
ATOM      6  C7  UNL d   1       0.186  -0.594   0.685  0.00  0.00     0.002 A 
ATOM      7  C8  UNL d   1       0.444   0.511  -0.131  0.00  0.00     0.006 A 
ENDROOT
BRANCH   1   8
ATOM      8  C1  UNL d   1       0.220   2.964  -0.676  0.00  0.00     0.054 C 
ATOM      9  C   UNL d   1       0.179   4.244   0.147  0.00  0.00     0.018 C 
ENDBRANCH   1   8
TORSDOF 1
ENDMDL
