MODEL 1
REMARK minimizedAffinity 0.872381985
REMARK minimizedRMSD -1
REMARK  0 active torsions:
REMARK  status: ('A' for Active; 'I' for Inactive)
ROOT
ATOM      1  C   UNL d   1       1.624   2.540   0.785  0.00  0.00     0.078 C 
ATOM      2  C1  UNL d   1       3.058   2.963   0.902  0.00  0.00    -0.077 A 
ATOM      3  C2  UNL d   1       4.091   2.148   0.423  0.00  0.00    -0.001 A 
ATOM      4  C3  UNL d   1       5.422   2.550   0.547  0.00  0.00     0.003 A 
ATOM      5  C4  UNL d   1       5.732   3.766   1.153  0.00  0.00    -0.005 A 
ATOM      6  C5  UNL d   1       4.711   4.582   1.635  0.00  0.00     0.003 A 
ATOM      7  C6  UNL d   1       3.379   4.182   1.511  0.00  0.00    -0.001 A 
ENDROOT
TORSDOF 0
ENDMDL
