MODEL 1
REMARK minimizedAffinity -1.95868027
REMARK minimizedRMSD -1
REMARK  0 active torsions:
REMARK  status: ('A' for Active; 'I' for Inactive)
ROOT
ATOM      1  C   UNL d   1       3.454  -5.990  -2.282  0.00  0.00     0.078 C 
ATOM      2  C1  UNL d   1       4.140  -5.653  -3.572  0.00  0.00    -0.077 A 
ATOM      3  C2  UNL d   1       5.372  -4.987  -3.581  0.00  0.00    -0.001 A 
ATOM      4  C3  UNL d   1       5.995  -4.671  -4.789  0.00  0.00     0.003 A 
ATOM      5  C4  UNL d   1       5.392  -5.015  -5.998  0.00  0.00    -0.005 A 
ATOM      6  C5  UNL d   1       4.166  -5.676  -5.999  0.00  0.00     0.003 A 
ATOM      7  C6  UNL d   1       3.541  -5.993  -4.791  0.00  0.00    -0.001 A 
ENDROOT
TORSDOF 0
ENDMDL
