MODEL 1
REMARK minimizedAffinity -0.602379262
REMARK minimizedRMSD -1
REMARK  0 active torsions:
REMARK  status: ('A' for Active; 'I' for Inactive)
ROOT
ATOM      1  C   UNL d   1       5.955  -3.087  -3.527  0.00  0.00     0.078 C 
ATOM      2  C1  UNL d   1       5.253  -4.092  -4.391  0.00  0.00    -0.077 A 
ATOM      3  C2  UNL d   1       3.856  -4.184  -4.401  0.00  0.00    -0.001 A 
ATOM      4  C3  UNL d   1       3.217  -5.131  -5.203  0.00  0.00     0.003 A 
ATOM      5  C4  UNL d   1       3.967  -5.993  -6.000  0.00  0.00    -0.005 A 
ATOM      6  C5  UNL d   1       5.358  -5.911  -5.995  0.00  0.00     0.003 A 
ATOM      7  C6  UNL d   1       5.999  -4.964  -5.194  0.00  0.00    -0.001 A 
ENDROOT
TORSDOF 0
ENDMDL
