MODEL 1
REMARK minimizedAffinity 13.914856
REMARK minimizedRMSD -1
REMARK  0 active torsions:
REMARK  status: ('A' for Active; 'I' for Inactive)
ROOT
ATOM      1  C   UNL d   1      -1.890  -1.101   1.168  0.00  0.00     0.078 C 
ATOM      2  C1  UNL d   1      -1.731  -2.326   0.317  0.00  0.00    -0.077 A 
ATOM      3  C2  UNL d   1      -1.773  -2.243  -1.080  0.00  0.00    -0.001 A 
ATOM      4  C3  UNL d   1      -1.634  -3.393  -1.860  0.00  0.00     0.003 A 
ATOM      5  C4  UNL d   1      -1.453  -4.633  -1.251  0.00  0.00    -0.005 A 
ATOM      6  C5  UNL d   1      -1.412  -4.726   0.138  0.00  0.00     0.003 A 
ATOM      7  C6  UNL d   1      -1.551  -3.577   0.920  0.00  0.00    -0.001 A 
ENDROOT
TORSDOF 0
ENDMDL
