MODEL 1
REMARK minimizedAffinity 11.7187977
REMARK minimizedRMSD -1
REMARK  0 active torsions:
REMARK  status: ('A' for Active; 'I' for Inactive)
ROOT
ATOM      1  C   UNL d   1       5.139  -2.977  -4.952  0.00  0.00     0.078 C 
ATOM      2  C1  UNL d   1       4.064  -4.023  -4.923  0.00  0.00    -0.077 A 
ATOM      3  C2  UNL d   1       3.200  -4.138  -3.828  0.00  0.00    -0.001 A 
ATOM      4  C3  UNL d   1       2.211  -5.122  -3.810  0.00  0.00     0.003 A 
ATOM      5  C4  UNL d   1       2.077  -6.000  -4.884  0.00  0.00    -0.005 A 
ATOM      6  C5  UNL d   1       2.933  -5.894  -5.978  0.00  0.00     0.003 A 
ATOM      7  C6  UNL d   1       3.924  -4.910  -5.998  0.00  0.00    -0.001 A 
ENDROOT
TORSDOF 0
ENDMDL
