MODEL 1
REMARK minimizedAffinity 3.24826193
REMARK minimizedRMSD -1
REMARK  0 active torsions:
REMARK  status: ('A' for Active; 'I' for Inactive)
ROOT
ATOM      1  C   UNL d   1       5.826  -3.437  -2.964  0.00  0.00     0.078 C 
ATOM      2  C1  UNL d   1       5.209  -4.306  -4.019  0.00  0.00    -0.077 A 
ATOM      3  C2  UNL d   1       5.994  -4.897  -5.017  0.00  0.00    -0.001 A 
ATOM      4  C3  UNL d   1       5.405  -5.695  -5.999  0.00  0.00     0.003 A 
ATOM      5  C4  UNL d   1       4.028  -5.909  -5.993  0.00  0.00    -0.005 A 
ATOM      6  C5  UNL d   1       3.238  -5.323  -5.006  0.00  0.00     0.003 A 
ATOM      7  C6  UNL d   1       3.826  -4.525  -4.023  0.00  0.00    -0.001 A 
ENDROOT
TORSDOF 0
ENDMDL
