MODEL 1
REMARK minimizedAffinity 3.66983056
REMARK minimizedRMSD -1
REMARK  0 active torsions:
REMARK  status: ('A' for Active; 'I' for Inactive)
ROOT
ATOM      1  C   UNL d   1      -2.169   6.000  -5.085  0.00  0.00     0.078 C 
ATOM      2  C1  UNL d   1      -3.103   4.827  -5.113  0.00  0.00    -0.077 A 
ATOM      3  C2  UNL d   1      -4.193   4.793  -5.992  0.00  0.00    -0.001 A 
ATOM      4  C3  UNL d   1      -5.060   3.700  -6.000  0.00  0.00     0.003 A 
ATOM      5  C4  UNL d   1      -4.848   2.632  -5.130  0.00  0.00    -0.005 A 
ATOM      6  C5  UNL d   1      -3.768   2.658  -4.250  0.00  0.00     0.003 A 
ATOM      7  C6  UNL d   1      -2.900   3.751  -4.240  0.00  0.00    -0.001 A 
ENDROOT
TORSDOF 0
ENDMDL
