MODEL 1
REMARK minimizedAffinity -1.37840366
REMARK minimizedRMSD -1
REMARK  0 active torsions:
REMARK  status: ('A' for Active; 'I' for Inactive)
ROOT
ATOM      1  C   UNL d   1      -0.400   2.811   0.966  0.00  0.00     0.078 C 
ATOM      2  C1  UNL d   1       1.087   2.615   0.949  0.00  0.00    -0.077 A 
ATOM      3  C2  UNL d   1       1.855   2.820   2.101  0.00  0.00    -0.001 A 
ATOM      4  C3  UNL d   1       3.239   2.643   2.067  0.00  0.00     0.003 A 
ATOM      5  C4  UNL d   1       3.867   2.262   0.883  0.00  0.00    -0.005 A 
ATOM      6  C5  UNL d   1       3.111   2.057  -0.269  0.00  0.00     0.003 A 
ATOM      7  C6  UNL d   1       1.727   2.234  -0.237  0.00  0.00    -0.001 A 
ENDROOT
TORSDOF 0
ENDMDL
