MODEL 1
REMARK minimizedAffinity -3.18006825
REMARK minimizedRMSD -1
REMARK  0 active torsions:
REMARK  status: ('A' for Active; 'I' for Inactive)
ROOT
ATOM      1  C   UNL d   1       3.137  -5.201  -2.122  0.00  0.00     0.078 C 
ATOM      2  C1  UNL d   1       3.752  -5.479  -3.461  0.00  0.00    -0.077 A 
ATOM      3  C2  UNL d   1       5.142  -5.460  -3.634  0.00  0.00    -0.001 A 
ATOM      4  C3  UNL d   1       5.700  -5.711  -4.889  0.00  0.00     0.003 A 
ATOM      5  C4  UNL d   1       4.876  -5.981  -5.980  0.00  0.00    -0.005 A 
ATOM      6  C5  UNL d   1       3.492  -6.000  -5.817  0.00  0.00     0.003 A 
ATOM      7  C6  UNL d   1       2.932  -5.749  -4.564  0.00  0.00    -0.001 A 
ENDROOT
TORSDOF 0
ENDMDL
