MODEL 1
REMARK minimizedAffinity 3.90418053
REMARK minimizedRMSD -1
REMARK  0 active torsions:
REMARK  status: ('A' for Active; 'I' for Inactive)
ROOT
ATOM      1  C   UNL d   1       0.156   1.368   1.098  0.00  0.00     0.078 C 
ATOM      2  C1  UNL d   1       1.550   1.611   0.601  0.00  0.00    -0.077 A 
ATOM      3  C2  UNL d   1       1.854   1.530  -0.764  0.00  0.00    -0.001 A 
ATOM      4  C3  UNL d   1       3.158   1.749  -1.211  0.00  0.00     0.003 A 
ATOM      5  C4  UNL d   1       4.169   2.048  -0.300  0.00  0.00    -0.005 A 
ATOM      6  C5  UNL d   1       3.877   2.128   1.060  0.00  0.00     0.003 A 
ATOM      7  C6  UNL d   1       2.574   1.910   1.509  0.00  0.00    -0.001 A 
ENDROOT
TORSDOF 0
ENDMDL
