MODEL 1
REMARK minimizedAffinity 4.81752396
REMARK minimizedRMSD -1
REMARK  0 active torsions:
REMARK  status: ('A' for Active; 'I' for Inactive)
ROOT
ATOM      1  C   UNL d   1      -2.312   1.508  -4.086  0.00  0.00     0.078 C 
ATOM      2  C1  UNL d   1      -3.600   2.167  -4.480  0.00  0.00    -0.077 A 
ATOM      3  C2  UNL d   1      -4.769   1.968  -3.735  0.00  0.00    -0.001 A 
ATOM      4  C3  UNL d   1      -5.963   2.580  -4.120  0.00  0.00     0.003 A 
ATOM      5  C4  UNL d   1      -6.000   3.394  -5.251  0.00  0.00    -0.005 A 
ATOM      6  C5  UNL d   1      -4.842   3.595  -5.999  0.00  0.00     0.003 A 
ATOM      7  C6  UNL d   1      -3.647   2.984  -5.617  0.00  0.00    -0.001 A 
ENDROOT
TORSDOF 0
ENDMDL
