MODEL 1
REMARK minimizedAffinity 2.57189941
REMARK minimizedRMSD -1
REMARK  0 active torsions:
REMARK  status: ('A' for Active; 'I' for Inactive)
ROOT
ATOM      1  C   UNL d   1       0.375  -5.998   4.917  0.00  0.00     0.078 C 
ATOM      2  C1  UNL d   1       0.088  -5.294   3.624  0.00  0.00    -0.077 A 
ATOM      3  C2  UNL d   1       0.366  -3.931   3.468  0.00  0.00    -0.001 A 
ATOM      4  C3  UNL d   1       0.084  -3.286   2.263  0.00  0.00     0.003 A 
ATOM      5  C4  UNL d   1      -0.478  -3.997   1.204  0.00  0.00    -0.005 A 
ATOM      6  C5  UNL d   1      -0.761  -5.353   1.351  0.00  0.00     0.003 A 
ATOM      7  C6  UNL d   1      -0.480  -6.000   2.556  0.00  0.00    -0.001 A 
ENDROOT
TORSDOF 0
ENDMDL
