MODEL 1
REMARK minimizedAffinity 7.44394016
REMARK minimizedRMSD -1
REMARK  0 active torsions:
REMARK  status: ('A' for Active; 'I' for Inactive)
ROOT
ATOM      1  C   UNL d   1      -1.940  -3.354  -2.745  0.00  0.00     0.078 C 
ATOM      2  C1  UNL d   1      -2.285  -3.922  -1.401  0.00  0.00    -0.077 A 
ATOM      3  C2  UNL d   1      -1.349  -3.931  -0.359  0.00  0.00    -0.001 A 
ATOM      4  C3  UNL d   1      -1.682  -4.472   0.884  0.00  0.00     0.003 A 
ATOM      5  C4  UNL d   1      -2.950  -5.009   1.097  0.00  0.00    -0.005 A 
ATOM      6  C5  UNL d   1      -3.887  -5.006   0.066  0.00  0.00     0.003 A 
ATOM      7  C6  UNL d   1      -3.557  -4.465  -1.178  0.00  0.00    -0.001 A 
ENDROOT
TORSDOF 0
ENDMDL
