MODEL 1
REMARK minimizedAffinity 7.76386356
REMARK minimizedRMSD -1
REMARK  0 active torsions:
REMARK  status: ('A' for Active; 'I' for Inactive)
ROOT
ATOM      1  C   UNL d   1      -2.259   2.999   0.005  0.00  0.00     0.078 C 
ATOM      2  C1  UNL d   1      -3.557   2.432   0.496  0.00  0.00    -0.077 A 
ATOM      3  C2  UNL d   1      -3.617   1.152   1.060  0.00  0.00    -0.001 A 
ATOM      4  C3  UNL d   1      -4.833   0.632   1.505  0.00  0.00     0.003 A 
ATOM      5  C4  UNL d   1      -6.000   1.386   1.389  0.00  0.00    -0.005 A 
ATOM      6  C5  UNL d   1      -5.950   2.660   0.827  0.00  0.00     0.003 A 
ATOM      7  C6  UNL d   1      -4.734   3.181   0.382  0.00  0.00    -0.001 A 
ENDROOT
TORSDOF 0
ENDMDL
