MODEL 1
REMARK minimizedAffinity 2.01114416
REMARK minimizedRMSD -1
REMARK  0 active torsions:
REMARK  status: ('A' for Active; 'I' for Inactive)
ROOT
ATOM      1  C   UNL d   1      -0.991   2.499   1.022  0.00  0.00     0.078 C 
ATOM      2  C1  UNL d   1       0.435   2.171   0.692  0.00  0.00    -0.077 A 
ATOM      3  C2  UNL d   1       0.854   0.843   0.547  0.00  0.00    -0.001 A 
ATOM      4  C3  UNL d   1       2.186   0.552   0.249  0.00  0.00     0.003 A 
ATOM      5  C4  UNL d   1       3.110   1.583   0.095  0.00  0.00    -0.005 A 
ATOM      6  C5  UNL d   1       2.703   2.908   0.239  0.00  0.00     0.003 A 
ATOM      7  C6  UNL d   1       1.371   3.201   0.537  0.00  0.00    -0.001 A 
ENDROOT
TORSDOF 0
ENDMDL
