MODEL 1
REMARK minimizedAffinity 1.84373069
REMARK minimizedRMSD -1
REMARK  0 active torsions:
REMARK  status: ('A' for Active; 'I' for Inactive)
ROOT
ATOM      1  C   UNL d   1       1.542  -0.014  -3.293  0.00  0.00     0.078 C 
ATOM      2  C1  UNL d   1       2.025   0.384  -1.931  0.00  0.00    -0.077 A 
ATOM      3  C2  UNL d   1       2.326  -0.581  -0.962  0.00  0.00    -0.001 A 
ATOM      4  C3  UNL d   1       2.764  -0.195   0.306  0.00  0.00     0.003 A 
ATOM      5  C4  UNL d   1       2.905   1.156   0.617  0.00  0.00    -0.005 A 
ATOM      6  C5  UNL d   1       2.605   2.123  -0.340  0.00  0.00     0.003 A 
ATOM      7  C6  UNL d   1       2.166   1.740  -1.608  0.00  0.00    -0.001 A 
ENDROOT
TORSDOF 0
ENDMDL
