MODEL 1
REMARK minimizedAffinity 7.60815144
REMARK minimizedRMSD -1
REMARK  0 active torsions:
REMARK  status: ('A' for Active; 'I' for Inactive)
ROOT
ATOM      1  C   UNL d   1      -0.815   3.512  -0.757  0.00  0.00     0.078 C 
ATOM      2  C1  UNL d   1       0.375   3.019   0.010  0.00  0.00    -0.077 A 
ATOM      3  C2  UNL d   1       1.671   3.430  -0.327  0.00  0.00    -0.001 A 
ATOM      4  C3  UNL d   1       2.771   2.956   0.390  0.00  0.00     0.003 A 
ATOM      5  C4  UNL d   1       2.586   2.067   1.447  0.00  0.00    -0.005 A 
ATOM      6  C5  UNL d   1       1.301   1.651   1.788  0.00  0.00     0.003 A 
ATOM      7  C6  UNL d   1       0.200   2.124   1.073  0.00  0.00    -0.001 A 
ENDROOT
TORSDOF 0
ENDMDL
