MODEL 1
REMARK minimizedAffinity 3.44085217
REMARK minimizedRMSD -1
REMARK  0 active torsions:
REMARK  status: ('A' for Active; 'I' for Inactive)
ROOT
ATOM      1  C   UNL d   1       2.211  -1.338   3.013  0.00  0.00     0.172 C 
ATOM      2  N   UNL d   1       2.528  -0.077   2.384  0.00  0.00    -0.070 N 
ATOM      3  C1  UNL d   1       2.689   0.126   1.040  0.00  0.00    -0.004 A 
ATOM      4  C2  UNL d   1       2.982   1.459   0.846  0.00  0.00    -0.047 A 
ATOM      5  C3  UNL d   1       2.997   2.078   2.119  0.00  0.00    -0.047 A 
ATOM      6  C4  UNL d   1       2.713   1.104   3.053  0.00  0.00    -0.004 A 
ENDROOT
TORSDOF 0
ENDMDL
