MODEL 1
REMARK minimizedAffinity 4.21612883
REMARK minimizedRMSD -1
REMARK  0 active torsions:
REMARK  status: ('A' for Active; 'I' for Inactive)
ROOT
ATOM      1  C   UNL d   1       5.528   1.393  -5.998  0.00  0.00     0.172 C 
ATOM      2  N   UNL d   1       5.125   0.119  -5.451  0.00  0.00    -0.070 N 
ATOM      3  C1  UNL d   1       5.490  -1.109  -5.934  0.00  0.00    -0.004 A 
ATOM      4  C2  UNL d   1       4.901  -2.067  -5.138  0.00  0.00    -0.047 A 
ATOM      5  C3  UNL d   1       4.156  -1.392  -4.142  0.00  0.00    -0.047 A 
ATOM      6  C4  UNL d   1       4.312  -0.039  -4.359  0.00  0.00    -0.004 A 
ENDROOT
TORSDOF 0
ENDMDL
