MODEL 1
REMARK minimizedAffinity 6.46392441
REMARK minimizedRMSD -1
REMARK  0 active torsions:
REMARK  status: ('A' for Active; 'I' for Inactive)
ROOT
ATOM      1  C   UNL d   1       1.476  -2.015   4.373  0.00  0.00     0.172 C 
ATOM      2  N   UNL d   1       1.404  -1.558   3.005  0.00  0.00    -0.070 N 
ATOM      3  C1  UNL d   1       0.958  -2.293   1.940  0.00  0.00    -0.004 A 
ATOM      4  C2  UNL d   1       1.046  -1.502   0.815  0.00  0.00    -0.047 A 
ATOM      5  C3  UNL d   1       1.565  -0.249   1.218  0.00  0.00    -0.047 A 
ATOM      6  C4  UNL d   1       1.778  -0.311   2.579  0.00  0.00    -0.004 A 
ENDROOT
TORSDOF 0
ENDMDL
