MODEL 1
REMARK minimizedAffinity 6.79543686
REMARK minimizedRMSD -1
REMARK  0 active torsions:
REMARK  status: ('A' for Active; 'I' for Inactive)
ROOT
ATOM      1  C   UNL d   1       2.453   1.520   0.973  0.00  0.00     0.172 C 
ATOM      2  N   UNL d   1       2.070   2.716   0.260  0.00  0.00    -0.070 N 
ATOM      3  C1  UNL d   1       0.992   3.509   0.551  0.00  0.00    -0.004 A 
ATOM      4  C2  UNL d   1       0.973   4.545  -0.357  0.00  0.00    -0.047 A 
ATOM      5  C3  UNL d   1       2.077   4.368  -1.225  0.00  0.00    -0.047 A 
ATOM      6  C4  UNL d   1       2.739   3.228  -0.820  0.00  0.00    -0.004 A 
ENDROOT
TORSDOF 0
ENDMDL
