MODEL 1
REMARK minimizedAffinity 0.888354421
REMARK minimizedRMSD -1
REMARK  0 active torsions:
REMARK  status: ('A' for Active; 'I' for Inactive)
ROOT
ATOM      1  C   UNL d   1       3.501  -0.319  -5.043  0.00  0.00     0.172 C 
ATOM      2  N   UNL d   1       3.024  -1.432  -4.255  0.00  0.00    -0.070 N 
ATOM      3  C1  UNL d   1       3.801  -2.258  -3.488  0.00  0.00    -0.004 A 
ATOM      4  C2  UNL d   1       2.974  -3.188  -2.898  0.00  0.00    -0.047 A 
ATOM      5  C3  UNL d   1       1.653  -2.912  -3.326  0.00  0.00    -0.047 A 
ATOM      6  C4  UNL d   1       1.713  -1.820  -4.165  0.00  0.00    -0.004 A 
ENDROOT
TORSDOF 0
ENDMDL
