MODEL 1
REMARK minimizedAffinity -1.87927854
REMARK minimizedRMSD -1
REMARK  0 active torsions:
REMARK  status: ('A' for Active; 'I' for Inactive)
ROOT
ATOM      1  C   UNL d   1       5.994   5.783  -5.944  0.00  0.00     0.172 C 
ATOM      2  N   UNL d   1       5.371   5.752  -4.641  0.00  0.00    -0.070 N 
ATOM      3  C1  UNL d   1       5.999   5.999  -3.450  0.00  0.00    -0.004 A 
ATOM      4  C2  UNL d   1       5.064   5.871  -2.446  0.00  0.00    -0.047 A 
ATOM      5  C3  UNL d   1       3.832   5.535  -3.054  0.00  0.00    -0.047 A 
ATOM      6  C4  UNL d   1       4.050   5.467  -4.414  0.00  0.00    -0.004 A 
ENDROOT
TORSDOF 0
ENDMDL
