MODEL 1
REMARK minimizedAffinity 5.55010939
REMARK minimizedRMSD -1
REMARK  0 active torsions:
REMARK  status: ('A' for Active; 'I' for Inactive)
ROOT
ATOM      1  C   UNL d   1      -5.314   2.626  -5.272  0.00  0.00     0.172 C 
ATOM      2  N   UNL d   1      -5.249   2.366  -3.853  0.00  0.00    -0.070 N 
ATOM      3  C1  UNL d   1      -5.998   2.989  -2.892  0.00  0.00    -0.004 A 
ATOM      4  C2  UNL d   1      -5.641   2.461  -1.670  0.00  0.00    -0.047 A 
ATOM      5  C3  UNL d   1      -4.641   1.488  -1.905  0.00  0.00    -0.047 A 
ATOM      6  C4  UNL d   1      -4.417   1.449  -3.265  0.00  0.00    -0.004 A 
ENDROOT
TORSDOF 0
ENDMDL
