MODEL 1
REMARK minimizedAffinity 8.38084316
REMARK minimizedRMSD -1
REMARK  0 active torsions:
REMARK  status: ('A' for Active; 'I' for Inactive)
ROOT
ATOM      1  C   UNL d   1      -0.026   2.867   5.999  0.00  0.00     0.078 C 
ATOM      2  C1  UNL d   1       0.038   2.191   4.662  0.00  0.00    -0.077 A 
ATOM      3  C2  UNL d   1      -0.733   2.646   3.586  0.00  0.00    -0.001 A 
ATOM      4  C3  UNL d   1      -0.670   2.001   2.350  0.00  0.00     0.003 A 
ATOM      5  C4  UNL d   1       0.163   0.897   2.179  0.00  0.00    -0.005 A 
ATOM      6  C5  UNL d   1       0.933   0.436   3.244  0.00  0.00     0.003 A 
ATOM      7  C6  UNL d   1       0.871   1.080   4.481  0.00  0.00    -0.001 A 
ENDROOT
TORSDOF 0
ENDMDL
