MODEL 1
REMARK minimizedAffinity 3.02938986
REMARK minimizedRMSD -1
REMARK  0 active torsions:
REMARK  status: ('A' for Active; 'I' for Inactive)
ROOT
ATOM      1  C   UNL d   1      -1.187  -2.288  -2.183  0.00  0.00     0.078 C 
ATOM      2  C1  UNL d   1      -0.264  -1.613  -3.152  0.00  0.00    -0.077 A 
ATOM      3  C2  UNL d   1       0.409  -2.345  -4.138  0.00  0.00    -0.001 A 
ATOM      4  C3  UNL d   1       1.272  -1.705  -5.028  0.00  0.00     0.003 A 
ATOM      5  C4  UNL d   1       1.472  -0.328  -4.940  0.00  0.00    -0.005 A 
ATOM      6  C5  UNL d   1       0.809   0.409  -3.961  0.00  0.00     0.003 A 
ATOM      7  C6  UNL d   1      -0.055  -0.230  -3.071  0.00  0.00    -0.001 A 
ENDROOT
TORSDOF 0
ENDMDL
