MODEL 1
REMARK minimizedAffinity 4.36236286
REMARK minimizedRMSD -1
REMARK  0 active torsions:
REMARK  status: ('A' for Active; 'I' for Inactive)
ROOT
ATOM      1  C   UNL d   1      -4.935   2.549  -0.620  0.00  0.00     0.078 C 
ATOM      2  C1  UNL d   1      -4.171   1.403  -0.025  0.00  0.00    -0.077 A 
ATOM      3  C2  UNL d   1      -4.108   0.165  -0.674  0.00  0.00    -0.001 A 
ATOM      4  C3  UNL d   1      -3.401  -0.896  -0.104  0.00  0.00     0.003 A 
ATOM      5  C4  UNL d   1      -2.754  -0.728   1.118  0.00  0.00    -0.005 A 
ATOM      6  C5  UNL d   1      -2.814   0.500   1.773  0.00  0.00     0.003 A 
ATOM      7  C6  UNL d   1      -3.520   1.562   1.204  0.00  0.00    -0.001 A 
ENDROOT
TORSDOF 0
ENDMDL
