MODEL 1
REMARK minimizedAffinity 3.5203166
REMARK minimizedRMSD -1
REMARK  0 active torsions:
REMARK  status: ('A' for Active; 'I' for Inactive)
ROOT
ATOM      1  C   UNL d   1      -0.901  -2.548  -2.192  0.00  0.00     0.078 C 
ATOM      2  C1  UNL d   1      -1.195  -3.643  -3.173  0.00  0.00    -0.077 A 
ATOM      3  C2  UNL d   1      -1.173  -4.988  -2.781  0.00  0.00    -0.001 A 
ATOM      4  C3  UNL d   1      -1.440  -5.997  -3.707  0.00  0.00     0.003 A 
ATOM      5  C4  UNL d   1      -1.730  -5.674  -5.031  0.00  0.00    -0.005 A 
ATOM      6  C5  UNL d   1      -1.752  -4.339  -5.430  0.00  0.00     0.003 A 
ATOM      7  C6  UNL d   1      -1.485  -3.328  -4.506  0.00  0.00    -0.001 A 
ENDROOT
TORSDOF 0
ENDMDL
