MODEL 1
REMARK minimizedAffinity 3.99088383
REMARK minimizedRMSD -1
REMARK  0 active torsions:
REMARK  status: ('A' for Active; 'I' for Inactive)
ROOT
ATOM      1  C   UNL d   1      -1.917  -4.313  -5.406  0.00  0.00     0.078 C 
ATOM      2  C1  UNL d   1      -1.257  -3.211  -4.633  0.00  0.00    -0.077 A 
ATOM      3  C2  UNL d   1      -0.635  -2.142  -5.290  0.00  0.00    -0.001 A 
ATOM      4  C3  UNL d   1      -0.016  -1.127  -4.558  0.00  0.00     0.003 A 
ATOM      5  C4  UNL d   1      -0.012  -1.172  -3.165  0.00  0.00    -0.005 A 
ATOM      6  C5  UNL d   1      -0.627  -2.233  -2.503  0.00  0.00     0.003 A 
ATOM      7  C6  UNL d   1      -1.246  -3.248  -3.233  0.00  0.00    -0.001 A 
ENDROOT
TORSDOF 0
ENDMDL
