MODEL 1
REMARK minimizedAffinity 3.12630987
REMARK minimizedRMSD -1
REMARK  0 active torsions:
REMARK  status: ('A' for Active; 'I' for Inactive)
ROOT
ATOM      1  C   UNL d   1       1.875  -3.062   4.922  0.00  0.00     0.078 C 
ATOM      2  C1  UNL d   1       1.336  -1.947   4.076  0.00  0.00    -0.077 A 
ATOM      3  C2  UNL d   1       1.428  -0.614   4.494  0.00  0.00    -0.001 A 
ATOM      4  C3  UNL d   1       0.914   0.412   3.700  0.00  0.00     0.003 A 
ATOM      5  C4  UNL d   1       0.302   0.116   2.483  0.00  0.00    -0.005 A 
ATOM      6  C5  UNL d   1       0.204  -1.208   2.060  0.00  0.00     0.003 A 
ATOM      7  C6  UNL d   1       0.718  -2.236   2.852  0.00  0.00    -0.001 A 
ENDROOT
TORSDOF 0
ENDMDL
