MODEL 1
REMARK minimizedAffinity 7.02704668
REMARK minimizedRMSD -1
REMARK  0 active torsions:
REMARK  status: ('A' for Active; 'I' for Inactive)
ROOT
ATOM      1  C   UNL d   1       3.352  -0.876  -3.885  0.00  0.00     0.078 C 
ATOM      2  C1  UNL d   1       1.997  -1.164  -3.310  0.00  0.00    -0.077 A 
ATOM      3  C2  UNL d   1       0.835  -0.693  -3.933  0.00  0.00    -0.001 A 
ATOM      4  C3  UNL d   1      -0.419  -0.961  -3.381  0.00  0.00     0.003 A 
ATOM      5  C4  UNL d   1      -0.523  -1.698  -2.203  0.00  0.00    -0.005 A 
ATOM      6  C5  UNL d   1       0.628  -2.169  -1.575  0.00  0.00     0.003 A 
ATOM      7  C6  UNL d   1       1.883  -1.903  -2.125  0.00  0.00    -0.001 A 
ENDROOT
TORSDOF 0
ENDMDL
