MODEL 1
REMARK minimizedAffinity 6.60224438
REMARK minimizedRMSD -1
REMARK  0 active torsions:
REMARK  status: ('A' for Active; 'I' for Inactive)
ROOT
ATOM      1  C   UNL d   1      -2.057  -2.991  -2.139  0.00  0.00     0.078 C 
ATOM      2  C1  UNL d   1      -2.036  -3.786  -3.410  0.00  0.00    -0.077 A 
ATOM      3  C2  UNL d   1      -1.930  -3.153  -4.655  0.00  0.00    -0.001 A 
ATOM      4  C3  UNL d   1      -1.922  -3.905  -5.831  0.00  0.00     0.003 A 
ATOM      5  C4  UNL d   1      -2.021  -5.294  -5.774  0.00  0.00    -0.005 A 
ATOM      6  C5  UNL d   1      -2.128  -5.932  -4.540  0.00  0.00     0.003 A 
ATOM      7  C6  UNL d   1      -2.137  -5.182  -3.363  0.00  0.00    -0.001 A 
ENDROOT
TORSDOF 0
ENDMDL
