MODEL 1
REMARK minimizedAffinity 11.8766947
REMARK minimizedRMSD -1
REMARK  0 active torsions:
REMARK  status: ('A' for Active; 'I' for Inactive)
ROOT
ATOM      1  C   UNL d   1       2.206  -2.125   3.111  0.00  0.00     0.078 C 
ATOM      2  C1  UNL d   1       2.994  -0.855   3.231  0.00  0.00    -0.077 A 
ATOM      3  C2  UNL d   1       2.539   0.335   2.649  0.00  0.00    -0.001 A 
ATOM      4  C3  UNL d   1       3.289   1.507   2.760  0.00  0.00     0.003 A 
ATOM      5  C4  UNL d   1       4.499   1.501   3.452  0.00  0.00    -0.005 A 
ATOM      6  C5  UNL d   1       4.961   0.321   4.032  0.00  0.00     0.003 A 
ATOM      7  C6  UNL d   1       4.213  -0.852   3.922  0.00  0.00    -0.001 A 
ENDROOT
TORSDOF 0
ENDMDL
