MODEL 1
REMARK minimizedAffinity 4.25808859
REMARK minimizedRMSD -1
REMARK  0 active torsions:
REMARK  status: ('A' for Active; 'I' for Inactive)
ROOT
ATOM      1  C   UNL d   1       4.748  -3.690   5.962  0.00  0.00     0.078 C 
ATOM      2  C1  UNL d   1       3.984  -2.760   5.066  0.00  0.00    -0.077 A 
ATOM      3  C2  UNL d   1       2.834  -3.190   4.393  0.00  0.00    -0.001 A 
ATOM      4  C3  UNL d   1       2.139  -2.318   3.555  0.00  0.00     0.003 A 
ATOM      5  C4  UNL d   1       2.586  -1.010   3.381  0.00  0.00    -0.005 A 
ATOM      6  C5  UNL d   1       3.731  -0.573   4.044  0.00  0.00     0.003 A 
ATOM      7  C6  UNL d   1       4.428  -1.445   4.883  0.00  0.00    -0.001 A 
ENDROOT
TORSDOF 0
ENDMDL
