MODEL 1
REMARK minimizedAffinity -4.74565744
REMARK minimizedRMSD -1
REMARK  1 active torsions:
REMARK  status: ('A' for Active; 'I' for Inactive)
REMARK    1  A    between atoms: C1_2  and  C2_3 
ROOT
ATOM      1  C2  UNL d   1      -1.493  -0.791   0.573  0.00  0.00    -0.073 A 
ATOM      2  C3  UNL d   1      -2.261   0.164   1.249  0.00  0.00    -0.002 A 
ATOM      3  C4  UNL d   1      -1.882   1.507   1.241  0.00  0.00     0.004 A 
ATOM      4  C5  UNL d   1      -0.738   1.910   0.552  0.00  0.00    -0.004 A 
ATOM      5  C6  UNL d   1       0.036   0.972  -0.139  0.00  0.00    -0.075 A 
ATOM      6  C7  UNL d   1       1.271   1.389  -0.883  0.00  0.00     0.076 C 
ATOM      7  C8  UNL d   1      -0.349  -0.375  -0.124  0.00  0.00     0.001 A 
ENDROOT
BRANCH   1   8
ATOM      8  C1  UNL d   1      -1.901  -2.242   0.573  0.00  0.00     0.053 C 
ATOM      9  C   UNL d   1      -2.601  -2.637   1.864  0.00  0.00     0.018 C 
ENDBRANCH   1   8
TORSDOF 1
ENDMDL
