MODEL 1
REMARK minimizedAffinity -2.08989763
REMARK minimizedRMSD -1
REMARK  1 active torsions:
REMARK  status: ('A' for Active; 'I' for Inactive)
REMARK    1  A    between atoms: C1_2  and  C2_3 
ROOT
ATOM      1  C2  UNL d   1       0.272   0.582  -0.220  0.00  0.00    -0.073 A 
ATOM      2  C3  UNL d   1      -0.994   0.798   0.336  0.00  0.00    -0.002 A 
ATOM      3  C4  UNL d   1      -1.695  -0.256   0.922  0.00  0.00     0.004 A 
ATOM      4  C5  UNL d   1      -1.137  -1.534   0.965  0.00  0.00    -0.004 A 
ATOM      5  C6  UNL d   1       0.133  -1.767   0.426  0.00  0.00    -0.075 A 
ATOM      6  C7  UNL d   1       0.747  -3.135   0.462  0.00  0.00     0.076 C 
ATOM      7  C8  UNL d   1       0.830  -0.703  -0.163  0.00  0.00     0.001 A 
ENDROOT
BRANCH   1   8
ATOM      8  C1  UNL d   1       1.036   1.719  -0.848  0.00  0.00     0.053 C 
ATOM      9  C   UNL d   1       1.056   1.622  -2.365  0.00  0.00     0.018 C 
ENDBRANCH   1   8
TORSDOF 1
ENDMDL
