MODEL 1
REMARK minimizedAffinity -3.35156751
REMARK minimizedRMSD -1
REMARK  1 active torsions:
REMARK  status: ('A' for Active; 'I' for Inactive)
REMARK    1  A    between atoms: C1_2  and  C2_3 
ROOT
ATOM      1  C2  UNL d   1       0.691   0.859  -1.235  0.00  0.00    -0.073 A 
ATOM      2  C3  UNL d   1      -0.180   1.593  -0.422  0.00  0.00    -0.002 A 
ATOM      3  C4  UNL d   1      -0.730   1.015   0.723  0.00  0.00     0.004 A 
ATOM      4  C5  UNL d   1      -0.410  -0.297   1.071  0.00  0.00    -0.004 A 
ATOM      5  C6  UNL d   1       0.468  -1.042   0.277  0.00  0.00    -0.075 A 
ATOM      6  C7  UNL d   1       0.821  -2.456   0.636  0.00  0.00     0.076 C 
ATOM      7  C8  UNL d   1       1.014  -0.456  -0.872  0.00  0.00     0.001 A 
ENDROOT
BRANCH   1   8
ATOM      8  C1  UNL d   1       1.293   1.481  -2.469  0.00  0.00     0.053 C 
ATOM      9  C   UNL d   1       0.385   2.539  -3.075  0.00  0.00     0.018 C 
ENDBRANCH   1   8
TORSDOF 1
ENDMDL
