MODEL 1
REMARK minimizedAffinity -3.0650146
REMARK minimizedRMSD -1
REMARK  1 active torsions:
REMARK  status: ('A' for Active; 'I' for Inactive)
REMARK    1  A    between atoms: C1_2  and  C2_3 
ROOT
ATOM      1  C2  UNL d   1       0.593   0.364   0.554  0.00  0.00    -0.073 A 
ATOM      2  C3  UNL d   1      -0.015  -0.703  -0.119  0.00  0.00    -0.002 A 
ATOM      3  C4  UNL d   1       0.716  -1.851  -0.425  0.00  0.00     0.004 A 
ATOM      4  C5  UNL d   1       2.058  -1.949  -0.057  0.00  0.00    -0.004 A 
ATOM      5  C6  UNL d   1       2.680  -0.899   0.626  0.00  0.00    -0.075 A 
ATOM      6  C7  UNL d   1       4.123  -0.987   1.027  0.00  0.00     0.076 C 
ATOM      7  C8  UNL d   1       1.940   0.253   0.928  0.00  0.00     0.001 A 
ENDROOT
BRANCH   1   8
ATOM      8  C1  UNL d   1      -0.194   1.603   0.893  0.00  0.00     0.053 C 
ATOM      9  C   UNL d   1      -1.611   1.276   1.335  0.00  0.00     0.018 C 
ENDBRANCH   1   8
TORSDOF 1
ENDMDL
