MODEL 1
REMARK minimizedAffinity -3.62317276
REMARK minimizedRMSD -1
REMARK  1 active torsions:
REMARK  status: ('A' for Active; 'I' for Inactive)
REMARK    1  A    between atoms: C1_2  and  C2_3 
ROOT
ATOM      1  C2  UNL d   1      -0.054   0.409   0.204  0.00  0.00    -0.073 A 
ATOM      2  C3  UNL d   1       1.027  -0.425  -0.103  0.00  0.00    -0.002 A 
ATOM      3  C4  UNL d   1       1.006  -1.771   0.265  0.00  0.00     0.004 A 
ATOM      4  C5  UNL d   1      -0.098  -2.298   0.936  0.00  0.00    -0.004 A 
ATOM      5  C6  UNL d   1      -1.193  -1.483   1.242  0.00  0.00    -0.075 A 
ATOM      6  C7  UNL d   1      -2.386  -2.034   1.966  0.00  0.00     0.076 C 
ATOM      7  C8  UNL d   1      -1.163  -0.132   0.871  0.00  0.00     0.001 A 
ENDROOT
BRANCH   1   8
ATOM      8  C1  UNL d   1      -0.039   1.861  -0.197  0.00  0.00     0.053 C 
ATOM      9  C   UNL d   1       0.769   2.094  -1.464  0.00  0.00     0.018 C 
ENDBRANCH   1   8
TORSDOF 1
ENDMDL
