MODEL 1
REMARK minimizedAffinity -5.19531536
REMARK minimizedRMSD -1
REMARK  1 active torsions:
REMARK  status: ('A' for Active; 'I' for Inactive)
REMARK    1  A    between atoms: C1_2  and  C2_3 
ROOT
ATOM      1  C2  UNL d   1       0.165  -1.734   0.560  0.00  0.00    -0.073 A 
ATOM      2  C3  UNL d   1      -0.817  -2.626   1.004  0.00  0.00    -0.002 A 
ATOM      3  C4  UNL d   1      -2.084  -2.160   1.360  0.00  0.00     0.004 A 
ATOM      4  C5  UNL d   1      -2.383  -0.801   1.268  0.00  0.00    -0.004 A 
ATOM      5  C6  UNL d   1      -1.419   0.105   0.815  0.00  0.00    -0.075 A 
ATOM      6  C7  UNL d   1      -1.724   1.570   0.712  0.00  0.00     0.076 C 
ATOM      7  C8  UNL d   1      -0.148  -0.370   0.462  0.00  0.00     0.001 A 
ENDROOT
BRANCH   1   8
ATOM      8  C1  UNL d   1       1.532  -2.233   0.169  0.00  0.00     0.053 C 
ATOM      9  C   UNL d   1       2.642  -1.414   0.809  0.00  0.00     0.018 C 
ENDBRANCH   1   8
TORSDOF 1
ENDMDL
