MODEL 1
REMARK minimizedAffinity -5.45164537
REMARK minimizedRMSD -1
REMARK  1 active torsions:
REMARK  status: ('A' for Active; 'I' for Inactive)
REMARK    1  A    between atoms: C1_2  and  C2_3 
ROOT
ATOM      1  C2  UNL d   1       0.242   0.331   0.248  0.00  0.00    -0.073 A 
ATOM      2  C3  UNL d   1      -0.521   1.466   0.546  0.00  0.00    -0.002 A 
ATOM      3  C4  UNL d   1      -1.786   1.335   1.120  0.00  0.00     0.004 A 
ATOM      4  C5  UNL d   1      -2.299   0.070   1.407  0.00  0.00    -0.004 A 
ATOM      5  C6  UNL d   1      -1.548  -1.076   1.127  0.00  0.00    -0.075 A 
ATOM      6  C7  UNL d   1      -2.086  -2.444   1.427  0.00  0.00     0.076 C 
ATOM      7  C8  UNL d   1      -0.279  -0.936   0.548  0.00  0.00     0.001 A 
ENDROOT
BRANCH   1   8
ATOM      8  C1  UNL d   1       1.611   0.468  -0.365  0.00  0.00     0.053 C 
ATOM      9  C   UNL d   1       1.663   1.581  -1.401  0.00  0.00     0.018 C 
ENDBRANCH   1   8
TORSDOF 1
ENDMDL
