MODEL 1
REMARK minimizedAffinity -4.53602076
REMARK minimizedRMSD -1
REMARK  1 active torsions:
REMARK  status: ('A' for Active; 'I' for Inactive)
REMARK    1  A    between atoms: C1_2  and  C2_3 
ROOT
ATOM      1  C2  UNL d   1       0.304   0.455  -0.083  0.00  0.00    -0.073 A 
ATOM      2  C3  UNL d   1       0.878  -0.818  -0.182  0.00  0.00    -0.002 A 
ATOM      3  C4  UNL d   1       0.397  -1.870   0.598  0.00  0.00     0.004 A 
ATOM      4  C5  UNL d   1      -0.666  -1.664   1.477  0.00  0.00    -0.004 A 
ATOM      5  C6  UNL d   1      -1.261  -0.403   1.581  0.00  0.00    -0.075 A 
ATOM      6  C7  UNL d   1      -2.403  -0.163   2.524  0.00  0.00     0.076 C 
ATOM      7  C8  UNL d   1      -0.770   0.650   0.797  0.00  0.00     0.001 A 
ENDROOT
BRANCH   1   8
ATOM      8  C1  UNL d   1       0.816   1.593  -0.927  0.00  0.00     0.053 C 
ATOM      9  C   UNL d   1       0.389   1.461  -2.381  0.00  0.00     0.018 C 
ENDBRANCH   1   8
TORSDOF 1
ENDMDL
