MODEL 1
REMARK minimizedAffinity -3.41079021
REMARK minimizedRMSD -1
REMARK  1 active torsions:
REMARK  status: ('A' for Active; 'I' for Inactive)
REMARK    1  A    between atoms: C1_2  and  C2_3 
ROOT
ATOM      1  C2  UNL d   1       0.804   1.382  -1.207  0.00  0.00    -0.073 A 
ATOM      2  C3  UNL d   1      -0.034   2.269  -0.522  0.00  0.00    -0.002 A 
ATOM      3  C4  UNL d   1      -0.796   1.825   0.560  0.00  0.00     0.004 A 
ATOM      4  C5  UNL d   1      -0.723   0.495   0.972  0.00  0.00    -0.004 A 
ATOM      5  C6  UNL d   1       0.118  -0.404   0.308  0.00  0.00    -0.075 A 
ATOM      6  C7  UNL d   1       0.207  -1.839   0.738  0.00  0.00     0.076 C 
ATOM      7  C8  UNL d   1       0.878   0.048  -0.779  0.00  0.00     0.001 A 
ENDROOT
BRANCH   1   8
ATOM      8  C1  UNL d   1       1.633   1.857  -2.372  0.00  0.00     0.053 C 
ATOM      9  C   UNL d   1       0.799   2.609  -3.396  0.00  0.00     0.018 C 
ENDBRANCH   1   8
TORSDOF 1
ENDMDL
