MODEL 1
REMARK minimizedAffinity -4.46486759
REMARK minimizedRMSD -1
REMARK  1 active torsions:
REMARK  status: ('A' for Active; 'I' for Inactive)
REMARK    1  A    between atoms: C1_2  and  C2_3 
ROOT
ATOM      1  C2  UNL d   1      -0.214  -1.468   0.740  0.00  0.00    -0.073 A 
ATOM      2  C3  UNL d   1      -0.638  -0.140   0.622  0.00  0.00    -0.002 A 
ATOM      3  C4  UNL d   1      -1.925   0.227   1.018  0.00  0.00     0.004 A 
ATOM      4  C5  UNL d   1      -2.797  -0.727   1.542  0.00  0.00    -0.004 A 
ATOM      5  C6  UNL d   1      -2.388  -2.058   1.679  0.00  0.00    -0.075 A 
ATOM      6  C7  UNL d   1      -3.314  -3.097   2.238  0.00  0.00     0.076 C 
ATOM      7  C8  UNL d   1      -1.095  -2.419   1.276  0.00  0.00     0.001 A 
ENDROOT
BRANCH   1   8
ATOM      8  C1  UNL d   1       1.176  -1.868   0.319  0.00  0.00     0.053 C 
ATOM      9  C   UNL d   1       2.245  -1.076   1.057  0.00  0.00     0.018 C 
ENDBRANCH   1   8
TORSDOF 1
ENDMDL
