MODEL 1
REMARK minimizedAffinity -5.50178385
REMARK minimizedRMSD -1
REMARK  1 active torsions:
REMARK  status: ('A' for Active; 'I' for Inactive)
REMARK    1  A    between atoms: C1_2  and  C2_3 
ROOT
ATOM      1  C2  UNL d   1      -1.799  -1.239   1.536  0.00  0.00    -0.073 A 
ATOM      2  C3  UNL d   1      -1.084  -2.442   1.510  0.00  0.00    -0.002 A 
ATOM      3  C4  UNL d   1       0.175  -2.500   0.909  0.00  0.00     0.004 A 
ATOM      4  C5  UNL d   1       0.733  -1.358   0.336  0.00  0.00    -0.004 A 
ATOM      5  C6  UNL d   1       0.039  -0.144   0.363  0.00  0.00    -0.075 A 
ATOM      6  C7  UNL d   1       0.625   1.094  -0.251  0.00  0.00     0.076 C 
ATOM      7  C8  UNL d   1      -1.225  -0.094   0.966  0.00  0.00     0.001 A 
ENDROOT
BRANCH   1   8
ATOM      8  C1  UNL d   1      -3.155  -1.169   2.189  0.00  0.00     0.053 C 
ATOM      9  C   UNL d   1      -3.111  -0.426   3.515  0.00  0.00     0.018 C 
ENDBRANCH   1   8
TORSDOF 1
ENDMDL
