MODEL 1
REMARK minimizedAffinity -5.82177162
REMARK minimizedRMSD -1
REMARK  1 active torsions:
REMARK  status: ('A' for Active; 'I' for Inactive)
REMARK    1  A    between atoms: C1_2  and  C2_3 
ROOT
ATOM      1  C2  UNL d   1      -1.367  -1.473   1.228  0.00  0.00    -0.073 A 
ATOM      2  C3  UNL d   1      -0.274  -2.332   1.389  0.00  0.00    -0.002 A 
ATOM      3  C4  UNL d   1       0.914  -2.098   0.696  0.00  0.00     0.004 A 
ATOM      4  C5  UNL d   1       1.025  -1.000  -0.158  0.00  0.00    -0.004 A 
ATOM      5  C6  UNL d   1      -0.052  -0.124  -0.322  0.00  0.00    -0.075 A 
ATOM      6  C7  UNL d   1       0.049   1.060  -1.238  0.00  0.00     0.076 C 
ATOM      7  C8  UNL d   1      -1.244  -0.367   0.375  0.00  0.00     0.001 A 
ENDROOT
BRANCH   1   8
ATOM      8  C1  UNL d   1      -2.650  -1.719   1.979  0.00  0.00     0.053 C 
ATOM      9  C   UNL d   1      -3.355  -0.421   2.342  0.00  0.00     0.018 C 
ENDBRANCH   1   8
TORSDOF 1
ENDMDL
