MODEL 1
REMARK minimizedAffinity -3.14902186
REMARK minimizedRMSD -1
REMARK  1 active torsions:
REMARK  status: ('A' for Active; 'I' for Inactive)
REMARK    1  A    between atoms: N_2  and  C1_3 
ROOT
ATOM      1  C1  UNL d   1      -0.783   1.179  -1.364  0.00  0.00     0.143 A 
ATOM      2  C2  UNL d   1      -0.238   1.492  -0.115  0.00  0.00    -0.057 A 
ATOM      3  C3  UNL d   1      -0.424   0.652   0.990  0.00  0.00     0.033 A 
ATOM      4  C4  UNL d   1      -1.185  -0.505   0.871  0.00  0.00    -0.042 A 
ATOM      5  C5  UNL d   1      -1.758  -0.824  -0.355  0.00  0.00     0.033 A 
ATOM      6  C6  UNL d   1      -1.563   0.015  -1.456  0.00  0.00    -0.057 A 
ENDROOT
BRANCH   1   7
ATOM      7  N   UNL d   1      -0.717   2.022  -2.476  0.00  0.00    -0.732 N 
ATOM      8  C   UNL d   1      -0.370   3.419  -2.322  0.00  0.00     0.284 C 
ATOM      9  H3  UNL d   1      -0.284   1.573  -3.279  0.00  0.00     0.395 HD
ENDBRANCH   1   7
TORSDOF 1
ENDMDL
