MODEL 1
REMARK minimizedAffinity -2.8348031
REMARK minimizedRMSD -1
REMARK  1 active torsions:
REMARK  status: ('A' for Active; 'I' for Inactive)
REMARK    1  A    between atoms: N_2  and  C1_3 
ROOT
ATOM      1  C1  UNL d   1       0.159  -0.217   1.082  0.00  0.00     0.143 A 
ATOM      2  C2  UNL d   1       0.485  -0.962  -0.056  0.00  0.00    -0.057 A 
ATOM      3  C3  UNL d   1       0.286  -0.448  -1.343  0.00  0.00     0.033 A 
ATOM      4  C4  UNL d   1      -0.274   0.814  -1.515  0.00  0.00    -0.042 A 
ATOM      5  C5  UNL d   1      -0.629   1.563  -0.399  0.00  0.00     0.033 A 
ATOM      6  C6  UNL d   1      -0.421   1.046   0.884  0.00  0.00    -0.057 A 
ENDROOT
BRANCH   1   7
ATOM      7  N   UNL d   1       0.242  -0.711   2.386  0.00  0.00    -0.732 N 
ATOM      8  C   UNL d   1       1.350  -1.550   2.787  0.00  0.00     0.284 C 
ATOM      9  H3  UNL d   1      -0.029  -0.019   3.081  0.00  0.00     0.395 HD
ENDBRANCH   1   7
TORSDOF 1
ENDMDL
