MODEL 1
REMARK minimizedAffinity -3.11131501
REMARK minimizedRMSD -1
REMARK  1 active torsions:
REMARK  status: ('A' for Active; 'I' for Inactive)
REMARK    1  A    between atoms: N_2  and  C1_3 
ROOT
ATOM      1  C1  UNL d   1      -0.117   0.403  -0.674  0.00  0.00     0.143 A 
ATOM      2  C2  UNL d   1      -0.757   0.368   0.570  0.00  0.00    -0.057 A 
ATOM      3  C3  UNL d   1      -0.285  -0.446   1.606  0.00  0.00     0.033 A 
ATOM      4  C4  UNL d   1       0.822  -1.265   1.407  0.00  0.00    -0.042 A 
ATOM      5  C5  UNL d   1       1.458  -1.266   0.171  0.00  0.00     0.033 A 
ATOM      6  C6  UNL d   1       0.986  -0.445  -0.858  0.00  0.00    -0.057 A 
ENDROOT
BRANCH   1   7
ATOM      7  N   UNL d   1      -0.596   1.116  -1.775  0.00  0.00    -0.732 N 
ATOM      8  C   UNL d   1       0.255   2.059  -2.469  0.00  0.00     0.284 C 
ATOM      9  H3  UNL d   1      -1.170   0.543  -2.390  0.00  0.00     0.395 HD
ENDBRANCH   1   7
TORSDOF 1
ENDMDL
