MODEL 1
REMARK minimizedAffinity -2.00319481
REMARK minimizedRMSD -1
REMARK  1 active torsions:
REMARK  status: ('A' for Active; 'I' for Inactive)
REMARK    1  A    between atoms: N_2  and  C1_3 
ROOT
ATOM      1  C1  UNL d   1      -0.621   0.195  -0.748  0.00  0.00     0.143 A 
ATOM      2  C2  UNL d   1      -1.156   0.533   0.500  0.00  0.00    -0.057 A 
ATOM      3  C3  UNL d   1      -0.749  -0.127   1.666  0.00  0.00     0.033 A 
ATOM      4  C4  UNL d   1       0.182  -1.158   1.601  0.00  0.00    -0.042 A 
ATOM      5  C5  UNL d   1       0.708  -1.528   0.368  0.00  0.00     0.033 A 
ATOM      6  C6  UNL d   1       0.302  -0.861  -0.792  0.00  0.00    -0.057 A 
ENDROOT
BRANCH   1   7
ATOM      7  N   UNL d   1      -1.057   0.746  -1.956  0.00  0.00    -0.732 N 
ATOM      8  C   UNL d   1      -0.653   2.079  -2.346  0.00  0.00     0.284 C 
ATOM      9  H3  UNL d   1      -1.050   0.069  -2.716  0.00  0.00     0.395 HD
ENDBRANCH   1   7
TORSDOF 1
ENDMDL
