MODEL 1
REMARK minimizedAffinity -3.84098816
REMARK minimizedRMSD -1
REMARK  1 active torsions:
REMARK  status: ('A' for Active; 'I' for Inactive)
REMARK    1  A    between atoms: N_2  and  C1_3 
ROOT
ATOM      1  C1  UNL d   1      -0.026  -0.255   1.130  0.00  0.00     0.143 A 
ATOM      2  C2  UNL d   1       0.015  -1.138   2.214  0.00  0.00    -0.057 A 
ATOM      3  C3  UNL d   1       1.224  -1.692   2.654  0.00  0.00     0.033 A 
ATOM      4  C4  UNL d   1       2.412  -1.395   1.995  0.00  0.00    -0.042 A 
ATOM      5  C5  UNL d   1       2.392  -0.539   0.900  0.00  0.00     0.033 A 
ATOM      6  C6  UNL d   1       1.183   0.017   0.470  0.00  0.00    -0.057 A 
ENDROOT
BRANCH   1   7
ATOM      7  N   UNL d   1      -1.208   0.252   0.584  0.00  0.00    -0.732 N 
ATOM      8  C   UNL d   1      -1.297   0.556  -0.828  0.00  0.00     0.284 C 
ATOM      9  H3  UNL d   1      -2.036  -0.199   0.966  0.00  0.00     0.395 HD
ENDBRANCH   1   7
TORSDOF 1
ENDMDL
