MODEL 1
REMARK minimizedAffinity 1.99349976
REMARK minimizedRMSD -1
REMARK  0 active torsions:
REMARK  status: ('A' for Active; 'I' for Inactive)
ROOT
ATOM      1  C1  BNZ d   1      -2.834  -4.465  -5.191  0.00  0.00     0.000 A 
ATOM      2  C2  BNZ d   1      -3.774  -3.875  -5.992  0.00  0.00     0.000 A 
ATOM      3  C3  BNZ d   1      -5.067  -4.319  -5.999  0.00  0.00     0.000 A 
ATOM      4  C4  BNZ d   1      -5.408  -5.377  -5.235  0.00  0.00     0.000 A 
ATOM      5  C5  BNZ d   1      -4.469  -5.989  -4.429  0.00  0.00     0.000 A 
ATOM      6  C6  BNZ d   1      -3.178  -5.515  -4.396  0.00  0.00     0.000 A 
ENDROOT
TORSDOF 0
ENDMDL
