MODEL 1
REMARK minimizedAffinity 13.1822605
REMARK minimizedRMSD -1
REMARK  0 active torsions:
REMARK  status: ('A' for Active; 'I' for Inactive)
ROOT
ATOM      1  C1  BNZ d   1       2.592   3.800  -0.847  0.00  0.00     0.000 A 
ATOM      2  C2  BNZ d   1       1.625   3.819  -1.816  0.00  0.00     0.000 A 
ATOM      3  C3  BNZ d   1       1.461   4.913  -2.619  0.00  0.00     0.000 A 
ATOM      4  C4  BNZ d   1       2.235   6.000  -2.426  0.00  0.00     0.000 A 
ATOM      5  C5  BNZ d   1       3.208   6.000  -1.446  0.00  0.00     0.000 A 
ATOM      6  C6  BNZ d   1       3.397   4.882  -0.666  0.00  0.00     0.000 A 
ENDROOT
TORSDOF 0
ENDMDL
