MODEL 1
REMARK minimizedAffinity 2.80267382
REMARK minimizedRMSD -1
REMARK  0 active torsions:
REMARK  status: ('A' for Active; 'I' for Inactive)
ROOT
ATOM      1  C1  BNZ d   1      -0.077   3.321  -1.234  0.00  0.00     0.000 A 
ATOM      2  C2  BNZ d   1      -1.276   2.928  -0.702  0.00  0.00     0.000 A 
ATOM      3  C3  BNZ d   1      -1.321   2.125   0.404  0.00  0.00     0.000 A 
ATOM      4  C4  BNZ d   1      -0.170   1.684   0.951  0.00  0.00     0.000 A 
ATOM      5  C5  BNZ d   1       1.046   2.064   0.421  0.00  0.00     0.000 A 
ATOM      6  C6  BNZ d   1       1.089   2.904  -0.669  0.00  0.00     0.000 A 
ENDROOT
TORSDOF 0
ENDMDL
