MODEL 1
REMARK minimizedAffinity 11.6165161
REMARK minimizedRMSD -1
REMARK  0 active torsions:
REMARK  status: ('A' for Active; 'I' for Inactive)
ROOT
ATOM      1  C1  BNZ d   1      -5.379   0.810  -4.144  0.00  0.00     0.000 A 
ATOM      2  C2  BNZ d   1      -4.858   0.515  -5.376  0.00  0.00     0.000 A 
ATOM      3  C3  BNZ d   1      -3.724   1.134  -5.822  0.00  0.00     0.000 A 
ATOM      4  C4  BNZ d   1      -3.136   2.075  -5.055  0.00  0.00     0.000 A 
ATOM      5  C5  BNZ d   1      -3.655   2.391  -3.815  0.00  0.00     0.000 A 
ATOM      6  C6  BNZ d   1      -4.774   1.737  -3.352  0.00  0.00     0.000 A 
ENDROOT
TORSDOF 0
ENDMDL
