MODEL 1
REMARK minimizedAffinity 1.83031547
REMARK minimizedRMSD -1
REMARK  0 active torsions:
REMARK  status: ('A' for Active; 'I' for Inactive)
ROOT
ATOM      1  C   UNL d   1       3.212  -5.981  -1.340  0.00  0.00    -0.002 A 
ATOM      2  C1  UNL d   1       4.590  -5.976  -1.170  0.00  0.00     0.010 A 
ATOM      3  C2  UNL d   1       5.442  -5.981  -2.276  0.00  0.00     0.041 A 
ATOM      4  C3  UNL d   1       4.881  -5.987  -3.568  0.00  0.00    -0.075 A 
ATOM      5  S   UNL d   1       5.729  -5.993  -5.069  0.00  0.00     0.015 SA
ATOM      6  C4  UNL d   1       4.284  -6.000  -5.972  0.00  0.00     0.022 A 
ATOM      7  C5  UNL d   1       3.171  -5.999  -5.164  0.00  0.00     0.026 A 
ATOM      8  C6  UNL d   1       3.497  -5.991  -3.765  0.00  0.00    -0.082 A 
ATOM      9  C7  UNL d   1       2.660  -5.987  -2.624  0.00  0.00     0.045 A 
ENDROOT
TORSDOF 0
ENDMDL
