MODEL 1
REMARK minimizedAffinity 15.0525484
REMARK minimizedRMSD -1
REMARK  0 active torsions:
REMARK  status: ('A' for Active; 'I' for Inactive)
ROOT
ATOM      1  C   UNL d   1       4.298  -1.543  -2.688  0.00  0.00    -0.002 A 
ATOM      2  C1  UNL d   1       3.112  -2.123  -2.261  0.00  0.00     0.010 A 
ATOM      3  C2  UNL d   1       2.906  -3.498  -2.392  0.00  0.00     0.041 A 
ATOM      4  C3  UNL d   1       3.923  -4.287  -2.964  0.00  0.00    -0.075 A 
ATOM      5  S   UNL d   1       3.893  -5.991  -3.224  0.00  0.00     0.015 SA
ATOM      6  C4  UNL d   1       5.455  -5.989  -3.907  0.00  0.00     0.022 A 
ATOM      7  C5  UNL d   1       6.000  -4.728  -3.944  0.00  0.00     0.026 A 
ATOM      8  C6  UNL d   1       5.126  -3.726  -3.400  0.00  0.00    -0.082 A 
ATOM      9  C7  UNL d   1       5.304  -2.329  -3.254  0.00  0.00     0.045 A 
ENDROOT
TORSDOF 0
ENDMDL
