MODEL 1
REMARK minimizedAffinity 15.330986
REMARK minimizedRMSD -1
REMARK  0 active torsions:
REMARK  status: ('A' for Active; 'I' for Inactive)
ROOT
ATOM      1  C   UNL d   1      -5.998   4.390  -1.302  0.00  0.00    -0.002 A 
ATOM      2  C1  UNL d   1      -6.000   3.036  -1.608  0.00  0.00     0.010 A 
ATOM      3  C2  UNL d   1      -5.763   2.083  -0.615  0.00  0.00     0.041 A 
ATOM      4  C3  UNL d   1      -5.522   2.517   0.703  0.00  0.00    -0.075 A 
ATOM      5  S   UNL d   1      -5.208   1.531   2.082  0.00  0.00     0.015 SA
ATOM      6  C4  UNL d   1      -5.065   2.883   3.110  0.00  0.00     0.022 A 
ATOM      7  C5  UNL d   1      -5.248   4.066   2.434  0.00  0.00     0.026 A 
ATOM      8  C6  UNL d   1      -5.516   3.875   1.036  0.00  0.00    -0.082 A 
ATOM      9  C7  UNL d   1      -5.759   4.817   0.007  0.00  0.00     0.045 A 
ENDROOT
TORSDOF 0
ENDMDL
