MODEL 1
REMARK minimizedAffinity 8.03211308
REMARK minimizedRMSD -1
REMARK  0 active torsions:
REMARK  status: ('A' for Active; 'I' for Inactive)
ROOT
ATOM      1  C   UNL d   1       4.509  -3.013   4.980  0.00  0.00    -0.002 A 
ATOM      2  C1  UNL d   1       4.802  -2.118   6.000  0.00  0.00     0.010 A 
ATOM      3  C2  UNL d   1       4.251  -0.836   6.000  0.00  0.00     0.041 A 
ATOM      4  C3  UNL d   1       3.390  -0.464   4.948  0.00  0.00    -0.075 A 
ATOM      5  S   UNL d   1       2.598   1.053   4.740  0.00  0.00     0.015 SA
ATOM      6  C4  UNL d   1       1.850   0.549   3.294  0.00  0.00     0.022 A 
ATOM      7  C5  UNL d   1       2.186  -0.742   2.963  0.00  0.00     0.026 A 
ATOM      8  C6  UNL d   1       3.078  -1.348   3.911  0.00  0.00    -0.082 A 
ATOM      9  C7  UNL d   1       3.654  -2.641   3.939  0.00  0.00     0.045 A 
ENDROOT
TORSDOF 0
ENDMDL
