MODEL 1
REMARK minimizedAffinity 0.266134292
REMARK minimizedRMSD -1
REMARK  0 active torsions:
REMARK  status: ('A' for Active; 'I' for Inactive)
ROOT
ATOM      1  C2' OXE d   1       0.855   2.681  -5.949  0.00  0.00     0.078 C 
ATOM      2  C1' OXE d   1       1.190   5.468  -6.000  0.00  0.00     0.078 C 
ATOM      3  C1  OXE d   1      -0.218   4.929  -5.977  0.00  0.00    -0.078 A 
ATOM      4  C2  OXE d   1      -0.374   3.564  -5.999  0.00  0.00    -0.078 A 
ATOM      5  C3  OXE d   1      -1.650   3.014  -5.924  0.00  0.00     0.003 A 
ATOM      6  C4  OXE d   1      -2.781   3.837  -5.981  0.00  0.00    -0.002 A 
ATOM      7  C5  OXE d   1      -2.646   5.229  -5.999  0.00  0.00    -0.002 A 
ATOM      8  C6  OXE d   1      -1.374   5.791  -5.954  0.00  0.00     0.003 A 
ENDROOT
TORSDOF 0
ENDMDL
