MODEL 1
REMARK minimizedAffinity 6.07402372
REMARK minimizedRMSD -1
REMARK  0 active torsions:
REMARK  status: ('A' for Active; 'I' for Inactive)
ROOT
ATOM      1  C2' OXE d   1       0.337  -0.662   1.186  0.00  0.00     0.078 C 
ATOM      2  C1' OXE d   1      -1.106  -2.760   2.367  0.00  0.00     0.078 C 
ATOM      3  C1  OXE d   1      -0.960  -2.765   0.866  0.00  0.00    -0.078 A 
ATOM      4  C2  OXE d   1      -0.292  -1.709   0.292  0.00  0.00    -0.078 A 
ATOM      5  C3  OXE d   1      -0.082  -1.692  -1.083  0.00  0.00     0.003 A 
ATOM      6  C4  OXE d   1      -0.675  -2.659  -1.903  0.00  0.00    -0.002 A 
ATOM      7  C5  OXE d   1      -1.393  -3.721  -1.343  0.00  0.00    -0.002 A 
ATOM      8  C6  OXE d   1      -1.508  -3.812   0.039  0.00  0.00     0.003 A 
ENDROOT
TORSDOF 0
ENDMDL
