MODEL 1
REMARK minimizedAffinity -1.17483985
REMARK minimizedRMSD -1
REMARK  0 active torsions:
REMARK  status: ('A' for Active; 'I' for Inactive)
ROOT
ATOM      1  C2' OXE d   1      -4.296   3.631  -5.997  0.00  0.00     0.078 C 
ATOM      2  C1' OXE d   1      -2.661   5.913  -5.977  0.00  0.00     0.078 C 
ATOM      3  C1  OXE d   1      -1.987   4.564  -5.980  0.00  0.00    -0.078 A 
ATOM      4  C2  OXE d   1      -2.794   3.453  -5.942  0.00  0.00    -0.078 A 
ATOM      5  C3  OXE d   1      -2.225   2.185  -5.999  0.00  0.00     0.003 A 
ATOM      6  C4  OXE d   1      -0.835   2.029  -5.938  0.00  0.00    -0.002 A 
ATOM      7  C5  OXE d   1       0.006   3.147  -5.936  0.00  0.00    -0.002 A 
ATOM      8  C6  OXE d   1      -0.552   4.419  -5.999  0.00  0.00     0.003 A 
ENDROOT
TORSDOF 0
ENDMDL
