MODEL 1
REMARK minimizedAffinity -0.554749429
REMARK minimizedRMSD -1
REMARK  0 active torsions:
REMARK  status: ('A' for Active; 'I' for Inactive)
ROOT
ATOM      1  C2' OXE d   1      -4.984   3.018  -6.000  0.00  0.00     0.078 C 
ATOM      2  C1' OXE d   1      -4.102   5.683  -5.995  0.00  0.00     0.078 C 
ATOM      3  C1  OXE d   1      -3.057   4.596  -5.984  0.00  0.00    -0.078 A 
ATOM      4  C2  OXE d   1      -3.498   3.295  -5.940  0.00  0.00    -0.078 A 
ATOM      5  C3  OXE d   1      -2.576   2.253  -5.984  0.00  0.00     0.003 A 
ATOM      6  C4  OXE d   1      -1.203   2.518  -5.919  0.00  0.00    -0.002 A 
ATOM      7  C5  OXE d   1      -0.733   3.836  -5.923  0.00  0.00    -0.002 A 
ATOM      8  C6  OXE d   1      -1.644   4.884  -5.999  0.00  0.00     0.003 A 
ENDROOT
TORSDOF 0
ENDMDL
