MODEL 1
REMARK minimizedAffinity 5.52717876
REMARK minimizedRMSD -1
REMARK  0 active torsions:
REMARK  status: ('A' for Active; 'I' for Inactive)
ROOT
ATOM      1  C2' OXE d   1      -0.987  -0.676  -1.040  0.00  0.00     0.078 C 
ATOM      2  C1' OXE d   1      -1.161  -0.049   1.691  0.00  0.00     0.078 C 
ATOM      3  C1  OXE d   1      -0.231   0.776   0.838  0.00  0.00    -0.078 A 
ATOM      4  C2  OXE d   1      -0.117   0.433  -0.488  0.00  0.00    -0.078 A 
ATOM      5  C3  OXE d   1       0.685   1.196  -1.331  0.00  0.00     0.003 A 
ATOM      6  C4  OXE d   1       1.495   2.213  -0.811  0.00  0.00    -0.002 A 
ATOM      7  C5  OXE d   1       1.424   2.553   0.544  0.00  0.00    -0.002 A 
ATOM      8  C6  OXE d   1       0.536   1.874   1.372  0.00  0.00     0.003 A 
ENDROOT
TORSDOF 0
ENDMDL
