MODEL 1
REMARK minimizedAffinity 5.79087114
REMARK minimizedRMSD -1
REMARK  0 active torsions:
REMARK  status: ('A' for Active; 'I' for Inactive)
ROOT
ATOM      1  C2' OXE d   1      -0.012   1.735   1.148  0.00  0.00     0.078 C 
ATOM      2  C1' OXE d   1       0.989   2.737  -1.275  0.00  0.00     0.078 C 
ATOM      3  C1  OXE d   1       1.743   3.070  -0.012  0.00  0.00    -0.078 A 
ATOM      4  C2  OXE d   1       1.220   2.614   1.175  0.00  0.00    -0.078 A 
ATOM      5  C3  OXE d   1       1.904   2.847   2.364  0.00  0.00     0.003 A 
ATOM      6  C4  OXE d   1       3.037   3.669   2.381  0.00  0.00    -0.002 A 
ATOM      7  C5  OXE d   1       3.564   4.177   1.188  0.00  0.00    -0.002 A 
ATOM      8  C6  OXE d   1       2.954   3.852  -0.018  0.00  0.00     0.003 A 
ENDROOT
TORSDOF 0
ENDMDL
