MODEL 1
REMARK minimizedAffinity 12.2034817
REMARK minimizedRMSD -1
REMARK  0 active torsions:
REMARK  status: ('A' for Active; 'I' for Inactive)
ROOT
ATOM      1  C2' OXE d   1      -2.360   5.969  -5.968  0.00  0.00     0.078 C 
ATOM      2  C1' OXE d   1      -2.699   3.183  -5.993  0.00  0.00     0.078 C 
ATOM      3  C1  OXE d   1      -1.290   3.720  -5.965  0.00  0.00    -0.078 A 
ATOM      4  C2  OXE d   1      -1.133   5.085  -6.000  0.00  0.00    -0.078 A 
ATOM      5  C3  OXE d   1       0.144   5.634  -5.920  0.00  0.00     0.003 A 
ATOM      6  C4  OXE d   1       1.274   4.809  -5.960  0.00  0.00    -0.002 A 
ATOM      7  C5  OXE d   1       1.137   3.417  -5.965  0.00  0.00    -0.002 A 
ATOM      8  C6  OXE d   1      -0.135   2.857  -5.924  0.00  0.00     0.003 A 
ENDROOT
TORSDOF 0
ENDMDL
