MODEL 1
REMARK minimizedAffinity -2.16916323
REMARK minimizedRMSD -1
REMARK  0 active torsions:
REMARK  status: ('A' for Active; 'I' for Inactive)
ROOT
ATOM      1  C2' OXE d   1      -5.103   3.446  -5.952  0.00  0.00     0.078 C 
ATOM      2  C1' OXE d   1      -3.923   5.993  -5.932  0.00  0.00     0.078 C 
ATOM      3  C1  OXE d   1      -3.008   4.794  -5.959  0.00  0.00    -0.078 A 
ATOM      4  C2  OXE d   1      -3.593   3.551  -5.921  0.00  0.00    -0.078 A 
ATOM      5  C3  OXE d   1      -2.797   2.412  -6.000  0.00  0.00     0.003 A 
ATOM      6  C4  OXE d   1      -1.402   2.519  -5.961  0.00  0.00    -0.002 A 
ATOM      7  C5  OXE d   1      -0.785   3.774  -5.958  0.00  0.00    -0.002 A 
ATOM      8  C6  OXE d   1      -1.572   4.920  -6.000  0.00  0.00     0.003 A 
ENDROOT
TORSDOF 0
ENDMDL
