MODEL 1
REMARK minimizedAffinity 5.3118968
REMARK minimizedRMSD -1
REMARK  0 active torsions:
REMARK  status: ('A' for Active; 'I' for Inactive)
ROOT
ATOM      1  C2' OXE d   1      -2.685   5.818  -5.897  0.00  0.00     0.078 C 
ATOM      2  C1' OXE d   1      -4.113   3.401  -5.939  0.00  0.00     0.078 C 
ATOM      3  C1  OXE d   1      -2.606   3.328  -5.939  0.00  0.00    -0.078 A 
ATOM      4  C2  OXE d   1      -1.916   4.516  -5.966  0.00  0.00    -0.078 A 
ATOM      5  C3  OXE d   1      -0.525   4.506  -5.912  0.00  0.00     0.003 A 
ATOM      6  C4  OXE d   1       0.179   3.298  -5.986  0.00  0.00    -0.002 A 
ATOM      7  C5  OXE d   1      -0.505   2.078  -5.999  0.00  0.00    -0.002 A 
ATOM      8  C6  OXE d   1      -1.894   2.074  -5.934  0.00  0.00     0.003 A 
ENDROOT
TORSDOF 0
ENDMDL
