MODEL 1
REMARK minimizedAffinity 6.27220678
REMARK minimizedRMSD -1
REMARK  0 active torsions:
REMARK  status: ('A' for Active; 'I' for Inactive)
ROOT
ATOM      1  C2' OXE d   1       0.887   3.660  -5.937  0.00  0.00     0.078 C 
ATOM      2  C1' OXE d   1       2.448   1.328  -5.999  0.00  0.00     0.078 C 
ATOM      3  C1  OXE d   1       3.166   2.654  -5.973  0.00  0.00    -0.078 A 
ATOM      4  C2  OXE d   1       2.394   3.791  -5.990  0.00  0.00    -0.078 A 
ATOM      5  C3  OXE d   1       3.003   5.040  -5.911  0.00  0.00     0.003 A 
ATOM      6  C4  OXE d   1       4.398   5.153  -5.970  0.00  0.00    -0.002 A 
ATOM      7  C5  OXE d   1       5.202   4.009  -5.994  0.00  0.00    -0.002 A 
ATOM      8  C6  OXE d   1       4.604   2.754  -5.952  0.00  0.00     0.003 A 
ENDROOT
TORSDOF 0
ENDMDL
