MODEL 1
REMARK minimizedAffinity -2.30862427
REMARK minimizedRMSD -1
REMARK  0 active torsions:
REMARK  status: ('A' for Active; 'I' for Inactive)
ROOT
ATOM      1  C2' OXE d   1      -2.759   2.979  -5.995  0.00  0.00     0.078 C 
ATOM      2  C1' OXE d   1      -1.904   5.652  -5.975  0.00  0.00     0.078 C 
ATOM      3  C1  OXE d   1      -0.847   4.576  -5.979  0.00  0.00    -0.078 A 
ATOM      4  C2  OXE d   1      -1.274   3.271  -5.942  0.00  0.00    -0.078 A 
ATOM      5  C3  OXE d   1      -0.342   2.239  -5.999  0.00  0.00     0.003 A 
ATOM      6  C4  OXE d   1       1.028   2.517  -5.940  0.00  0.00    -0.002 A 
ATOM      7  C5  OXE d   1       1.485   3.840  -5.938  0.00  0.00    -0.002 A 
ATOM      8  C6  OXE d   1       0.563   4.879  -6.000  0.00  0.00     0.003 A 
ENDROOT
TORSDOF 0
ENDMDL
