MODEL 1
REMARK minimizedAffinity 6.6975894
REMARK minimizedRMSD -1
REMARK  0 active torsions:
REMARK  status: ('A' for Active; 'I' for Inactive)
ROOT
ATOM      1  C2' OXE d   1       0.950   3.593  -5.949  0.00  0.00     0.078 C 
ATOM      2  C1' OXE d   1       2.347   1.158  -5.995  0.00  0.00     0.078 C 
ATOM      3  C1  OXE d   1       3.154   2.432  -5.974  0.00  0.00    -0.078 A 
ATOM      4  C2  OXE d   1       2.462   3.619  -5.999  0.00  0.00    -0.078 A 
ATOM      5  C3  OXE d   1       3.157   4.823  -5.927  0.00  0.00     0.003 A 
ATOM      6  C4  OXE d   1       4.556   4.839  -5.984  0.00  0.00    -0.002 A 
ATOM      7  C5  OXE d   1       5.279   3.642  -5.999  0.00  0.00    -0.002 A 
ATOM      8  C6  OXE d   1       4.596   2.432  -5.952  0.00  0.00     0.003 A 
ENDROOT
TORSDOF 0
ENDMDL
