MODEL 1
REMARK minimizedAffinity 4.89262676
REMARK minimizedRMSD -1
REMARK  0 active torsions:
REMARK  status: ('A' for Active; 'I' for Inactive)
ROOT
ATOM      1  C2' OXE d   1       1.217   2.338  -2.494  0.00  0.00     0.078 C 
ATOM      2  C1' OXE d   1       1.559   3.911  -0.195  0.00  0.00     0.078 C 
ATOM      3  C1  OXE d   1       0.986   2.527  -0.021  0.00  0.00    -0.078 A 
ATOM      4  C2  OXE d   1       0.778   1.782  -1.156  0.00  0.00    -0.078 A 
ATOM      5  C3  OXE d   1       0.303   0.478  -1.048  0.00  0.00     0.003 A 
ATOM      6  C4  OXE d   1      -0.110  -0.025   0.192  0.00  0.00    -0.002 A 
ATOM      7  C5  OXE d   1       0.056   0.732   1.357  0.00  0.00    -0.002 A 
ATOM      8  C6  OXE d   1       0.641   1.991   1.273  0.00  0.00     0.003 A 
ENDROOT
TORSDOF 0
ENDMDL
