MODEL 1
REMARK minimizedAffinity 1.89855278
REMARK minimizedRMSD -1
REMARK  0 active torsions:
REMARK  status: ('A' for Active; 'I' for Inactive)
ROOT
ATOM      1  C2' OXE d   1       0.158   1.382  -1.696  0.00  0.00     0.078 C 
ATOM      2  C1' OXE d   1      -0.548   0.284   0.789  0.00  0.00     0.078 C 
ATOM      3  C1  OXE d   1       0.390   1.466   0.782  0.00  0.00    -0.078 A 
ATOM      4  C2  OXE d   1       0.767   1.967  -0.440  0.00  0.00    -0.078 A 
ATOM      5  C3  OXE d   1       1.586   3.090  -0.501  0.00  0.00     0.003 A 
ATOM      6  C4  OXE d   1       2.153   3.619   0.665  0.00  0.00    -0.002 A 
ATOM      7  C5  OXE d   1       1.814   3.098   1.918  0.00  0.00    -0.002 A 
ATOM      8  C6  OXE d   1       0.902   2.051   1.997  0.00  0.00     0.003 A 
ENDROOT
TORSDOF 0
ENDMDL
