MODEL 1
REMARK minimizedAffinity 7.15464878
REMARK minimizedRMSD -1
REMARK  0 active torsions:
REMARK  status: ('A' for Active; 'I' for Inactive)
ROOT
ATOM      1  C2' OXE d   1       0.678  -0.410   0.484  0.00  0.00     0.078 C 
ATOM      2  C1' OXE d   1       0.634   2.316   1.150  0.00  0.00     0.078 C 
ATOM      3  C1  OXE d   1      -0.658   1.545   1.258  0.00  0.00    -0.078 A 
ATOM      4  C2  OXE d   1      -0.637   0.223   0.885  0.00  0.00    -0.078 A 
ATOM      5  C3  OXE d   1      -1.789  -0.549   1.017  0.00  0.00     0.003 A 
ATOM      6  C4  OXE d   1      -3.003   0.047   1.380  0.00  0.00    -0.002 A 
ATOM      7  C5  OXE d   1      -3.054   1.401   1.725  0.00  0.00    -0.002 A 
ATOM      8  C6  OXE d   1      -1.884   2.153   1.711  0.00  0.00     0.003 A 
ENDROOT
TORSDOF 0
ENDMDL
