MODEL 1
REMARK minimizedAffinity 6.83656597
REMARK minimizedRMSD -1
REMARK  0 active torsions:
REMARK  status: ('A' for Active; 'I' for Inactive)
ROOT
ATOM      1  C2' OXE d   1      -3.069   2.782  -5.997  0.00  0.00     0.078 C 
ATOM      2  C1' OXE d   1      -2.206   5.454  -5.997  0.00  0.00     0.078 C 
ATOM      3  C1  OXE d   1      -1.153   4.374  -5.982  0.00  0.00    -0.078 A 
ATOM      4  C2  OXE d   1      -1.585   3.070  -5.935  0.00  0.00    -0.078 A 
ATOM      5  C3  OXE d   1      -0.656   2.035  -5.975  0.00  0.00     0.003 A 
ATOM      6  C4  OXE d   1       0.716   2.310  -5.908  0.00  0.00    -0.002 A 
ATOM      7  C5  OXE d   1       1.176   3.630  -5.915  0.00  0.00    -0.002 A 
ATOM      8  C6  OXE d   1       0.258   4.672  -5.995  0.00  0.00     0.003 A 
ENDROOT
TORSDOF 0
ENDMDL
