MODEL 1
REMARK minimizedAffinity 8.07864285
REMARK minimizedRMSD -1
REMARK  0 active torsions:
REMARK  status: ('A' for Active; 'I' for Inactive)
ROOT
ATOM      1  C2' OXE d   1      -0.515   0.020   1.325  0.00  0.00     0.078 C 
ATOM      2  C1' OXE d   1      -0.076  -0.003  -1.448  0.00  0.00     0.078 C 
ATOM      3  C1  OXE d   1       0.489   1.150  -0.655  0.00  0.00    -0.078 A 
ATOM      4  C2  OXE d   1       0.229   1.177   0.694  0.00  0.00    -0.078 A 
ATOM      5  C3  OXE d   1       0.773   2.188   1.480  0.00  0.00     0.003 A 
ATOM      6  C4  OXE d   1       1.451   3.260   0.887  0.00  0.00    -0.002 A 
ATOM      7  C5  OXE d   1       1.693   3.272  -0.491  0.00  0.00    -0.002 A 
ATOM      8  C6  OXE d   1       1.256   2.206  -1.269  0.00  0.00     0.003 A 
ENDROOT
TORSDOF 0
ENDMDL
