MODEL 1
REMARK minimizedAffinity -1.48793161
REMARK minimizedRMSD -1
REMARK  0 active torsions:
REMARK  status: ('A' for Active; 'I' for Inactive)
ROOT
ATOM      1  C2' OXE d   1      -2.502   3.048  -5.999  0.00  0.00     0.078 C 
ATOM      2  C1' OXE d   1      -1.597   5.705  -5.975  0.00  0.00     0.078 C 
ATOM      3  C1  OXE d   1      -0.561   4.609  -5.978  0.00  0.00    -0.078 A 
ATOM      4  C2  OXE d   1      -1.013   3.312  -5.943  0.00  0.00    -0.078 A 
ATOM      5  C3  OXE d   1      -0.100   2.262  -6.000  0.00  0.00     0.003 A 
ATOM      6  C4  OXE d   1       1.276   2.515  -5.938  0.00  0.00    -0.002 A 
ATOM      7  C5  OXE d   1       1.757   3.829  -5.933  0.00  0.00    -0.002 A 
ATOM      8  C6  OXE d   1       0.855   4.885  -5.996  0.00  0.00     0.003 A 
ENDROOT
TORSDOF 0
ENDMDL
