MODEL 1
REMARK minimizedAffinity 0.391679078
REMARK minimizedRMSD -1
REMARK  1 active torsions:
REMARK  status: ('A' for Active; 'I' for Inactive)
REMARK    1  A    between atoms: C1_2  and  C2_3 
ROOT
ATOM      1  C2  UNL d   1       3.817   4.301   5.678  0.00  0.00    -0.076 A 
ATOM      2  C3  UNL d   1       3.095   3.138   5.996  0.00  0.00     0.004 A 
ATOM      3  C4  UNL d   1       3.614   1.874   5.722  0.00  0.00    -0.003 A 
ATOM      4  C5  UNL d   1       4.864   1.753   5.125  0.00  0.00     0.000 A 
ATOM      5  C6  UNL d   1       5.602   2.896   4.819  0.00  0.00     0.000 A 
ATOM      6  C7  UNL d   1       5.100   4.177   5.104  0.00  0.00    -0.073 A 
ATOM      7  C8  UNL d   1       5.936   5.376   4.747  0.00  0.00     0.078 C 
ENDROOT
BRANCH   1   8
ATOM      8  C1  UNL d   1       3.192   5.646   5.974  0.00  0.00     0.053 C 
ATOM      9  C   UNL d   1       1.674   5.615   5.885  0.00  0.00     0.018 C 
ENDBRANCH   1   8
TORSDOF 1
ENDMDL
