MODEL 1
REMARK minimizedAffinity 1.54724848
REMARK minimizedRMSD -1
REMARK  1 active torsions:
REMARK  status: ('A' for Active; 'I' for Inactive)
REMARK    1  A    between atoms: C1_2  and  C2_3 
ROOT
ATOM      1  C2  UNL d   1       3.492   2.872   5.539  0.00  0.00    -0.076 A 
ATOM      2  C3  UNL d   1       2.648   3.985   5.382  0.00  0.00     0.004 A 
ATOM      3  C4  UNL d   1       3.133   5.282   5.540  0.00  0.00    -0.003 A 
ATOM      4  C5  UNL d   1       4.471   5.488   5.857  0.00  0.00     0.000 A 
ATOM      5  C6  UNL d   1       5.327   4.397   6.000  0.00  0.00     0.000 A 
ATOM      6  C7  UNL d   1       4.858   3.083   5.828  0.00  0.00    -0.073 A 
ATOM      7  C8  UNL d   1       5.824   1.943   6.000  0.00  0.00     0.078 C 
ENDROOT
BRANCH   1   8
ATOM      8  C1  UNL d   1       2.904   1.488   5.383  0.00  0.00     0.053 C 
ATOM      9  C   UNL d   1       1.510   1.377   5.980  0.00  0.00     0.018 C 
ENDBRANCH   1   8
TORSDOF 1
ENDMDL
