MODEL 1
REMARK minimizedAffinity 6.48322201
REMARK minimizedRMSD -1
REMARK  1 active torsions:
REMARK  status: ('A' for Active; 'I' for Inactive)
REMARK    1  A    between atoms: C1_2  and  C2_3 
ROOT
ATOM      1  C2  UNL d   1       3.781   3.672   5.421  0.00  0.00    -0.076 A 
ATOM      2  C3  UNL d   1       2.553   3.281   5.981  0.00  0.00     0.004 A 
ATOM      3  C4  UNL d   1       2.167   1.941   5.999  0.00  0.00    -0.003 A 
ATOM      4  C5  UNL d   1       3.003   0.972   5.456  0.00  0.00     0.000 A 
ATOM      5  C6  UNL d   1       4.233   1.340   4.912  0.00  0.00     0.000 A 
ATOM      6  C7  UNL d   1       4.644   2.684   4.901  0.00  0.00    -0.073 A 
ATOM      7  C8  UNL d   1       5.978   3.026   4.296  0.00  0.00     0.078 C 
ENDROOT
BRANCH   1   8
ATOM      8  C1  UNL d   1       4.134   5.142   5.406  0.00  0.00     0.053 C 
ATOM      9  C   UNL d   1       5.507   5.418   6.000  0.00  0.00     0.018 C 
ENDBRANCH   1   8
TORSDOF 1
ENDMDL
