MODEL 1
REMARK minimizedAffinity 3.73380351
REMARK minimizedRMSD -1
REMARK  1 active torsions:
REMARK  status: ('A' for Active; 'I' for Inactive)
REMARK    1  A    between atoms: C1_2  and  C2_3 
ROOT
ATOM      1  C2  UNL d   1       4.201   3.164   4.870  0.00  0.00    -0.076 A 
ATOM      2  C3  UNL d   1       3.997   3.975   6.000  0.00  0.00     0.004 A 
ATOM      3  C4  UNL d   1       4.334   5.328   5.982  0.00  0.00    -0.003 A 
ATOM      4  C5  UNL d   1       4.880   5.891   4.834  0.00  0.00     0.000 A 
ATOM      5  C6  UNL d   1       5.073   5.105   3.698  0.00  0.00     0.000 A 
ATOM      6  C7  UNL d   1       4.724   3.744   3.694  0.00  0.00    -0.073 A 
ATOM      7  C8  UNL d   1       4.959   2.942   2.444  0.00  0.00     0.078 C 
ENDROOT
BRANCH   1   8
ATOM      8  C1  UNL d   1       3.842   1.698   4.957  0.00  0.00     0.053 C 
ATOM      9  C   UNL d   1       2.764   1.422   5.994  0.00  0.00     0.018 C 
ENDBRANCH   1   8
TORSDOF 1
ENDMDL
