MODEL 1
REMARK minimizedAffinity -4.50385189
REMARK minimizedRMSD -1
REMARK  1 active torsions:
REMARK  status: ('A' for Active; 'I' for Inactive)
REMARK    1  A    between atoms: C1_2  and  C2_3 
ROOT
ATOM      1  C2  UNL d   1       3.566   3.587   4.588  0.00  0.00    -0.076 A 
ATOM      2  C3  UNL d   1       2.345   3.008   4.199  0.00  0.00     0.004 A 
ATOM      3  C4  UNL d   1       1.948   1.768   4.695  0.00  0.00    -0.003 A 
ATOM      4  C5  UNL d   1       2.766   1.085   5.589  0.00  0.00     0.000 A 
ATOM      5  C6  UNL d   1       3.972   1.652   6.000  0.00  0.00     0.000 A 
ATOM      6  C7  UNL d   1       4.379   2.909   5.522  0.00  0.00    -0.073 A 
ATOM      7  C8  UNL d   1       5.692   3.470   5.994  0.00  0.00     0.078 C 
ENDROOT
BRANCH   1   8
ATOM      8  C1  UNL d   1       3.956   4.922   3.997  0.00  0.00     0.053 C 
ATOM      9  C   UNL d   1       4.130   6.000   5.055  0.00  0.00     0.018 C 
ENDBRANCH   1   8
TORSDOF 1
ENDMDL
