MODEL 1
REMARK minimizedAffinity -2.00708628
REMARK minimizedRMSD -1
REMARK  1 active torsions:
REMARK  status: ('A' for Active; 'I' for Inactive)
REMARK    1  A    between atoms: C1_2  and  C2_3 
ROOT
ATOM      1  C2  UNL d   1       4.041   3.804   4.310  0.00  0.00    -0.076 A 
ATOM      2  C3  UNL d   1       4.124   5.180   4.035  0.00  0.00     0.004 A 
ATOM      3  C4  UNL d   1       5.006   6.000   4.738  0.00  0.00    -0.003 A 
ATOM      4  C5  UNL d   1       5.819   5.457   5.726  0.00  0.00     0.000 A 
ATOM      5  C6  UNL d   1       5.763   4.091   6.000  0.00  0.00     0.000 A 
ATOM      6  C7  UNL d   1       4.891   3.247   5.290  0.00  0.00    -0.073 A 
ATOM      7  C8  UNL d   1       4.867   1.782   5.631  0.00  0.00     0.078 C 
ENDROOT
BRANCH   1   8
ATOM      8  C1  UNL d   1       3.047   2.969   3.535  0.00  0.00     0.053 C 
ATOM      9  C   UNL d   1       2.430   1.865   4.379  0.00  0.00     0.018 C 
ENDBRANCH   1   8
TORSDOF 1
ENDMDL
