MODEL 1
REMARK minimizedAffinity -0.704140365
REMARK minimizedRMSD -1
REMARK  1 active torsions:
REMARK  status: ('A' for Active; 'I' for Inactive)
REMARK    1  A    between atoms: C1_2  and  C2_3 
ROOT
ATOM      1  C2  UNL d   1       3.148  -0.768   0.055  0.00  0.00    -0.076 A 
ATOM      2  C3  UNL d   1       3.785  -0.728  -1.198  0.00  0.00     0.004 A 
ATOM      3  C4  UNL d   1       4.272   0.471  -1.717  0.00  0.00    -0.003 A 
ATOM      4  C5  UNL d   1       4.130   1.649  -0.991  0.00  0.00     0.000 A 
ATOM      5  C6  UNL d   1       3.516   1.624   0.261  0.00  0.00     0.000 A 
ATOM      6  C7  UNL d   1       3.034   0.421   0.806  0.00  0.00    -0.073 A 
ATOM      7  C8  UNL d   1       2.375   0.454   2.157  0.00  0.00     0.078 C 
ENDROOT
BRANCH   1   8
ATOM      8  C1  UNL d   1       2.615  -2.092   0.554  0.00  0.00     0.053 C 
ATOM      9  C   UNL d   1       1.589  -2.701  -0.389  0.00  0.00     0.018 C 
ENDBRANCH   1   8
TORSDOF 1
ENDMDL
