MODEL 1
REMARK minimizedAffinity -2.74278855
REMARK minimizedRMSD -1
REMARK  1 active torsions:
REMARK  status: ('A' for Active; 'I' for Inactive)
REMARK    1  A    between atoms: C1_2  and  C2_3 
ROOT
ATOM      1  C2  UNL d   1       4.671   3.640   5.350  0.00  0.00    -0.076 A 
ATOM      2  C3  UNL d   1       4.645   2.394   6.000  0.00  0.00     0.004 A 
ATOM      3  C4  UNL d   1       3.623   1.479   5.755  0.00  0.00    -0.003 A 
ATOM      4  C5  UNL d   1       2.610   1.795   4.856  0.00  0.00     0.000 A 
ATOM      5  C6  UNL d   1       2.630   3.019   4.189  0.00  0.00     0.000 A 
ATOM      6  C7  UNL d   1       3.662   3.946   4.412  0.00  0.00    -0.073 A 
ATOM      7  C8  UNL d   1       3.630   5.254   3.670  0.00  0.00     0.078 C 
ENDROOT
BRANCH   1   8
ATOM      8  C1  UNL d   1       5.791   4.603   5.676  0.00  0.00     0.053 C 
ATOM      9  C   UNL d   1       5.282   6.000   5.998  0.00  0.00     0.018 C 
ENDBRANCH   1   8
TORSDOF 1
ENDMDL
