MODEL 1
REMARK minimizedAffinity -5.21693897
REMARK minimizedRMSD -1
REMARK  1 active torsions:
REMARK  status: ('A' for Active; 'I' for Inactive)
REMARK    1  A    between atoms: C1_2  and  C2_3 
ROOT
ATOM      1  C2  UNL d   1       2.567   4.222   4.913  0.00  0.00    -0.076 A 
ATOM      2  C3  UNL d   1       3.498   5.269   4.799  0.00  0.00     0.004 A 
ATOM      3  C4  UNL d   1       4.860   5.043   4.992  0.00  0.00    -0.003 A 
ATOM      4  C5  UNL d   1       5.313   3.765   5.302  0.00  0.00     0.000 A 
ATOM      5  C6  UNL d   1       4.406   2.711   5.402  0.00  0.00     0.000 A 
ATOM      6  C7  UNL d   1       3.031   2.919   5.194  0.00  0.00    -0.073 A 
ATOM      7  C8  UNL d   1       2.097   1.747   5.321  0.00  0.00     0.078 C 
ENDROOT
BRANCH   1   8
ATOM      8  C1  UNL d   1       1.100   4.533   4.720  0.00  0.00     0.053 C 
ATOM      9  C   UNL d   1       0.789   5.022   3.314  0.00  0.00     0.018 C 
ENDBRANCH   1   8
TORSDOF 1
ENDMDL
