MODEL 1
REMARK minimizedAffinity -2.54399586
REMARK minimizedRMSD -1
REMARK  1 active torsions:
REMARK  status: ('A' for Active; 'I' for Inactive)
REMARK    1  A    between atoms: C1_2  and  C2_3 
ROOT
ATOM      1  C2  UNL d   1       3.587   3.588   5.155  0.00  0.00    -0.076 A 
ATOM      2  C3  UNL d   1       2.713   4.296   5.999  0.00  0.00     0.004 A 
ATOM      3  C4  UNL d   1       1.987   5.388   5.526  0.00  0.00    -0.003 A 
ATOM      4  C5  UNL d   1       2.123   5.789   4.201  0.00  0.00     0.000 A 
ATOM      5  C6  UNL d   1       2.972   5.088   3.346  0.00  0.00     0.000 A 
ATOM      6  C7  UNL d   1       3.699   3.975   3.803  0.00  0.00    -0.073 A 
ATOM      7  C8  UNL d   1       4.604   3.259   2.839  0.00  0.00     0.078 C 
ENDROOT
BRANCH   1   8
ATOM      8  C1  UNL d   1       4.368   2.429   5.731  0.00  0.00     0.053 C 
ATOM      9  C   UNL d   1       3.568   1.135   5.742  0.00  0.00     0.018 C 
ENDBRANCH   1   8
TORSDOF 1
ENDMDL
