MODEL 1
REMARK minimizedAffinity 5.74758434
REMARK minimizedRMSD -1
REMARK  0 active torsions:
REMARK  status: ('A' for Active; 'I' for Inactive)
ROOT
ATOM      1  O1  BZF d   1       1.036   4.118  -5.705  0.00  0.00    -0.204 OA
ATOM      2  C2  BZF d   1       1.125   5.464  -5.999  0.00  0.00     0.174 A 
ATOM      3  C3  BZF d   1       2.245   5.997  -5.470  0.00  0.00    -0.012 A 
ATOM      4  C3A BZF d   1       2.943   4.895  -4.881  0.00  0.00    -0.107 A 
ATOM      5  C4  BZF d   1       4.131   4.783  -4.216  0.00  0.00     0.055 A 
ATOM      6  C5  BZF d   1       4.491   3.577  -3.705  0.00  0.00    -0.016 A 
ATOM      7  C6  BZF d   1       3.687   2.463  -3.837  0.00  0.00     0.022 A 
ATOM      8  C7  BZF d   1       2.502   2.524  -4.493  0.00  0.00     0.029 A 
ATOM      9  C7A BZF d   1       2.151   3.734  -5.039  0.00  0.00     0.058 A 
ENDROOT
TORSDOF 0
ENDMDL
