MODEL 1
REMARK minimizedAffinity 8.70924187
REMARK minimizedRMSD -1
REMARK  0 active torsions:
REMARK  status: ('A' for Active; 'I' for Inactive)
ROOT
ATOM      1  O1  BZF d   1      -5.593   0.264   3.797  0.00  0.00    -0.204 OA
ATOM      2  C2  BZF d   1      -5.999  -0.383   4.948  0.00  0.00     0.174 A 
ATOM      3  C3  BZF d   1      -5.993   0.461   6.000  0.00  0.00    -0.012 A 
ATOM      4  C3A BZF d   1      -5.644   1.738   5.455  0.00  0.00    -0.107 A 
ATOM      5  C4  BZF d   1      -5.491   2.980   6.000  0.00  0.00     0.055 A 
ATOM      6  C5  BZF d   1      -5.073   4.002   5.207  0.00  0.00    -0.016 A 
ATOM      7  C6  BZF d   1      -4.794   3.815   3.868  0.00  0.00     0.022 A 
ATOM      8  C7  BZF d   1      -4.937   2.601   3.282  0.00  0.00     0.029 A 
ATOM      9  C7A BZF d   1      -5.391   1.575   4.073  0.00  0.00     0.058 A 
ENDROOT
TORSDOF 0
ENDMDL
