MODEL 1
REMARK minimizedAffinity 3.13389468
REMARK minimizedRMSD -1
REMARK  0 active torsions:
REMARK  status: ('A' for Active; 'I' for Inactive)
ROOT
ATOM      1  O1  BZF d   1      -5.034   3.714   4.054  0.00  0.00    -0.204 OA
ATOM      2  C2  BZF d   1      -5.501   4.160   5.276  0.00  0.00     0.174 A 
ATOM      3  C3  BZF d   1      -6.000   3.138   6.000  0.00  0.00    -0.012 A 
ATOM      4  C3A BZF d   1      -5.750   1.966   5.218  0.00  0.00    -0.107 A 
ATOM      5  C4  BZF d   1      -6.000   0.637   5.411  0.00  0.00     0.055 A 
ATOM      6  C5  BZF d   1      -5.697  -0.243   4.421  0.00  0.00    -0.016 A 
ATOM      7  C6  BZF d   1      -5.148   0.171   3.225  0.00  0.00     0.022 A 
ATOM      8  C7  BZF d   1      -4.878   1.478   2.989  0.00  0.00     0.029 A 
ATOM      9  C7A BZF d   1      -5.152   2.366   4.000  0.00  0.00     0.058 A 
ENDROOT
TORSDOF 0
ENDMDL
