MODEL 1
REMARK minimizedAffinity 23.0290318
REMARK minimizedRMSD -1
REMARK  0 active torsions:
REMARK  status: ('A' for Active; 'I' for Inactive)
ROOT
ATOM      1  O1  BZF d   1      -5.573  -0.412   4.865  0.00  0.00    -0.204 OA
ATOM      2  C2  BZF d   1      -5.890   0.332   5.985  0.00  0.00     0.174 A 
ATOM      3  C3  BZF d   1      -5.202   1.492   6.000  0.00  0.00    -0.012 A 
ATOM      4  C3A BZF d   1      -4.475   1.513   4.768  0.00  0.00    -0.107 A 
ATOM      5  C4  BZF d   1      -3.622   2.413   4.197  0.00  0.00     0.055 A 
ATOM      6  C5  BZF d   1      -3.022   2.100   3.018  0.00  0.00    -0.016 A 
ATOM      7  C6  BZF d   1      -3.248   0.894   2.387  0.00  0.00     0.022 A 
ATOM      8  C7  BZF d   1      -4.090  -0.029   2.912  0.00  0.00     0.029 A 
ATOM      9  C7A BZF d   1      -4.723   0.299   4.086  0.00  0.00     0.058 A 
ENDROOT
TORSDOF 0
ENDMDL
