MODEL 1
REMARK minimizedAffinity 15.5494127
REMARK minimizedRMSD -1
REMARK  0 active torsions:
REMARK  status: ('A' for Active; 'I' for Inactive)
ROOT
ATOM      1  O1  BZF d   1      -3.452  -4.839   1.392  0.00  0.00    -0.204 OA
ATOM      2  C2  BZF d   1      -2.870  -5.999   1.863  0.00  0.00     0.174 A 
ATOM      3  C3  BZF d   1      -1.526  -5.890   1.873  0.00  0.00    -0.012 A 
ATOM      4  C3A BZF d   1      -1.254  -4.546   1.466  0.00  0.00    -0.107 A 
ATOM      5  C4  BZF d   1      -0.104  -3.830   1.297  0.00  0.00     0.055 A 
ATOM      6  C5  BZF d   1      -0.180  -2.560   0.818  0.00  0.00    -0.016 A 
ATOM      7  C6  BZF d   1      -1.387  -1.978   0.492  0.00  0.00     0.022 A 
ATOM      8  C7  BZF d   1      -2.556  -2.647   0.647  0.00  0.00     0.029 A 
ATOM      9  C7A BZF d   1      -2.485  -3.919   1.162  0.00  0.00     0.058 A 
ENDROOT
TORSDOF 0
ENDMDL
