MODEL 1
REMARK minimizedAffinity 14.6533737
REMARK minimizedRMSD -1
REMARK  0 active torsions:
REMARK  status: ('A' for Active; 'I' for Inactive)
ROOT
ATOM      1  O1  BZF d   1       0.850   4.096  -5.058  0.00  0.00    -0.204 OA
ATOM      2  C2  BZF d   1       0.631   5.094  -5.988  0.00  0.00     0.174 A 
ATOM      3  C3  BZF d   1       1.649   5.979  -5.988  0.00  0.00    -0.012 A 
ATOM      4  C3A BZF d   1       2.605   5.453  -5.062  0.00  0.00    -0.107 A 
ATOM      5  C4  BZF d   1       3.834   5.875  -4.641  0.00  0.00     0.055 A 
ATOM      6  C5  BZF d   1       4.477   5.172  -3.672  0.00  0.00    -0.016 A 
ATOM      7  C6  BZF d   1       3.919   4.047  -3.099  0.00  0.00     0.022 A 
ATOM      8  C7  BZF d   1       2.704   3.588  -3.488  0.00  0.00     0.029 A 
ATOM      9  C7A BZF d   1       2.067   4.277  -4.490  0.00  0.00     0.058 A 
ENDROOT
TORSDOF 0
ENDMDL
