MODEL 1
REMARK minimizedAffinity 21.6180096
REMARK minimizedRMSD -1
REMARK  0 active torsions:
REMARK  status: ('A' for Active; 'I' for Inactive)
ROOT
ATOM      1  O1  BZF d   1      -3.752   4.231   0.590  0.00  0.00    -0.204 OA
ATOM      2  C2  BZF d   1      -2.588   4.951   0.403  0.00  0.00     0.174 A 
ATOM      3  C3  BZF d   1      -1.703   4.695   1.388  0.00  0.00    -0.012 A 
ATOM      4  C3A BZF d   1      -2.320   3.687   2.195  0.00  0.00    -0.107 A 
ATOM      5  C4  BZF d   1      -1.928   3.011   3.315  0.00  0.00     0.055 A 
ATOM      6  C5  BZF d   1      -2.794   2.143   3.900  0.00  0.00    -0.016 A 
ATOM      7  C6  BZF d   1      -4.061   1.931   3.395  0.00  0.00     0.022 A 
ATOM      8  C7  BZF d   1      -4.493   2.575   2.284  0.00  0.00     0.029 A 
ATOM      9  C7A BZF d   1      -3.608   3.428   1.672  0.00  0.00     0.058 A 
ENDROOT
TORSDOF 0
ENDMDL
