MODEL 1
REMARK minimizedAffinity 21.5018787
REMARK minimizedRMSD -1
REMARK  0 active torsions:
REMARK  status: ('A' for Active; 'I' for Inactive)
ROOT
ATOM      1  O1  BZF d   1      -0.062   3.560   2.113  0.00  0.00    -0.204 OA
ATOM      2  C2  BZF d   1       1.115   3.633   1.393  0.00  0.00     0.174 A 
ATOM      3  C3  BZF d   1       1.880   2.545   1.615  0.00  0.00    -0.012 A 
ATOM      4  C3A BZF d   1       1.094   1.699   2.459  0.00  0.00    -0.107 A 
ATOM      5  C4  BZF d   1       1.305   0.467   3.011  0.00  0.00     0.055 A 
ATOM      6  C5  BZF d   1       0.367  -0.051   3.848  0.00  0.00    -0.016 A 
ATOM      7  C6  BZF d   1      -0.787   0.637   4.159  0.00  0.00     0.022 A 
ATOM      8  C7  BZF d   1      -1.043   1.859   3.632  0.00  0.00     0.029 A 
ATOM      9  C7A BZF d   1      -0.113   2.371   2.760  0.00  0.00     0.058 A 
ENDROOT
TORSDOF 0
ENDMDL
