MODEL 1
REMARK minimizedAffinity 8.08058929
REMARK minimizedRMSD -1
REMARK  0 active torsions:
REMARK  status: ('A' for Active; 'I' for Inactive)
ROOT
ATOM      1  O1  BZF d   1       0.213   4.157   1.588  0.00  0.00    -0.204 OA
ATOM      2  C2  BZF d   1       1.273   3.272   1.539  0.00  0.00     0.174 A 
ATOM      3  C3  BZF d   1       1.177   2.470   0.459  0.00  0.00    -0.012 A 
ATOM      4  C3A BZF d   1       0.032   2.940  -0.258  0.00  0.00    -0.107 A 
ATOM      5  C4  BZF d   1      -0.568   2.557  -1.424  0.00  0.00     0.055 A 
ATOM      6  C5  BZF d   1      -1.715   3.175  -1.810  0.00  0.00    -0.016 A 
ATOM      7  C6  BZF d   1      -2.292   4.175  -1.053  0.00  0.00     0.022 A 
ATOM      8  C7  BZF d   1      -1.731   4.592   0.108  0.00  0.00     0.029 A 
ATOM      9  C7A BZF d   1      -0.554   3.992   0.484  0.00  0.00     0.058 A 
ENDROOT
TORSDOF 0
ENDMDL
