MODEL 1
REMARK minimizedAffinity 21.5102005
REMARK minimizedRMSD -1
REMARK  0 active torsions:
REMARK  status: ('A' for Active; 'I' for Inactive)
ROOT
ATOM      1  O1  BZF d   1       3.292   4.913   0.002  0.00  0.00    -0.204 OA
ATOM      2  C2  BZF d   1       3.227   5.631   1.181  0.00  0.00     0.174 A 
ATOM      3  C3  BZF d   1       2.601   4.918   2.140  0.00  0.00    -0.012 A 
ATOM      4  C3A BZF d   1       2.336   3.643   1.549  0.00  0.00    -0.107 A 
ATOM      5  C4  BZF d   1       1.748   2.499   2.009  0.00  0.00     0.055 A 
ATOM      6  C5  BZF d   1       1.578   1.455   1.156  0.00  0.00    -0.016 A 
ATOM      7  C6  BZF d   1       1.978   1.522  -0.163  0.00  0.00     0.022 A 
ATOM      8  C7  BZF d   1       2.570   2.634  -0.663  0.00  0.00     0.029 A 
ATOM      9  C7A BZF d   1       2.774   3.678   0.205  0.00  0.00     0.058 A 
ENDROOT
TORSDOF 0
ENDMDL
