MODEL 1
REMARK minimizedAffinity 17.6162052
REMARK minimizedRMSD -1
REMARK  0 active torsions:
REMARK  status: ('A' for Active; 'I' for Inactive)
ROOT
ATOM      1  O1  BZF d   1      -4.198  -4.773   1.089  0.00  0.00    -0.204 OA
ATOM      2  C2  BZF d   1      -3.838  -5.992   1.629  0.00  0.00     0.174 A 
ATOM      3  C3  BZF d   1      -2.536  -5.994   1.980  0.00  0.00    -0.012 A 
ATOM      4  C3A BZF d   1      -2.075  -4.664   1.725  0.00  0.00    -0.107 A 
ATOM      5  C4  BZF d   1      -0.871  -4.039   1.888  0.00  0.00     0.055 A 
ATOM      6  C5  BZF d   1      -0.733  -2.753   1.472  0.00  0.00    -0.016 A 
ATOM      7  C6  BZF d   1      -1.774  -2.063   0.886  0.00  0.00     0.022 A 
ATOM      8  C7  BZF d   1      -2.989  -2.639   0.709  0.00  0.00     0.029 A 
ATOM      9  C7A BZF d   1      -3.141  -3.928   1.157  0.00  0.00     0.058 A 
ENDROOT
TORSDOF 0
ENDMDL
