MODEL 1
REMARK minimizedAffinity 17.8300018
REMARK minimizedRMSD -1
REMARK  0 active torsions:
REMARK  status: ('A' for Active; 'I' for Inactive)
ROOT
ATOM      1  O1  BZF d   1      -2.534   3.929  -0.577  0.00  0.00    -0.204 OA
ATOM      2  C2  BZF d   1      -3.031   5.208  -0.743  0.00  0.00     0.174 A 
ATOM      3  C3  BZF d   1      -2.123   6.000  -1.347  0.00  0.00    -0.012 A 
ATOM      4  C3A BZF d   1      -1.021   5.140  -1.658  0.00  0.00    -0.107 A 
ATOM      5  C4  BZF d   1       0.179   5.339  -2.277  0.00  0.00     0.055 A 
ATOM      6  C5  BZF d   1       1.061   4.308  -2.356  0.00  0.00    -0.016 A 
ATOM      7  C6  BZF d   1       0.777   3.068  -1.823  0.00  0.00     0.022 A 
ATOM      8  C7  BZF d   1      -0.404   2.821  -1.204  0.00  0.00     0.029 A 
ATOM      9  C7A BZF d   1      -1.310   3.852  -1.151  0.00  0.00     0.058 A 
ENDROOT
TORSDOF 0
ENDMDL
