MODEL 1
REMARK minimizedAffinity 25.5924854
REMARK minimizedRMSD -1
REMARK  0 active torsions:
REMARK  status: ('A' for Active; 'I' for Inactive)
ROOT
ATOM      1  O1  BZF d   1      -0.762  -1.125   4.626  0.00  0.00    -0.204 OA
ATOM      2  C2  BZF d   1      -0.182  -0.242   5.516  0.00  0.00     0.174 A 
ATOM      3  C3  BZF d   1       0.829   0.433   4.931  0.00  0.00    -0.012 A 
ATOM      4  C3A BZF d   1       0.825   0.006   3.565  0.00  0.00    -0.107 A 
ATOM      5  C4  BZF d   1       1.584   0.332   2.478  0.00  0.00     0.055 A 
ATOM      6  C5  BZF d   1       1.371  -0.319   1.305  0.00  0.00    -0.016 A 
ATOM      7  C6  BZF d   1       0.412  -1.303   1.184  0.00  0.00     0.022 A 
ATOM      8  C7  BZF d   1      -0.369  -1.657   2.233  0.00  0.00     0.029 A 
ATOM      9  C7A BZF d   1      -0.179  -0.978   3.412  0.00  0.00     0.058 A 
ENDROOT
TORSDOF 0
ENDMDL
