MODEL 1
REMARK minimizedAffinity 16.2041302
REMARK minimizedRMSD -1
REMARK  0 active torsions:
REMARK  status: ('A' for Active; 'I' for Inactive)
ROOT
ATOM      1  O1  BZF d   1      -2.477  -3.504  -3.374  0.00  0.00    -0.204 OA
ATOM      2  C2  BZF d   1      -1.613  -4.582  -3.355  0.00  0.00     0.174 A 
ATOM      3  C3  BZF d   1      -2.257  -5.704  -2.972  0.00  0.00    -0.012 A 
ATOM      4  C3A BZF d   1      -3.628  -5.321  -2.827  0.00  0.00    -0.107 A 
ATOM      5  C4  BZF d   1      -4.761  -6.000  -2.482  0.00  0.00     0.055 A 
ATOM      6  C5  BZF d   1      -5.930  -5.317  -2.361  0.00  0.00    -0.016 A 
ATOM      7  C6  BZF d   1      -6.000  -3.955  -2.573  0.00  0.00     0.022 A 
ATOM      8  C7  BZF d   1      -4.903  -3.239  -2.922  0.00  0.00     0.029 A 
ATOM      9  C7A BZF d   1      -3.727  -3.932  -3.077  0.00  0.00     0.058 A 
ENDROOT
TORSDOF 0
ENDMDL
