MODEL 1
REMARK minimizedAffinity 26.0876789
REMARK minimizedRMSD -1
REMARK  0 active torsions:
REMARK  status: ('A' for Active; 'I' for Inactive)
ROOT
ATOM      1  O1  BZF d   1      -6.000  -4.956  -2.695  0.00  0.00    -0.204 OA
ATOM      2  C2  BZF d   1      -5.520  -5.999  -1.925  0.00  0.00     0.174 A 
ATOM      3  C3  BZF d   1      -4.183  -5.909  -1.778  0.00  0.00    -0.012 A 
ATOM      4  C3A BZF d   1      -3.814  -4.687  -2.424  0.00  0.00    -0.107 A 
ATOM      5  C4  BZF d   1      -2.625  -4.040  -2.601  0.00  0.00     0.055 A 
ATOM      6  C5  BZF d   1      -2.596  -2.901  -3.342  0.00  0.00    -0.016 A 
ATOM      7  C6  BZF d   1      -3.735  -2.385  -3.924  0.00  0.00     0.022 A 
ATOM      8  C7  BZF d   1      -4.939  -2.988  -3.772  0.00  0.00     0.029 A 
ATOM      9  C7A BZF d   1      -4.977  -4.121  -2.996  0.00  0.00     0.058 A 
ENDROOT
TORSDOF 0
ENDMDL
