MODEL 1
REMARK minimizedAffinity 22.6496563
REMARK minimizedRMSD -1
REMARK  0 active torsions:
REMARK  status: ('A' for Active; 'I' for Inactive)
ROOT
ATOM      1  O1  BZF d   1      -4.138  -4.751   1.506  0.00  0.00    -0.204 OA
ATOM      2  C2  BZF d   1      -3.701  -6.000   1.904  0.00  0.00     0.174 A 
ATOM      3  C3  BZF d   1      -2.367  -5.999   2.102  0.00  0.00    -0.012 A 
ATOM      4  C3A BZF d   1      -1.957  -4.644   1.899  0.00  0.00    -0.107 A 
ATOM      5  C4  BZF d   1      -0.751  -4.007   1.969  0.00  0.00     0.055 A 
ATOM      6  C5  BZF d   1      -0.679  -2.690   1.641  0.00  0.00    -0.016 A 
ATOM      7  C6  BZF d   1      -1.790  -1.982   1.235  0.00  0.00     0.022 A 
ATOM      8  C7  BZF d   1      -3.009  -2.569   1.155  0.00  0.00     0.029 A 
ATOM      9  C7A BZF d   1      -3.091  -3.891   1.517  0.00  0.00     0.058 A 
ENDROOT
TORSDOF 0
ENDMDL
