MODEL 1
REMARK minimizedAffinity 26.1607246
REMARK minimizedRMSD -1
REMARK  0 active torsions:
REMARK  status: ('A' for Active; 'I' for Inactive)
ROOT
ATOM      1  O1  BZF d   1      -0.674  -2.697   1.350  0.00  0.00    -0.204 OA
ATOM      2  C2  BZF d   1      -1.492  -1.844   0.636  0.00  0.00     0.174 A 
ATOM      3  C3  BZF d   1      -2.672  -2.435   0.358  0.00  0.00    -0.012 A 
ATOM      4  C3A BZF d   1      -2.621  -3.705   1.013  0.00  0.00    -0.107 A 
ATOM      5  C4  BZF d   1      -3.502  -4.743   1.120  0.00  0.00     0.055 A 
ATOM      6  C5  BZF d   1      -3.117  -5.872   1.770  0.00  0.00    -0.016 A 
ATOM      7  C6  BZF d   1      -1.859  -6.000   2.321  0.00  0.00     0.022 A 
ATOM      8  C7  BZF d   1      -0.952  -4.995   2.245  0.00  0.00     0.029 A 
ATOM      9  C7A BZF d   1      -1.350  -3.840   1.617  0.00  0.00     0.058 A 
ENDROOT
TORSDOF 0
ENDMDL
