MODEL 1
REMARK minimizedAffinity 19.0279827
REMARK minimizedRMSD -1
REMARK  0 active torsions:
REMARK  status: ('A' for Active; 'I' for Inactive)
ROOT
ATOM      1  O1  BZF d   1      -1.509  -4.849   3.681  0.00  0.00    -0.204 OA
ATOM      2  C2  BZF d   1      -1.983  -5.883   2.896  0.00  0.00     0.174 A 
ATOM      3  C3  BZF d   1      -2.203  -5.463   1.633  0.00  0.00    -0.012 A 
ATOM      4  C3A BZF d   1      -1.757  -4.104   1.606  0.00  0.00    -0.107 A 
ATOM      5  C4  BZF d   1      -1.703  -3.153   0.627  0.00  0.00     0.055 A 
ATOM      6  C5  BZF d   1      -1.281  -1.901   0.945  0.00  0.00    -0.016 A 
ATOM      7  C6  BZF d   1      -0.912  -1.564   2.231  0.00  0.00     0.022 A 
ATOM      8  C7  BZF d   1      -0.944  -2.474   3.234  0.00  0.00     0.029 A 
ATOM      9  C7A BZF d   1      -1.338  -3.749   2.909  0.00  0.00     0.058 A 
ENDROOT
TORSDOF 0
ENDMDL
