MODEL 1
REMARK minimizedAffinity 18.1189365
REMARK minimizedRMSD -1
REMARK  0 active torsions:
REMARK  status: ('A' for Active; 'I' for Inactive)
ROOT
ATOM      1  O1  BZF d   1      -4.719  -3.015  -5.231  0.00  0.00    -0.204 OA
ATOM      2  C2  BZF d   1      -5.993  -3.232  -4.744  0.00  0.00     0.174 A 
ATOM      3  C3  BZF d   1      -5.999  -3.214  -3.396  0.00  0.00    -0.012 A 
ATOM      4  C3A BZF d   1      -4.660  -2.879  -3.018  0.00  0.00    -0.107 A 
ATOM      5  C4  BZF d   1      -4.043  -2.694  -1.814  0.00  0.00     0.055 A 
ATOM      6  C5  BZF d   1      -2.707  -2.447  -1.787  0.00  0.00    -0.016 A 
ATOM      7  C6  BZF d   1      -1.958  -2.382  -2.944  0.00  0.00     0.022 A 
ATOM      8  C7  BZF d   1      -2.527  -2.554  -4.162  0.00  0.00     0.029 A 
ATOM      9  C7A BZF d   1      -3.882  -2.771  -4.194  0.00  0.00     0.058 A 
ENDROOT
TORSDOF 0
ENDMDL
