MODEL 1
REMARK minimizedAffinity 11.0294275
REMARK minimizedRMSD -1
REMARK  0 active torsions:
REMARK  status: ('A' for Active; 'I' for Inactive)
ROOT
ATOM      1  O1  BZF d   1      -3.328  -2.327  -3.008  0.00  0.00    -0.204 OA
ATOM      2  C2  BZF d   1      -2.354  -2.599  -2.067  0.00  0.00     0.174 A 
ATOM      3  C3  BZF d   1      -2.559  -3.805  -1.500  0.00  0.00    -0.012 A 
ATOM      4  C3A BZF d   1      -3.683  -4.359  -2.192  0.00  0.00    -0.107 A 
ATOM      5  C4  BZF d   1      -4.355  -5.544  -2.093  0.00  0.00     0.055 A 
ATOM      6  C5  BZF d   1      -5.455  -5.745  -2.865  0.00  0.00    -0.016 A 
ATOM      7  C6  BZF d   1      -5.913  -4.784  -3.742  0.00  0.00     0.022 A 
ATOM      8  C7  BZF d   1      -5.276  -3.595  -3.878  0.00  0.00     0.029 A 
ATOM      9  C7A BZF d   1      -4.145  -3.401  -3.123  0.00  0.00     0.058 A 
ENDROOT
TORSDOF 0
ENDMDL
