MODEL 1
REMARK minimizedAffinity 14.4017773
REMARK minimizedRMSD -1
REMARK  1 active torsions:
REMARK  status: ('A' for Active; 'I' for Inactive)
REMARK    1  A    between atoms: C1_2  and  C2_3 
ROOT
ATOM      1  C2  UNL d   1      -1.724   4.575   0.037  0.00  0.00    -0.076 A 
ATOM      2  C3  UNL d   1      -0.874   3.931   0.953  0.00  0.00     0.004 A 
ATOM      3  C4  UNL d   1       0.031   2.959   0.530  0.00  0.00    -0.003 A 
ATOM      4  C5  UNL d   1       0.101   2.615  -0.815  0.00  0.00     0.000 A 
ATOM      5  C6  UNL d   1      -0.722   3.256  -1.740  0.00  0.00     0.000 A 
ATOM      6  C7  UNL d   1      -1.629   4.250  -1.333  0.00  0.00    -0.073 A 
ATOM      7  C8  UNL d   1      -2.497   4.905  -2.372  0.00  0.00     0.078 C 
ENDROOT
BRANCH   1   8
ATOM      8  C1  UNL d   1      -2.704   5.602   0.558  0.00  0.00     0.053 C 
ATOM      9  C   UNL d   1      -2.561   5.838   2.053  0.00  0.00     0.018 C 
ENDBRANCH   1   8
TORSDOF 1
ENDMDL
