MODEL 1
REMARK minimizedAffinity 13.2639465
REMARK minimizedRMSD -1
REMARK  1 active torsions:
REMARK  status: ('A' for Active; 'I' for Inactive)
REMARK    1  A    between atoms: C1_2  and  C2_3 
ROOT
ATOM      1  C2  UNL d   1      -2.437   2.098  -0.448  0.00  0.00    -0.076 A 
ATOM      2  C3  UNL d   1      -3.044   3.266  -0.943  0.00  0.00     0.004 A 
ATOM      3  C4  UNL d   1      -4.132   3.196  -1.810  0.00  0.00    -0.003 A 
ATOM      4  C5  UNL d   1      -4.632   1.957  -2.197  0.00  0.00     0.000 A 
ATOM      5  C6  UNL d   1      -4.054   0.789  -1.702  0.00  0.00     0.000 A 
ATOM      6  C7  UNL d   1      -2.966   0.842  -0.813  0.00  0.00    -0.073 A 
ATOM      7  C8  UNL d   1      -2.377  -0.450  -0.315  0.00  0.00     0.078 C 
ENDROOT
BRANCH   1   8
ATOM      8  C1  UNL d   1      -1.242   2.236   0.469  0.00  0.00     0.053 C 
ATOM      9  C   UNL d   1       0.045   2.519  -0.290  0.00  0.00     0.018 C 
ENDBRANCH   1   8
TORSDOF 1
ENDMDL
