MODEL 1
REMARK minimizedAffinity 12.2529726
REMARK minimizedRMSD -1
REMARK  1 active torsions:
REMARK  status: ('A' for Active; 'I' for Inactive)
REMARK    1  A    between atoms: C1_2  and  C2_3 
ROOT
ATOM      1  C2  UNL d   1       1.137   2.488   1.108  0.00  0.00    -0.076 A 
ATOM      2  C3  UNL d   1       1.699   3.084  -0.035  0.00  0.00     0.004 A 
ATOM      3  C4  UNL d   1       0.892   3.551  -1.071  0.00  0.00    -0.003 A 
ATOM      4  C5  UNL d   1      -0.491   3.431  -0.981  0.00  0.00     0.000 A 
ATOM      5  C6  UNL d   1      -1.066   2.859   0.154  0.00  0.00     0.000 A 
ATOM      6  C7  UNL d   1      -0.268   2.398   1.214  0.00  0.00    -0.073 A 
ATOM      7  C8  UNL d   1      -0.941   1.785   2.411  0.00  0.00     0.078 C 
ENDROOT
BRANCH   1   8
ATOM      8  C1  UNL d   1       2.063   1.976   2.187  0.00  0.00     0.053 C 
ATOM      9  C   UNL d   1       2.914   3.079   2.798  0.00  0.00     0.018 C 
ENDBRANCH   1   8
TORSDOF 1
ENDMDL
