MODEL 1
REMARK minimizedAffinity 5.22566557
REMARK minimizedRMSD -1
REMARK  1 active torsions:
REMARK  status: ('A' for Active; 'I' for Inactive)
REMARK    1  A    between atoms: C1_2  and  C2_3 
ROOT
ATOM      1  C2  UNL d   1       0.774   2.990   1.001  0.00  0.00    -0.076 A 
ATOM      2  C3  UNL d   1       0.352   2.781   2.326  0.00  0.00     0.004 A 
ATOM      3  C4  UNL d   1      -0.984   2.514   2.620  0.00  0.00    -0.003 A 
ATOM      4  C5  UNL d   1      -1.920   2.450   1.594  0.00  0.00     0.000 A 
ATOM      5  C6  UNL d   1      -1.516   2.637   0.272  0.00  0.00     0.000 A 
ATOM      6  C7  UNL d   1      -0.170   2.891  -0.043  0.00  0.00    -0.073 A 
ATOM      7  C8  UNL d   1       0.208   3.091  -1.485  0.00  0.00     0.078 C 
ENDROOT
BRANCH   1   8
ATOM      8  C1  UNL d   1       2.231   3.303   0.746  0.00  0.00     0.053 C 
ATOM      9  C   UNL d   1       2.425   4.634   0.036  0.00  0.00     0.018 C 
ENDBRANCH   1   8
TORSDOF 1
ENDMDL
