MODEL 1
REMARK minimizedAffinity 12.1226969
REMARK minimizedRMSD -1
REMARK  1 active torsions:
REMARK  status: ('A' for Active; 'I' for Inactive)
REMARK    1  A    between atoms: C1_2  and  C2_3 
ROOT
ATOM      1  C2  UNL d   1       1.879  -4.592  -3.327  0.00  0.00    -0.076 A 
ATOM      2  C3  UNL d   1       0.680  -3.859  -3.310  0.00  0.00     0.004 A 
ATOM      3  C4  UNL d   1      -0.029  -3.671  -2.125  0.00  0.00    -0.003 A 
ATOM      4  C5  UNL d   1       0.450  -4.212  -0.938  0.00  0.00     0.000 A 
ATOM      5  C6  UNL d   1       1.647  -4.927  -0.933  0.00  0.00     0.000 A 
ATOM      6  C7  UNL d   1       2.382  -5.112  -2.116  0.00  0.00    -0.073 A 
ATOM      7  C8  UNL d   1       3.664  -5.897  -2.054  0.00  0.00     0.078 C 
ENDROOT
BRANCH   1   8
ATOM      8  C1  UNL d   1       2.591  -4.786  -4.647  0.00  0.00     0.053 C 
ATOM      9  C   UNL d   1       2.135  -3.795  -5.706  0.00  0.00     0.018 C 
ENDBRANCH   1   8
TORSDOF 1
ENDMDL
