MODEL 1
REMARK minimizedAffinity 3.79110026
REMARK minimizedRMSD -1
REMARK  1 active torsions:
REMARK  status: ('A' for Active; 'I' for Inactive)
REMARK    1  A    between atoms: N_2  and  C1_3 
ROOT
ATOM      1  C1  UNL d   1       6.000  -2.134  -4.799  0.00  0.00     0.143 A 
ATOM      2  C2  UNL d   1       5.968  -2.855  -3.601  0.00  0.00    -0.057 A 
ATOM      3  C3  UNL d   1       5.977  -4.256  -3.596  0.00  0.00     0.033 A 
ATOM      4  C4  UNL d   1       5.990  -4.961  -4.795  0.00  0.00    -0.042 A 
ATOM      5  C5  UNL d   1       5.996  -4.265  -5.998  0.00  0.00     0.033 A 
ATOM      6  C6  UNL d   1       5.994  -2.867  -5.997  0.00  0.00    -0.057 A 
ENDROOT
BRANCH   1   7
ATOM      7  N   UNL d   1       5.893  -0.743  -4.873  0.00  0.00    -0.732 N 
ATOM      8  C   UNL d   1       5.216  -0.113  -5.986  0.00  0.00     0.284 C 
ATOM      9  H3  UNL d   1       5.689  -0.321  -3.969  0.00  0.00     0.395 HD
ENDBRANCH   1   7
TORSDOF 1
ENDMDL
