MODEL 1
REMARK minimizedAffinity 14.3803444
REMARK minimizedRMSD -1
REMARK  1 active torsions:
REMARK  status: ('A' for Active; 'I' for Inactive)
REMARK    1  A    between atoms: N_2  and  C1_3 
ROOT
ATOM      1  C1  UNL d   1       3.025  -2.629   4.114  0.00  0.00     0.143 A 
ATOM      2  C2  UNL d   1       2.640  -1.348   4.524  0.00  0.00    -0.057 A 
ATOM      3  C3  UNL d   1       2.067  -0.440   3.625  0.00  0.00     0.033 A 
ATOM      4  C4  UNL d   1       1.894  -0.789   2.290  0.00  0.00    -0.042 A 
ATOM      5  C5  UNL d   1       2.292  -2.048   1.855  0.00  0.00     0.033 A 
ATOM      6  C6  UNL d   1       2.858  -2.952   2.758  0.00  0.00    -0.057 A 
ENDROOT
BRANCH   1   7
ATOM      7  N   UNL d   1       3.690  -3.542   4.936  0.00  0.00    -0.732 N 
ATOM      8  C   UNL d   1       4.574  -3.080   5.985  0.00  0.00     0.284 C 
ATOM      9  H3  UNL d   1       3.099  -4.325   5.205  0.00  0.00     0.395 HD
ENDBRANCH   1   7
TORSDOF 1
ENDMDL
