MODEL 1
REMARK minimizedAffinity 9.3688879
REMARK minimizedRMSD -1
REMARK  1 active torsions:
REMARK  status: ('A' for Active; 'I' for Inactive)
REMARK    1  A    between atoms: N_2  and  C1_3 
ROOT
ATOM      1  C1  UNL d   1       4.743  -5.813  -4.334  0.00  0.00     0.143 A 
ATOM      2  C2  UNL d   1       5.121  -5.745  -2.988  0.00  0.00    -0.057 A 
ATOM      3  C3  UNL d   1       4.173  -5.830  -1.962  0.00  0.00     0.033 A 
ATOM      4  C4  UNL d   1       2.821  -5.954  -2.265  0.00  0.00    -0.042 A 
ATOM      5  C5  UNL d   1       2.419  -5.998  -3.595  0.00  0.00     0.033 A 
ATOM      6  C6  UNL d   1       3.372  -5.920  -4.616  0.00  0.00    -0.057 A 
ENDROOT
BRANCH   1   7
ATOM      7  N   UNL d   1       5.628  -5.636  -5.400  0.00  0.00    -0.732 N 
ATOM      8  C   UNL d   1       5.816  -4.329  -5.993  0.00  0.00     0.284 C 
ATOM      9  H3  UNL d   1       6.487  -6.167  -5.284  0.00  0.00     0.395 HD
ENDBRANCH   1   7
TORSDOF 1
ENDMDL
