MODEL 1
REMARK minimizedAffinity 7.37585068
REMARK minimizedRMSD -1
REMARK  1 active torsions:
REMARK  status: ('A' for Active; 'I' for Inactive)
REMARK    1  A    between atoms: N_2  and  C1_3 
ROOT
ATOM      1  C1  UNL d   1       2.559   1.050   1.941  0.00  0.00     0.143 A 
ATOM      2  C2  UNL d   1       2.392  -0.292   1.584  0.00  0.00    -0.057 A 
ATOM      3  C3  UNL d   1       2.228  -1.287   2.556  0.00  0.00     0.033 A 
ATOM      4  C4  UNL d   1       2.258  -0.958   3.907  0.00  0.00    -0.042 A 
ATOM      5  C5  UNL d   1       2.447   0.366   4.285  0.00  0.00     0.033 A 
ATOM      6  C6  UNL d   1       2.604   1.356   3.310  0.00  0.00    -0.057 A 
ENDROOT
BRANCH   1   7
ATOM      7  N   UNL d   1       2.826   2.071   1.025  0.00  0.00    -0.732 N 
ATOM      8  C   UNL d   1       2.159   3.351   1.133  0.00  0.00     0.284 C 
ATOM      9  H3  UNL d   1       3.814   2.136   0.791  0.00  0.00     0.395 HD
ENDBRANCH   1   7
TORSDOF 1
ENDMDL
