MODEL 1
REMARK minimizedAffinity 2.77083707
REMARK minimizedRMSD -1
REMARK  1 active torsions:
REMARK  status: ('A' for Active; 'I' for Inactive)
REMARK    1  A    between atoms: N_2  and  C1_3 
ROOT
ATOM      1  C1  UNL d   1       3.411   5.209  -1.269  0.00  0.00     0.143 A 
ATOM      2  C2  UNL d   1       3.621   3.949  -0.698  0.00  0.00    -0.057 A 
ATOM      3  C3  UNL d   1       2.597   3.281  -0.017  0.00  0.00     0.033 A 
ATOM      4  C4  UNL d   1       1.348   3.875   0.131  0.00  0.00    -0.042 A 
ATOM      5  C5  UNL d   1       1.124   5.138  -0.406  0.00  0.00     0.033 A 
ATOM      6  C6  UNL d   1       2.149   5.798  -1.091  0.00  0.00    -0.057 A 
ENDROOT
BRANCH   1   7
ATOM      7  N   UNL d   1       4.417   5.968  -1.872  0.00  0.00    -0.732 N 
ATOM      8  C   UNL d   1       4.572   5.975  -3.311  0.00  0.00     0.284 C 
ATOM      9  H3  UNL d   1       4.530   6.881  -1.438  0.00  0.00     0.395 HD
ENDBRANCH   1   7
TORSDOF 1
ENDMDL
