MODEL 1
REMARK minimizedAffinity 3.27240014
REMARK minimizedRMSD -1
REMARK  1 active torsions:
REMARK  status: ('A' for Active; 'I' for Inactive)
REMARK    1  A    between atoms: N_2  and  C1_3 
ROOT
ATOM      1  C1  UNL d   1       2.372  -4.902   5.610  0.00  0.00     0.143 A 
ATOM      2  C2  UNL d   1       3.735  -4.903   5.927  0.00  0.00    -0.057 A 
ATOM      3  C3  UNL d   1       4.598  -3.922   5.423  0.00  0.00     0.033 A 
ATOM      4  C4  UNL d   1       4.117  -2.936   4.568  0.00  0.00    -0.042 A 
ATOM      5  C5  UNL d   1       2.771  -2.930   4.220  0.00  0.00     0.033 A 
ATOM      6  C6  UNL d   1       1.912  -3.908   4.732  0.00  0.00    -0.057 A 
ENDROOT
BRANCH   1   7
ATOM      7  N   UNL d   1       1.482  -5.906   6.000  0.00  0.00    -0.732 N 
ATOM      8  C   UNL d   1       0.054  -5.673   5.983  0.00  0.00     0.284 C 
ATOM      9  H3  UNL d   1       1.757  -6.823   5.656  0.00  0.00     0.395 HD
ENDBRANCH   1   7
TORSDOF 1
ENDMDL
