MODEL 1
REMARK minimizedAffinity 9.59509468
REMARK minimizedRMSD -1
REMARK  0 active torsions:
REMARK  status: ('A' for Active; 'I' for Inactive)
ROOT
ATOM      1  C   UNL d   1       3.700  -4.901   2.038  0.00  0.00     0.077 C 
ATOM      2  C1  UNL d   1       2.855  -4.440   3.188  0.00  0.00    -0.074 A 
ATOM      3  C2  UNL d   1       2.644  -3.078   3.424  0.00  0.00    -0.005 A 
ATOM      4  C3  UNL d   1       1.847  -2.664   4.492  0.00  0.00     0.006 A 
ATOM      5  C4  UNL d   1       1.255  -3.607   5.333  0.00  0.00    -0.005 A 
ATOM      6  C5  UNL d   1       1.453  -4.973   5.112  0.00  0.00    -0.074 A 
ATOM      7  C6  UNL d   1       0.816  -6.000   6.000  0.00  0.00     0.077 C 
ATOM      8  C7  UNL d   1       2.249  -5.381   4.032  0.00  0.00    -0.001 A 
ENDROOT
TORSDOF 0
ENDMDL
