MODEL 1
REMARK minimizedAffinity 10.321908
REMARK minimizedRMSD -1
REMARK  0 active torsions:
REMARK  status: ('A' for Active; 'I' for Inactive)
ROOT
ATOM      1  C   UNL d   1       1.825   2.909   1.252  0.00  0.00     0.077 C 
ATOM      2  C1  UNL d   1       2.363   1.548   1.578  0.00  0.00    -0.074 A 
ATOM      3  C2  UNL d   1       3.392   0.980   0.819  0.00  0.00    -0.005 A 
ATOM      4  C3  UNL d   1       3.888  -0.283   1.140  0.00  0.00     0.006 A 
ATOM      5  C4  UNL d   1       3.362  -0.990   2.222  0.00  0.00    -0.005 A 
ATOM      6  C5  UNL d   1       2.335  -0.439   2.993  0.00  0.00    -0.074 A 
ATOM      7  C6  UNL d   1       1.765  -1.181   4.166  0.00  0.00     0.077 C 
ATOM      8  C7  UNL d   1       1.846   0.834   2.668  0.00  0.00    -0.001 A 
ENDROOT
TORSDOF 0
ENDMDL
