MODEL 1
REMARK minimizedAffinity 0.318719208
REMARK minimizedRMSD -1
REMARK  0 active torsions:
REMARK  status: ('A' for Active; 'I' for Inactive)
ROOT
ATOM      1  C   UNL d   1       5.455  -2.469   3.229  0.00  0.00     0.077 C 
ATOM      2  C1  UNL d   1       4.237  -1.593   3.226  0.00  0.00    -0.074 A 
ATOM      3  C2  UNL d   1       3.271  -1.703   4.231  0.00  0.00    -0.005 A 
ATOM      4  C3  UNL d   1       2.148  -0.875   4.220  0.00  0.00     0.006 A 
ATOM      5  C4  UNL d   1       1.980   0.068   3.206  0.00  0.00    -0.005 A 
ATOM      6  C5  UNL d   1       2.937   0.193   2.193  0.00  0.00    -0.074 A 
ATOM      7  C6  UNL d   1       2.777   1.209   1.101  0.00  0.00     0.077 C 
ATOM      8  C7  UNL d   1       4.066  -0.637   2.215  0.00  0.00    -0.001 A 
ENDROOT
TORSDOF 0
ENDMDL
