MODEL 1
REMARK minimizedAffinity 0.43424964
REMARK minimizedRMSD -1
REMARK  3 active torsions:
REMARK  status: ('A' for Active; 'I' for Inactive)
REMARK    1  A    between atoms: C3'_2  and  C2'_3 
REMARK    2  A    between atoms: C2'_3  and  C1'_4 
REMARK    3  A    between atoms: C1'_4  and  C1_5 
ROOT
ATOM      1  C1  N4B d   1      -2.873   3.375  -3.537  0.00  0.00    -0.075 A 
ATOM      2  C2  N4B d   1      -2.820   3.739  -4.901  0.00  0.00     0.002 A 
ATOM      3  C3  N4B d   1      -3.021   5.046  -5.270  0.00  0.00     0.002 A 
ATOM      4  C4  N4B d   1      -3.294   5.999  -4.301  0.00  0.00    -0.004 A 
ATOM      5  C5  N4B d   1      -3.319   5.644  -2.984  0.00  0.00     0.002 A 
ATOM      6  C6  N4B d   1      -3.115   4.334  -2.597  0.00  0.00     0.002 A 
ENDROOT
BRANCH   1   7
ATOM      7  C1' N4B d   1      -2.745   1.944  -3.092  0.00  0.00     0.057 C 
BRANCH   7   8
ATOM      8  C2' N4B d   1      -2.004   1.898  -1.759  0.00  0.00     0.009 C 
BRANCH   8   9
ATOM      9  C3' N4B d   1      -2.017   0.507  -1.149  0.00  0.00     0.004 C 
ATOM     10  C4' N4B d   1      -1.983   0.530   0.350  0.00  0.00     0.003 C 
ENDBRANCH   8   9
ENDBRANCH   7   8
ENDBRANCH   1   7
TORSDOF 3
ENDMDL
