MODEL 1
REMARK minimizedAffinity 1.76504588
REMARK minimizedRMSD -1
REMARK  3 active torsions:
REMARK  status: ('A' for Active; 'I' for Inactive)
REMARK    1  A    between atoms: C3'_2  and  C2'_3 
REMARK    2  A    between atoms: C2'_3  and  C1'_4 
REMARK    3  A    between atoms: C1'_4  and  C1_5 
ROOT
ATOM      1  C1  N4B d   1       1.053  -1.861  -0.371  0.00  0.00    -0.075 A 
ATOM      2  C2  N4B d   1      -0.136  -1.111  -0.234  0.00  0.00     0.002 A 
ATOM      3  C3  N4B d   1      -0.824  -1.128   0.955  0.00  0.00     0.002 A 
ATOM      4  C4  N4B d   1      -0.355  -1.897   2.009  0.00  0.00    -0.004 A 
ATOM      5  C5  N4B d   1       0.808  -2.597   1.876  0.00  0.00     0.002 A 
ATOM      6  C6  N4B d   1       1.512  -2.587   0.689  0.00  0.00     0.002 A 
ENDROOT
BRANCH   1   7
ATOM      7  C1' N4B d   1       1.793  -1.942  -1.678  0.00  0.00     0.057 C 
BRANCH   7   8
ATOM      8  C2' N4B d   1       0.810  -1.731  -2.825  0.00  0.00     0.009 C 
BRANCH   8   9
ATOM      9  C3' N4B d   1       1.509  -1.686  -4.172  0.00  0.00     0.004 C 
ATOM     10  C4' N4B d   1       1.666  -0.290  -4.698  0.00  0.00     0.003 C 
ENDBRANCH   8   9
ENDBRANCH   7   8
ENDBRANCH   1   7
TORSDOF 3
ENDMDL
