MODEL 1
REMARK minimizedAffinity -0.0273048989
REMARK minimizedRMSD -1
REMARK  3 active torsions:
REMARK  status: ('A' for Active; 'I' for Inactive)
REMARK    1  A    between atoms: C3'_2  and  C2'_3 
REMARK    2  A    between atoms: C2'_3  and  C1'_4 
REMARK    3  A    between atoms: C1'_4  and  C1_5 
ROOT
ATOM      1  C1  N4B d   1      -1.849  -0.863   3.273  0.00  0.00    -0.075 A 
ATOM      2  C2  N4B d   1      -2.396  -0.746   1.976  0.00  0.00     0.002 A 
ATOM      3  C3  N4B d   1      -1.678  -1.177   0.887  0.00  0.00     0.002 A 
ATOM      4  C4  N4B d   1      -0.410  -1.707   1.068  0.00  0.00    -0.004 A 
ATOM      5  C5  N4B d   1       0.101  -1.840   2.326  0.00  0.00     0.002 A 
ATOM      6  C6  N4B d   1      -0.611  -1.415   3.430  0.00  0.00     0.002 A 
ENDROOT
BRANCH   1   7
ATOM      7  C1' N4B d   1      -2.560  -0.327   4.485  0.00  0.00     0.057 C 
BRANCH   7   8
ATOM      8  C2' N4B d   1      -3.991   0.040   4.105  0.00  0.00     0.009 C 
BRANCH   8   9
ATOM      9  C3' N4B d   1      -4.660   0.896   5.167  0.00  0.00     0.004 C 
ATOM     10  C4' N4B d   1      -5.641   0.128   6.000  0.00  0.00     0.003 C 
ENDBRANCH   8   9
ENDBRANCH   7   8
ENDBRANCH   1   7
TORSDOF 3
ENDMDL
