MODEL 1
REMARK minimizedAffinity 2.1432972
REMARK minimizedRMSD -1
REMARK  3 active torsions:
REMARK  status: ('A' for Active; 'I' for Inactive)
REMARK    1  A    between atoms: C3'_2  and  C2'_3 
REMARK    2  A    between atoms: C2'_3  and  C1'_4 
REMARK    3  A    between atoms: C1'_4  and  C1_5 
ROOT
ATOM      1  C1  N4B d   1       0.116  -1.959  -1.006  0.00  0.00    -0.075 A 
ATOM      2  C2  N4B d   1       1.362  -2.332  -0.455  0.00  0.00     0.002 A 
ATOM      3  C3  N4B d   1       1.553  -2.285   0.904  0.00  0.00     0.002 A 
ATOM      4  C4  N4B d   1       0.524  -1.852   1.727  0.00  0.00    -0.004 A 
ATOM      5  C5  N4B d   1      -0.684  -1.518   1.189  0.00  0.00     0.002 A 
ATOM      6  C6  N4B d   1      -0.892  -1.564  -0.175  0.00  0.00     0.002 A 
ENDROOT
BRANCH   1   7
ATOM      7  C1' N4B d   1      -0.113  -1.913  -2.492  0.00  0.00     0.057 C 
BRANCH   7   8
ATOM      8  C2' N4B d   1       1.235  -1.905  -3.207  0.00  0.00     0.009 C 
BRANCH   8   9
ATOM      9  C3' N4B d   1       1.139  -1.291  -4.593  0.00  0.00     0.004 C 
ATOM     10  C4' N4B d   1       2.013  -0.084  -4.755  0.00  0.00     0.003 C 
ENDBRANCH   8   9
ENDBRANCH   7   8
ENDBRANCH   1   7
TORSDOF 3
ENDMDL
