MODEL 1
REMARK minimizedAffinity -5.89967012
REMARK minimizedRMSD -1
REMARK  1 active torsions:
REMARK  status: ('A' for Active; 'I' for Inactive)
REMARK    1  A    between atoms: C1_2  and  C2_3 
ROOT
ATOM      1  C2  UNL d   1       0.414  -0.171  -1.094  0.00  0.00    -0.073 A 
ATOM      2  C3  UNL d   1      -0.218   0.988  -1.557  0.00  0.00    -0.002 A 
ATOM      3  C4  UNL d   1       0.385   1.777  -2.538  0.00  0.00     0.004 A 
ATOM      4  C5  UNL d   1       1.621   1.411  -3.071  0.00  0.00    -0.004 A 
ATOM      5  C6  UNL d   1       2.263   0.249  -2.631  0.00  0.00    -0.075 A 
ATOM      6  C7  UNL d   1       3.594  -0.157  -3.192  0.00  0.00     0.076 C 
ATOM      7  C8  UNL d   1       1.652  -0.536  -1.643  0.00  0.00     0.001 A 
ENDROOT
BRANCH   1   8
ATOM      8  C1  UNL d   1      -0.236  -1.029  -0.040  0.00  0.00     0.053 C 
ATOM      9  C   UNL d   1      -1.014  -0.200   0.969  0.00  0.00     0.018 C 
ENDBRANCH   1   8
TORSDOF 1
ENDMDL
