MODEL 1
REMARK minimizedAffinity -3.18190813
REMARK minimizedRMSD -1
REMARK  1 active torsions:
REMARK  status: ('A' for Active; 'I' for Inactive)
REMARK    1  A    between atoms: C1_2  and  C2_3 
ROOT
ATOM      1  C2  UNL d   1      -0.293   1.060  -0.914  0.00  0.00    -0.073 A 
ATOM      2  C3  UNL d   1      -1.289   0.482  -0.117  0.00  0.00    -0.002 A 
ATOM      3  C4  UNL d   1      -1.222  -0.869   0.223  0.00  0.00     0.004 A 
ATOM      4  C5  UNL d   1      -0.159  -1.654  -0.222  0.00  0.00    -0.004 A 
ATOM      5  C6  UNL d   1       0.851  -1.092  -1.009  0.00  0.00    -0.075 A 
ATOM      6  C7  UNL d   1       2.001  -1.924  -1.498  0.00  0.00     0.076 C 
ATOM      7  C8  UNL d   1       0.777   0.265  -1.349  0.00  0.00     0.001 A 
ENDROOT
BRANCH   1   8
ATOM      8  C1  UNL d   1      -0.357   2.521  -1.279  0.00  0.00     0.053 C 
ATOM      9  C   UNL d   1       0.639   2.879  -2.370  0.00  0.00     0.018 C 
ENDBRANCH   1   8
TORSDOF 1
ENDMDL
