MODEL 1
REMARK minimizedAffinity -6.11151123
REMARK minimizedRMSD -1
REMARK  1 active torsions:
REMARK  status: ('A' for Active; 'I' for Inactive)
REMARK    1  A    between atoms: C1_2  and  C2_3 
ROOT
ATOM      1  C2  UNL d   1       1.695   0.245  -1.411  0.00  0.00    -0.073 A 
ATOM      2  C3  UNL d   1       1.868  -1.142  -1.342  0.00  0.00    -0.002 A 
ATOM      3  C4  UNL d   1       0.975  -1.929  -0.613  0.00  0.00     0.004 A 
ATOM      4  C5  UNL d   1      -0.103  -1.339   0.047  0.00  0.00    -0.004 A 
ATOM      5  C6  UNL d   1      -0.300   0.044  -0.020  0.00  0.00    -0.075 A 
ATOM      6  C7  UNL d   1      -1.453   0.694   0.687  0.00  0.00     0.076 C 
ATOM      7  C8  UNL d   1       0.603   0.828  -0.751  0.00  0.00     0.001 A 
ENDROOT
BRANCH   1   8
ATOM      8  C1  UNL d   1       2.653   1.098  -2.201  0.00  0.00     0.053 C 
ATOM      9  C   UNL d   1       2.075   2.471  -2.506  0.00  0.00     0.018 C 
ENDBRANCH   1   8
TORSDOF 1
ENDMDL
