MODEL 1
REMARK minimizedAffinity -1.7520237
REMARK minimizedRMSD -1
REMARK  1 active torsions:
REMARK  status: ('A' for Active; 'I' for Inactive)
REMARK    1  A    between atoms: C1_2  and  C2_3 
ROOT
ATOM      1  C2  UNL d   1      -0.898   1.071   1.400  0.00  0.00    -0.073 A 
ATOM      2  C3  UNL d   1      -0.724   2.237   2.155  0.00  0.00    -0.002 A 
ATOM      3  C4  UNL d   1      -1.340   2.367   3.401  0.00  0.00     0.004 A 
ATOM      4  C5  UNL d   1      -2.128   1.334   3.907  0.00  0.00    -0.004 A 
ATOM      5  C6  UNL d   1      -2.304   0.157   3.172  0.00  0.00    -0.075 A 
ATOM      6  C7  UNL d   1      -3.150  -0.964   3.701  0.00  0.00     0.076 C 
ATOM      7  C8  UNL d   1      -1.685   0.034   1.921  0.00  0.00     0.001 A 
ENDROOT
BRANCH   1   8
ATOM      8  C1  UNL d   1      -0.230   0.923   0.057  0.00  0.00     0.053 C 
ATOM      9  C   UNL d   1      -0.729   1.953  -0.944  0.00  0.00     0.018 C 
ENDBRANCH   1   8
TORSDOF 1
ENDMDL
