MODEL 1
REMARK minimizedAffinity -6.8632493
REMARK minimizedRMSD -1
REMARK  1 active torsions:
REMARK  status: ('A' for Active; 'I' for Inactive)
REMARK    1  A    between atoms: C1_2  and  C2_3 
ROOT
ATOM      1  C2  UNL d   1      -0.134   0.033  -0.227  0.00  0.00    -0.073 A 
ATOM      2  C3  UNL d   1       0.425  -1.239  -0.055  0.00  0.00    -0.002 A 
ATOM      3  C4  UNL d   1       1.602  -1.588  -0.718  0.00  0.00     0.004 A 
ATOM      4  C5  UNL d   1       2.235  -0.668  -1.554  0.00  0.00    -0.004 A 
ATOM      5  C6  UNL d   1       1.699   0.611  -1.730  0.00  0.00    -0.075 A 
ATOM      6  C7  UNL d   1       2.367   1.611  -2.628  0.00  0.00     0.076 C 
ATOM      7  C8  UNL d   1       0.516   0.953  -1.062  0.00  0.00     0.001 A 
ENDROOT
BRANCH   1   8
ATOM      8  C1  UNL d   1      -1.401   0.417   0.493  0.00  0.00     0.053 C 
ATOM      9  C   UNL d   1      -2.297   1.299  -0.362  0.00  0.00     0.018 C 
ENDBRANCH   1   8
TORSDOF 1
ENDMDL
