MODEL 1
REMARK minimizedAffinity -5.47016668
REMARK minimizedRMSD -1
REMARK  1 active torsions:
REMARK  status: ('A' for Active; 'I' for Inactive)
REMARK    1  A    between atoms: C1_2  and  C2_3 
ROOT
ATOM      1  C2  UNL d   1       1.219  -0.180  -1.923  0.00  0.00    -0.073 A 
ATOM      2  C3  UNL d   1       1.691  -1.437  -1.528  0.00  0.00    -0.002 A 
ATOM      3  C4  UNL d   1       1.129  -2.087  -0.429  0.00  0.00     0.004 A 
ATOM      4  C5  UNL d   1       0.086  -1.493   0.281  0.00  0.00    -0.004 A 
ATOM      5  C6  UNL d   1      -0.408  -0.242  -0.106  0.00  0.00    -0.075 A 
ATOM      6  C7  UNL d   1      -1.528   0.412   0.648  0.00  0.00     0.076 C 
ATOM      7  C8  UNL d   1       0.164   0.406  -1.209  0.00  0.00     0.001 A 
ENDROOT
BRANCH   1   8
ATOM      8  C1  UNL d   1       1.819   0.524  -3.113  0.00  0.00     0.053 C 
ATOM      9  C   UNL d   1       1.090   1.818  -3.437  0.00  0.00     0.018 C 
ENDBRANCH   1   8
TORSDOF 1
ENDMDL
