MODEL 1
REMARK minimizedAffinity -5.50705957
REMARK minimizedRMSD -1
REMARK  1 active torsions:
REMARK  status: ('A' for Active; 'I' for Inactive)
REMARK    1  A    between atoms: C1_2  and  C2_3 
ROOT
ATOM      1  C2  UNL d   1      -0.237  -0.132  -0.137  0.00  0.00    -0.073 A 
ATOM      2  C3  UNL d   1      -0.251  -1.518   0.056  0.00  0.00    -0.002 A 
ATOM      3  C4  UNL d   1       0.780  -2.310  -0.451  0.00  0.00     0.004 A 
ATOM      4  C5  UNL d   1       1.837  -1.726  -1.148  0.00  0.00    -0.004 A 
ATOM      5  C6  UNL d   1       1.875  -0.341  -1.341  0.00  0.00    -0.075 A 
ATOM      6  C7  UNL d   1       3.004   0.303  -2.091  0.00  0.00     0.076 C 
ATOM      7  C8  UNL d   1       0.835   0.448  -0.832  0.00  0.00     0.001 A 
ENDROOT
BRANCH   1   8
ATOM      8  C1  UNL d   1      -1.344   0.729   0.414  0.00  0.00     0.053 C 
ATOM      9  C   UNL d   1      -1.208   0.943   1.913  0.00  0.00     0.018 C 
ENDBRANCH   1   8
TORSDOF 1
ENDMDL
