MODEL 1
REMARK minimizedAffinity -3.96105647
REMARK minimizedRMSD -1
REMARK  1 active torsions:
REMARK  status: ('A' for Active; 'I' for Inactive)
REMARK    1  A    between atoms: C1_2  and  C2_3 
ROOT
ATOM      1  C2  UNL d   1      -1.121   0.749   0.878  0.00  0.00    -0.073 A 
ATOM      2  C3  UNL d   1      -1.183   1.995   1.511  0.00  0.00    -0.002 A 
ATOM      3  C4  UNL d   1      -2.050   2.197   2.586  0.00  0.00     0.004 A 
ATOM      4  C5  UNL d   1      -2.857   1.155   3.043  0.00  0.00    -0.004 A 
ATOM      5  C6  UNL d   1      -2.800  -0.101   2.431  0.00  0.00    -0.075 A 
ATOM      6  C7  UNL d   1      -3.663  -1.232   2.909  0.00  0.00     0.076 C 
ATOM      7  C8  UNL d   1      -1.929  -0.296   1.351  0.00  0.00     0.001 A 
ENDROOT
BRANCH   1   8
ATOM      8  C1  UNL d   1      -0.182   0.524  -0.279  0.00  0.00     0.053 C 
ATOM      9  C   UNL d   1       0.575  -0.789  -0.152  0.00  0.00     0.018 C 
ENDBRANCH   1   8
TORSDOF 1
ENDMDL
