MODEL 1
REMARK minimizedAffinity -5.51111364
REMARK minimizedRMSD -1
REMARK  1 active torsions:
REMARK  status: ('A' for Active; 'I' for Inactive)
REMARK    1  A    between atoms: C1_2  and  C2_3 
ROOT
ATOM      1  C2  UNL d   1      -0.865  -0.363   0.100  0.00  0.00    -0.073 A 
ATOM      2  C3  UNL d   1      -0.219  -1.605   0.092  0.00  0.00    -0.002 A 
ATOM      3  C4  UNL d   1       0.842  -1.841  -0.784  0.00  0.00     0.004 A 
ATOM      4  C5  UNL d   1       1.272  -0.839  -1.653  0.00  0.00    -0.004 A 
ATOM      5  C6  UNL d   1       0.647   0.413  -1.650  0.00  0.00    -0.075 A 
ATOM      6  C7  UNL d   1       1.096   1.501  -2.581  0.00  0.00     0.076 C 
ATOM      7  C8  UNL d   1      -0.419   0.642  -0.771  0.00  0.00     0.001 A 
ENDROOT
BRANCH   1   8
ATOM      8  C1  UNL d   1      -2.007  -0.101   1.048  0.00  0.00     0.053 C 
ATOM      9  C   UNL d   1      -1.565   0.696   2.266  0.00  0.00     0.018 C 
ENDBRANCH   1   8
TORSDOF 1
ENDMDL
