MODEL 1
REMARK minimizedAffinity -1.37843668
REMARK minimizedRMSD -1
REMARK  1 active torsions:
REMARK  status: ('A' for Active; 'I' for Inactive)
REMARK    1  A    between atoms: C1_2  and  C2_3 
ROOT
ATOM      1  C2  UNL d   1       1.116   0.190  -1.703  0.00  0.00    -0.073 A 
ATOM      2  C3  UNL d   1       1.580  -1.126  -1.586  0.00  0.00    -0.002 A 
ATOM      3  C4  UNL d   1       1.120  -1.946  -0.555  0.00  0.00     0.004 A 
ATOM      4  C5  UNL d   1       0.188  -1.463   0.364  0.00  0.00    -0.004 A 
ATOM      5  C6  UNL d   1      -0.295  -0.155   0.256  0.00  0.00    -0.075 A 
ATOM      6  C7  UNL d   1      -1.296   0.381   1.238  0.00  0.00     0.076 C 
ATOM      7  C8  UNL d   1       0.173   0.664  -0.780  0.00  0.00     0.001 A 
ENDROOT
BRANCH   1   8
ATOM      8  C1  UNL d   1       1.605   1.077  -2.819  0.00  0.00     0.053 C 
ATOM      9  C   UNL d   1       1.024   2.479  -2.728  0.00  0.00     0.018 C 
ENDBRANCH   1   8
TORSDOF 1
ENDMDL
