MODEL 1
REMARK minimizedAffinity -5.83824015
REMARK minimizedRMSD -1
REMARK  1 active torsions:
REMARK  status: ('A' for Active; 'I' for Inactive)
REMARK    1  A    between atoms: C1_2  and  C2_3 
ROOT
ATOM      1  C2  UNL d   1       1.403  -0.260  -0.711  0.00  0.00    -0.073 A 
ATOM      2  C3  UNL d   1       2.547  -0.985  -1.063  0.00  0.00    -0.002 A 
ATOM      3  C4  UNL d   1       3.499  -0.428  -1.918  0.00  0.00     0.004 A 
ATOM      4  C5  UNL d   1       3.322   0.860  -2.423  0.00  0.00    -0.004 A 
ATOM      5  C6  UNL d   1       2.191   1.605  -2.073  0.00  0.00    -0.075 A 
ATOM      6  C7  UNL d   1       1.984   2.991  -2.609  0.00  0.00     0.076 C 
ATOM      7  C8  UNL d   1       1.238   1.038  -1.216  0.00  0.00     0.001 A 
ENDROOT
BRANCH   1   8
ATOM      8  C1  UNL d   1       0.375  -0.854   0.216  0.00  0.00     0.053 C 
ATOM      9  C   UNL d   1      -0.788   0.094   0.462  0.00  0.00     0.018 C 
ENDBRANCH   1   8
TORSDOF 1
ENDMDL
