MODEL 1
REMARK minimizedAffinity -6.97237921
REMARK minimizedRMSD -1
REMARK  1 active torsions:
REMARK  status: ('A' for Active; 'I' for Inactive)
REMARK    1  A    between atoms: C1_2  and  C2_3 
ROOT
ATOM      1  C2  UNL d   1       1.631   0.145  -1.372  0.00  0.00    -0.073 A 
ATOM      2  C3  UNL d   1       1.863  -1.234  -1.427  0.00  0.00    -0.002 A 
ATOM      3  C4  UNL d   1       1.211  -2.094  -0.543  0.00  0.00     0.004 A 
ATOM      4  C5  UNL d   1       0.316  -1.587   0.399  0.00  0.00    -0.004 A 
ATOM      5  C6  UNL d   1       0.062  -0.213   0.462  0.00  0.00    -0.075 A 
ATOM      6  C7  UNL d   1      -0.896   0.349   1.471  0.00  0.00     0.076 C 
ATOM      7  C8  UNL d   1       0.723   0.645  -0.427  0.00  0.00     0.001 A 
ENDROOT
BRANCH   1   8
ATOM      8  C1  UNL d   1       2.328   1.078  -2.328  0.00  0.00     0.053 C 
ATOM      9  C   UNL d   1       1.342   1.871  -3.171  0.00  0.00     0.018 C 
ENDBRANCH   1   8
TORSDOF 1
ENDMDL
