MODEL 1
REMARK minimizedAffinity -3.1581552
REMARK minimizedRMSD -1
REMARK  2 active torsions:
REMARK  status: ('A' for Active; 'I' for Inactive)
REMARK    1  A    between atoms: C1_2  and  C2_3 
REMARK    2  A    between atoms: C2_3  and  C3_4 
ROOT
ATOM      1  C3  UNL d   1      -1.091   0.971  -0.966  0.00  0.00    -0.075 A 
ATOM      2  C4  UNL d   1      -2.471   1.117  -0.768  0.00  0.00     0.002 A 
ATOM      3  C5  UNL d   1      -3.266   1.724  -1.741  0.00  0.00     0.002 A 
ATOM      4  C6  UNL d   1      -2.691   2.200  -2.917  0.00  0.00    -0.004 A 
ATOM      5  C7  UNL d   1      -1.318   2.076  -3.117  0.00  0.00     0.002 A 
ATOM      6  C8  UNL d   1      -0.521   1.465  -2.147  0.00  0.00     0.002 A 
ENDROOT
BRANCH   1   7
ATOM      7  C2  UNL d   1      -0.229   0.290   0.070  0.00  0.00     0.056 C 
BRANCH   7   8
ATOM      8  C1  UNL d   1       1.181  -0.055  -0.420  0.00  0.00     0.007 C 
ATOM      9  C   UNL d   1       1.778  -1.271   0.276  0.00  0.00     0.009 C 
ENDBRANCH   7   8
ENDBRANCH   1   7
TORSDOF 2
ENDMDL
