MODEL 1
REMARK minimizedAffinity -1.36834061
REMARK minimizedRMSD -1
REMARK  2 active torsions:
REMARK  status: ('A' for Active; 'I' for Inactive)
REMARK    1  A    between atoms: C1_2  and  C2_3 
REMARK    2  A    between atoms: C2_3  and  C3_4 
ROOT
ATOM      1  C3  UNL d   1      -0.677   3.025  -2.859  0.00  0.00    -0.075 A 
ATOM      2  C4  UNL d   1      -0.128   4.234  -2.407  0.00  0.00     0.002 A 
ATOM      3  C5  UNL d   1       0.315   5.194  -3.317  0.00  0.00     0.002 A 
ATOM      4  C6  UNL d   1       0.226   4.955  -4.686  0.00  0.00    -0.004 A 
ATOM      5  C7  UNL d   1      -0.302   3.750  -5.146  0.00  0.00     0.002 A 
ATOM      6  C8  UNL d   1      -0.751   2.789  -4.238  0.00  0.00     0.002 A 
ENDROOT
BRANCH   1   7
ATOM      7  C2  UNL d   1      -1.186   1.994  -1.880  0.00  0.00     0.056 C 
BRANCH   7   8
ATOM      8  C1  UNL d   1      -0.124   1.487  -0.899  0.00  0.00     0.007 C 
ATOM      9  C   UNL d   1      -0.614   0.343  -0.021  0.00  0.00     0.009 C 
ENDBRANCH   7   8
ENDBRANCH   1   7
TORSDOF 2
ENDMDL
