MODEL 1
REMARK minimizedAffinity -1.70875943
REMARK minimizedRMSD -1
REMARK  2 active torsions:
REMARK  status: ('A' for Active; 'I' for Inactive)
REMARK    1  A    between atoms: C1_2  and  C2_3 
REMARK    2  A    between atoms: C2_3  and  C3_4 
ROOT
ATOM      1  C3  UNL d   1      -0.202   0.960  -0.398  0.00  0.00    -0.075 A 
ATOM      2  C4  UNL d   1       1.146   0.694  -0.680  0.00  0.00     0.002 A 
ATOM      3  C5  UNL d   1       1.821  -0.328  -0.012  0.00  0.00     0.002 A 
ATOM      4  C6  UNL d   1       1.163  -1.088   0.952  0.00  0.00    -0.004 A 
ATOM      5  C7  UNL d   1      -0.172  -0.822   1.252  0.00  0.00     0.002 A 
ATOM      6  C8  UNL d   1      -0.851   0.197   0.582  0.00  0.00     0.002 A 
ENDROOT
BRANCH   1   7
ATOM      7  C2  UNL d   1      -0.947   2.044  -1.139  0.00  0.00     0.056 C 
BRANCH   7   8
ATOM      8  C1  UNL d   1      -2.080   1.526  -2.030  0.00  0.00     0.007 C 
ATOM      9  C   UNL d   1      -2.118   2.189  -3.400  0.00  0.00     0.009 C 
ENDBRANCH   7   8
ENDBRANCH   1   7
TORSDOF 2
ENDMDL
