MODEL 1
REMARK minimizedAffinity -2.50765061
REMARK minimizedRMSD -1
REMARK  2 active torsions:
REMARK  status: ('A' for Active; 'I' for Inactive)
REMARK    1  A    between atoms: C1_2  and  C2_3 
REMARK    2  A    between atoms: C2_3  and  C3_4 
ROOT
ATOM      1  C3  UNL d   1       0.444  -1.026   1.288  0.00  0.00    -0.075 A 
ATOM      2  C4  UNL d   1       0.598  -0.109   0.239  0.00  0.00     0.002 A 
ATOM      3  C5  UNL d   1      -0.315   0.931   0.067  0.00  0.00     0.002 A 
ATOM      4  C6  UNL d   1      -1.398   1.062   0.934  0.00  0.00    -0.004 A 
ATOM      5  C7  UNL d   1      -1.571   0.147   1.970  0.00  0.00     0.002 A 
ATOM      6  C8  UNL d   1      -0.656  -0.893   2.147  0.00  0.00     0.002 A 
ENDROOT
BRANCH   1   7
ATOM      7  C2  UNL d   1       1.445  -2.137   1.498  0.00  0.00     0.056 C 
BRANCH   7   8
ATOM      8  C1  UNL d   1       2.457  -1.863   2.615  0.00  0.00     0.007 C 
ATOM      9  C   UNL d   1       3.390  -0.699   2.308  0.00  0.00     0.009 C 
ENDBRANCH   7   8
ENDBRANCH   1   7
TORSDOF 2
ENDMDL
