MODEL 1
REMARK minimizedAffinity -4.4182601
REMARK minimizedRMSD -1
REMARK  2 active torsions:
REMARK  status: ('A' for Active; 'I' for Inactive)
REMARK    1  A    between atoms: C1_2  and  C2_3 
REMARK    2  A    between atoms: C2_3  and  C3_4 
ROOT
ATOM      1  C3  UNL d   1       0.394  -0.570   0.970  0.00  0.00    -0.075 A 
ATOM      2  C4  UNL d   1      -0.823  -0.600   1.667  0.00  0.00     0.002 A 
ATOM      3  C5  UNL d   1      -0.951  -1.352   2.835  0.00  0.00     0.002 A 
ATOM      4  C6  UNL d   1       0.129  -2.090   3.314  0.00  0.00    -0.004 A 
ATOM      5  C7  UNL d   1       1.338  -2.080   2.620  0.00  0.00     0.002 A 
ATOM      6  C8  UNL d   1       1.470  -1.325   1.454  0.00  0.00     0.002 A 
ENDROOT
BRANCH   1   7
ATOM      7  C2  UNL d   1       0.548   0.266  -0.279  0.00  0.00     0.056 C 
BRANCH   7   8
ATOM      8  C1  UNL d   1      -0.026   1.682  -0.157  0.00  0.00     0.007 C 
ATOM      9  C   UNL d   1      -1.093   1.989  -1.199  0.00  0.00     0.009 C 
ENDBRANCH   7   8
ENDBRANCH   1   7
TORSDOF 2
ENDMDL
