MODEL 1
REMARK minimizedAffinity -5.69319725
REMARK minimizedRMSD -1
REMARK  2 active torsions:
REMARK  status: ('A' for Active; 'I' for Inactive)
REMARK    1  A    between atoms: C1_2  and  C2_3 
REMARK    2  A    between atoms: C2_3  and  C3_4 
ROOT
ATOM      1  C3  UNL d   1       0.028   0.313   0.243  0.00  0.00    -0.075 A 
ATOM      2  C4  UNL d   1       1.333  -0.096  -0.068  0.00  0.00     0.002 A 
ATOM      3  C5  UNL d   1       1.907  -1.189   0.580  0.00  0.00     0.002 A 
ATOM      4  C6  UNL d   1       1.189  -1.881   1.554  0.00  0.00    -0.004 A 
ATOM      5  C7  UNL d   1      -0.102  -1.474   1.883  0.00  0.00     0.002 A 
ATOM      6  C8  UNL d   1      -0.681  -0.382   1.232  0.00  0.00     0.002 A 
ENDROOT
BRANCH   1   7
ATOM      7  C2  UNL d   1      -0.610   1.477  -0.477  0.00  0.00     0.056 C 
BRANCH   7   8
ATOM      8  C1  UNL d   1      -1.582   1.067  -1.588  0.00  0.00     0.007 C 
ATOM      9  C   UNL d   1      -1.490   1.953  -2.823  0.00  0.00     0.009 C 
ENDBRANCH   7   8
ENDBRANCH   1   7
TORSDOF 2
ENDMDL
