MODEL 1
REMARK minimizedAffinity -4.75323629
REMARK minimizedRMSD -1
REMARK  2 active torsions:
REMARK  status: ('A' for Active; 'I' for Inactive)
REMARK    1  A    between atoms: C1_2  and  C2_3 
REMARK    2  A    between atoms: C2_3  and  C3_4 
ROOT
ATOM      1  C3  UNL d   1      -1.145   1.102  -0.102  0.00  0.00    -0.075 A 
ATOM      2  C4  UNL d   1      -0.063   0.218   0.017  0.00  0.00     0.002 A 
ATOM      3  C5  UNL d   1      -0.009  -0.700   1.066  0.00  0.00     0.002 A 
ATOM      4  C6  UNL d   1      -1.029  -0.738   2.015  0.00  0.00    -0.004 A 
ATOM      5  C7  UNL d   1      -2.100   0.147   1.916  0.00  0.00     0.002 A 
ATOM      6  C8  UNL d   1      -2.159   1.063   0.865  0.00  0.00     0.002 A 
ENDROOT
BRANCH   1   7
ATOM      7  C2  UNL d   1      -1.223   2.077  -1.252  0.00  0.00     0.056 C 
BRANCH   7   8
ATOM      8  C1  UNL d   1      -2.586   2.109  -1.951  0.00  0.00     0.007 C 
ATOM      9  C   UNL d   1      -2.486   2.348  -3.451  0.00  0.00     0.009 C 
ENDBRANCH   7   8
ENDBRANCH   1   7
TORSDOF 2
ENDMDL
