MODEL 1
REMARK minimizedAffinity -1.82698953
REMARK minimizedRMSD -1
REMARK  2 active torsions:
REMARK  status: ('A' for Active; 'I' for Inactive)
REMARK    1  A    between atoms: C1_2  and  C2_3 
REMARK    2  A    between atoms: C2_3  and  C3_4 
ROOT
ATOM      1  C3  UNL d   1       1.133  -0.322   0.449  0.00  0.00    -0.075 A 
ATOM      2  C4  UNL d   1       1.660   0.330  -0.675  0.00  0.00     0.002 A 
ATOM      3  C5  UNL d   1       0.856   1.162  -1.453  0.00  0.00     0.002 A 
ATOM      4  C6  UNL d   1      -0.486   1.346  -1.124  0.00  0.00    -0.004 A 
ATOM      5  C7  UNL d   1      -1.024   0.690  -0.019  0.00  0.00     0.002 A 
ATOM      6  C8  UNL d   1      -0.220  -0.140   0.764  0.00  0.00     0.002 A 
ENDROOT
BRANCH   1   7
ATOM      7  C2  UNL d   1       2.006  -1.201   1.313  0.00  0.00     0.056 C 
BRANCH   7   8
ATOM      8  C1  UNL d   1       1.259  -1.885   2.463  0.00  0.00     0.007 C 
ATOM      9  C   UNL d   1       1.572  -1.281   3.825  0.00  0.00     0.009 C 
ENDBRANCH   7   8
ENDBRANCH   1   7
TORSDOF 2
ENDMDL
