MODEL 1
REMARK minimizedAffinity -4.39758348
REMARK minimizedRMSD -1
REMARK  2 active torsions:
REMARK  status: ('A' for Active; 'I' for Inactive)
REMARK    1  A    between atoms: C1_2  and  C2_3 
REMARK    2  A    between atoms: C2_3  and  C3_4 
ROOT
ATOM      1  C3  UNL d   1      -0.941   3.037  -3.925  0.00  0.00    -0.075 A 
ATOM      2  C4  UNL d   1      -1.939   2.236  -4.501  0.00  0.00     0.002 A 
ATOM      3  C5  UNL d   1      -2.756   1.438  -3.700  0.00  0.00     0.002 A 
ATOM      4  C6  UNL d   1      -2.580   1.421  -2.318  0.00  0.00    -0.004 A 
ATOM      5  C7  UNL d   1      -1.582   2.200  -1.737  0.00  0.00     0.002 A 
ATOM      6  C8  UNL d   1      -0.765   3.003  -2.535  0.00  0.00     0.002 A 
ENDROOT
BRANCH   1   7
ATOM      7  C2  UNL d   1      -0.073   3.926  -4.783  0.00  0.00     0.056 C 
BRANCH   7   8
ATOM      8  C1  UNL d   1       0.313   5.251  -4.118  0.00  0.00     0.007 C 
ATOM      9  C   UNL d   1       1.410   6.000  -4.863  0.00  0.00     0.009 C 
ENDBRANCH   7   8
ENDBRANCH   1   7
TORSDOF 2
ENDMDL
