MODEL 1
REMARK minimizedAffinity -4.95628119
REMARK minimizedRMSD -1
REMARK  2 active torsions:
REMARK  status: ('A' for Active; 'I' for Inactive)
REMARK    1  A    between atoms: C1_2  and  C2_3 
REMARK    2  A    between atoms: C2_3  and  C3_4 
ROOT
ATOM      1  C3  UNL d   1      -0.023   0.339   0.234  0.00  0.00    -0.075 A 
ATOM      2  C4  UNL d   1      -0.192  -0.467   1.369  0.00  0.00     0.002 A 
ATOM      3  C5  UNL d   1       0.749  -1.445   1.691  0.00  0.00     0.002 A 
ATOM      4  C6  UNL d   1       1.865  -1.636   0.878  0.00  0.00    -0.004 A 
ATOM      5  C7  UNL d   1       2.035  -0.852  -0.261  0.00  0.00     0.002 A 
ATOM      6  C8  UNL d   1       1.096   0.130  -0.583  0.00  0.00     0.002 A 
ENDROOT
BRANCH   1   7
ATOM      7  C2  UNL d   1      -1.023   1.419  -0.103  0.00  0.00     0.056 C 
BRANCH   7   8
ATOM      8  C1  UNL d   1      -0.961   1.894  -1.559  0.00  0.00     0.007 C 
ATOM      9  C   UNL d   1      -2.292   1.773  -2.288  0.00  0.00     0.009 C 
ENDBRANCH   7   8
ENDBRANCH   1   7
TORSDOF 2
ENDMDL
