MODEL 1
REMARK minimizedAffinity -4.23686504
REMARK minimizedRMSD -1
REMARK  2 active torsions:
REMARK  status: ('A' for Active; 'I' for Inactive)
REMARK    1  A    between atoms: C1_2  and  C2_3 
REMARK    2  A    between atoms: C2_3  and  C3_4 
ROOT
ATOM      1  C3  UNL d   1       0.696  -1.128   0.579  0.00  0.00    -0.075 A 
ATOM      2  C4  UNL d   1      -0.453  -0.852   1.334  0.00  0.00     0.002 A 
ATOM      3  C5  UNL d   1      -0.677  -1.503   2.547  0.00  0.00     0.002 A 
ATOM      4  C6  UNL d   1       0.238  -2.443   3.016  0.00  0.00    -0.004 A 
ATOM      5  C7  UNL d   1       1.375  -2.737   2.267  0.00  0.00     0.002 A 
ATOM      6  C8  UNL d   1       1.603  -2.084   1.054  0.00  0.00     0.002 A 
ENDROOT
BRANCH   1   7
ATOM      7  C2  UNL d   1       0.959  -0.405  -0.720  0.00  0.00     0.056 C 
BRANCH   7   8
ATOM      8  C1  UNL d   1       0.579   1.079  -0.697  0.00  0.00     0.007 C 
ATOM      9  C   UNL d   1      -0.607   1.409  -1.593  0.00  0.00     0.009 C 
ENDBRANCH   7   8
ENDBRANCH   1   7
TORSDOF 2
ENDMDL
