MODEL 1
REMARK minimizedAffinity 2.42141461
REMARK minimizedRMSD -1
REMARK  2 active torsions:
REMARK  status: ('A' for Active; 'I' for Inactive)
REMARK    1  A    between atoms: C1_2  and  C2_3 
REMARK    2  A    between atoms: C2_3  and  C3_4 
ROOT
ATOM      1  C3  UNL d   1      -0.098  -0.527   1.198  0.00  0.00    -0.075 A 
ATOM      2  C4  UNL d   1       0.958  -1.274   1.740  0.00  0.00     0.002 A 
ATOM      3  C5  UNL d   1       2.224  -1.240   1.152  0.00  0.00     0.002 A 
ATOM      4  C6  UNL d   1       2.446  -0.470   0.013  0.00  0.00    -0.004 A 
ATOM      5  C7  UNL d   1       1.399   0.263  -0.544  0.00  0.00     0.002 A 
ATOM      6  C8  UNL d   1       0.133   0.234   0.045  0.00  0.00     0.002 A 
ENDROOT
BRANCH   1   7
ATOM      7  C2  UNL d   1      -1.462  -0.536   1.846  0.00  0.00     0.056 C 
BRANCH   7   8
ATOM      8  C1  UNL d   1      -1.504  -1.247   3.202  0.00  0.00     0.007 C 
ATOM      9  C   UNL d   1      -2.225  -2.588   3.156  0.00  0.00     0.009 C 
ENDBRANCH   7   8
ENDBRANCH   1   7
TORSDOF 2
ENDMDL
