MODEL 1
REMARK minimizedAffinity 14.2014675
REMARK minimizedRMSD -1
REMARK  0 active torsions:
REMARK  status: ('A' for Active; 'I' for Inactive)
ROOT
ATOM      1  C   UNL d   1       2.282  -1.944   3.344  0.00  0.00     0.023 A 
ATOM      2  C1  UNL d   1       2.814  -2.498   4.508  0.00  0.00     0.003 A 
ATOM      3  C2  UNL d   1       2.053  -3.385   5.272  0.00  0.00     0.048 A 
ATOM      4  C3  UNL d   1       0.760  -3.715   4.865  0.00  0.00     0.023 A 
ATOM      5  C4  UNL d   1       0.224  -3.164   3.700  0.00  0.00     0.048 A 
ATOM      6  C5  UNL d   1       0.989  -2.276   2.940  0.00  0.00     0.003 A 
ATOM      7  I   UNL d   1      -0.375  -5.035   6.000  0.00  0.00    -0.146 I 
ENDROOT
TORSDOF 0
ENDMDL
