MODEL 1
REMARK minimizedAffinity 10.6520863
REMARK minimizedRMSD -1
REMARK  0 active torsions:
REMARK  status: ('A' for Active; 'I' for Inactive)
ROOT
ATOM      1  C   UNL d   1       2.211  -1.538   4.088  0.00  0.00     0.023 A 
ATOM      2  C1  UNL d   1       1.979  -2.910   4.181  0.00  0.00     0.003 A 
ATOM      3  C2  UNL d   1       3.042  -3.785   4.413  0.00  0.00     0.048 A 
ATOM      4  C3  UNL d   1       4.335  -3.281   4.552  0.00  0.00     0.023 A 
ATOM      5  C4  UNL d   1       4.571  -1.908   4.460  0.00  0.00     0.048 A 
ATOM      6  C5  UNL d   1       3.505  -1.037   4.227  0.00  0.00     0.003 A 
ATOM      7  I   UNL d   1       5.919  -4.581   4.898  0.00  0.00    -0.146 I 
ENDROOT
TORSDOF 0
ENDMDL
