MODEL 1
REMARK minimizedAffinity 13.14639
REMARK minimizedRMSD -1
REMARK  0 active torsions:
REMARK  status: ('A' for Active; 'I' for Inactive)
ROOT
ATOM      1  C   UNL d   1      -0.483  -1.290  -5.822  0.00  0.00     0.023 A 
ATOM      2  C1  UNL d   1       0.255  -0.361  -5.090  0.00  0.00     0.003 A 
ATOM      3  C2  UNL d   1       1.482  -0.725  -4.532  0.00  0.00     0.048 A 
ATOM      4  C3  UNL d   1       1.966  -2.020  -4.712  0.00  0.00     0.023 A 
ATOM      5  C4  UNL d   1       1.231  -2.954  -5.445  0.00  0.00     0.048 A 
ATOM      6  C5  UNL d   1       0.004  -2.585  -6.000  0.00  0.00     0.003 A 
ATOM      7  I   UNL d   1       3.793  -2.565  -3.883  0.00  0.00    -0.146 I 
ENDROOT
TORSDOF 0
ENDMDL
