MODEL 1
REMARK minimizedAffinity 10.6228704
REMARK minimizedRMSD -1
REMARK  0 active torsions:
REMARK  status: ('A' for Active; 'I' for Inactive)
ROOT
ATOM      1  C   UNL d   1      -2.207  -4.789  -4.979  0.00  0.00     0.023 A 
ATOM      2  C1  UNL d   1      -1.434  -4.235  -5.999  0.00  0.00     0.003 A 
ATOM      3  C2  UNL d   1      -0.671  -3.092  -5.755  0.00  0.00     0.048 A 
ATOM      4  C3  UNL d   1      -0.684  -2.508  -4.489  0.00  0.00     0.023 A 
ATOM      5  C4  UNL d   1      -1.456  -3.060  -3.465  0.00  0.00     0.048 A 
ATOM      6  C5  UNL d   1      -2.218  -4.203  -3.713  0.00  0.00     0.003 A 
ATOM      7  I   UNL d   1       0.451  -0.806  -4.124  0.00  0.00    -0.146 I 
ENDROOT
TORSDOF 0
ENDMDL
