MODEL 1
REMARK minimizedAffinity 17.4502945
REMARK minimizedRMSD -1
REMARK  0 active torsions:
REMARK  status: ('A' for Active; 'I' for Inactive)
ROOT
ATOM      1  C   UNL d   1       0.113  -0.364  -3.739  0.00  0.00     0.023 A 
ATOM      2  C1  UNL d   1       0.008  -0.377  -5.130  0.00  0.00     0.003 A 
ATOM      3  C2  UNL d   1      -0.612  -1.450  -5.775  0.00  0.00     0.048 A 
ATOM      4  C3  UNL d   1      -1.126  -2.505  -5.022  0.00  0.00     0.023 A 
ATOM      5  C4  UNL d   1      -1.024  -2.496  -3.630  0.00  0.00     0.048 A 
ATOM      6  C5  UNL d   1      -0.403  -1.422  -2.990  0.00  0.00     0.003 A 
ATOM      7  I   UNL d   1      -2.049  -4.102  -5.980  0.00  0.00    -0.146 I 
ENDROOT
TORSDOF 0
ENDMDL
