MODEL 1
REMARK minimizedAffinity 6.19325399
REMARK minimizedRMSD -1
REMARK  0 active torsions:
REMARK  status: ('A' for Active; 'I' for Inactive)
ROOT
ATOM      1  C   UNL d   1      -1.820  -5.872  -3.989  0.00  0.00     0.023 A 
ATOM      2  C1  UNL d   1      -1.472  -5.358  -5.238  0.00  0.00     0.003 A 
ATOM      3  C2  UNL d   1      -1.204  -3.995  -5.384  0.00  0.00     0.048 A 
ATOM      4  C3  UNL d   1      -1.285  -3.152  -4.276  0.00  0.00     0.023 A 
ATOM      5  C4  UNL d   1      -1.632  -3.663  -3.024  0.00  0.00     0.048 A 
ATOM      6  C5  UNL d   1      -1.900  -5.026  -2.884  0.00  0.00     0.003 A 
ATOM      7  I   UNL d   1      -0.885  -1.124  -4.489  0.00  0.00    -0.146 I 
ENDROOT
TORSDOF 0
ENDMDL
