MODEL 1
REMARK minimizedAffinity 4.28682375
REMARK minimizedRMSD -1
REMARK  0 active torsions:
REMARK  status: ('A' for Active; 'I' for Inactive)
ROOT
ATOM      1  C   UNL d   1      -2.013  -5.183  -4.856  0.00  0.00     0.023 A 
ATOM      2  C1  UNL d   1      -1.768  -4.649  -3.591  0.00  0.00     0.003 A 
ATOM      3  C2  UNL d   1      -1.185  -3.386  -3.466  0.00  0.00     0.048 A 
ATOM      4  C3  UNL d   1      -0.851  -2.662  -4.610  0.00  0.00     0.023 A 
ATOM      5  C4  UNL d   1      -1.095  -3.192  -5.878  0.00  0.00     0.048 A 
ATOM      6  C5  UNL d   1      -1.677  -4.455  -5.998  0.00  0.00     0.003 A 
ATOM      7  I   UNL d   1       0.016  -0.782  -4.426  0.00  0.00    -0.146 I 
ENDROOT
TORSDOF 0
ENDMDL
