MODEL 1
REMARK minimizedAffinity 11.1635513
REMARK minimizedRMSD -1
REMARK  0 active torsions:
REMARK  status: ('A' for Active; 'I' for Inactive)
ROOT
ATOM      1  C   UNL d   1      -2.169  -4.564  -4.841  0.00  0.00     0.023 A 
ATOM      2  C1  UNL d   1      -1.515  -3.946  -5.907  0.00  0.00     0.003 A 
ATOM      3  C2  UNL d   1      -0.747  -2.800  -5.686  0.00  0.00     0.048 A 
ATOM      4  C3  UNL d   1      -0.637  -2.280  -4.397  0.00  0.00     0.023 A 
ATOM      5  C4  UNL d   1      -1.288  -2.896  -3.328  0.00  0.00     0.048 A 
ATOM      6  C5  UNL d   1      -2.056  -4.040  -3.553  0.00  0.00     0.003 A 
ATOM      7  I   UNL d   1       0.506  -0.576  -4.067  0.00  0.00    -0.146 I 
ENDROOT
TORSDOF 0
ENDMDL
