MODEL 1
REMARK minimizedAffinity 5.41995192
REMARK minimizedRMSD -1
REMARK  0 active torsions:
REMARK  status: ('A' for Active; 'I' for Inactive)
ROOT
ATOM      1  C   UNL d   1      -0.014  -0.663  -4.797  0.00  0.00     0.023 A 
ATOM      2  C1  UNL d   1       0.072  -1.451  -5.945  0.00  0.00     0.003 A 
ATOM      3  C2  UNL d   1      -0.552  -2.700  -5.985  0.00  0.00     0.048 A 
ATOM      4  C3  UNL d   1      -1.261  -3.154  -4.874  0.00  0.00     0.023 A 
ATOM      5  C4  UNL d   1      -1.351  -2.369  -3.724  0.00  0.00     0.048 A 
ATOM      6  C5  UNL d   1      -0.724  -1.122  -3.688  0.00  0.00     0.003 A 
ATOM      7  I   UNL d   1      -2.191  -5.012  -4.931  0.00  0.00    -0.146 I 
ENDROOT
TORSDOF 0
ENDMDL
