MODEL 1
REMARK minimizedAffinity 17.6593647
REMARK minimizedRMSD -1
REMARK  0 active torsions:
REMARK  status: ('A' for Active; 'I' for Inactive)
ROOT
ATOM      1  C   UNL d   1      -0.059  -0.757  -3.021  0.00  0.00     0.023 A 
ATOM      2  C1  UNL d   1      -0.988  -1.674  -2.530  0.00  0.00     0.003 A 
ATOM      3  C2  UNL d   1      -1.549  -2.627  -3.384  0.00  0.00     0.048 A 
ATOM      4  C3  UNL d   1      -1.174  -2.658  -4.726  0.00  0.00     0.023 A 
ATOM      5  C4  UNL d   1      -0.244  -1.743  -5.222  0.00  0.00     0.048 A 
ATOM      6  C5  UNL d   1       0.313  -0.792  -4.365  0.00  0.00     0.003 A 
ATOM      7  I   UNL d   1      -2.007  -4.075  -5.998  0.00  0.00    -0.146 I 
ENDROOT
TORSDOF 0
ENDMDL
