MODEL 1
REMARK minimizedAffinity 6.80656719
REMARK minimizedRMSD -1
REMARK  1 active torsions:
REMARK  status: ('A' for Active; 'I' for Inactive)
REMARK    1  A    between atoms: C1_2  and  C2_3 
ROOT
ATOM      1  C2  UNL d   1      -5.198   2.534  -2.004  0.00  0.00    -0.077 A 
ATOM      2  C3  UNL d   1      -4.450   1.641  -2.785  0.00  0.00     0.002 A 
ATOM      3  C4  UNL d   1      -4.480   1.728  -4.179  0.00  0.00     0.002 A 
ATOM      4  C5  UNL d   1      -5.251   2.706  -4.802  0.00  0.00    -0.004 A 
ATOM      5  C6  UNL d   1      -5.999   3.597  -4.033  0.00  0.00     0.002 A 
ATOM      6  C7  UNL d   1      -5.972   3.512  -2.641  0.00  0.00     0.002 A 
ENDROOT
BRANCH   1   7
ATOM      7  C1  UNL d   1      -5.129   2.474  -0.500  0.00  0.00     0.055 C 
ATOM      8  C   UNL d   1      -3.735   2.821   0.004  0.00  0.00     0.019 C 
ENDBRANCH   1   7
TORSDOF 1
ENDMDL
