MODEL 1
REMARK minimizedAffinity 0.479259998
REMARK minimizedRMSD -1
REMARK  1 active torsions:
REMARK  status: ('A' for Active; 'I' for Inactive)
REMARK    1  A    between atoms: C1_2  and  C2_3 
ROOT
ATOM      1  C2  UNL d   1       1.669   2.049   0.894  0.00  0.00    -0.077 A 
ATOM      2  C3  UNL d   1       0.327   2.450   0.949  0.00  0.00     0.002 A 
ATOM      3  C4  UNL d   1      -0.098   3.591   0.265  0.00  0.00     0.002 A 
ATOM      4  C5  UNL d   1       0.811   4.336  -0.483  0.00  0.00    -0.004 A 
ATOM      5  C6  UNL d   1       2.148   3.946  -0.542  0.00  0.00     0.002 A 
ATOM      6  C7  UNL d   1       2.575   2.808   0.142  0.00  0.00     0.002 A 
ENDROOT
BRANCH   1   7
ATOM      7  C1  UNL d   1       2.119   0.792   1.592  0.00  0.00     0.055 C 
ATOM      8  C   UNL d   1       1.024  -0.265   1.589  0.00  0.00     0.019 C 
ENDBRANCH   1   7
TORSDOF 1
ENDMDL
