MODEL 1
REMARK minimizedAffinity 3.97278786
REMARK minimizedRMSD -1
REMARK  1 active torsions:
REMARK  status: ('A' for Active; 'I' for Inactive)
REMARK    1  A    between atoms: C1_2  and  C2_3 
ROOT
ATOM      1  C2  UNL d   1      -4.495   2.646  -1.113  0.00  0.00    -0.077 A 
ATOM      2  C3  UNL d   1      -3.486   2.260  -2.006  0.00  0.00     0.002 A 
ATOM      3  C4  UNL d   1      -3.732   2.229  -3.380  0.00  0.00     0.002 A 
ATOM      4  C5  UNL d   1      -4.985   2.587  -3.873  0.00  0.00    -0.004 A 
ATOM      5  C6  UNL d   1      -5.996   2.971  -2.993  0.00  0.00     0.002 A 
ATOM      6  C7  UNL d   1      -5.752   3.001  -1.619  0.00  0.00     0.002 A 
ENDROOT
BRANCH   1   7
ATOM      7  C1  UNL d   1      -4.216   2.727   0.365  0.00  0.00     0.055 C 
ATOM      8  C   UNL d   1      -2.952   1.965   0.733  0.00  0.00     0.019 C 
ENDBRANCH   1   7
TORSDOF 1
ENDMDL
