MODEL 1
REMARK minimizedAffinity 2.9926722
REMARK minimizedRMSD -1
REMARK  1 active torsions:
REMARK  status: ('A' for Active; 'I' for Inactive)
REMARK    1  A    between atoms: N_2  and  C1_3 
ROOT
ATOM      1  C1  UNL d   1       0.271  -1.648   2.559  0.00  0.00     0.143 A 
ATOM      2  C2  UNL d   1      -0.787  -1.322   1.703  0.00  0.00    -0.057 A 
ATOM      3  C3  UNL d   1      -0.691  -0.252   0.805  0.00  0.00     0.033 A 
ATOM      4  C4  UNL d   1       0.458   0.531   0.767  0.00  0.00    -0.042 A 
ATOM      5  C5  UNL d   1       1.512   0.241   1.626  0.00  0.00     0.033 A 
ATOM      6  C6  UNL d   1       1.413  -0.833   2.516  0.00  0.00    -0.057 A 
ENDROOT
BRANCH   1   7
ATOM      7  N   UNL d   1       0.199  -2.637   3.542  0.00  0.00    -0.732 N 
ATOM      8  C   UNL d   1      -0.568  -3.844   3.319  0.00  0.00     0.284 C 
ATOM      9  H3  UNL d   1       1.093  -2.792   4.004  0.00  0.00     0.395 HD
ENDBRANCH   1   7
TORSDOF 1
ENDMDL
