MODEL 1
REMARK minimizedAffinity -1.8704617
REMARK minimizedRMSD -1
REMARK  1 active torsions:
REMARK  status: ('A' for Active; 'I' for Inactive)
REMARK    1  A    between atoms: N_2  and  C1_3 
ROOT
ATOM      1  C1  UNL d   1      -0.714   0.904  -1.362  0.00  0.00     0.143 A 
ATOM      2  C2  UNL d   1      -1.422   2.105  -1.477  0.00  0.00    -0.057 A 
ATOM      3  C3  UNL d   1      -1.405   2.847  -2.664  0.00  0.00     0.033 A 
ATOM      4  C4  UNL d   1      -0.655   2.412  -3.752  0.00  0.00    -0.042 A 
ATOM      5  C5  UNL d   1       0.076   1.234  -3.652  0.00  0.00     0.033 A 
ATOM      6  C6  UNL d   1       0.050   0.495  -2.465  0.00  0.00    -0.057 A 
ENDROOT
BRANCH   1   7
ATOM      7  N   UNL d   1      -0.612   0.172  -0.176  0.00  0.00    -0.732 N 
ATOM      8  C   UNL d   1       0.684  -0.177   0.365  0.00  0.00     0.284 C 
ATOM      9  H3  UNL d   1      -1.288   0.470   0.524  0.00  0.00     0.395 HD
ENDBRANCH   1   7
TORSDOF 1
ENDMDL
