MODEL 1
REMARK minimizedAffinity 0.931642473
REMARK minimizedRMSD -1
REMARK  1 active torsions:
REMARK  status: ('A' for Active; 'I' for Inactive)
REMARK    1  A    between atoms: N_2  and  C1_3 
ROOT
ATOM      1  C1  UNL d   1       0.507  -1.215   2.575  0.00  0.00     0.143 A 
ATOM      2  C2  UNL d   1       0.605  -1.372   1.188  0.00  0.00    -0.057 A 
ATOM      3  C3  UNL d   1       1.733  -0.929   0.486  0.00  0.00     0.033 A 
ATOM      4  C4  UNL d   1       2.772  -0.294   1.157  0.00  0.00    -0.042 A 
ATOM      5  C5  UNL d   1       2.685  -0.105   2.531  0.00  0.00     0.033 A 
ATOM      6  C6  UNL d   1       1.559  -0.555   3.228  0.00  0.00    -0.057 A 
ENDROOT
BRANCH   1   7
ATOM      7  N   UNL d   1      -0.631  -1.545   3.316  0.00  0.00    -0.732 N 
ATOM      8  C   UNL d   1      -1.263  -2.837   3.160  0.00  0.00     0.284 C 
ATOM      9  H3  UNL d   1      -0.573  -1.225   4.280  0.00  0.00     0.395 HD
ENDBRANCH   1   7
TORSDOF 1
ENDMDL
