MODEL 1
REMARK minimizedAffinity -3.93724084
REMARK minimizedRMSD -1
REMARK  1 active torsions:
REMARK  status: ('A' for Active; 'I' for Inactive)
REMARK    1  A    between atoms: N_2  and  C1_3 
ROOT
ATOM      1  C1  UNL d   1       1.171  -0.739   0.592  0.00  0.00     0.143 A 
ATOM      2  C2  UNL d   1       0.282  -0.329  -0.407  0.00  0.00    -0.057 A 
ATOM      3  C3  UNL d   1      -1.030   0.052  -0.100  0.00  0.00     0.033 A 
ATOM      4  C4  UNL d   1      -1.486   0.003   1.213  0.00  0.00    -0.042 A 
ATOM      5  C5  UNL d   1      -0.627  -0.425   2.220  0.00  0.00     0.033 A 
ATOM      6  C6  UNL d   1       0.684  -0.798   1.908  0.00  0.00    -0.057 A 
ENDROOT
BRANCH   1   7
ATOM      7  N   UNL d   1       2.456  -1.224   0.339  0.00  0.00    -0.732 N 
ATOM      8  C   UNL d   1       2.695  -2.144  -0.752  0.00  0.00     0.284 C 
ATOM      9  H3  UNL d   1       3.170  -0.505   0.440  0.00  0.00     0.395 HD
ENDBRANCH   1   7
TORSDOF 1
ENDMDL
