MODEL 1
REMARK minimizedAffinity -4.25316811
REMARK minimizedRMSD -1
REMARK  1 active torsions:
REMARK  status: ('A' for Active; 'I' for Inactive)
REMARK    1  A    between atoms: N_2  and  C1_3 
ROOT
ATOM      1  C1  UNL d   1      -1.214   0.826  -1.103  0.00  0.00     0.143 A 
ATOM      2  C2  UNL d   1       0.002   0.292  -0.662  0.00  0.00    -0.057 A 
ATOM      3  C3  UNL d   1       0.140  -0.229   0.630  0.00  0.00     0.033 A 
ATOM      4  C4  UNL d   1      -0.932  -0.199   1.517  0.00  0.00    -0.042 A 
ATOM      5  C5  UNL d   1      -2.142   0.349   1.108  0.00  0.00     0.033 A 
ATOM      6  C6  UNL d   1      -2.276   0.863  -0.186  0.00  0.00    -0.057 A 
ENDROOT
BRANCH   1   7
ATOM      7  N   UNL d   1      -1.386   1.449  -2.342  0.00  0.00    -0.732 N 
ATOM      8  C   UNL d   1      -0.528   2.544  -2.742  0.00  0.00     0.284 C 
ATOM      9  H3  UNL d   1      -1.587   0.785  -3.086  0.00  0.00     0.395 HD
ENDBRANCH   1   7
TORSDOF 1
ENDMDL
