MODEL 1
REMARK minimizedAffinity -3.83531022
REMARK minimizedRMSD -1
REMARK  0 active torsions:
REMARK  status: ('A' for Active; 'I' for Inactive)
ROOT
ATOM      1  C   UNL d   1       1.256   0.359  -0.934  0.00  0.00     0.077 C 
ATOM      2  C1  UNL d   1       1.090  -0.707   0.108  0.00  0.00    -0.074 A 
ATOM      3  C2  UNL d   1       2.098  -1.649   0.340  0.00  0.00    -0.005 A 
ATOM      4  C3  UNL d   1       1.932  -2.629   1.319  0.00  0.00     0.006 A 
ATOM      5  C4  UNL d   1       0.760  -2.677   2.074  0.00  0.00    -0.005 A 
ATOM      6  C5  UNL d   1      -0.258  -1.743   1.856  0.00  0.00    -0.074 A 
ATOM      7  C6  UNL d   1      -1.520  -1.775   2.666  0.00  0.00     0.077 C 
ATOM      8  C7  UNL d   1      -0.082  -0.757   0.876  0.00  0.00    -0.001 A 
ENDROOT
TORSDOF 0
ENDMDL
