MODEL 1
REMARK minimizedAffinity -4.85006952
REMARK minimizedRMSD -1
REMARK  0 active torsions:
REMARK  status: ('A' for Active; 'I' for Inactive)
ROOT
ATOM      1  C   UNL d   1      -0.642   1.439   0.045  0.00  0.00     0.077 C 
ATOM      2  C1  UNL d   1      -0.431   0.164   0.807  0.00  0.00    -0.074 A 
ATOM      3  C2  UNL d   1      -1.126  -0.087   1.994  0.00  0.00    -0.005 A 
ATOM      4  C3  UNL d   1      -0.926  -1.281   2.687  0.00  0.00     0.006 A 
ATOM      5  C4  UNL d   1      -0.031  -2.234   2.201  0.00  0.00    -0.005 A 
ATOM      6  C5  UNL d   1       0.672  -2.001   1.014  0.00  0.00    -0.074 A 
ATOM      7  C6  UNL d   1       1.631  -3.019   0.472  0.00  0.00     0.077 C 
ATOM      8  C7  UNL d   1       0.461  -0.802   0.320  0.00  0.00    -0.001 A 
ENDROOT
TORSDOF 0
ENDMDL
