MODEL 1
REMARK minimizedAffinity -4.04595613
REMARK minimizedRMSD -1
REMARK  0 active torsions:
REMARK  status: ('A' for Active; 'I' for Inactive)
ROOT
ATOM      1  C   UNL d   1      -1.127   1.557   1.418  0.00  0.00     0.077 C 
ATOM      2  C1  UNL d   1      -0.146   0.609   0.794  0.00  0.00    -0.074 A 
ATOM      3  C2  UNL d   1       0.532   0.946  -0.382  0.00  0.00    -0.005 A 
ATOM      4  C3  UNL d   1       1.448   0.058  -0.945  0.00  0.00     0.006 A 
ATOM      5  C4  UNL d   1       1.695  -1.175  -0.340  0.00  0.00    -0.005 A 
ATOM      6  C5  UNL d   1       1.027  -1.529   0.836  0.00  0.00    -0.074 A 
ATOM      7  C6  UNL d   1       1.288  -2.846   1.505  0.00  0.00     0.077 C 
ATOM      8  C7  UNL d   1       0.113  -0.629   1.400  0.00  0.00    -0.001 A 
ENDROOT
TORSDOF 0
ENDMDL
