MODEL 1
REMARK minimizedAffinity -4.72607327
REMARK minimizedRMSD -1
REMARK  0 active torsions:
REMARK  status: ('A' for Active; 'I' for Inactive)
ROOT
ATOM      1  C   UNL d   1       0.603   5.691  -3.828  0.00  0.00     0.077 C 
ATOM      2  C1  UNL d   1      -0.047   4.341  -3.762  0.00  0.00    -0.074 A 
ATOM      3  C2  UNL d   1      -0.440   3.674  -4.928  0.00  0.00    -0.005 A 
ATOM      4  C3  UNL d   1      -1.035   2.415  -4.851  0.00  0.00     0.006 A 
ATOM      5  C4  UNL d   1      -1.243   1.810  -3.611  0.00  0.00    -0.005 A 
ATOM      6  C5  UNL d   1      -0.856   2.461  -2.435  0.00  0.00    -0.074 A 
ATOM      7  C6  UNL d   1      -1.063   1.821  -1.094  0.00  0.00     0.077 C 
ATOM      8  C7  UNL d   1      -0.252   3.723  -2.521  0.00  0.00    -0.001 A 
ENDROOT
TORSDOF 0
ENDMDL
