MODEL 1
REMARK minimizedAffinity -4.79635954
REMARK minimizedRMSD -1
REMARK  0 active torsions:
REMARK  status: ('A' for Active; 'I' for Inactive)
ROOT
ATOM      1  C   UNL d   1       2.054  -2.957   1.192  0.00  0.00     0.077 C 
ATOM      2  C1  UNL d   1       0.846  -2.080   1.338  0.00  0.00    -0.074 A 
ATOM      3  C2  UNL d   1      -0.098  -2.317   2.343  0.00  0.00    -0.005 A 
ATOM      4  C3  UNL d   1      -1.212  -1.487   2.472  0.00  0.00     0.006 A 
ATOM      5  C4  UNL d   1      -1.393  -0.414   1.599  0.00  0.00    -0.005 A 
ATOM      6  C5  UNL d   1      -0.459  -0.160   0.589  0.00  0.00    -0.074 A 
ATOM      7  C6  UNL d   1      -0.634   0.995  -0.351  0.00  0.00     0.077 C 
ATOM      8  C7  UNL d   1       0.661  -0.994   0.470  0.00  0.00    -0.001 A 
ENDROOT
TORSDOF 0
ENDMDL
