MODEL 1
REMARK minimizedAffinity -4.93127346
REMARK minimizedRMSD -1
REMARK  0 active torsions:
REMARK  status: ('A' for Active; 'I' for Inactive)
ROOT
ATOM      1  C   UNL d   1       1.687  -3.079   1.450  0.00  0.00     0.077 C 
ATOM      2  C1  UNL d   1       0.608  -2.041   1.550  0.00  0.00    -0.074 A 
ATOM      3  C2  UNL d   1      -0.319  -2.068   2.597  0.00  0.00    -0.005 A 
ATOM      4  C3  UNL d   1      -1.311  -1.091   2.682  0.00  0.00     0.006 A 
ATOM      5  C4  UNL d   1      -1.386  -0.080   1.723  0.00  0.00    -0.005 A 
ATOM      6  C5  UNL d   1      -0.467  -0.037   0.670  0.00  0.00    -0.074 A 
ATOM      7  C6  UNL d   1      -0.527   1.049  -0.363  0.00  0.00     0.077 C 
ATOM      8  C7  UNL d   1       0.532  -1.018   0.595  0.00  0.00    -0.001 A 
ENDROOT
TORSDOF 0
ENDMDL
