MODEL 1
REMARK minimizedAffinity -4.40731335
REMARK minimizedRMSD -1
REMARK  0 active torsions:
REMARK  status: ('A' for Active; 'I' for Inactive)
ROOT
ATOM      1  C   UNL d   1      -0.687   1.255  -0.407  0.00  0.00     0.077 C 
ATOM      2  C1  UNL d   1      -1.162   1.595  -1.788  0.00  0.00    -0.074 A 
ATOM      3  C2  UNL d   1      -2.286   0.969  -2.337  0.00  0.00    -0.005 A 
ATOM      4  C3  UNL d   1      -2.721   1.303  -3.620  0.00  0.00     0.006 A 
ATOM      5  C4  UNL d   1      -2.039   2.265  -4.365  0.00  0.00    -0.005 A 
ATOM      6  C5  UNL d   1      -0.914   2.903  -3.832  0.00  0.00    -0.074 A 
ATOM      7  C6  UNL d   1      -0.175   3.946  -4.616  0.00  0.00     0.077 C 
ATOM      8  C7  UNL d   1      -0.487   2.567  -2.540  0.00  0.00    -0.001 A 
ENDROOT
TORSDOF 0
ENDMDL
