MODEL 1
REMARK minimizedAffinity -3.65069032
REMARK minimizedRMSD -1
REMARK  0 active torsions:
REMARK  status: ('A' for Active; 'I' for Inactive)
ROOT
ATOM      1  C   UNL d   1       0.016   4.457  -4.189  0.00  0.00     0.077 C 
ATOM      2  C1  UNL d   1      -0.684   3.317  -3.511  0.00  0.00    -0.074 A 
ATOM      3  C2  UNL d   1      -1.734   2.641  -4.141  0.00  0.00    -0.005 A 
ATOM      4  C3  UNL d   1      -2.369   1.577  -3.502  0.00  0.00     0.006 A 
ATOM      5  C4  UNL d   1      -1.961   1.178  -2.228  0.00  0.00    -0.005 A 
ATOM      6  C5  UNL d   1      -0.913   1.841  -1.583  0.00  0.00    -0.074 A 
ATOM      7  C6  UNL d   1      -0.455   1.418  -0.218  0.00  0.00     0.077 C 
ATOM      8  C7  UNL d   1      -0.275   2.905  -2.235  0.00  0.00    -0.001 A 
ENDROOT
TORSDOF 0
ENDMDL
