MODEL 1
REMARK minimizedAffinity -3.44435
REMARK minimizedRMSD -1
REMARK  0 active torsions:
REMARK  status: ('A' for Active; 'I' for Inactive)
ROOT
ATOM      1  C   UNL d   1      -0.386   1.006  -0.405  0.00  0.00     0.077 C 
ATOM      2  C1  UNL d   1      -1.032   1.661  -1.590  0.00  0.00    -0.074 A 
ATOM      3  C2  UNL d   1      -2.319   1.297  -1.999  0.00  0.00    -0.005 A 
ATOM      4  C3  UNL d   1      -2.911   1.921  -3.097  0.00  0.00     0.006 A 
ATOM      5  C4  UNL d   1      -2.224   2.915  -3.795  0.00  0.00    -0.005 A 
ATOM      6  C5  UNL d   1      -0.937   3.293  -3.400  0.00  0.00    -0.074 A 
ATOM      7  C6  UNL d   1      -0.188   4.366  -4.134  0.00  0.00     0.077 C 
ATOM      8  C7  UNL d   1      -0.351   2.666  -2.292  0.00  0.00    -0.001 A 
ENDROOT
TORSDOF 0
ENDMDL
