MODEL 1
REMARK minimizedAffinity -4.67023754
REMARK minimizedRMSD -1
REMARK  0 active torsions:
REMARK  status: ('A' for Active; 'I' for Inactive)
ROOT
ATOM      1  C   UNL d   1       0.112   3.203  -4.675  0.00  0.00     0.077 C 
ATOM      2  C1  UNL d   1      -0.766   2.415  -3.749  0.00  0.00    -0.074 A 
ATOM      3  C2  UNL d   1      -2.050   2.020  -4.138  0.00  0.00    -0.005 A 
ATOM      4  C3  UNL d   1      -2.851   1.280  -3.270  0.00  0.00     0.006 A 
ATOM      5  C4  UNL d   1      -2.378   0.926  -2.005  0.00  0.00    -0.005 A 
ATOM      6  C5  UNL d   1      -1.096   1.311  -1.599  0.00  0.00    -0.074 A 
ATOM      7  C6  UNL d   1      -0.568   0.932  -0.248  0.00  0.00     0.077 C 
ATOM      8  C7  UNL d   1      -0.294   2.050  -2.481  0.00  0.00    -0.001 A 
ENDROOT
TORSDOF 0
ENDMDL
