MODEL 1
REMARK minimizedAffinity -5.75428629
REMARK minimizedRMSD -1
REMARK  0 active torsions:
REMARK  status: ('A' for Active; 'I' for Inactive)
ROOT
ATOM      1  C   UNL d   1       0.304   3.611  -4.379  0.00  0.00     0.077 C 
ATOM      2  C1  UNL d   1      -0.523   2.703  -3.520  0.00  0.00    -0.074 A 
ATOM      3  C2  UNL d   1      -1.709   2.139  -4.003  0.00  0.00    -0.005 A 
ATOM      4  C3  UNL d   1      -2.463   1.288  -3.195  0.00  0.00     0.006 A 
ATOM      5  C4  UNL d   1      -2.040   0.992  -1.899  0.00  0.00    -0.005 A 
ATOM      6  C5  UNL d   1      -0.857   1.546  -1.399  0.00  0.00    -0.074 A 
ATOM      7  C6  UNL d   1      -0.384   1.231  -0.011  0.00  0.00     0.077 C 
ATOM      8  C7  UNL d   1      -0.101   2.395  -2.219  0.00  0.00    -0.001 A 
ENDROOT
TORSDOF 0
ENDMDL
