MODEL 1
REMARK minimizedAffinity -5.58388186
REMARK minimizedRMSD -1
REMARK  0 active torsions:
REMARK  status: ('A' for Active; 'I' for Inactive)
ROOT
ATOM      1  C   UNL d   1       0.199   4.067  -4.544  0.00  0.00     0.077 C 
ATOM      2  C1  UNL d   1      -0.700   3.172  -3.744  0.00  0.00    -0.074 A 
ATOM      3  C2  UNL d   1      -1.926   2.738  -4.260  0.00  0.00    -0.005 A 
ATOM      4  C3  UNL d   1      -2.747   1.898  -3.508  0.00  0.00     0.006 A 
ATOM      5  C4  UNL d   1      -2.353   1.485  -2.235  0.00  0.00    -0.005 A 
ATOM      6  C5  UNL d   1      -1.131   1.908  -1.703  0.00  0.00    -0.074 A 
ATOM      7  C6  UNL d   1      -0.687   1.465  -0.341  0.00  0.00     0.077 C 
ATOM      8  C7  UNL d   1      -0.307   2.746  -2.468  0.00  0.00    -0.001 A 
ENDROOT
TORSDOF 0
ENDMDL
