MODEL 1
REMARK minimizedAffinity -6.1594615
REMARK minimizedRMSD -1
REMARK  0 active torsions:
REMARK  status: ('A' for Active; 'I' for Inactive)
ROOT
ATOM      1  C   UNL d   1       0.781   5.572  -4.023  0.00  0.00     0.077 C 
ATOM      2  C1  UNL d   1       0.034   4.280  -3.873  0.00  0.00    -0.074 A 
ATOM      3  C2  UNL d   1      -0.226   3.467  -4.981  0.00  0.00    -0.005 A 
ATOM      4  C3  UNL d   1      -0.914   2.264  -4.825  0.00  0.00     0.006 A 
ATOM      5  C4  UNL d   1      -1.349   1.862  -3.561  0.00  0.00    -0.005 A 
ATOM      6  C5  UNL d   1      -1.099   2.662  -2.442  0.00  0.00    -0.074 A 
ATOM      7  C6  UNL d   1      -1.551   2.241  -1.075  0.00  0.00     0.077 C 
ATOM      8  C7  UNL d   1      -0.400   3.866  -2.606  0.00  0.00    -0.001 A 
ENDROOT
TORSDOF 0
ENDMDL
