MODEL 1
REMARK minimizedAffinity -4.85267687
REMARK minimizedRMSD -1
REMARK  0 active torsions:
REMARK  status: ('A' for Active; 'I' for Inactive)
ROOT
ATOM      1  C   UNL d   1       0.266   3.604  -4.722  0.00  0.00     0.077 C 
ATOM      2  C1  UNL d   1      -0.568   2.797  -3.772  0.00  0.00    -0.074 A 
ATOM      3  C2  UNL d   1      -1.881   2.437  -4.095  0.00  0.00    -0.005 A 
ATOM      4  C3  UNL d   1      -2.641   1.679  -3.205  0.00  0.00     0.006 A 
ATOM      5  C4  UNL d   1      -2.098   1.273  -1.985  0.00  0.00    -0.005 A 
ATOM      6  C5  UNL d   1      -0.788   1.622  -1.645  0.00  0.00    -0.074 A 
ATOM      7  C6  UNL d   1      -0.186   1.186  -0.343  0.00  0.00     0.077 C 
ATOM      8  C7  UNL d   1      -0.027   2.379  -2.548  0.00  0.00    -0.001 A 
ENDROOT
TORSDOF 0
ENDMDL
