MODEL 1
REMARK minimizedAffinity -4.18473101
REMARK minimizedRMSD -1
REMARK  0 active torsions:
REMARK  status: ('A' for Active; 'I' for Inactive)
ROOT
ATOM      1  C   UNL d   1      -0.739   0.958   0.259  0.00  0.00     0.077 C 
ATOM      2  C1  UNL d   1      -1.196   1.348  -1.115  0.00  0.00    -0.074 A 
ATOM      3  C2  UNL d   1      -2.476   1.015  -1.568  0.00  0.00    -0.005 A 
ATOM      4  C3  UNL d   1      -2.891   1.393  -2.845  0.00  0.00     0.006 A 
ATOM      5  C4  UNL d   1      -2.031   2.106  -3.681  0.00  0.00    -0.005 A 
ATOM      6  C5  UNL d   1      -0.747   2.449  -3.245  0.00  0.00    -0.074 A 
ATOM      7  C6  UNL d   1       0.186   3.224  -4.127  0.00  0.00     0.077 C 
ATOM      8  C7  UNL d   1      -0.340   2.072  -1.958  0.00  0.00    -0.001 A 
ENDROOT
TORSDOF 0
ENDMDL
