MODEL 1
REMARK minimizedAffinity -6.12151098
REMARK minimizedRMSD -1
REMARK  0 active torsions:
REMARK  status: ('A' for Active; 'I' for Inactive)
ROOT
ATOM      1  C   UNL d   1      -0.744   1.646  -0.584  0.00  0.00     0.077 C 
ATOM      2  C1  UNL d   1      -0.967   2.287  -1.921  0.00  0.00    -0.074 A 
ATOM      3  C2  UNL d   1      -1.964   1.822  -2.784  0.00  0.00    -0.005 A 
ATOM      4  C3  UNL d   1      -2.166   2.435  -4.021  0.00  0.00     0.006 A 
ATOM      5  C4  UNL d   1      -1.374   3.518  -4.406  0.00  0.00    -0.005 A 
ATOM      6  C5  UNL d   1      -0.373   3.997  -3.556  0.00  0.00    -0.074 A 
ATOM      7  C6  UNL d   1       0.481   5.166  -3.950  0.00  0.00     0.077 C 
ATOM      8  C7  UNL d   1      -0.181   3.380  -2.312  0.00  0.00    -0.001 A 
ENDROOT
TORSDOF 0
ENDMDL
