MODEL 1
REMARK minimizedAffinity -3.16911173
REMARK minimizedRMSD -1
REMARK  0 active torsions:
REMARK  status: ('A' for Active; 'I' for Inactive)
ROOT
ATOM      1  C   UNL d   1       0.280  -1.870   3.464  0.00  0.00     0.077 C 
ATOM      2  C1  UNL d   1       0.689  -1.285   2.145  0.00  0.00    -0.074 A 
ATOM      3  C2  UNL d   1       1.799  -1.778   1.453  0.00  0.00    -0.005 A 
ATOM      4  C3  UNL d   1       2.161  -1.230   0.222  0.00  0.00     0.006 A 
ATOM      5  C4  UNL d   1       1.418  -0.185  -0.328  0.00  0.00    -0.005 A 
ATOM      6  C5  UNL d   1       0.304   0.321   0.350  0.00  0.00    -0.074 A 
ATOM      7  C6  UNL d   1      -0.511   1.437  -0.232  0.00  0.00     0.077 C 
ATOM      8  C7  UNL d   1      -0.058  -0.240   1.582  0.00  0.00    -0.001 A 
ENDROOT
TORSDOF 0
ENDMDL
