MODEL 1
REMARK minimizedAffinity -3.33084202
REMARK minimizedRMSD -1
REMARK  0 active torsions:
REMARK  status: ('A' for Active; 'I' for Inactive)
ROOT
ATOM      1  C   UNL d   1      -0.755   0.324   0.090  0.00  0.00     0.077 C 
ATOM      2  C1  UNL d   1      -1.159   0.959  -1.208  0.00  0.00    -0.074 A 
ATOM      3  C2  UNL d   1      -2.367   0.620  -1.828  0.00  0.00    -0.005 A 
ATOM      4  C3  UNL d   1      -2.734   1.225  -3.029  0.00  0.00     0.006 A 
ATOM      5  C4  UNL d   1      -1.900   2.174  -3.622  0.00  0.00    -0.005 A 
ATOM      6  C5  UNL d   1      -0.690   2.526  -3.017  0.00  0.00    -0.074 A 
ATOM      7  C6  UNL d   1       0.214   3.551  -3.635  0.00  0.00     0.077 C 
ATOM      8  C7  UNL d   1      -0.330   1.918  -1.806  0.00  0.00    -0.001 A 
ENDROOT
TORSDOF 0
ENDMDL
