MODEL 1
REMARK minimizedAffinity -2.06626248
REMARK minimizedRMSD -1
REMARK  0 active torsions:
REMARK  status: ('A' for Active; 'I' for Inactive)
ROOT
ATOM      1  C   UNL d   1      -1.859  -0.074   2.230  0.00  0.00     0.077 C 
ATOM      2  C1  UNL d   1      -0.770   0.079   1.209  0.00  0.00    -0.074 A 
ATOM      3  C2  UNL d   1      -0.976   0.827   0.046  0.00  0.00    -0.005 A 
ATOM      4  C3  UNL d   1       0.049   0.969  -0.890  0.00  0.00     0.006 A 
ATOM      5  C4  UNL d   1       1.288   0.365  -0.672  0.00  0.00    -0.005 A 
ATOM      6  C5  UNL d   1       1.512  -0.386   0.486  0.00  0.00    -0.074 A 
ATOM      7  C6  UNL d   1       2.841  -1.033   0.741  0.00  0.00     0.077 C 
ATOM      8  C7  UNL d   1       0.480  -0.518   1.425  0.00  0.00    -0.001 A 
ENDROOT
TORSDOF 0
ENDMDL
