MODEL 1
REMARK minimizedAffinity -3.51466966
REMARK minimizedRMSD -1
REMARK  0 active torsions:
REMARK  status: ('A' for Active; 'I' for Inactive)
ROOT
ATOM      1  O1  BZF d   1       1.038   0.732   0.940  0.00  0.00    -0.204 OA
ATOM      2  C2  BZF d   1      -0.053   0.100   1.504  0.00  0.00     0.174 A 
ATOM      3  C3  BZF d   1      -0.730  -0.605   0.575  0.00  0.00    -0.012 A 
ATOM      4  C3A BZF d   1       0.035  -0.476  -0.627  0.00  0.00    -0.107 A 
ATOM      5  C4  BZF d   1      -0.115  -0.966  -1.893  0.00  0.00     0.055 A 
ATOM      6  C5  BZF d   1       0.769  -0.593  -2.855  0.00  0.00    -0.016 A 
ATOM      7  C6  BZF d   1       1.812   0.270  -2.587  0.00  0.00     0.022 A 
ATOM      8  C7  BZF d   1       2.005   0.778  -1.345  0.00  0.00     0.029 A 
ATOM      9  C7A BZF d   1       1.132   0.377  -0.364  0.00  0.00     0.058 A 
ENDROOT
TORSDOF 0
ENDMDL
