MODEL 1
REMARK minimizedAffinity -3.48497105
REMARK minimizedRMSD -1
REMARK  0 active torsions:
REMARK  status: ('A' for Active; 'I' for Inactive)
ROOT
ATOM      1  O1  BZF d   1       0.302  -2.106  -0.950  0.00  0.00    -0.204 OA
ATOM      2  C2  BZF d   1       1.247  -2.589  -1.835  0.00  0.00     0.174 A 
ATOM      3  C3  BZF d   1       1.913  -1.575  -2.425  0.00  0.00    -0.012 A 
ATOM      4  C3A BZF d   1       1.412  -0.386  -1.806  0.00  0.00    -0.107 A 
ATOM      5  C4  BZF d   1       1.697   0.941  -1.956  0.00  0.00     0.055 A 
ATOM      6  C5  BZF d   1       0.977   1.854  -1.252  0.00  0.00    -0.016 A 
ATOM      7  C6  BZF d   1      -0.035   1.477  -0.395  0.00  0.00     0.022 A 
ATOM      8  C7  BZF d   1      -0.350   0.172  -0.209  0.00  0.00     0.029 A 
ATOM      9  C7A BZF d   1       0.397  -0.755  -0.894  0.00  0.00     0.058 A 
ENDROOT
TORSDOF 0
ENDMDL
