MODEL 1
REMARK minimizedAffinity -4.54706097
REMARK minimizedRMSD -1
REMARK  0 active torsions:
REMARK  status: ('A' for Active; 'I' for Inactive)
ROOT
ATOM      1  O1  BZF d   1       0.793  -1.985  -0.182  0.00  0.00    -0.204 OA
ATOM      2  C2  BZF d   1       1.686  -2.772  -0.883  0.00  0.00     0.174 A 
ATOM      3  C3  BZF d   1       2.359  -2.038  -1.792  0.00  0.00    -0.012 A 
ATOM      4  C3A BZF d   1       1.922  -0.691  -1.587  0.00  0.00    -0.107 A 
ATOM      5  C4  BZF d   1       2.242   0.499  -2.174  0.00  0.00     0.055 A 
ATOM      6  C5  BZF d   1       1.580   1.623  -1.791  0.00  0.00    -0.016 A 
ATOM      7  C6  BZF d   1       0.591   1.592  -0.830  0.00  0.00     0.022 A 
ATOM      8  C7  BZF d   1       0.243   0.435  -0.216  0.00  0.00     0.029 A 
ATOM      9  C7A BZF d   1       0.932  -0.697  -0.577  0.00  0.00     0.058 A 
ENDROOT
TORSDOF 0
ENDMDL
