MODEL 1
REMARK minimizedAffinity -2.63572907
REMARK minimizedRMSD -1
REMARK  0 active torsions:
REMARK  status: ('A' for Active; 'I' for Inactive)
ROOT
ATOM      1  O1  BZF d   1      -2.272  -0.944   1.332  0.00  0.00    -0.204 OA
ATOM      2  C2  BZF d   1      -2.886   0.054   2.064  0.00  0.00     0.174 A 
ATOM      3  C3  BZF d   1      -2.152   1.185   2.040  0.00  0.00    -0.012 A 
ATOM      4  C3A BZF d   1      -1.054   0.903   1.167  0.00  0.00    -0.107 A 
ATOM      5  C4  BZF d   1       0.010   1.638   0.729  0.00  0.00     0.055 A 
ATOM      6  C5  BZF d   1       0.943   1.045  -0.060  0.00  0.00    -0.016 A 
ATOM      7  C6  BZF d   1       0.846  -0.282  -0.427  0.00  0.00     0.022 A 
ATOM      8  C7  BZF d   1      -0.194  -1.050  -0.022  0.00  0.00     0.029 A 
ATOM      9  C7A BZF d   1      -1.156  -0.444   0.749  0.00  0.00     0.058 A 
ENDROOT
TORSDOF 0
ENDMDL
