MODEL 1
REMARK minimizedAffinity -4.00068235
REMARK minimizedRMSD -1
REMARK  0 active torsions:
REMARK  status: ('A' for Active; 'I' for Inactive)
ROOT
ATOM      1  O1  BZF d   1      -1.041  -0.458  -0.695  0.00  0.00    -0.204 OA
ATOM      2  C2  BZF d   1      -1.180  -0.012   0.605  0.00  0.00     0.174 A 
ATOM      3  C3  BZF d   1      -0.042   0.570   1.036  0.00  0.00    -0.012 A 
ATOM      4  C3A BZF d   1       0.835   0.564  -0.095  0.00  0.00    -0.107 A 
ATOM      5  C4  BZF d   1       2.106   1.017  -0.299  0.00  0.00     0.055 A 
ATOM      6  C5  BZF d   1       2.704   0.791  -1.499  0.00  0.00    -0.016 A 
ATOM      7  C6  BZF d   1       2.062   0.111  -2.513  0.00  0.00     0.022 A 
ATOM      8  C7  BZF d   1       0.798  -0.354  -2.359  0.00  0.00     0.029 A 
ATOM      9  C7A BZF d   1       0.179  -0.098  -1.160  0.00  0.00     0.058 A 
ENDROOT
TORSDOF 0
ENDMDL
