MODEL 1
REMARK minimizedAffinity -2.83065033
REMARK minimizedRMSD -1
REMARK  0 active torsions:
REMARK  status: ('A' for Active; 'I' for Inactive)
ROOT
ATOM      1  O1  BZF d   1       0.280   1.566  -1.292  0.00  0.00    -0.204 OA
ATOM      2  C2  BZF d   1       1.192   0.991  -2.156  0.00  0.00     0.174 A 
ATOM      3  C3  BZF d   1       1.531  -0.246  -1.740  0.00  0.00    -0.012 A 
ATOM      4  C3A BZF d   1       0.714  -0.494  -0.592  0.00  0.00    -0.107 A 
ATOM      5  C4  BZF d   1       0.579  -1.559   0.253  0.00  0.00     0.055 A 
ATOM      6  C5  BZF d   1      -0.254  -1.453   1.321  0.00  0.00    -0.016 A 
ATOM      7  C6  BZF d   1      -0.963  -0.298   1.577  0.00  0.00     0.022 A 
ATOM      8  C7  BZF d   1      -0.867   0.783   0.765  0.00  0.00     0.029 A 
ATOM      9  C7A BZF d   1      -0.051   0.667  -0.334  0.00  0.00     0.058 A 
ENDROOT
TORSDOF 0
ENDMDL
