MODEL 1
REMARK minimizedAffinity -3.87961149
REMARK minimizedRMSD -1
REMARK  0 active torsions:
REMARK  status: ('A' for Active; 'I' for Inactive)
ROOT
ATOM      1  O1  BZF d   1       1.817   1.165  -0.539  0.00  0.00    -0.204 OA
ATOM      2  C2  BZF d   1       1.273   1.241   0.729  0.00  0.00     0.174 A 
ATOM      3  C3  BZF d   1       0.435   0.209   0.952  0.00  0.00    -0.012 A 
ATOM      4  C3A BZF d   1       0.526  -0.610  -0.218  0.00  0.00    -0.107 A 
ATOM      5  C4  BZF d   1      -0.059  -1.787  -0.588  0.00  0.00     0.055 A 
ATOM      6  C5  BZF d   1       0.187  -2.286  -1.828  0.00  0.00    -0.016 A 
ATOM      7  C6  BZF d   1       1.008  -1.633  -2.723  0.00  0.00     0.022 A 
ATOM      8  C7  BZF d   1       1.615  -0.465  -2.400  0.00  0.00     0.029 A 
ATOM      9  C7A BZF d   1       1.394   0.025  -1.136  0.00  0.00     0.058 A 
ENDROOT
TORSDOF 0
ENDMDL
