MODEL 1
REMARK minimizedAffinity -5.13828373
REMARK minimizedRMSD -1
REMARK  0 active torsions:
REMARK  status: ('A' for Active; 'I' for Inactive)
ROOT
ATOM      1  O1  BZF d   1      -0.146  -1.255   0.980  0.00  0.00    -0.204 OA
ATOM      2  C2  BZF d   1      -0.351  -0.004   1.528  0.00  0.00     0.174 A 
ATOM      3  C3  BZF d   1       0.146   0.958   0.724  0.00  0.00    -0.012 A 
ATOM      4  C3A BZF d   1       0.615   0.270  -0.440  0.00  0.00    -0.107 A 
ATOM      5  C4  BZF d   1       1.199   0.684  -1.603  0.00  0.00     0.055 A 
ATOM      6  C5  BZF d   1       1.604  -0.248  -2.506  0.00  0.00    -0.016 A 
ATOM      7  C6  BZF d   1       1.444  -1.599  -2.277  0.00  0.00     0.022 A 
ATOM      8  C7  BZF d   1       0.865  -2.056  -1.141  0.00  0.00     0.029 A 
ATOM      9  C7A BZF d   1       0.425  -1.117  -0.241  0.00  0.00     0.058 A 
ENDROOT
TORSDOF 0
ENDMDL
