MODEL 1
REMARK minimizedAffinity -2.10976171
REMARK minimizedRMSD -1
REMARK  0 active torsions:
REMARK  status: ('A' for Active; 'I' for Inactive)
ROOT
ATOM      1  O1  BZF d   1      -0.078   0.887   1.019  0.00  0.00    -0.204 OA
ATOM      2  C2  BZF d   1      -1.270   0.235   0.772  0.00  0.00     0.174 A 
ATOM      3  C3  BZF d   1      -1.267  -0.316  -0.459  0.00  0.00    -0.012 A 
ATOM      4  C3A BZF d   1       0.041  -0.066  -0.981  0.00  0.00    -0.107 A 
ATOM      5  C4  BZF d   1       0.659  -0.381  -2.157  0.00  0.00     0.055 A 
ATOM      6  C5  BZF d   1       1.919   0.075  -2.384  0.00  0.00    -0.016 A 
ATOM      7  C6  BZF d   1       2.587   0.852  -1.461  0.00  0.00     0.022 A 
ATOM      8  C7  BZF d   1       2.017   1.187  -0.278  0.00  0.00     0.029 A 
ATOM      9  C7A BZF d   1       0.757   0.700  -0.031  0.00  0.00     0.058 A 
ENDROOT
TORSDOF 0
ENDMDL
