MODEL 1
REMARK minimizedAffinity -5.53197241
REMARK minimizedRMSD -1
REMARK  0 active torsions:
REMARK  status: ('A' for Active; 'I' for Inactive)
ROOT
ATOM      1  O1  BZF d   1      -0.345  -0.818   0.426  0.00  0.00    -0.204 OA
ATOM      2  C2  BZF d   1      -0.310   0.464   0.938  0.00  0.00     0.174 A 
ATOM      3  C3  BZF d   1       0.559   1.231   0.248  0.00  0.00    -0.012 A 
ATOM      4  C3A BZF d   1       1.033   0.399  -0.816  0.00  0.00    -0.107 A 
ATOM      5  C4  BZF d   1       1.905   0.600  -1.847  0.00  0.00     0.055 A 
ATOM      6  C5  BZF d   1       2.206  -0.440  -2.669  0.00  0.00    -0.016 A 
ATOM      7  C6  BZF d   1       1.658  -1.693  -2.486  0.00  0.00     0.022 A 
ATOM      8  C7  BZF d   1       0.784  -1.938  -1.480  0.00  0.00     0.029 A 
ATOM      9  C7A BZF d   1       0.452  -0.882  -0.667  0.00  0.00     0.058 A 
ENDROOT
TORSDOF 0
ENDMDL
