MODEL 1
REMARK minimizedAffinity -4.11812735
REMARK minimizedRMSD -1
REMARK  0 active torsions:
REMARK  status: ('A' for Active; 'I' for Inactive)
ROOT
ATOM      1  O1  BZF d   1       0.972  -0.840  -1.814  0.00  0.00    -0.204 OA
ATOM      2  C2  BZF d   1       1.854   0.119  -2.271  0.00  0.00     0.174 A 
ATOM      3  C3  BZF d   1       1.687   1.280  -1.606  0.00  0.00    -0.012 A 
ATOM      4  C3A BZF d   1       0.697   1.004  -0.610  0.00  0.00    -0.107 A 
ATOM      5  C4  BZF d   1       0.117   1.755   0.371  0.00  0.00     0.055 A 
ATOM      6  C5  BZF d   1      -0.870   1.207   1.128  0.00  0.00    -0.016 A 
ATOM      7  C6  BZF d   1      -1.305  -0.087   0.926  0.00  0.00     0.022 A 
ATOM      8  C7  BZF d   1      -0.757  -0.873  -0.033  0.00  0.00     0.029 A 
ATOM      9  C7A BZF d   1       0.263  -0.332  -0.776  0.00  0.00     0.058 A 
ENDROOT
TORSDOF 0
ENDMDL
