MODEL 1
REMARK minimizedAffinity -4.69876051
REMARK minimizedRMSD -1
REMARK  0 active torsions:
REMARK  status: ('A' for Active; 'I' for Inactive)
ROOT
ATOM      1  O1  BZF d   1      -0.783  -1.185  -0.119  0.00  0.00    -0.204 OA
ATOM      2  C2  BZF d   1      -1.000  -0.629   1.126  0.00  0.00     0.174 A 
ATOM      3  C3  BZF d   1      -0.246   0.476   1.295  0.00  0.00    -0.012 A 
ATOM      4  C3A BZF d   1       0.420   0.671   0.044  0.00  0.00    -0.107 A 
ATOM      5  C4  BZF d   1       1.295   1.613  -0.417  0.00  0.00     0.055 A 
ATOM      6  C5  BZF d   1       1.816   1.476  -1.665  0.00  0.00    -0.016 A 
ATOM      7  C6  BZF d   1       1.489   0.409  -2.475  0.00  0.00     0.022 A 
ATOM      8  C7  BZF d   1       0.621  -0.548  -2.064  0.00  0.00     0.029 A 
ATOM      9  C7A BZF d   1       0.068  -0.394  -0.816  0.00  0.00     0.058 A 
ENDROOT
TORSDOF 0
ENDMDL
