MODEL 1
REMARK minimizedAffinity -5.80177212
REMARK minimizedRMSD -1
REMARK  0 active torsions:
REMARK  status: ('A' for Active; 'I' for Inactive)
ROOT
ATOM      1  O1  BZF d   1      -0.023  -1.303   0.362  0.00  0.00    -0.204 OA
ATOM      2  C2  BZF d   1      -0.223  -0.055   0.920  0.00  0.00     0.174 A 
ATOM      3  C3  BZF d   1       0.369   0.902   0.176  0.00  0.00    -0.012 A 
ATOM      4  C3A BZF d   1       0.898   0.219  -0.964  0.00  0.00    -0.107 A 
ATOM      5  C4  BZF d   1       1.583   0.631  -2.071  0.00  0.00     0.055 A 
ATOM      6  C5  BZF d   1       2.019  -0.298  -2.962  0.00  0.00    -0.016 A 
ATOM      7  C6  BZF d   1       1.793  -1.646  -2.775  0.00  0.00     0.022 A 
ATOM      8  C7  BZF d   1       1.114  -2.103  -1.695  0.00  0.00     0.029 A 
ATOM      9  C7A BZF d   1       0.643  -1.164  -0.810  0.00  0.00     0.058 A 
ENDROOT
TORSDOF 0
ENDMDL
