MODEL 1
REMARK minimizedAffinity -1.36154413
REMARK minimizedRMSD -1
REMARK  0 active torsions:
REMARK  status: ('A' for Active; 'I' for Inactive)
ROOT
ATOM      1  O1  BZF d   1       0.130  -0.617   0.393  0.00  0.00    -0.204 OA
ATOM      2  C2  BZF d   1       1.170   0.269   0.184  0.00  0.00     0.174 A 
ATOM      3  C3  BZF d   1       0.895   1.468   0.737  0.00  0.00    -0.012 A 
ATOM      4  C3A BZF d   1      -0.356   1.295   1.409  0.00  0.00    -0.107 A 
ATOM      5  C4  BZF d   1      -1.143   2.124   2.156  0.00  0.00     0.055 A 
ATOM      6  C5  BZF d   1      -2.340   1.668   2.608  0.00  0.00    -0.016 A 
ATOM      7  C6  BZF d   1      -2.784   0.392   2.327  0.00  0.00     0.022 A 
ATOM      8  C7  BZF d   1      -2.037  -0.468   1.594  0.00  0.00     0.029 A 
ATOM      9  C7A BZF d   1      -0.811  -0.021   1.163  0.00  0.00     0.058 A 
ENDROOT
TORSDOF 0
ENDMDL
