MODEL 1
REMARK minimizedAffinity -3.73222232
REMARK minimizedRMSD -1
REMARK  0 active torsions:
REMARK  status: ('A' for Active; 'I' for Inactive)
ROOT
ATOM      1  O1  BZF d   1       2.436  -1.640  -2.063  0.00  0.00    -0.204 OA
ATOM      2  C2  BZF d   1       2.867  -0.439  -2.593  0.00  0.00     0.174 A 
ATOM      3  C3  BZF d   1       2.227   0.597  -2.013  0.00  0.00    -0.012 A 
ATOM      4  C3A BZF d   1       1.408   0.011  -0.996  0.00  0.00    -0.107 A 
ATOM      5  C4  BZF d   1       0.548   0.528  -0.069  0.00  0.00     0.055 A 
ATOM      6  C5  BZF d   1      -0.152  -0.321   0.728  0.00  0.00    -0.016 A 
ATOM      7  C6  BZF d   1      -0.021  -1.690   0.623  0.00  0.00     0.022 A 
ATOM      8  C7  BZF d   1       0.823  -2.250  -0.278  0.00  0.00     0.029 A 
ATOM      9  C7A BZF d   1       1.556  -1.394  -1.063  0.00  0.00     0.058 A 
ENDROOT
TORSDOF 0
ENDMDL
