MODEL 1
REMARK minimizedAffinity 0.382326335
REMARK minimizedRMSD -1
REMARK  0 active torsions:
REMARK  status: ('A' for Active; 'I' for Inactive)
ROOT
ATOM      1  O1  BZF d   1      -0.190  -0.784  -0.060  0.00  0.00    -0.204 OA
ATOM      2  C2  BZF d   1       0.873   0.071   0.161  0.00  0.00     0.174 A 
ATOM      3  C3  BZF d   1       0.499   1.110   0.935  0.00  0.00    -0.012 A 
ATOM      4  C3A BZF d   1      -0.861   0.843   1.292  0.00  0.00    -0.107 A 
ATOM      5  C4  BZF d   1      -1.777   1.502   2.061  0.00  0.00     0.055 A 
ATOM      6  C5  BZF d   1      -3.041   1.013   2.148  0.00  0.00    -0.016 A 
ATOM      7  C6  BZF d   1      -3.425  -0.130   1.477  0.00  0.00     0.022 A 
ATOM      8  C7  BZF d   1      -2.551  -0.822   0.707  0.00  0.00     0.029 A 
ATOM      9  C7A BZF d   1      -1.263  -0.347   0.643  0.00  0.00     0.058 A 
ENDROOT
TORSDOF 0
ENDMDL
