MODEL 1
REMARK minimizedAffinity -6.48478651
REMARK minimizedRMSD -1
REMARK  0 active torsions:
REMARK  status: ('A' for Active; 'I' for Inactive)
ROOT
ATOM      1  O1  BZF d   1      -0.362  -0.972   0.564  0.00  0.00    -0.204 OA
ATOM      2  C2  BZF d   1      -0.625   0.375   0.722  0.00  0.00     0.174 A 
ATOM      3  C3  BZF d   1      -0.009   1.099  -0.235  0.00  0.00    -0.012 A 
ATOM      4  C3A BZF d   1       0.606   0.136  -1.096  0.00  0.00    -0.107 A 
ATOM      5  C4  BZF d   1       1.351   0.237  -2.237  0.00  0.00     0.055 A 
ATOM      6  C5  BZF d   1       1.863  -0.891  -2.793  0.00  0.00    -0.016 A 
ATOM      7  C6  BZF d   1       1.656  -2.135  -2.234  0.00  0.00     0.022 A 
ATOM      8  C7  BZF d   1       0.920  -2.286  -1.106  0.00  0.00     0.029 A 
ATOM      9  C7A BZF d   1       0.373  -1.151  -0.560  0.00  0.00     0.058 A 
ENDROOT
TORSDOF 0
ENDMDL
