MODEL 1
REMARK minimizedAffinity 0.667592108
REMARK minimizedRMSD -1
REMARK  0 active torsions:
REMARK  status: ('A' for Active; 'I' for Inactive)
ROOT
ATOM      1  C   UNL d   1       4.190   1.537   4.508  0.00  0.00    -0.002 A 
ATOM      2  C1  UNL d   1       3.061   2.183   4.024  0.00  0.00     0.010 A 
ATOM      3  C2  UNL d   1       2.925   3.567   4.152  0.00  0.00     0.041 A 
ATOM      4  C3  UNL d   1       3.954   4.297   4.778  0.00  0.00    -0.075 A 
ATOM      5  S   UNL d   1       4.006   6.000   5.045  0.00  0.00     0.015 SA
ATOM      6  C4  UNL d   1       5.528   5.910   5.806  0.00  0.00     0.022 A 
ATOM      7  C5  UNL d   1       6.000   4.620   5.864  0.00  0.00     0.026 A 
ATOM      8  C6  UNL d   1       5.101   3.669   5.272  0.00  0.00    -0.082 A 
ATOM      9  C7  UNL d   1       5.208   2.265   5.128  0.00  0.00     0.045 A 
ENDROOT
TORSDOF 0
ENDMDL
