MODEL 1
REMARK minimizedAffinity 4.72323847
REMARK minimizedRMSD -1
REMARK  0 active torsions:
REMARK  status: ('A' for Active; 'I' for Inactive)
ROOT
ATOM      1  C   UNL d   1      -5.292   2.950   1.741  0.00  0.00    -0.002 A 
ATOM      2  C1  UNL d   1      -5.381   1.975   2.724  0.00  0.00     0.010 A 
ATOM      3  C2  UNL d   1      -5.596   2.329   4.058  0.00  0.00     0.041 A 
ATOM      4  C3  UNL d   1      -5.724   3.692   4.389  0.00  0.00    -0.075 A 
ATOM      5  S   UNL d   1      -5.993   4.361   5.955  0.00  0.00     0.015 SA
ATOM      6  C4  UNL d   1      -5.998   5.956   5.356  0.00  0.00     0.022 A 
ATOM      7  C5  UNL d   1      -5.801   5.996   3.996  0.00  0.00     0.026 A 
ATOM      8  C6  UNL d   1      -5.640   4.692   3.416  0.00  0.00    -0.082 A 
ATOM      9  C7  UNL d   1      -5.420   4.302   2.073  0.00  0.00     0.045 A 
ENDROOT
TORSDOF 0
ENDMDL
