MODEL 1
REMARK minimizedAffinity 20.7412281
REMARK minimizedRMSD -1
REMARK  0 active torsions:
REMARK  status: ('A' for Active; 'I' for Inactive)
ROOT
ATOM      1  C   UNL d   1       5.612   4.960   4.144  0.00  0.00    -0.002 A 
ATOM      2  C1  UNL d   1       4.879   5.965   4.760  0.00  0.00     0.010 A 
ATOM      3  C2  UNL d   1       3.487   5.992   4.658  0.00  0.00     0.041 A 
ATOM      4  C3  UNL d   1       2.837   4.982   3.922  0.00  0.00    -0.075 A 
ATOM      5  S   UNL d   1       1.141   4.812   3.663  0.00  0.00     0.015 SA
ATOM      6  C4  UNL d   1       1.349   3.401   2.730  0.00  0.00     0.022 A 
ATOM      7  C5  UNL d   1       2.674   3.054   2.609  0.00  0.00     0.026 A 
ATOM      8  C6  UNL d   1       3.553   3.959   3.294  0.00  0.00    -0.082 A 
ATOM      9  C7  UNL d   1       4.964   3.959   3.415  0.00  0.00     0.045 A 
ENDROOT
TORSDOF 0
ENDMDL
