MODEL 1
REMARK minimizedAffinity 8.12967873
REMARK minimizedRMSD -1
REMARK  0 active torsions:
REMARK  status: ('A' for Active; 'I' for Inactive)
ROOT
ATOM      1  C   UNL d   1       0.344  -4.643   0.608  0.00  0.00    -0.002 A 
ATOM      2  C1  UNL d   1      -0.171  -4.569  -0.678  0.00  0.00     0.010 A 
ATOM      3  C2  UNL d   1       0.225  -3.548  -1.544  0.00  0.00     0.041 A 
ATOM      4  C3  UNL d   1       1.158  -2.594  -1.092  0.00  0.00    -0.075 A 
ATOM      5  S   UNL d   1       1.789  -1.256  -1.977  0.00  0.00     0.015 SA
ATOM      6  C4  UNL d   1       2.759  -0.752  -0.669  0.00  0.00     0.022 A 
ATOM      7  C5  UNL d   1       2.616  -1.573   0.425  0.00  0.00     0.026 A 
ATOM      8  C6  UNL d   1       1.692  -2.648   0.199  0.00  0.00    -0.082 A 
ATOM      9  C7  UNL d   1       1.269  -3.695   1.053  0.00  0.00     0.045 A 
ENDROOT
TORSDOF 0
ENDMDL
