MODEL 1
REMARK minimizedAffinity 1.38767922
REMARK minimizedRMSD -1
REMARK  0 active torsions:
REMARK  status: ('A' for Active; 'I' for Inactive)
ROOT
ATOM      1  C   UNL d   1      -2.180   0.017  -2.239  0.00  0.00    -0.002 A 
ATOM      2  C1  UNL d   1      -2.961   1.106  -2.599  0.00  0.00     0.010 A 
ATOM      3  C2  UNL d   1      -4.161   1.368  -1.936  0.00  0.00     0.041 A 
ATOM      4  C3  UNL d   1      -4.566   0.511  -0.894  0.00  0.00    -0.075 A 
ATOM      5  S   UNL d   1      -5.998   0.638   0.059  0.00  0.00     0.015 SA
ATOM      6  C4  UNL d   1      -5.605  -0.750   0.967  0.00  0.00     0.022 A 
ATOM      7  C5  UNL d   1      -4.415  -1.309   0.566  0.00  0.00     0.026 A 
ATOM      8  C6  UNL d   1      -3.796  -0.591  -0.513  0.00  0.00    -0.082 A 
ATOM      9  C7  UNL d   1      -2.585  -0.831  -1.205  0.00  0.00     0.045 A 
ENDROOT
TORSDOF 0
ENDMDL
