MODEL 1
REMARK minimizedAffinity -3.77002358
REMARK minimizedRMSD -1
REMARK  0 active torsions:
REMARK  status: ('A' for Active; 'I' for Inactive)
ROOT
ATOM      1  C   UNL d   1       3.741  -0.345  -1.104  0.00  0.00    -0.002 A 
ATOM      2  C1  UNL d   1       3.628  -1.712  -0.897  0.00  0.00     0.010 A 
ATOM      3  C2  UNL d   1       2.381  -2.338  -0.958  0.00  0.00     0.041 A 
ATOM      4  C3  UNL d   1       1.240  -1.560  -1.235  0.00  0.00    -0.075 A 
ATOM      5  S   UNL d   1      -0.389  -2.111  -1.359  0.00  0.00     0.015 SA
ATOM      6  C4  UNL d   1      -0.972  -0.544  -1.690  0.00  0.00     0.022 A 
ATOM      7  C5  UNL d   1       0.038   0.389  -1.709  0.00  0.00     0.026 A 
ATOM      8  C6  UNL d   1       1.330  -0.181  -1.447  0.00  0.00    -0.082 A 
ATOM      9  C7  UNL d   1       2.607   0.424  -1.378  0.00  0.00     0.045 A 
ENDROOT
TORSDOF 0
ENDMDL
