MODEL 1
REMARK minimizedAffinity -1.69812751
REMARK minimizedRMSD -1
REMARK  0 active torsions:
REMARK  status: ('A' for Active; 'I' for Inactive)
ROOT
ATOM      1  C   UNL d   1       0.843  -0.000  -3.749  0.00  0.00     0.023 A 
ATOM      2  C1  UNL d   1       0.845  -1.291  -3.220  0.00  0.00     0.003 A 
ATOM      3  C2  UNL d   1       0.544  -1.495  -1.872  0.00  0.00     0.048 A 
ATOM      4  C3  UNL d   1       0.241  -0.404  -1.058  0.00  0.00     0.023 A 
ATOM      5  C4  UNL d   1       0.238   0.889  -1.583  0.00  0.00     0.048 A 
ATOM      6  C5  UNL d   1       0.541   1.089  -2.931  0.00  0.00     0.003 A 
ATOM      7  I   UNL d   1      -0.207  -0.705   0.949  0.00  0.00    -0.146 I 
ENDROOT
TORSDOF 0
ENDMDL
