MODEL 1
REMARK minimizedAffinity -3.9623661
REMARK minimizedRMSD -1
REMARK  0 active torsions:
REMARK  status: ('A' for Active; 'I' for Inactive)
ROOT
ATOM      1  C   UNL d   1      -0.526  -0.467   3.352  0.00  0.00     0.023 A 
ATOM      2  C1  UNL d   1      -1.058  -1.285   2.355  0.00  0.00     0.003 A 
ATOM      3  C2  UNL d   1      -0.761  -1.037   1.013  0.00  0.00     0.048 A 
ATOM      4  C3  UNL d   1       0.070   0.031   0.675  0.00  0.00     0.023 A 
ATOM      5  C4  UNL d   1       0.605   0.852   1.669  0.00  0.00     0.048 A 
ATOM      6  C5  UNL d   1       0.304   0.601   3.009  0.00  0.00     0.003 A 
ATOM      7  I   UNL d   1       0.514   0.403  -1.321  0.00  0.00    -0.146 I 
ENDROOT
TORSDOF 0
ENDMDL
