MODEL 1
REMARK minimizedAffinity -4.9349308
REMARK minimizedRMSD -1
REMARK  0 active torsions:
REMARK  status: ('A' for Active; 'I' for Inactive)
ROOT
ATOM      1  C   UNL d   1      -2.027   0.237   3.104  0.00  0.00     0.023 A 
ATOM      2  C1  UNL d   1      -2.688   0.402   1.886  0.00  0.00     0.003 A 
ATOM      3  C2  UNL d   1      -1.966   0.391   0.691  0.00  0.00     0.048 A 
ATOM      4  C3  UNL d   1      -0.583   0.214   0.721  0.00  0.00     0.023 A 
ATOM      5  C4  UNL d   1       0.082   0.048   1.936  0.00  0.00     0.048 A 
ATOM      6  C5  UNL d   1      -0.644   0.060   3.129  0.00  0.00     0.003 A 
ATOM      7  I   UNL d   1       0.494   0.198  -1.057  0.00  0.00    -0.146 I 
ENDROOT
TORSDOF 0
ENDMDL
