MODEL 1
REMARK minimizedAffinity -3.05367184
REMARK minimizedRMSD -1
REMARK  0 active torsions:
REMARK  status: ('A' for Active; 'I' for Inactive)
ROOT
ATOM      1  C   UNL d   1       0.156  -0.198   3.474  0.00  0.00     0.023 A 
ATOM      2  C1  UNL d   1      -0.446  -1.137   2.636  0.00  0.00     0.003 A 
ATOM      3  C2  UNL d   1      -0.412  -0.961   1.251  0.00  0.00     0.048 A 
ATOM      4  C3  UNL d   1       0.226   0.155   0.711  0.00  0.00     0.023 A 
ATOM      5  C4  UNL d   1       0.830   1.097   1.546  0.00  0.00     0.048 A 
ATOM      6  C5  UNL d   1       0.793   0.917   2.930  0.00  0.00     0.003 A 
ATOM      7  I   UNL d   1       0.278   0.419  -1.350  0.00  0.00    -0.146 I 
ENDROOT
TORSDOF 0
ENDMDL
