MODEL 1
REMARK minimizedAffinity -0.828302503
REMARK minimizedRMSD -1
REMARK  0 active torsions:
REMARK  status: ('A' for Active; 'I' for Inactive)
ROOT
ATOM      1  C   UNL d   1      -0.418  -0.318   3.880  0.00  0.00     0.023 A 
ATOM      2  C1  UNL d   1      -1.209  -1.294   3.273  0.00  0.00     0.003 A 
ATOM      3  C2  UNL d   1      -1.188  -1.448   1.885  0.00  0.00     0.048 A 
ATOM      4  C3  UNL d   1      -0.372  -0.624   1.111  0.00  0.00     0.023 A 
ATOM      5  C4  UNL d   1       0.423   0.352   1.714  0.00  0.00     0.048 A 
ATOM      6  C5  UNL d   1       0.397   0.504   3.101  0.00  0.00     0.003 A 
ATOM      7  I   UNL d   1      -0.338  -0.852  -0.955  0.00  0.00    -0.146 I 
ENDROOT
TORSDOF 0
ENDMDL
