MODEL 1
REMARK minimizedAffinity 1.9129107
REMARK minimizedRMSD -1
REMARK  0 active torsions:
REMARK  status: ('A' for Active; 'I' for Inactive)
ROOT
ATOM      1  C   UNL d   1      -2.288  -0.902  -0.601  0.00  0.00     0.023 A 
ATOM      2  C1  UNL d   1      -1.445  -0.454  -1.618  0.00  0.00     0.003 A 
ATOM      3  C2  UNL d   1      -0.248   0.192  -1.301  0.00  0.00     0.048 A 
ATOM      4  C3  UNL d   1       0.100   0.386   0.035  0.00  0.00     0.023 A 
ATOM      5  C4  UNL d   1      -0.740  -0.061   1.056  0.00  0.00     0.048 A 
ATOM      6  C5  UNL d   1      -1.936  -0.706   0.735  0.00  0.00     0.003 A 
ATOM      7  I   UNL d   1       1.881   1.347   0.509  0.00  0.00    -0.146 I 
ENDROOT
TORSDOF 0
ENDMDL
