MODEL 1
REMARK minimizedAffinity -3.85867333
REMARK minimizedRMSD -1
REMARK  0 active torsions:
REMARK  status: ('A' for Active; 'I' for Inactive)
ROOT
ATOM      1  C   UNL d   1      -0.182  -1.350   2.822  0.00  0.00     0.023 A 
ATOM      2  C1  UNL d   1      -0.019   0.030   2.699  0.00  0.00     0.003 A 
ATOM      3  C2  UNL d   1       0.142   0.606   1.437  0.00  0.00     0.048 A 
ATOM      4  C3  UNL d   1       0.138  -0.204   0.302  0.00  0.00     0.023 A 
ATOM      5  C4  UNL d   1      -0.025  -1.585   0.420  0.00  0.00     0.048 A 
ATOM      6  C5  UNL d   1      -0.185  -2.157   1.684  0.00  0.00     0.003 A 
ATOM      7  I   UNL d   1       0.378   0.650  -1.577  0.00  0.00    -0.146 I 
ENDROOT
TORSDOF 0
ENDMDL
