MODEL 1
REMARK minimizedAffinity -3.98677659
REMARK minimizedRMSD -1
REMARK  0 active torsions:
REMARK  status: ('A' for Active; 'I' for Inactive)
ROOT
ATOM      1  C   UNL d   1      -0.790  -0.416   3.392  0.00  0.00     0.023 A 
ATOM      2  C1  UNL d   1       0.086   0.640   3.140  0.00  0.00     0.003 A 
ATOM      3  C2  UNL d   1       0.480   0.925   1.831  0.00  0.00     0.048 A 
ATOM      4  C3  UNL d   1      -0.007   0.151   0.779  0.00  0.00     0.023 A 
ATOM      5  C4  UNL d   1      -0.885  -0.906   1.025  0.00  0.00     0.048 A 
ATOM      6  C5  UNL d   1      -1.275  -1.188   2.336  0.00  0.00     0.003 A 
ATOM      7  I   UNL d   1       0.577   0.574  -1.171  0.00  0.00    -0.146 I 
ENDROOT
TORSDOF 0
ENDMDL
