MODEL 1
REMARK minimizedAffinity -3.4681263
REMARK minimizedRMSD -1
REMARK  0 active torsions:
REMARK  status: ('A' for Active; 'I' for Inactive)
ROOT
ATOM      1  C   UNL d   1       0.027  -0.152   2.999  0.00  0.00     0.023 A 
ATOM      2  C1  UNL d   1       1.248  -0.009   2.340  0.00  0.00     0.003 A 
ATOM      3  C2  UNL d   1       1.283   0.095   0.948  0.00  0.00     0.048 A 
ATOM      4  C3  UNL d   1       0.093   0.055   0.221  0.00  0.00     0.023 A 
ATOM      5  C4  UNL d   1      -1.131  -0.087   0.877  0.00  0.00     0.048 A 
ATOM      6  C5  UNL d   1      -1.161  -0.191   2.268  0.00  0.00     0.003 A 
ATOM      7  I   UNL d   1       0.143   0.210  -1.851  0.00  0.00    -0.146 I 
ENDROOT
TORSDOF 0
ENDMDL
