MODEL 1
REMARK minimizedAffinity -3.56629491
REMARK minimizedRMSD -1
REMARK  0 active torsions:
REMARK  status: ('A' for Active; 'I' for Inactive)
ROOT
ATOM      1  C   UNL d   1      -0.284   0.944  -1.507  0.00  0.00     0.023 A 
ATOM      2  C1  UNL d   1       0.820   0.677  -0.697  0.00  0.00     0.003 A 
ATOM      3  C2  UNL d   1       0.635   0.269   0.625  0.00  0.00     0.048 A 
ATOM      4  C3  UNL d   1      -0.656   0.129   1.132  0.00  0.00     0.023 A 
ATOM      5  C4  UNL d   1      -1.764   0.394   0.325  0.00  0.00     0.048 A 
ATOM      6  C5  UNL d   1      -1.574   0.803  -0.996  0.00  0.00     0.003 A 
ATOM      7  I   UNL d   1      -0.934  -0.479   3.100  0.00  0.00    -0.146 I 
ENDROOT
TORSDOF 0
ENDMDL
