MODEL 1
REMARK minimizedAffinity -5.1768117
REMARK minimizedRMSD -1
REMARK  0 active torsions:
REMARK  status: ('A' for Active; 'I' for Inactive)
ROOT
ATOM      1  C   UNL d   1       0.519  -0.388   3.142  0.00  0.00     0.023 A 
ATOM      2  C1  UNL d   1       1.715  -0.249   2.438  0.00  0.00     0.003 A 
ATOM      3  C2  UNL d   1       1.710  -0.253   1.041  0.00  0.00     0.048 A 
ATOM      4  C3  UNL d   1       0.504  -0.394   0.355  0.00  0.00     0.023 A 
ATOM      5  C4  UNL d   1      -0.695  -0.533   1.056  0.00  0.00     0.048 A 
ATOM      6  C5  UNL d   1      -0.685  -0.530   2.452  0.00  0.00     0.003 A 
ATOM      7  I   UNL d   1       0.493  -0.400  -1.723  0.00  0.00    -0.146 I 
ENDROOT
TORSDOF 0
ENDMDL
