MODEL 1
REMARK minimizedAffinity -3.02911305
REMARK minimizedRMSD -1
REMARK  0 active torsions:
REMARK  status: ('A' for Active; 'I' for Inactive)
ROOT
ATOM      1  C   UNL d   1      -0.683  -0.312   2.606  0.00  0.00     0.023 A 
ATOM      2  C1  UNL d   1       0.625   0.025   2.257  0.00  0.00     0.003 A 
ATOM      3  C2  UNL d   1       0.978   0.160   0.912  0.00  0.00     0.048 A 
ATOM      4  C3  UNL d   1       0.017  -0.042  -0.078  0.00  0.00     0.023 A 
ATOM      5  C4  UNL d   1      -1.293  -0.379   0.267  0.00  0.00     0.048 A 
ATOM      6  C5  UNL d   1      -1.640  -0.514   1.612  0.00  0.00     0.003 A 
ATOM      7  I   UNL d   1       0.539   0.159  -2.080  0.00  0.00    -0.146 I 
ENDROOT
TORSDOF 0
ENDMDL
