MODEL 1
REMARK minimizedAffinity -2.4280858
REMARK minimizedRMSD -1
REMARK  0 active torsions:
REMARK  status: ('A' for Active; 'I' for Inactive)
ROOT
ATOM      1  C   UNL d   1      -0.644   0.102   2.871  0.00  0.00     0.023 A 
ATOM      2  C1  UNL d   1      -1.406  -0.511   1.876  0.00  0.00     0.003 A 
ATOM      3  C2  UNL d   1      -0.978  -0.476   0.547  0.00  0.00     0.048 A 
ATOM      4  C3  UNL d   1       0.212   0.172   0.220  0.00  0.00     0.023 A 
ATOM      5  C4  UNL d   1       0.978   0.786   1.213  0.00  0.00     0.048 A 
ATOM      6  C5  UNL d   1       0.546   0.750   2.540  0.00  0.00     0.003 A 
ATOM      7  I   UNL d   1       0.850   0.225  -1.757  0.00  0.00    -0.146 I 
ENDROOT
TORSDOF 0
ENDMDL
