MODEL 1
REMARK minimizedAffinity -2.89717913
REMARK minimizedRMSD -1
REMARK  0 active torsions:
REMARK  status: ('A' for Active; 'I' for Inactive)
ROOT
ATOM      1  C   UNL d   1       0.373   0.182   2.557  0.00  0.00     0.023 A 
ATOM      2  C1  UNL d   1      -0.670  -0.532   1.968  0.00  0.00     0.003 A 
ATOM      3  C2  UNL d   1      -0.716  -0.689   0.581  0.00  0.00     0.048 A 
ATOM      4  C3  UNL d   1       0.287  -0.130  -0.211  0.00  0.00     0.023 A 
ATOM      5  C4  UNL d   1       1.333   0.585   0.374  0.00  0.00     0.048 A 
ATOM      6  C5  UNL d   1       1.374   0.740   1.761  0.00  0.00     0.003 A 
ATOM      7  I   UNL d   1       0.221  -0.362  -2.275  0.00  0.00    -0.146 I 
ENDROOT
TORSDOF 0
ENDMDL
