MODEL 1
REMARK minimizedAffinity -4.49199533
REMARK minimizedRMSD -1
REMARK  0 active torsions:
REMARK  status: ('A' for Active; 'I' for Inactive)
ROOT
ATOM      1  C   UNL d   1      -0.152  -0.200   2.959  0.00  0.00     0.023 A 
ATOM      2  C1  UNL d   1       0.929   0.456   2.369  0.00  0.00     0.003 A 
ATOM      3  C2  UNL d   1       1.103   0.410   0.984  0.00  0.00     0.048 A 
ATOM      4  C3  UNL d   1       0.194  -0.293   0.196  0.00  0.00     0.023 A 
ATOM      5  C4  UNL d   1      -0.889  -0.951   0.782  0.00  0.00     0.048 A 
ATOM      6  C5  UNL d   1      -1.059  -0.903   2.166  0.00  0.00     0.003 A 
ATOM      7  I   UNL d   1       0.452  -0.363  -1.866  0.00  0.00    -0.146 I 
ENDROOT
TORSDOF 0
ENDMDL
