MODEL 1
REMARK minimizedAffinity 13.2008715
REMARK minimizedRMSD -1
REMARK  0 active torsions:
REMARK  status: ('A' for Active; 'I' for Inactive)
ROOT
ATOM      1  C   UNL d   1       3.086  -1.671   4.135  0.00  0.00    -0.002 A 
ATOM      2  C1  UNL d   1       3.794  -1.225   5.242  0.00  0.00     0.010 A 
ATOM      3  C2  UNL d   1       4.715  -2.058   5.880  0.00  0.00     0.041 A 
ATOM      4  C3  UNL d   1       4.917  -3.359   5.380  0.00  0.00    -0.075 A 
ATOM      5  S   UNL d   1       5.995  -4.555   5.998  0.00  0.00     0.015 SA
ATOM      6  C4  UNL d   1       5.543  -5.686   4.806  0.00  0.00     0.022 A 
ATOM      7  C5  UNL d   1       4.594  -5.181   3.949  0.00  0.00     0.026 A 
ATOM      8  C6  UNL d   1       4.218  -3.831   4.266  0.00  0.00    -0.082 A 
ATOM      9  C7  UNL d   1       3.290  -2.963   3.642  0.00  0.00     0.045 A 
ENDROOT
TORSDOF 0
ENDMDL
