MODEL 1
REMARK minimizedAffinity 12.5837002
REMARK minimizedRMSD -1
REMARK  0 active torsions:
REMARK  status: ('A' for Active; 'I' for Inactive)
ROOT
ATOM      1  C   UNL d   1       1.410  -5.134  -0.363  0.00  0.00    -0.002 A 
ATOM      2  C1  UNL d   1       1.991  -5.986  -1.291  0.00  0.00     0.010 A 
ATOM      3  C2  UNL d   1       1.551  -6.000  -2.616  0.00  0.00     0.041 A 
ATOM      4  C3  UNL d   1       0.508  -5.132  -2.997  0.00  0.00    -0.075 A 
ATOM      5  S   UNL d   1      -0.193  -4.975  -4.564  0.00  0.00     0.015 SA
ATOM      6  C4  UNL d   1      -1.280  -3.772  -4.039  0.00  0.00     0.022 A 
ATOM      7  C5  UNL d   1      -1.125  -3.485  -2.703  0.00  0.00     0.026 A 
ATOM      8  C6  UNL d   1      -0.092  -4.264  -2.080  0.00  0.00    -0.082 A 
ATOM      9  C7  UNL d   1       0.376  -4.275  -0.744  0.00  0.00     0.045 A 
ENDROOT
TORSDOF 0
ENDMDL
