MODEL 1
REMARK minimizedAffinity 14.8558569
REMARK minimizedRMSD -1
REMARK  0 active torsions:
REMARK  status: ('A' for Active; 'I' for Inactive)
ROOT
ATOM      1  C   UNL d   1      -1.122   5.001  -2.644  0.00  0.00    -0.002 A 
ATOM      2  C1  UNL d   1      -1.359   5.999  -1.709  0.00  0.00     0.010 A 
ATOM      3  C2  UNL d   1      -1.021   5.810  -0.367  0.00  0.00     0.041 A 
ATOM      4  C3  UNL d   1      -0.434   4.590   0.022  0.00  0.00    -0.075 A 
ATOM      5  S   UNL d   1       0.064   4.136   1.609  0.00  0.00     0.015 SA
ATOM      6  C4  UNL d   1       0.603   2.607   1.083  0.00  0.00     0.022 A 
ATOM      7  C5  UNL d   1       0.415   2.430  -0.267  0.00  0.00     0.026 A 
ATOM      8  C6  UNL d   1      -0.185   3.571  -0.901  0.00  0.00    -0.082 A 
ATOM      9  C7  UNL d   1      -0.540   3.792  -2.254  0.00  0.00     0.045 A 
ENDROOT
TORSDOF 0
ENDMDL
