MODEL 1
REMARK minimizedAffinity 10.5779886
REMARK minimizedRMSD -1
REMARK  0 active torsions:
REMARK  status: ('A' for Active; 'I' for Inactive)
ROOT
ATOM      1  C   UNL d   1       0.364   1.847   3.016  0.00  0.00    -0.002 A 
ATOM      2  C1  UNL d   1       1.510   2.501   3.444  0.00  0.00     0.010 A 
ATOM      3  C2  UNL d   1       2.043   3.558   2.704  0.00  0.00     0.041 A 
ATOM      4  C3  UNL d   1       1.398   3.950   1.514  0.00  0.00    -0.075 A 
ATOM      5  S   UNL d   1       1.870   5.218   0.445  0.00  0.00     0.015 SA
ATOM      6  C4  UNL d   1       0.561   4.921  -0.605  0.00  0.00     0.022 A 
ATOM      7  C5  UNL d   1      -0.227   3.884  -0.166  0.00  0.00     0.026 A 
ATOM      8  C6  UNL d   1       0.242   3.307   1.063  0.00  0.00    -0.082 A 
ATOM      9  C7  UNL d   1      -0.274   2.239   1.836  0.00  0.00     0.045 A 
ENDROOT
TORSDOF 0
ENDMDL
