MODEL 1
REMARK minimizedAffinity 15.8520813
REMARK minimizedRMSD -1
REMARK  0 active torsions:
REMARK  status: ('A' for Active; 'I' for Inactive)
ROOT
ATOM      1  C   UNL d   1      -5.923   1.417  -1.719  0.00  0.00    -0.002 A 
ATOM      2  C1  UNL d   1      -5.933   2.117  -0.521  0.00  0.00     0.010 A 
ATOM      3  C2  UNL d   1      -5.955   3.513  -0.513  0.00  0.00     0.041 A 
ATOM      4  C3  UNL d   1      -5.969   4.201  -1.742  0.00  0.00    -0.075 A 
ATOM      5  S   UNL d   1      -5.997   5.909  -1.977  0.00  0.00     0.015 SA
ATOM      6  C4  UNL d   1      -5.999   5.750  -3.674  0.00  0.00     0.022 A 
ATOM      7  C5  UNL d   1      -5.978   4.433  -4.069  0.00  0.00     0.026 A 
ATOM      8  C6  UNL d   1      -5.961   3.519  -2.962  0.00  0.00    -0.082 A 
ATOM      9  C7  UNL d   1      -5.938   2.103  -2.937  0.00  0.00     0.045 A 
ENDROOT
TORSDOF 0
ENDMDL
