MODEL 1
REMARK minimizedAffinity 15.4533157
REMARK minimizedRMSD -1
REMARK  0 active torsions:
REMARK  status: ('A' for Active; 'I' for Inactive)
ROOT
ATOM      1  C   UNL d   1      -0.970   6.000  -2.207  0.00  0.00    -0.002 A 
ATOM      2  C1  UNL d   1      -1.427   4.943  -2.981  0.00  0.00     0.010 A 
ATOM      3  C2  UNL d   1      -1.285   3.626  -2.539  0.00  0.00     0.041 A 
ATOM      4  C3  UNL d   1      -0.673   3.387  -1.293  0.00  0.00    -0.075 A 
ATOM      5  S   UNL d   1      -0.393   1.857  -0.549  0.00  0.00     0.015 SA
ATOM      6  C4  UNL d   1       0.339   2.571   0.815  0.00  0.00     0.022 A 
ATOM      7  C5  UNL d   1       0.378   3.942   0.721  0.00  0.00     0.026 A 
ATOM      8  C6  UNL d   1      -0.205   4.435  -0.495  0.00  0.00    -0.082 A 
ATOM      9  C7  UNL d   1      -0.362   5.759  -0.971  0.00  0.00     0.045 A 
ENDROOT
TORSDOF 0
ENDMDL
