MODEL 1
REMARK minimizedAffinity 8.44806194
REMARK minimizedRMSD -1
REMARK  0 active torsions:
REMARK  status: ('A' for Active; 'I' for Inactive)
ROOT
ATOM      1  C   UNL d   1       5.572   0.101  -5.862  0.00  0.00     0.020 A 
ATOM      2  C1  UNL d   1       4.210   0.395  -5.903  0.00  0.00     0.020 A 
ATOM      3  C2  UNL d   1       3.273  -0.640  -5.945  0.00  0.00     0.034 A 
ATOM      4  C3  UNL d   1       3.697  -1.973  -5.946  0.00  0.00     0.017 A 
ATOM      5  C4  UNL d   1       5.065  -2.267  -5.906  0.00  0.00     0.017 A 
ATOM      6  C5  UNL d   1       5.999  -1.227  -5.864  0.00  0.00     0.034 A 
ATOM      7 Cl   UNL d   1       5.665  -3.888  -5.905  0.00  0.00    -0.070 Cl
ATOM      8 Cl1  UNL d   1       2.484  -3.202  -5.999  0.00  0.00    -0.070 Cl
ENDROOT
TORSDOF 0
ENDMDL
