MODEL 1
REMARK minimizedAffinity 6.2883625
REMARK minimizedRMSD -1
REMARK  0 active torsions:
REMARK  status: ('A' for Active; 'I' for Inactive)
ROOT
ATOM      1  C   UNL d   1       5.009  -1.890  -5.974  0.00  0.00     0.020 A 
ATOM      2  C1  UNL d   1       5.871  -2.159  -4.912  0.00  0.00     0.020 A 
ATOM      3  C2  UNL d   1       6.000  -1.240  -3.868  0.00  0.00     0.034 A 
ATOM      4  C3  UNL d   1       5.266  -0.049  -3.884  0.00  0.00     0.017 A 
ATOM      5  C4  UNL d   1       4.401   0.220  -4.951  0.00  0.00     0.017 A 
ATOM      6  C5  UNL d   1       4.276  -0.703  -5.994  0.00  0.00     0.034 A 
ATOM      7 Cl   UNL d   1       3.462   1.669  -5.041  0.00  0.00    -0.070 Cl
ATOM      8 Cl1  UNL d   1       5.474   1.041  -2.560  0.00  0.00    -0.070 Cl
ENDROOT
TORSDOF 0
ENDMDL
