MODEL 1
REMARK minimizedAffinity 5.88172579
REMARK minimizedRMSD -1
REMARK  0 active torsions:
REMARK  status: ('A' for Active; 'I' for Inactive)
ROOT
ATOM      1  C   UNL d   1       0.325  -1.787  -0.194  0.00  0.00     0.020 A 
ATOM      2  C1  UNL d   1       1.634  -2.141   0.130  0.00  0.00     0.020 A 
ATOM      3  C2  UNL d   1       1.891  -3.352   0.774  0.00  0.00     0.034 A 
ATOM      4  C3  UNL d   1       0.838  -4.215   1.097  0.00  0.00     0.017 A 
ATOM      5  C4  UNL d   1      -0.476  -3.859   0.773  0.00  0.00     0.017 A 
ATOM      6  C5  UNL d   1      -0.728  -2.645   0.127  0.00  0.00     0.034 A 
ATOM      7 Cl   UNL d   1      -1.828  -4.872   1.140  0.00  0.00    -0.070 Cl
ATOM      8 Cl1  UNL d   1       1.229  -5.698   1.894  0.00  0.00    -0.070 Cl
ENDROOT
TORSDOF 0
ENDMDL
