MODEL 1
REMARK minimizedAffinity 6.93629456
REMARK minimizedRMSD -1
REMARK  0 active torsions:
REMARK  status: ('A' for Active; 'I' for Inactive)
ROOT
ATOM      1  C   UNL d   1       4.647  -0.767   4.423  0.00  0.00     0.020 A 
ATOM      2  C1  UNL d   1       5.596  -0.202   5.274  0.00  0.00     0.020 A 
ATOM      3  C2  UNL d   1       6.000   1.122   5.089  0.00  0.00     0.034 A 
ATOM      4  C3  UNL d   1       5.454   1.886   4.051  0.00  0.00     0.017 A 
ATOM      5  C4  UNL d   1       4.501   1.318   3.197  0.00  0.00     0.017 A 
ATOM      6  C5  UNL d   1       4.100  -0.008   3.387  0.00  0.00     0.034 A 
ATOM      7 Cl   UNL d   1       3.782   2.198   1.895  0.00  0.00    -0.070 Cl
ATOM      8 Cl1  UNL d   1       5.999   3.516   3.881  0.00  0.00    -0.070 Cl
ENDROOT
TORSDOF 0
ENDMDL
