MODEL 1
REMARK minimizedAffinity 6.60903692
REMARK minimizedRMSD -1
REMARK  0 active torsions:
REMARK  status: ('A' for Active; 'I' for Inactive)
ROOT
ATOM      1  C   UNL d   1       0.609   0.771  -1.532  0.00  0.00     0.020 A 
ATOM      2  C1  UNL d   1       0.568  -0.363  -0.722  0.00  0.00     0.020 A 
ATOM      3  C2  UNL d   1       0.918  -1.609  -1.247  0.00  0.00     0.034 A 
ATOM      4  C3  UNL d   1       1.312  -1.723  -2.586  0.00  0.00     0.017 A 
ATOM      5  C4  UNL d   1       1.353  -0.584  -3.397  0.00  0.00     0.017 A 
ATOM      6  C5  UNL d   1       1.001   0.661  -2.866  0.00  0.00     0.034 A 
ATOM      7 Cl   UNL d   1       1.829  -0.645  -5.058  0.00  0.00    -0.070 Cl
ATOM      8 Cl1  UNL d   1       1.732  -3.294  -3.168  0.00  0.00    -0.070 Cl
ENDROOT
TORSDOF 0
ENDMDL
