MODEL 1
REMARK minimizedAffinity 6.9751997
REMARK minimizedRMSD -1
REMARK  0 active torsions:
REMARK  status: ('A' for Active; 'I' for Inactive)
ROOT
ATOM      1  C   UNL d   1       0.385   0.801  -0.780  0.00  0.00     0.020 A 
ATOM      2  C1  UNL d   1       0.765   1.765  -1.714  0.00  0.00     0.020 A 
ATOM      3  C2  UNL d   1       1.242   1.373  -2.967  0.00  0.00     0.034 A 
ATOM      4  C3  UNL d   1       1.340   0.014  -3.289  0.00  0.00     0.017 A 
ATOM      5  C4  UNL d   1       0.958  -0.952  -2.351  0.00  0.00     0.017 A 
ATOM      6  C5  UNL d   1       0.481  -0.554  -1.098  0.00  0.00     0.034 A 
ATOM      7 Cl   UNL d   1       1.050  -2.647  -2.677  0.00  0.00    -0.070 Cl
ATOM      8 Cl1  UNL d   1       1.937  -0.398  -4.857  0.00  0.00    -0.070 Cl
ENDROOT
TORSDOF 0
ENDMDL
