MODEL 1
REMARK minimizedAffinity 1.65132344
REMARK minimizedRMSD -1
REMARK  0 active torsions:
REMARK  status: ('A' for Active; 'I' for Inactive)
ROOT
ATOM      1  C   UNL d   1       0.838   1.985  -2.497  0.00  0.00     0.020 A 
ATOM      2  C1  UNL d   1       1.155   1.408  -3.726  0.00  0.00     0.020 A 
ATOM      3  C2  UNL d   1       1.281   0.022  -3.835  0.00  0.00     0.034 A 
ATOM      4  C3  UNL d   1       1.090  -0.793  -2.713  0.00  0.00     0.017 A 
ATOM      5  C4  UNL d   1       0.772  -0.213  -1.480  0.00  0.00     0.017 A 
ATOM      6  C5  UNL d   1       0.647   1.176  -1.376  0.00  0.00     0.034 A 
ATOM      7 Cl   UNL d   1       0.521  -1.153  -0.051  0.00  0.00    -0.070 Cl
ATOM      8 Cl1  UNL d   1       1.262  -2.500  -2.921  0.00  0.00    -0.070 Cl
ENDROOT
TORSDOF 0
ENDMDL
