MODEL 1
REMARK minimizedAffinity 0.113412939
REMARK minimizedRMSD -1
REMARK  0 active torsions:
REMARK  status: ('A' for Active; 'I' for Inactive)
ROOT
ATOM      1  C   UNL d   1       0.862   1.120  -3.751  0.00  0.00     0.020 A 
ATOM      2  C1  UNL d   1       0.742   1.545  -2.428  0.00  0.00     0.020 A 
ATOM      3  C2  UNL d   1       0.694   0.606  -1.395  0.00  0.00     0.034 A 
ATOM      4  C3  UNL d   1       0.765  -0.761  -1.682  0.00  0.00     0.017 A 
ATOM      5  C4  UNL d   1       0.885  -1.187  -3.010  0.00  0.00     0.017 A 
ATOM      6  C5  UNL d   1       0.933  -0.243  -4.041  0.00  0.00     0.034 A 
ATOM      7 Cl   UNL d   1       0.978  -2.858  -3.443  0.00  0.00    -0.070 Cl
ATOM      8 Cl1  UNL d   1       0.700  -1.866  -0.355  0.00  0.00    -0.070 Cl
ENDROOT
TORSDOF 0
ENDMDL
