MODEL 1
REMARK minimizedAffinity 7.55024672
REMARK minimizedRMSD -1
REMARK  0 active torsions:
REMARK  status: ('A' for Active; 'I' for Inactive)
ROOT
ATOM      1  C   UNL d   1      -3.234   1.676   5.575  0.00  0.00     0.020 A 
ATOM      2  C1  UNL d   1      -4.424   1.084   5.997  0.00  0.00     0.020 A 
ATOM      3  C2  UNL d   1      -4.663  -0.267   5.737  0.00  0.00     0.034 A 
ATOM      4  C3  UNL d   1      -3.710  -1.031   5.053  0.00  0.00     0.017 A 
ATOM      5  C4  UNL d   1      -2.516  -0.436   4.630  0.00  0.00     0.017 A 
ATOM      6  C5  UNL d   1      -2.282   0.917   4.893  0.00  0.00     0.034 A 
ATOM      7 Cl   UNL d   1      -1.293  -1.315   3.781  0.00  0.00    -0.070 Cl
ATOM      8 Cl1  UNL d   1      -4.071  -2.696   4.766  0.00  0.00    -0.070 Cl
ENDROOT
TORSDOF 0
ENDMDL
