MODEL 1
REMARK minimizedAffinity 0.707289934
REMARK minimizedRMSD -1
REMARK  0 active torsions:
REMARK  status: ('A' for Active; 'I' for Inactive)
ROOT
ATOM      1  C   UNL d   1       1.926  -1.588  -4.102  0.00  0.00     0.020 A 
ATOM      2  C1  UNL d   1       1.494  -2.055  -2.861  0.00  0.00     0.020 A 
ATOM      3  C2  UNL d   1       0.950  -1.165  -1.932  0.00  0.00     0.034 A 
ATOM      4  C3  UNL d   1       0.837   0.195  -2.242  0.00  0.00     0.017 A 
ATOM      5  C4  UNL d   1       1.271   0.662  -3.488  0.00  0.00     0.017 A 
ATOM      6  C5  UNL d   1       1.815  -0.233  -4.415  0.00  0.00     0.034 A 
ATOM      7 Cl   UNL d   1       1.164   2.326  -3.943  0.00  0.00    -0.070 Cl
ATOM      8 Cl1  UNL d   1       0.154   1.238  -1.046  0.00  0.00    -0.070 Cl
ENDROOT
TORSDOF 0
ENDMDL
