MODEL 1
REMARK minimizedAffinity 0.590204775
REMARK minimizedRMSD -1
REMARK  0 active torsions:
REMARK  status: ('A' for Active; 'I' for Inactive)
ROOT
ATOM      1  C   UNL d   1       1.629   0.782  -2.854  0.00  0.00     0.020 A 
ATOM      2  C1  UNL d   1       0.969   1.322  -1.751  0.00  0.00     0.020 A 
ATOM      3  C2  UNL d   1       0.285   0.483  -0.868  0.00  0.00     0.034 A 
ATOM      4  C3  UNL d   1       0.260  -0.899  -1.086  0.00  0.00     0.017 A 
ATOM      5  C4  UNL d   1       0.923  -1.440  -2.194  0.00  0.00     0.017 A 
ATOM      6  C5  UNL d   1       1.606  -0.596  -3.075  0.00  0.00     0.034 A 
ATOM      7 Cl   UNL d   1       0.937  -3.135  -2.529  0.00  0.00    -0.070 Cl
ATOM      8 Cl1  UNL d   1      -0.604  -1.876   0.047  0.00  0.00    -0.070 Cl
ENDROOT
TORSDOF 0
ENDMDL
