MODEL 1
REMARK minimizedAffinity 7.80769968
REMARK minimizedRMSD -1
REMARK  0 active torsions:
REMARK  status: ('A' for Active; 'I' for Inactive)
ROOT
ATOM      1  C   UNL d   1       6.000   1.884  -5.999  0.00  0.00     0.020 A 
ATOM      2  C1  UNL d   1       5.213   0.733  -5.999  0.00  0.00     0.020 A 
ATOM      3  C2  UNL d   1       3.898   0.786  -5.532  0.00  0.00     0.034 A 
ATOM      4  C3  UNL d   1       3.365   1.993  -5.064  0.00  0.00     0.017 A 
ATOM      5  C4  UNL d   1       4.156   3.148  -5.065  0.00  0.00     0.017 A 
ATOM      6  C5  UNL d   1       5.472   3.089  -5.533  0.00  0.00     0.034 A 
ATOM      7 Cl   UNL d   1       3.568   4.673  -4.503  0.00  0.00    -0.070 Cl
ATOM      8 Cl1  UNL d   1       1.731   1.986  -4.502  0.00  0.00    -0.070 Cl
ENDROOT
TORSDOF 0
ENDMDL
