MODEL 1
REMARK minimizedAffinity 0.984275937
REMARK minimizedRMSD -1
REMARK  0 active torsions:
REMARK  status: ('A' for Active; 'I' for Inactive)
ROOT
ATOM      1  C   UNL d   1       1.695  -1.403  -4.376  0.00  0.00     0.020 A 
ATOM      2  C1  UNL d   1       1.576  -2.539  -3.576  0.00  0.00     0.020 A 
ATOM      3  C2  UNL d   1       1.128  -2.421  -2.259  0.00  0.00     0.034 A 
ATOM      4  C3  UNL d   1       0.797  -1.165  -1.738  0.00  0.00     0.017 A 
ATOM      5  C4  UNL d   1       0.917  -0.025  -2.541  0.00  0.00     0.017 A 
ATOM      6  C5  UNL d   1       1.366  -0.149  -3.860  0.00  0.00     0.034 A 
ATOM      7 Cl   UNL d   1       0.527   1.558  -1.968  0.00  0.00    -0.070 Cl
ATOM      8 Cl1  UNL d   1       0.249  -1.093  -0.100  0.00  0.00    -0.070 Cl
ENDROOT
TORSDOF 0
ENDMDL
