MODEL 1
REMARK minimizedAffinity 0.58988297
REMARK minimizedRMSD -1
REMARK  0 active torsions:
REMARK  status: ('A' for Active; 'I' for Inactive)
ROOT
ATOM      1  C   UNL d   1       1.342   0.840  -3.413  0.00  0.00     0.020 A 
ATOM      2  C1  UNL d   1       1.234   1.184  -2.066  0.00  0.00     0.020 A 
ATOM      3  C2  UNL d   1       0.994   0.195  -1.110  0.00  0.00     0.034 A 
ATOM      4  C3  UNL d   1       0.861  -1.143  -1.499  0.00  0.00     0.017 A 
ATOM      5  C4  UNL d   1       0.970  -1.488  -2.851  0.00  0.00     0.017 A 
ATOM      6  C5  UNL d   1       1.210  -0.493  -3.804  0.00  0.00     0.034 A 
ATOM      7 Cl   UNL d   1       0.818  -3.117  -3.408  0.00  0.00    -0.070 Cl
ATOM      8 Cl1  UNL d   1       0.566  -2.314  -0.263  0.00  0.00    -0.070 Cl
ENDROOT
TORSDOF 0
ENDMDL
