MODEL 1
REMARK minimizedAffinity 4.36964893
REMARK minimizedRMSD -1
REMARK  0 active torsions:
REMARK  status: ('A' for Active; 'I' for Inactive)
ROOT
ATOM      1  C   UNL d   1       0.529   0.767  -1.152  0.00  0.00     0.020 A 
ATOM      2  C1  UNL d   1      -0.038  -0.435  -0.732  0.00  0.00     0.020 A 
ATOM      3  C2  UNL d   1       0.263  -1.622  -1.405  0.00  0.00     0.034 A 
ATOM      4  C3  UNL d   1       1.133  -1.608  -2.501  0.00  0.00     0.017 A 
ATOM      5  C4  UNL d   1       1.702  -0.401  -2.921  0.00  0.00     0.017 A 
ATOM      6  C5  UNL d   1       1.398   0.784  -2.244  0.00  0.00     0.034 A 
ATOM      7 Cl   UNL d   1       2.785  -0.305  -4.265  0.00  0.00    -0.070 Cl
ATOM      8 Cl1  UNL d   1       1.461  -3.112  -3.286  0.00  0.00    -0.070 Cl
ENDROOT
TORSDOF 0
ENDMDL
