MODEL 1
REMARK minimizedAffinity 0.844939768
REMARK minimizedRMSD -1
REMARK  0 active torsions:
REMARK  status: ('A' for Active; 'I' for Inactive)
ROOT
ATOM      1  C   UNL d   1       1.067  -1.407  -2.946  0.00  0.00     0.020 A 
ATOM      2  C1  UNL d   1       0.909  -1.454  -1.561  0.00  0.00     0.020 A 
ATOM      3  C2  UNL d   1       0.862  -0.270  -0.823  0.00  0.00     0.034 A 
ATOM      4  C3  UNL d   1       0.972   0.967  -1.468  0.00  0.00     0.017 A 
ATOM      5  C4  UNL d   1       1.130   1.014  -2.858  0.00  0.00     0.017 A 
ATOM      6  C5  UNL d   1       1.177  -0.175  -3.593  0.00  0.00     0.034 A 
ATOM      7 Cl   UNL d   1       1.272   2.502  -3.725  0.00  0.00    -0.070 Cl
ATOM      8 Cl1  UNL d   1       0.904   2.391  -0.492  0.00  0.00    -0.070 Cl
ENDROOT
TORSDOF 0
ENDMDL
