MODEL 1
REMARK minimizedAffinity 4.58567381
REMARK minimizedRMSD -1
REMARK  0 active torsions:
REMARK  status: ('A' for Active; 'I' for Inactive)
ROOT
ATOM      1  C   UNL d   1       0.541   0.675  -1.154  0.00  0.00     0.020 A 
ATOM      2  C1  UNL d   1       0.524  -0.512  -0.424  0.00  0.00     0.020 A 
ATOM      3  C2  UNL d   1       0.799  -1.726  -1.058  0.00  0.00     0.034 A 
ATOM      4  C3  UNL d   1       1.092  -1.755  -2.426  0.00  0.00     0.017 A 
ATOM      5  C4  UNL d   1       1.109  -0.562  -3.158  0.00  0.00     0.017 A 
ATOM      6  C5  UNL d   1       0.833   0.650  -2.518  0.00  0.00     0.034 A 
ATOM      7 Cl   UNL d   1       1.462  -0.518  -4.849  0.00  0.00    -0.070 Cl
ATOM      8 Cl1  UNL d   1       1.423  -3.291  -3.145  0.00  0.00    -0.070 Cl
ENDROOT
TORSDOF 0
ENDMDL
