MODEL 1
REMARK minimizedAffinity -0.911088049
REMARK minimizedRMSD -1
REMARK  0 active torsions:
REMARK  status: ('A' for Active; 'I' for Inactive)
ROOT
ATOM      1  C   UNL d   1      -2.078  -2.302   2.306  0.00  0.00    -0.002 A 
ATOM      2  C1  UNL d   1      -1.864  -3.118   1.204  0.00  0.00     0.010 A 
ATOM      3  C2  UNL d   1      -1.169  -2.639   0.091  0.00  0.00     0.041 A 
ATOM      4  C3  UNL d   1      -0.688  -1.315   0.105  0.00  0.00    -0.075 A 
ATOM      5  S   UNL d   1       0.189  -0.514  -1.144  0.00  0.00     0.015 SA
ATOM      6  C4  UNL d   1       0.300   0.929  -0.244  0.00  0.00     0.022 A 
ATOM      7  C5  UNL d   1      -0.312   0.820   0.982  0.00  0.00     0.026 A 
ATOM      8  C6  UNL d   1      -0.891  -0.475   1.204  0.00  0.00    -0.082 A 
ATOM      9  C7  UNL d   1      -1.600  -0.989   2.317  0.00  0.00     0.045 A 
ENDROOT
TORSDOF 0
ENDMDL
