MODEL 1
REMARK minimizedAffinity 1.955706
REMARK minimizedRMSD -1
REMARK  0 active torsions:
REMARK  status: ('A' for Active; 'I' for Inactive)
ROOT
ATOM      1  C   UNL d   1      -2.345  -0.708   1.571  0.00  0.00    -0.002 A 
ATOM      2  C1  UNL d   1      -2.798  -2.013   1.445  0.00  0.00     0.010 A 
ATOM      3  C2  UNL d   1      -2.035  -2.969   0.772  0.00  0.00     0.041 A 
ATOM      4  C3  UNL d   1      -0.794  -2.587   0.224  0.00  0.00    -0.075 A 
ATOM      5  S   UNL d   1       0.312  -3.587  -0.642  0.00  0.00     0.015 SA
ATOM      6  C4  UNL d   1       1.413  -2.305  -0.863  0.00  0.00     0.022 A 
ATOM      7  C5  UNL d   1       0.964  -1.136  -0.298  0.00  0.00     0.026 A 
ATOM      8  C6  UNL d   1      -0.315  -1.279   0.339  0.00  0.00    -0.082 A 
ATOM      9  C7  UNL d   1      -1.114  -0.333   1.027  0.00  0.00     0.045 A 
ENDROOT
TORSDOF 0
ENDMDL
