MODEL 1
REMARK minimizedAffinity -2.24397326
REMARK minimizedRMSD -1
REMARK  0 active torsions:
REMARK  status: ('A' for Active; 'I' for Inactive)
ROOT
ATOM      1  C   UNL d   1       0.839  -3.340  -1.141  0.00  0.00    -0.002 A 
ATOM      2  C1  UNL d   1      -0.323  -3.896  -0.625  0.00  0.00     0.010 A 
ATOM      3  C2  UNL d   1      -1.288  -3.089  -0.020  0.00  0.00     0.041 A 
ATOM      4  C3  UNL d   1      -1.065  -1.701   0.057  0.00  0.00    -0.075 A 
ATOM      5  S   UNL d   1      -2.108  -0.517   0.753  0.00  0.00     0.015 SA
ATOM      6  C4  UNL d   1      -1.035   0.755   0.381  0.00  0.00     0.022 A 
ATOM      7  C5  UNL d   1       0.096   0.305  -0.258  0.00  0.00     0.026 A 
ATOM      8  C6  UNL d   1       0.097  -1.117  -0.456  0.00  0.00    -0.082 A 
ATOM      9  C7  UNL d   1       1.058  -1.962  -1.063  0.00  0.00     0.045 A 
ENDROOT
TORSDOF 0
ENDMDL
