MODEL 1
REMARK minimizedAffinity -3.12434673
REMARK minimizedRMSD -1
REMARK  0 active torsions:
REMARK  status: ('A' for Active; 'I' for Inactive)
ROOT
ATOM      1  C   UNL d   1      -1.879  -1.864   1.429  0.00  0.00    -0.002 A 
ATOM      2  C1  UNL d   1      -0.897  -2.573   0.753  0.00  0.00     0.010 A 
ATOM      3  C2  UNL d   1       0.101  -1.902   0.042  0.00  0.00     0.041 A 
ATOM      4  C3  UNL d   1       0.095  -0.494   0.025  0.00  0.00    -0.075 A 
ATOM      5  S   UNL d   1       1.218   0.540  -0.778  0.00  0.00     0.015 SA
ATOM      6  C4  UNL d   1       0.420   1.947  -0.241  0.00  0.00     0.022 A 
ATOM      7  C5  UNL d   1      -0.678   1.654   0.533  0.00  0.00     0.026 A 
ATOM      8  C6  UNL d   1      -0.883   0.242   0.699  0.00  0.00    -0.082 A 
ATOM      9  C7  UNL d   1      -1.881  -0.466   1.410  0.00  0.00     0.045 A 
ENDROOT
TORSDOF 0
ENDMDL
