MODEL 1
REMARK minimizedAffinity -2.81738639
REMARK minimizedRMSD -1
REMARK  0 active torsions:
REMARK  status: ('A' for Active; 'I' for Inactive)
ROOT
ATOM      1  C   UNL d   1      -2.211  -2.346   1.256  0.00  0.00    -0.002 A 
ATOM      2  C1  UNL d   1      -1.452  -3.211   0.480  0.00  0.00     0.010 A 
ATOM      3  C2  UNL d   1      -0.404  -2.726  -0.305  0.00  0.00     0.041 A 
ATOM      4  C3  UNL d   1      -0.128  -1.345  -0.296  0.00  0.00    -0.075 A 
ATOM      5  S   UNL d   1       1.107  -0.526  -1.178  0.00  0.00     0.015 SA
ATOM      6  C4  UNL d   1       0.657   0.991  -0.544  0.00  0.00     0.022 A 
ATOM      7  C5  UNL d   1      -0.408   0.893   0.320  0.00  0.00     0.026 A 
ATOM      8  C6  UNL d   1      -0.877  -0.454   0.478  0.00  0.00    -0.082 A 
ATOM      9  C7  UNL d   1      -1.934  -0.977   1.262  0.00  0.00     0.045 A 
ENDROOT
TORSDOF 0
ENDMDL
