MODEL 1
REMARK minimizedAffinity -1.9764936
REMARK minimizedRMSD -1
REMARK  0 active torsions:
REMARK  status: ('A' for Active; 'I' for Inactive)
ROOT
ATOM      1  C   UNL d   1      -1.294  -2.478   1.322  0.00  0.00    -0.002 A 
ATOM      2  C1  UNL d   1      -0.380  -2.967   0.399  0.00  0.00     0.010 A 
ATOM      3  C2  UNL d   1       0.295  -2.099  -0.461  0.00  0.00     0.041 A 
ATOM      4  C3  UNL d   1       0.035  -0.717  -0.376  0.00  0.00    -0.075 A 
ATOM      5  S   UNL d   1       0.745   0.534  -1.327  0.00  0.00     0.015 SA
ATOM      6  C4  UNL d   1      -0.148   1.748  -0.531  0.00  0.00     0.022 A 
ATOM      7  C5  UNL d   1      -0.973   1.229   0.440  0.00  0.00     0.026 A 
ATOM      8  C6  UNL d   1      -0.880  -0.200   0.545  0.00  0.00    -0.082 A 
ATOM      9  C7  UNL d   1      -1.549  -1.106   1.402  0.00  0.00     0.045 A 
ENDROOT
TORSDOF 0
ENDMDL
