MODEL 1
REMARK minimizedAffinity 0.159481168
REMARK minimizedRMSD -1
REMARK  0 active torsions:
REMARK  status: ('A' for Active; 'I' for Inactive)
ROOT
ATOM      1  C   UNL d   1       0.662   1.128   0.327  0.00  0.00    -0.002 A 
ATOM      2  C1  UNL d   1      -0.673   1.275   0.676  0.00  0.00     0.010 A 
ATOM      3  C2  UNL d   1      -1.544   0.185   0.627  0.00  0.00     0.041 A 
ATOM      4  C3  UNL d   1      -1.045  -1.068   0.220  0.00  0.00    -0.075 A 
ATOM      5  S   UNL d   1      -1.927  -2.543   0.085  0.00  0.00     0.015 SA
ATOM      6  C4  UNL d   1      -0.552  -3.404  -0.437  0.00  0.00     0.022 A 
ATOM      7  C5  UNL d   1       0.561  -2.601  -0.513  0.00  0.00     0.026 A 
ATOM      8  C6  UNL d   1       0.295  -1.242  -0.135  0.00  0.00    -0.082 A 
ATOM      9  C7  UNL d   1       1.153  -0.117  -0.076  0.00  0.00     0.045 A 
ENDROOT
TORSDOF 0
ENDMDL
