MODEL 1
REMARK minimizedAffinity -2.68741941
REMARK minimizedRMSD -1
REMARK  0 active torsions:
REMARK  status: ('A' for Active; 'I' for Inactive)
ROOT
ATOM      1  C   UNL d   1      -0.495  -3.320   0.473  0.00  0.00    -0.002 A 
ATOM      2  C1  UNL d   1       0.654  -3.091  -0.271  0.00  0.00     0.010 A 
ATOM      3  C2  UNL d   1       1.071  -1.788  -0.548  0.00  0.00     0.041 A 
ATOM      4  C3  UNL d   1       0.309  -0.709  -0.060  0.00  0.00    -0.075 A 
ATOM      5  S   UNL d   1       0.629   0.972  -0.274  0.00  0.00     0.015 SA
ATOM      6  C4  UNL d   1      -0.752   1.425   0.617  0.00  0.00     0.022 A 
ATOM      7  C5  UNL d   1      -1.451   0.333   1.074  0.00  0.00     0.026 A 
ATOM      8  C6  UNL d   1      -0.851  -0.915   0.692  0.00  0.00    -0.082 A 
ATOM      9  C7  UNL d   1      -1.249  -2.247   0.956  0.00  0.00     0.045 A 
ENDROOT
TORSDOF 0
ENDMDL
