MODEL 1
REMARK minimizedAffinity -3.18425703
REMARK minimizedRMSD -1
REMARK  0 active torsions:
REMARK  status: ('A' for Active; 'I' for Inactive)
ROOT
ATOM      1  C   UNL d   1      -0.787  -3.989  -0.006  0.00  0.00    -0.002 A 
ATOM      2  C1  UNL d   1      -0.098  -3.623  -1.153  0.00  0.00     0.010 A 
ATOM      3  C2  UNL d   1       0.233  -2.287  -1.387  0.00  0.00     0.041 A 
ATOM      4  C3  UNL d   1      -0.143  -1.315  -0.439  0.00  0.00    -0.075 A 
ATOM      5  S   UNL d   1       0.156   0.381  -0.514  0.00  0.00     0.015 SA
ATOM      6  C4  UNL d   1      -0.624   0.660   0.976  0.00  0.00     0.022 A 
ATOM      7  C5  UNL d   1      -1.106  -0.502   1.531  0.00  0.00     0.026 A 
ATOM      8  C6  UNL d   1      -0.837  -1.659   0.725  0.00  0.00    -0.082 A 
ATOM      9  C7  UNL d   1      -1.158  -3.022   0.933  0.00  0.00     0.045 A 
ENDROOT
TORSDOF 0
ENDMDL
