MODEL 1
REMARK minimizedAffinity -4.70037651
REMARK minimizedRMSD -1
REMARK  0 active torsions:
REMARK  status: ('A' for Active; 'I' for Inactive)
ROOT
ATOM      1  C   UNL d   1      -0.175  -3.583   0.092  0.00  0.00    -0.002 A 
ATOM      2  C1  UNL d   1      -0.535  -2.766   1.155  0.00  0.00     0.010 A 
ATOM      3  C2  UNL d   1      -0.558  -1.378   1.008  0.00  0.00     0.041 A 
ATOM      4  C3  UNL d   1      -0.211  -0.818  -0.237  0.00  0.00    -0.075 A 
ATOM      5  S   UNL d   1      -0.169   0.855  -0.650  0.00  0.00     0.015 SA
ATOM      6  C4  UNL d   1       0.327   0.526  -2.247  0.00  0.00     0.022 A 
ATOM      7  C5  UNL d   1       0.463  -0.823  -2.477  0.00  0.00     0.026 A 
ATOM      8  C6  UNL d   1       0.154  -1.620  -1.323  0.00  0.00    -0.082 A 
ATOM      9  C7  UNL d   1       0.168  -3.024  -1.142  0.00  0.00     0.045 A 
ENDROOT
TORSDOF 0
ENDMDL
