MODEL 1
REMARK minimizedAffinity -5.84927511
REMARK minimizedRMSD -1
REMARK  1 active torsions:
REMARK  status: ('A' for Active; 'I' for Inactive)
REMARK    1  A    between atoms: C1_2  and  C2_3 
ROOT
ATOM      1  C2  UNL d   1      -0.143   0.742   0.141  0.00  0.00    -0.077 A 
ATOM      2  C3  UNL d   1       0.252   1.669  -0.834  0.00  0.00     0.002 A 
ATOM      3  C4  UNL d   1      -0.205   2.988  -0.780  0.00  0.00     0.002 A 
ATOM      4  C5  UNL d   1      -1.054   3.392   0.247  0.00  0.00    -0.004 A 
ATOM      5  C6  UNL d   1      -1.454   2.476   1.220  0.00  0.00     0.002 A 
ATOM      6  C7  UNL d   1      -1.000   1.158   1.168  0.00  0.00     0.002 A 
ENDROOT
BRANCH   1   7
ATOM      7  C1  UNL d   1       0.387  -0.668   0.112  0.00  0.00     0.055 C 
ATOM      8  C   UNL d   1       0.050  -1.360  -1.200  0.00  0.00     0.019 C 
ENDBRANCH   1   7
TORSDOF 1
ENDMDL
