MODEL 1
REMARK minimizedAffinity -5.22844315
REMARK minimizedRMSD -1
REMARK  1 active torsions:
REMARK  status: ('A' for Active; 'I' for Inactive)
REMARK    1  A    between atoms: C1_2  and  C2_3 
ROOT
ATOM      1  C2  UNL d   1      -0.064   0.063  -0.189  0.00  0.00    -0.077 A 
ATOM      2  C3  UNL d   1      -0.808   1.200  -0.535  0.00  0.00     0.002 A 
ATOM      3  C4  UNL d   1      -1.592   1.849   0.420  0.00  0.00     0.002 A 
ATOM      4  C5  UNL d   1      -1.637   1.371   1.728  0.00  0.00    -0.004 A 
ATOM      5  C6  UNL d   1      -0.903   0.240   2.082  0.00  0.00     0.002 A 
ATOM      6  C7  UNL d   1      -0.119  -0.411   1.128  0.00  0.00     0.002 A 
ENDROOT
BRANCH   1   7
ATOM      7  C1  UNL d   1       0.821  -0.610  -1.205  0.00  0.00     0.055 C 
ATOM      8  C   UNL d   1       0.468  -2.082  -1.359  0.00  0.00     0.019 C 
ENDBRANCH   1   7
TORSDOF 1
ENDMDL
