MODEL 1
REMARK minimizedAffinity -4.48962688
REMARK minimizedRMSD -1
REMARK  1 active torsions:
REMARK  status: ('A' for Active; 'I' for Inactive)
REMARK    1  A    between atoms: C1_2  and  C2_3 
ROOT
ATOM      1  C2  UNL d   1       0.287  -0.285  -0.481  0.00  0.00    -0.077 A 
ATOM      2  C3  UNL d   1      -0.091  -0.625   0.825  0.00  0.00     0.002 A 
ATOM      3  C4  UNL d   1      -0.937   0.211   1.556  0.00  0.00     0.002 A 
ATOM      4  C5  UNL d   1      -1.415   1.390   0.988  0.00  0.00    -0.004 A 
ATOM      5  C6  UNL d   1      -1.043   1.738  -0.310  0.00  0.00     0.002 A 
ATOM      6  C7  UNL d   1      -0.196   0.904  -1.041  0.00  0.00     0.002 A 
ENDROOT
BRANCH   1   7
ATOM      7  C1  UNL d   1       1.160  -1.210  -1.289  0.00  0.00     0.055 C 
ATOM      8  C   UNL d   1       0.388  -1.833  -2.442  0.00  0.00     0.019 C 
ENDBRANCH   1   7
TORSDOF 1
ENDMDL
