MODEL 1
REMARK minimizedAffinity -4.85873842
REMARK minimizedRMSD -1
REMARK  1 active torsions:
REMARK  status: ('A' for Active; 'I' for Inactive)
REMARK    1  A    between atoms: C1_2  and  C2_3 
ROOT
ATOM      1  C2  UNL d   1      -0.292   1.007  -0.089  0.00  0.00    -0.077 A 
ATOM      2  C3  UNL d   1       0.106   2.022  -0.971  0.00  0.00     0.002 A 
ATOM      3  C4  UNL d   1      -0.447   3.300  -0.872  0.00  0.00     0.002 A 
ATOM      4  C5  UNL d   1      -1.398   3.576   0.109  0.00  0.00    -0.004 A 
ATOM      5  C6  UNL d   1      -1.801   2.572   0.989  0.00  0.00     0.002 A 
ATOM      6  C7  UNL d   1      -1.250   1.294   0.891  0.00  0.00     0.002 A 
ENDROOT
BRANCH   1   7
ATOM      7  C1  UNL d   1       0.340  -0.359  -0.163  0.00  0.00     0.055 C 
ATOM      8  C   UNL d   1       0.107  -1.146   1.118  0.00  0.00     0.019 C 
ENDBRANCH   1   7
TORSDOF 1
ENDMDL
