MODEL 1
REMARK minimizedAffinity -5.65143919
REMARK minimizedRMSD -1
REMARK  1 active torsions:
REMARK  status: ('A' for Active; 'I' for Inactive)
REMARK    1  A    between atoms: C1_2  and  C2_3 
ROOT
ATOM      1  C2  UNL d   1      -0.135  -0.117   0.219  0.00  0.00    -0.077 A 
ATOM      2  C3  UNL d   1      -0.236  -0.864   1.401  0.00  0.00     0.002 A 
ATOM      3  C4  UNL d   1      -1.158  -0.504   2.386  0.00  0.00     0.002 A 
ATOM      4  C5  UNL d   1      -1.988   0.599   2.197  0.00  0.00    -0.004 A 
ATOM      5  C6  UNL d   1      -1.893   1.348   1.025  0.00  0.00     0.002 A 
ATOM      6  C7  UNL d   1      -0.971   0.992   0.040  0.00  0.00     0.002 A 
ENDROOT
BRANCH   1   7
ATOM      7  C1  UNL d   1       0.825  -0.532  -0.866  0.00  0.00     0.055 C 
ATOM      8  C   UNL d   1       0.763  -2.032  -1.116  0.00  0.00     0.019 C 
ENDBRANCH   1   7
TORSDOF 1
ENDMDL
