MODEL 1
REMARK minimizedAffinity -3.16528964
REMARK minimizedRMSD -1
REMARK  1 active torsions:
REMARK  status: ('A' for Active; 'I' for Inactive)
REMARK    1  A    between atoms: C1_2  and  C2_3 
ROOT
ATOM      1  C2  UNL d   1       0.768  -0.896  -0.691  0.00  0.00    -0.077 A 
ATOM      2  C3  UNL d   1      -0.010  -0.742   0.465  0.00  0.00     0.002 A 
ATOM      3  C4  UNL d   1      -0.710   0.444   0.693  0.00  0.00     0.002 A 
ATOM      4  C5  UNL d   1      -0.643   1.483  -0.233  0.00  0.00    -0.004 A 
ATOM      5  C6  UNL d   1       0.130   1.341  -1.385  0.00  0.00     0.002 A 
ATOM      6  C7  UNL d   1       0.832   0.156  -1.613  0.00  0.00     0.002 A 
ENDROOT
BRANCH   1   7
ATOM      7  C1  UNL d   1       1.484  -2.193  -0.962  0.00  0.00     0.055 C 
ATOM      8  C   UNL d   1       0.747  -3.026  -2.000  0.00  0.00     0.019 C 
ENDBRANCH   1   7
TORSDOF 1
ENDMDL
