MODEL 1
REMARK minimizedAffinity -3.95987296
REMARK minimizedRMSD -1
REMARK  1 active torsions:
REMARK  status: ('A' for Active; 'I' for Inactive)
REMARK    1  A    between atoms: C1_2  and  C2_3 
ROOT
ATOM      1  C2  UNL d   1      -0.299  -0.001   0.167  0.00  0.00    -0.077 A 
ATOM      2  C3  UNL d   1      -0.678  -0.098   1.513  0.00  0.00     0.002 A 
ATOM      3  C4  UNL d   1      -1.542   0.846   2.073  0.00  0.00     0.002 A 
ATOM      4  C5  UNL d   1      -2.036   1.890   1.294  0.00  0.00    -0.004 A 
ATOM      5  C6  UNL d   1      -1.663   1.996  -0.046  0.00  0.00     0.002 A 
ATOM      6  C7  UNL d   1      -0.800   1.054  -0.607  0.00  0.00     0.002 A 
ENDROOT
BRANCH   1   7
ATOM      7  C1  UNL d   1       0.593  -1.045  -0.452  0.00  0.00     0.055 C 
ATOM      8  C   UNL d   1      -0.120  -1.788  -1.573  0.00  0.00     0.019 C 
ENDBRANCH   1   7
TORSDOF 1
ENDMDL
