MODEL 1
REMARK minimizedAffinity -2.9880867
REMARK minimizedRMSD -1
REMARK  1 active torsions:
REMARK  status: ('A' for Active; 'I' for Inactive)
REMARK    1  A    between atoms: C1_2  and  C2_3 
ROOT
ATOM      1  C2  UNL d   1       0.256   0.199   0.361  0.00  0.00    -0.077 A 
ATOM      2  C3  UNL d   1      -0.207  -0.683   1.347  0.00  0.00     0.002 A 
ATOM      3  C4  UNL d   1      -1.111  -0.246   2.318  0.00  0.00     0.002 A 
ATOM      4  C5  UNL d   1      -1.562   1.072   2.310  0.00  0.00    -0.004 A 
ATOM      5  C6  UNL d   1      -1.106   1.958   1.334  0.00  0.00     0.002 A 
ATOM      6  C7  UNL d   1      -0.202   1.523   0.364  0.00  0.00     0.002 A 
ENDROOT
BRANCH   1   7
ATOM      7  C1  UNL d   1       1.192  -0.283  -0.716  0.00  0.00     0.055 C 
ATOM      8  C   UNL d   1       1.242  -1.803  -0.767  0.00  0.00     0.019 C 
ENDBRANCH   1   7
TORSDOF 1
ENDMDL
