MODEL 1
REMARK minimizedAffinity -3.74901319
REMARK minimizedRMSD -1
REMARK  1 active torsions:
REMARK  status: ('A' for Active; 'I' for Inactive)
REMARK    1  A    between atoms: C1_2  and  C2_3 
ROOT
ATOM      1  C2  UNL d   1      -0.844   1.357   0.848  0.00  0.00    -0.077 A 
ATOM      2  C3  UNL d   1      -0.425   0.021   0.918  0.00  0.00     0.002 A 
ATOM      3  C4  UNL d   1       0.585  -0.448   0.075  0.00  0.00     0.002 A 
ATOM      4  C5  UNL d   1       1.186   0.413  -0.841  0.00  0.00    -0.004 A 
ATOM      5  C6  UNL d   1       0.774   1.743  -0.920  0.00  0.00     0.002 A 
ATOM      6  C7  UNL d   1      -0.235   2.213  -0.079  0.00  0.00     0.002 A 
ENDROOT
BRANCH   1   7
ATOM      7  C1  UNL d   1      -1.898   1.877   1.790  0.00  0.00     0.055 C 
ATOM      8  C   UNL d   1      -2.450   3.215   1.319  0.00  0.00     0.019 C 
ENDBRANCH   1   7
TORSDOF 1
ENDMDL
