MODEL 1
REMARK minimizedAffinity -4.02753687
REMARK minimizedRMSD -1
REMARK  1 active torsions:
REMARK  status: ('A' for Active; 'I' for Inactive)
REMARK    1  A    between atoms: C1_2  and  C2_3 
ROOT
ATOM      1  C2  UNL d   1      -0.215   0.402  -0.102  0.00  0.00    -0.077 A 
ATOM      2  C3  UNL d   1      -1.269   1.132  -0.670  0.00  0.00     0.002 A 
ATOM      3  C4  UNL d   1      -2.233   1.730   0.144  0.00  0.00     0.002 A 
ATOM      4  C5  UNL d   1      -2.151   1.607   1.530  0.00  0.00    -0.004 A 
ATOM      5  C6  UNL d   1      -1.108   0.881   2.104  0.00  0.00     0.002 A 
ATOM      6  C7  UNL d   1      -0.144   0.283   1.292  0.00  0.00     0.002 A 
ENDROOT
BRANCH   1   7
ATOM      7  C1  UNL d   1       0.853  -0.201  -0.976  0.00  0.00     0.055 C 
ATOM      8  C   UNL d   1       1.886  -0.953  -0.149  0.00  0.00     0.019 C 
ENDBRANCH   1   7
TORSDOF 1
ENDMDL
