MODEL 1
REMARK minimizedAffinity 3.80077505
REMARK minimizedRMSD -1
REMARK  0 active torsions:
REMARK  status: ('A' for Active; 'I' for Inactive)
ROOT
ATOM      1  C   UNL d   1       2.162   1.742   1.935  0.00  0.00     0.078 C 
ATOM      2  C1  UNL d   1       0.735   1.307   1.780  0.00  0.00    -0.077 A 
ATOM      3  C2  UNL d   1       0.311   0.621   0.635  0.00  0.00    -0.001 A 
ATOM      4  C3  UNL d   1      -1.022   0.231   0.499  0.00  0.00     0.003 A 
ATOM      5  C4  UNL d   1      -1.943   0.523   1.504  0.00  0.00    -0.005 A 
ATOM      6  C5  UNL d   1      -1.530   1.208   2.646  0.00  0.00     0.003 A 
ATOM      7  C6  UNL d   1      -0.197   1.599   2.783  0.00  0.00    -0.001 A 
ENDROOT
TORSDOF 0
ENDMDL
