MODEL 1
REMARK minimizedAffinity 0.246840894
REMARK minimizedRMSD -1
REMARK  0 active torsions:
REMARK  status: ('A' for Active; 'I' for Inactive)
ROOT
ATOM      1  C   UNL d   1      -0.312   1.417  -1.322  0.00  0.00     0.078 C 
ATOM      2  C1  UNL d   1      -0.633   0.955   0.068  0.00  0.00    -0.077 A 
ATOM      3  C2  UNL d   1      -0.204   1.680   1.187  0.00  0.00    -0.001 A 
ATOM      4  C3  UNL d   1      -0.502   1.232   2.475  0.00  0.00     0.003 A 
ATOM      5  C4  UNL d   1      -1.228   0.057   2.657  0.00  0.00    -0.005 A 
ATOM      6  C5  UNL d   1      -1.656  -0.673   1.550  0.00  0.00     0.003 A 
ATOM      7  C6  UNL d   1      -1.360  -0.227   0.261  0.00  0.00    -0.001 A 
ENDROOT
TORSDOF 0
ENDMDL
