MODEL 1
REMARK minimizedAffinity 3.13621974
REMARK minimizedRMSD -1
REMARK  0 active torsions:
REMARK  status: ('A' for Active; 'I' for Inactive)
ROOT
ATOM      1  C   UNL d   1      -5.929  -2.190   0.776  0.00  0.00     0.078 C 
ATOM      2  C1  UNL d   1      -5.243  -3.520   0.675  0.00  0.00    -0.077 A 
ATOM      3  C2  UNL d   1      -5.949  -4.668   0.294  0.00  0.00    -0.001 A 
ATOM      4  C3  UNL d   1      -5.300  -5.901   0.213  0.00  0.00     0.003 A 
ATOM      5  C4  UNL d   1      -3.943  -5.998   0.514  0.00  0.00    -0.005 A 
ATOM      6  C5  UNL d   1      -3.233  -4.861   0.896  0.00  0.00     0.003 A 
ATOM      7  C6  UNL d   1      -3.880  -3.628   0.977  0.00  0.00    -0.001 A 
ENDROOT
TORSDOF 0
ENDMDL
