MODEL 1
REMARK minimizedAffinity 1.55623186
REMARK minimizedRMSD -1
REMARK  0 active torsions:
REMARK  status: ('A' for Active; 'I' for Inactive)
ROOT
ATOM      1  C   UNL d   1      -1.093   3.115   3.400  0.00  0.00     0.078 C 
ATOM      2  C1  UNL d   1      -0.897   2.075   2.339  0.00  0.00    -0.077 A 
ATOM      3  C2  UNL d   1       0.373   1.816   1.809  0.00  0.00    -0.001 A 
ATOM      4  C3  UNL d   1       0.540   0.851   0.814  0.00  0.00     0.003 A 
ATOM      5  C4  UNL d   1      -0.559   0.138   0.340  0.00  0.00    -0.005 A 
ATOM      6  C5  UNL d   1      -1.827   0.390   0.859  0.00  0.00     0.003 A 
ATOM      7  C6  UNL d   1      -1.996   1.355   1.854  0.00  0.00    -0.001 A 
ENDROOT
TORSDOF 0
ENDMDL
