MODEL 1
REMARK minimizedAffinity -0.655026376
REMARK minimizedRMSD -1
REMARK  0 active torsions:
REMARK  status: ('A' for Active; 'I' for Inactive)
ROOT
ATOM      1  C   UNL d   1      -2.733  -5.989   2.517  0.00  0.00     0.078 C 
ATOM      2  C1  UNL d   1      -1.276  -5.999   2.868  0.00  0.00    -0.077 A 
ATOM      3  C2  UNL d   1      -0.856  -5.996   4.204  0.00  0.00    -0.001 A 
ATOM      4  C3  UNL d   1       0.504  -5.996   4.517  0.00  0.00     0.003 A 
ATOM      5  C4  UNL d   1       1.456  -5.997   3.499  0.00  0.00    -0.005 A 
ATOM      6  C5  UNL d   1       1.048  -5.998   2.167  0.00  0.00     0.003 A 
ATOM      7  C6  UNL d   1      -0.312  -5.998   1.852  0.00  0.00    -0.001 A 
ENDROOT
TORSDOF 0
ENDMDL
