MODEL 1
REMARK minimizedAffinity 2.13824916
REMARK minimizedRMSD -1
REMARK  0 active torsions:
REMARK  status: ('A' for Active; 'I' for Inactive)
ROOT
ATOM      1  C   UNL d   1      -1.525  -5.973   1.158  0.00  0.00     0.078 C 
ATOM      2  C1  UNL d   1      -0.468  -5.988   2.221  0.00  0.00    -0.077 A 
ATOM      3  C2  UNL d   1      -0.810  -5.990   3.578  0.00  0.00    -0.001 A 
ATOM      4  C3  UNL d   1       0.186  -5.994   4.557  0.00  0.00     0.003 A 
ATOM      5  C4  UNL d   1       1.529  -5.995   4.188  0.00  0.00    -0.005 A 
ATOM      6  C5  UNL d   1       1.879  -5.991   2.840  0.00  0.00     0.003 A 
ATOM      7  C6  UNL d   1       0.886  -5.987   1.860  0.00  0.00    -0.001 A 
ENDROOT
TORSDOF 0
ENDMDL
