MODEL 1
REMARK minimizedAffinity 4.74828196
REMARK minimizedRMSD -1
REMARK  0 active torsions:
REMARK  status: ('A' for Active; 'I' for Inactive)
ROOT
ATOM      1  C   UNL d   1       0.840  -1.944  -3.881  0.00  0.00     0.078 C 
ATOM      2  C1  UNL d   1      -0.566  -2.238  -3.451  0.00  0.00    -0.077 A 
ATOM      3  C2  UNL d   1      -1.324  -1.283  -2.762  0.00  0.00    -0.001 A 
ATOM      4  C3  UNL d   1      -2.628  -1.574  -2.359  0.00  0.00     0.003 A 
ATOM      5  C4  UNL d   1      -3.186  -2.819  -2.639  0.00  0.00    -0.005 A 
ATOM      6  C5  UNL d   1      -2.439  -3.777  -3.322  0.00  0.00     0.003 A 
ATOM      7  C6  UNL d   1      -1.134  -3.488  -3.726  0.00  0.00    -0.001 A 
ENDROOT
TORSDOF 0
ENDMDL
