MODEL 1
REMARK minimizedAffinity 7.21813631
REMARK minimizedRMSD -1
REMARK  0 active torsions:
REMARK  status: ('A' for Active; 'I' for Inactive)
ROOT
ATOM      1  C   UNL d   1      -4.447  -5.968   2.629  0.00  0.00     0.078 C 
ATOM      2  C1  UNL d   1      -2.986  -5.962   2.292  0.00  0.00    -0.077 A 
ATOM      3  C2  UNL d   1      -2.553  -5.962   0.960  0.00  0.00    -0.001 A 
ATOM      4  C3  UNL d   1      -1.190  -5.966   0.661  0.00  0.00     0.003 A 
ATOM      5  C4  UNL d   1      -0.248  -5.971   1.688  0.00  0.00    -0.005 A 
ATOM      6  C5  UNL d   1      -0.669  -5.973   3.016  0.00  0.00     0.003 A 
ATOM      7  C6  UNL d   1      -2.032  -5.969   3.317  0.00  0.00    -0.001 A 
ENDROOT
TORSDOF 0
ENDMDL
