MODEL 1
REMARK minimizedAffinity 1.1978786
REMARK minimizedRMSD -1
REMARK  0 active torsions:
REMARK  status: ('A' for Active; 'I' for Inactive)
ROOT
ATOM      1  C   UNL d   1       1.558  -5.999   5.938  0.00  0.00     0.078 C 
ATOM      2  C1  UNL d   1       1.076  -5.990   4.518  0.00  0.00    -0.077 A 
ATOM      3  C2  UNL d   1      -0.293  -5.997   4.221  0.00  0.00    -0.001 A 
ATOM      4  C3  UNL d   1      -0.727  -5.998   2.894  0.00  0.00     0.003 A 
ATOM      5  C4  UNL d   1       0.201  -5.993   1.854  0.00  0.00    -0.005 A 
ATOM      6  C5  UNL d   1       1.565  -5.988   2.140  0.00  0.00     0.003 A 
ATOM      7  C6  UNL d   1       2.001  -5.987   3.466  0.00  0.00    -0.001 A 
ENDROOT
TORSDOF 0
ENDMDL
