MODEL 1
REMARK minimizedAffinity 6.65894222
REMARK minimizedRMSD -1
REMARK  0 active torsions:
REMARK  status: ('A' for Active; 'I' for Inactive)
ROOT
ATOM      1  C   UNL d   1      -2.185  -5.989   0.707  0.00  0.00     0.078 C 
ATOM      2  C1  UNL d   1      -0.943  -5.999   1.547  0.00  0.00    -0.077 A 
ATOM      3  C2  UNL d   1      -1.017  -5.999   2.945  0.00  0.00    -0.001 A 
ATOM      4  C3  UNL d   1       0.148  -5.998   3.714  0.00  0.00     0.003 A 
ATOM      5  C4  UNL d   1       1.396  -5.996   3.094  0.00  0.00    -0.005 A 
ATOM      6  C5  UNL d   1       1.480  -5.994   1.703  0.00  0.00     0.003 A 
ATOM      7  C6  UNL d   1       0.316  -5.995   0.933  0.00  0.00    -0.001 A 
ENDROOT
TORSDOF 0
ENDMDL
