MODEL 1
REMARK minimizedAffinity -1.1289916
REMARK minimizedRMSD -1
REMARK  0 active torsions:
REMARK  status: ('A' for Active; 'I' for Inactive)
ROOT
ATOM      1  C   UNL d   1      -1.783  -5.989   0.505  0.00  0.00     0.078 C 
ATOM      2  C1  UNL d   1      -0.749  -5.997   1.590  0.00  0.00    -0.077 A 
ATOM      3  C2  UNL d   1      -1.120  -5.989   2.940  0.00  0.00    -0.001 A 
ATOM      4  C3  UNL d   1      -0.147  -5.987   3.940  0.00  0.00     0.003 A 
ATOM      5  C4  UNL d   1       1.205  -5.992   3.601  0.00  0.00    -0.005 A 
ATOM      6  C5  UNL d   1       1.584  -5.998   2.261  0.00  0.00     0.003 A 
ATOM      7  C6  UNL d   1       0.612  -6.000   1.259  0.00  0.00    -0.001 A 
ENDROOT
TORSDOF 0
ENDMDL
