MODEL 1
REMARK minimizedAffinity 7.27685642
REMARK minimizedRMSD -1
REMARK  0 active torsions:
REMARK  status: ('A' for Active; 'I' for Inactive)
ROOT
ATOM      1  C   UNL d   1       0.361  -2.615  -4.560  0.00  0.00     0.078 C 
ATOM      2  C1  UNL d   1      -1.013  -2.227  -4.103  0.00  0.00    -0.077 A 
ATOM      3  C2  UNL d   1      -1.200  -1.464  -2.944  0.00  0.00    -0.001 A 
ATOM      4  C3  UNL d   1      -2.485  -1.119  -2.525  0.00  0.00     0.003 A 
ATOM      5  C4  UNL d   1      -3.595  -1.533  -3.259  0.00  0.00    -0.005 A 
ATOM      6  C5  UNL d   1      -3.420  -2.294  -4.413  0.00  0.00     0.003 A 
ATOM      7  C6  UNL d   1      -2.135  -2.641  -4.833  0.00  0.00    -0.001 A 
ENDROOT
TORSDOF 0
ENDMDL
