MODEL 1
REMARK minimizedAffinity 2.67815042
REMARK minimizedRMSD -1
REMARK  0 active torsions:
REMARK  status: ('A' for Active; 'I' for Inactive)
ROOT
ATOM      1  C   UNL d   1      -1.545  -5.991   3.006  0.00  0.00     0.078 C 
ATOM      2  C1  UNL d   1      -0.137  -5.986   3.523  0.00  0.00    -0.077 A 
ATOM      3  C2  UNL d   1       0.127  -5.994   4.898  0.00  0.00    -0.001 A 
ATOM      4  C3  UNL d   1       1.443  -5.979   5.364  0.00  0.00     0.003 A 
ATOM      5  C4  UNL d   1       2.505  -5.956   4.462  0.00  0.00    -0.005 A 
ATOM      6  C5  UNL d   1       2.252  -5.945   3.092  0.00  0.00     0.003 A 
ATOM      7  C6  UNL d   1       0.937  -5.960   2.624  0.00  0.00    -0.001 A 
ENDROOT
TORSDOF 0
ENDMDL
