MODEL 1
REMARK minimizedAffinity 2.62904119
REMARK minimizedRMSD -1
REMARK  0 active torsions:
REMARK  status: ('A' for Active; 'I' for Inactive)
ROOT
ATOM      1  C   UNL d   1       3.283  -5.980   2.910  0.00  0.00     0.078 C 
ATOM      2  C1  UNL d   1       1.796  -5.994   3.104  0.00  0.00    -0.077 A 
ATOM      3  C2  UNL d   1       0.926  -5.994   2.006  0.00  0.00    -0.001 A 
ATOM      4  C3  UNL d   1      -0.456  -5.997   2.201  0.00  0.00     0.003 A 
ATOM      5  C4  UNL d   1      -0.980  -5.999   3.492  0.00  0.00    -0.005 A 
ATOM      6  C5  UNL d   1      -0.123  -5.997   4.590  0.00  0.00     0.003 A 
ATOM      7  C6  UNL d   1       1.260  -5.994   4.397  0.00  0.00    -0.001 A 
ENDROOT
TORSDOF 0
ENDMDL
