MODEL 1
REMARK minimizedAffinity -0.428728461
REMARK minimizedRMSD -1
REMARK  0 active torsions:
REMARK  status: ('A' for Active; 'I' for Inactive)
ROOT
ATOM      1  C   UNL d   1      -1.415   0.367   0.145  0.00  0.00     0.077 C 
ATOM      2  C1  UNL d   1      -0.011  -0.134  -0.017  0.00  0.00    -0.074 A 
ATOM      3  C2  UNL d   1       0.248  -1.491  -0.237  0.00  0.00    -0.005 A 
ATOM      4  C3  UNL d   1       1.558  -1.941  -0.396  0.00  0.00     0.006 A 
ATOM      5  C4  UNL d   1       2.622  -1.040  -0.335  0.00  0.00    -0.005 A 
ATOM      6  C5  UNL d   1       2.384   0.321  -0.116  0.00  0.00    -0.074 A 
ATOM      7  C6  UNL d   1       3.515   1.303  -0.058  0.00  0.00     0.077 C 
ATOM      8  C7  UNL d   1       1.063   0.766   0.035  0.00  0.00    -0.001 A 
ENDROOT
TORSDOF 0
ENDMDL
