MODEL 1
REMARK minimizedAffinity -5.61015081
REMARK minimizedRMSD -1
REMARK  0 active torsions:
REMARK  status: ('A' for Active; 'I' for Inactive)
ROOT
ATOM      1  C   UNL d   1      -1.760   0.456   0.211  0.00  0.00     0.077 C 
ATOM      2  C1  UNL d   1      -0.421  -0.219   0.221  0.00  0.00    -0.074 A 
ATOM      3  C2  UNL d   1      -0.305  -1.589  -0.033  0.00  0.00    -0.005 A 
ATOM      4  C3  UNL d   1       0.948  -2.201  -0.030  0.00  0.00     0.006 A 
ATOM      5  C4  UNL d   1       2.096  -1.450   0.227  0.00  0.00    -0.005 A 
ATOM      6  C5  UNL d   1       2.000  -0.079   0.483  0.00  0.00    -0.074 A 
ATOM      7  C6  UNL d   1       3.224   0.744   0.752  0.00  0.00     0.077 C 
ATOM      8  C7  UNL d   1       0.737   0.530   0.471  0.00  0.00    -0.001 A 
ENDROOT
TORSDOF 0
ENDMDL
