MODEL 1
REMARK minimizedAffinity -4.11821079
REMARK minimizedRMSD -1
REMARK  0 active torsions:
REMARK  status: ('A' for Active; 'I' for Inactive)
ROOT
ATOM      1  C   UNL d   1       3.412  -1.146   1.123  0.00  0.00     0.077 C 
ATOM      2  C1  UNL d   1       2.247  -0.486   0.449  0.00  0.00    -0.074 A 
ATOM      3  C2  UNL d   1       2.067   0.900   0.516  0.00  0.00    -0.005 A 
ATOM      4  C3  UNL d   1       0.984   1.501  -0.124  0.00  0.00     0.006 A 
ATOM      5  C4  UNL d   1       0.070   0.724  -0.838  0.00  0.00    -0.005 A 
ATOM      6  C5  UNL d   1       0.234  -0.663  -0.917  0.00  0.00    -0.074 A 
ATOM      7  C6  UNL d   1      -0.734  -1.511  -1.688  0.00  0.00     0.077 C 
ATOM      8  C7  UNL d   1       1.329  -1.258  -0.277  0.00  0.00    -0.001 A 
ENDROOT
TORSDOF 0
ENDMDL
