MODEL 1
REMARK minimizedAffinity -3.94153118
REMARK minimizedRMSD -1
REMARK  0 active torsions:
REMARK  status: ('A' for Active; 'I' for Inactive)
ROOT
ATOM      1  C   UNL d   1      -1.904   0.364   0.176  0.00  0.00     0.077 C 
ATOM      2  C1  UNL d   1      -0.514  -0.163  -0.024  0.00  0.00    -0.074 A 
ATOM      3  C2  UNL d   1      -0.280  -1.534  -0.176  0.00  0.00    -0.005 A 
ATOM      4  C3  UNL d   1       1.017  -2.009  -0.372  0.00  0.00     0.006 A 
ATOM      5  C4  UNL d   1       2.091  -1.119  -0.417  0.00  0.00    -0.005 A 
ATOM      6  C5  UNL d   1       1.876   0.255  -0.268  0.00  0.00    -0.074 A 
ATOM      7  C6  UNL d   1       3.019   1.225  -0.324  0.00  0.00     0.077 C 
ATOM      8  C7  UNL d   1       0.569   0.724  -0.079  0.00  0.00    -0.001 A 
ENDROOT
TORSDOF 0
ENDMDL
