MODEL 1
REMARK minimizedAffinity -2.42433715
REMARK minimizedRMSD -1
REMARK  0 active torsions:
REMARK  status: ('A' for Active; 'I' for Inactive)
ROOT
ATOM      1  C   UNL d   1      -1.010   0.777  -0.038  0.00  0.00     0.077 C 
ATOM      2  C1  UNL d   1       0.154  -0.169  -0.039  0.00  0.00    -0.074 A 
ATOM      3  C2  UNL d   1      -0.026  -1.531  -0.299  0.00  0.00    -0.005 A 
ATOM      4  C3  UNL d   1       1.068  -2.396  -0.306  0.00  0.00     0.006 A 
ATOM      5  C4  UNL d   1       2.351  -1.909  -0.053  0.00  0.00    -0.005 A 
ATOM      6  C5  UNL d   1       2.550  -0.550   0.208  0.00  0.00    -0.074 A 
ATOM      7  C6  UNL d   1       3.924  -0.008   0.472  0.00  0.00     0.077 C 
ATOM      8  C7  UNL d   1       1.447   0.315   0.206  0.00  0.00    -0.001 A 
ENDROOT
TORSDOF 0
ENDMDL
