MODEL 1
REMARK minimizedAffinity 5.56616783
REMARK minimizedRMSD -1
REMARK  0 active torsions:
REMARK  status: ('A' for Active; 'I' for Inactive)
ROOT
ATOM      1  C   UNL d   1       2.785  -2.622  -1.143  0.00  0.00     0.077 C 
ATOM      2  C1  UNL d   1       1.435  -2.223  -0.626  0.00  0.00    -0.074 A 
ATOM      3  C2  UNL d   1       0.436  -3.178  -0.412  0.00  0.00    -0.005 A 
ATOM      4  C3  UNL d   1      -0.812  -2.793   0.078  0.00  0.00     0.006 A 
ATOM      5  C4  UNL d   1      -1.072  -1.452   0.360  0.00  0.00    -0.005 A 
ATOM      6  C5  UNL d   1      -0.085  -0.483   0.154  0.00  0.00    -0.074 A 
ATOM      7  C6  UNL d   1      -0.346   0.962   0.462  0.00  0.00     0.077 C 
ATOM      8  C7  UNL d   1       1.168  -0.879  -0.332  0.00  0.00    -0.001 A 
ENDROOT
TORSDOF 0
ENDMDL
