MODEL 1
REMARK minimizedAffinity 1.41473162
REMARK minimizedRMSD -1
REMARK  0 active torsions:
REMARK  status: ('A' for Active; 'I' for Inactive)
ROOT
ATOM      1  C   UNL d   1       1.883  -2.513  -0.553  0.00  0.00     0.077 C 
ATOM      2  C1  UNL d   1       2.236  -1.058  -0.465  0.00  0.00    -0.074 A 
ATOM      3  C2  UNL d   1       1.286  -0.110  -0.073  0.00  0.00    -0.005 A 
ATOM      4  C3  UNL d   1       1.632   1.238   0.014  0.00  0.00     0.006 A 
ATOM      5  C4  UNL d   1       2.930   1.651  -0.290  0.00  0.00    -0.005 A 
ATOM      6  C5  UNL d   1       3.894   0.718  -0.683  0.00  0.00    -0.074 A 
ATOM      7  C6  UNL d   1       5.295   1.144  -1.004  0.00  0.00     0.077 C 
ATOM      8  C7  UNL d   1       3.540  -0.636  -0.761  0.00  0.00    -0.001 A 
ENDROOT
TORSDOF 0
ENDMDL
