MODEL 1
REMARK minimizedAffinity -4.24404192
REMARK minimizedRMSD -1
REMARK  1 active torsions:
REMARK  status: ('A' for Active; 'I' for Inactive)
REMARK    1  A    between atoms: C1_2  and  C2_3 
ROOT
ATOM      1  C2  UNL d   1      -0.059   0.002   0.036  0.00  0.00    -0.076 A 
ATOM      2  C3  UNL d   1       0.209   1.369  -0.155  0.00  0.00     0.004 A 
ATOM      3  C4  UNL d   1       1.013   1.802  -1.208  0.00  0.00    -0.003 A 
ATOM      4  C5  UNL d   1       1.561   0.876  -2.088  0.00  0.00     0.000 A 
ATOM      5  C6  UNL d   1       1.291  -0.483  -1.925  0.00  0.00     0.000 A 
ATOM      6  C7  UNL d   1       0.469  -0.935  -0.878  0.00  0.00    -0.073 A 
ATOM      7  C8  UNL d   1       0.216  -2.412  -0.745  0.00  0.00     0.078 C 
ENDROOT
BRANCH   1   8
ATOM      8  C1  UNL d   1      -0.916  -0.411   1.211  0.00  0.00     0.053 C 
ATOM      9  C   UNL d   1      -2.289   0.241   1.189  0.00  0.00     0.018 C 
ENDBRANCH   1   8
TORSDOF 1
ENDMDL
