MODEL 1
REMARK minimizedAffinity -3.96011877
REMARK minimizedRMSD -1
REMARK  1 active torsions:
REMARK  status: ('A' for Active; 'I' for Inactive)
REMARK    1  A    between atoms: C1_2  and  C2_3 
ROOT
ATOM      1  C2  UNL d   1       1.067  -0.774  -1.201  0.00  0.00    -0.076 A 
ATOM      2  C3  UNL d   1       0.669  -0.895   0.142  0.00  0.00     0.004 A 
ATOM      3  C4  UNL d   1       0.183   0.204   0.848  0.00  0.00    -0.003 A 
ATOM      4  C5  UNL d   1       0.085   1.442   0.222  0.00  0.00     0.000 A 
ATOM      5  C6  UNL d   1       0.458   1.576  -1.115  0.00  0.00     0.000 A 
ATOM      6  C7  UNL d   1       0.936   0.474  -1.846  0.00  0.00    -0.073 A 
ATOM      7  C8  UNL d   1       1.330   0.677  -3.283  0.00  0.00     0.078 C 
ENDROOT
BRANCH   1   8
ATOM      8  C1  UNL d   1       1.613  -1.995  -1.907  0.00  0.00     0.053 C 
ATOM      9  C   UNL d   1       1.129  -3.294  -1.283  0.00  0.00     0.018 C 
ENDBRANCH   1   8
TORSDOF 1
ENDMDL
