MODEL 1
REMARK minimizedAffinity -6.29089355
REMARK minimizedRMSD -1
REMARK  1 active torsions:
REMARK  status: ('A' for Active; 'I' for Inactive)
REMARK    1  A    between atoms: C1_2  and  C2_3 
ROOT
ATOM      1  C2  UNL d   1       0.563  -0.490  -0.509  0.00  0.00    -0.076 A 
ATOM      2  C3  UNL d   1       0.602   0.786  -1.098  0.00  0.00     0.004 A 
ATOM      3  C4  UNL d   1       1.278   1.002  -2.297  0.00  0.00    -0.003 A 
ATOM      4  C5  UNL d   1       1.926  -0.054  -2.928  0.00  0.00     0.000 A 
ATOM      5  C6  UNL d   1       1.883  -1.330  -2.367  0.00  0.00     0.000 A 
ATOM      6  C7  UNL d   1       1.192  -1.568  -1.166  0.00  0.00    -0.073 A 
ATOM      7  C8  UNL d   1       1.183  -2.963  -0.603  0.00  0.00     0.078 C 
ENDROOT
BRANCH   1   8
ATOM      8  C1  UNL d   1      -0.163  -0.658   0.807  0.00  0.00     0.053 C 
ATOM      9  C   UNL d   1      -1.557  -0.051   0.785  0.00  0.00     0.018 C 
ENDBRANCH   1   8
TORSDOF 1
ENDMDL
