MODEL 1
REMARK minimizedAffinity -3.43792558
REMARK minimizedRMSD -1
REMARK  1 active torsions:
REMARK  status: ('A' for Active; 'I' for Inactive)
REMARK    1  A    between atoms: C1_2  and  C2_3 
ROOT
ATOM      1  C2  UNL d   1       0.426  -0.458  -0.528  0.00  0.00    -0.076 A 
ATOM      2  C3  UNL d   1       0.367  -1.860  -0.605  0.00  0.00     0.004 A 
ATOM      3  C4  UNL d   1       1.148  -2.563  -1.521  0.00  0.00    -0.003 A 
ATOM      4  C5  UNL d   1       2.002  -1.874  -2.375  0.00  0.00     0.000 A 
ATOM      5  C6  UNL d   1       2.087  -0.484  -2.301  0.00  0.00     0.000 A 
ATOM      6  C7  UNL d   1       1.318   0.238  -1.372  0.00  0.00    -0.073 A 
ATOM      7  C8  UNL d   1       1.445   1.737  -1.340  0.00  0.00     0.078 C 
ENDROOT
BRANCH   1   8
ATOM      8  C1  UNL d   1      -0.464   0.252   0.466  0.00  0.00     0.053 C 
ATOM      9  C   UNL d   1      -0.809  -0.619   1.665  0.00  0.00     0.018 C 
ENDBRANCH   1   8
TORSDOF 1
ENDMDL
