MODEL 1
REMARK minimizedAffinity -5.31083632
REMARK minimizedRMSD -1
REMARK  1 active torsions:
REMARK  status: ('A' for Active; 'I' for Inactive)
REMARK    1  A    between atoms: C1_2  and  C2_3 
ROOT
ATOM      1  C2  UNL d   1      -1.252   0.304   0.757  0.00  0.00    -0.076 A 
ATOM      2  C3  UNL d   1      -1.404   1.172  -0.338  0.00  0.00     0.004 A 
ATOM      3  C4  UNL d   1      -0.427   1.254  -1.329  0.00  0.00    -0.003 A 
ATOM      4  C5  UNL d   1       0.717   0.469  -1.242  0.00  0.00     0.000 A 
ATOM      5  C6  UNL d   1       0.876  -0.411  -0.171  0.00  0.00     0.000 A 
ATOM      6  C7  UNL d   1      -0.106  -0.517   0.828  0.00  0.00    -0.073 A 
ATOM      7  C8  UNL d   1       0.120  -1.478   1.963  0.00  0.00     0.078 C 
ENDROOT
BRANCH   1   8
ATOM      8  C1  UNL d   1      -2.331   0.278   1.815  0.00  0.00     0.053 C 
ATOM      9  C   UNL d   1      -3.542  -0.541   1.393  0.00  0.00     0.018 C 
ENDBRANCH   1   8
TORSDOF 1
ENDMDL
