MODEL 1
REMARK minimizedAffinity -4.77527571
REMARK minimizedRMSD -1
REMARK  1 active torsions:
REMARK  status: ('A' for Active; 'I' for Inactive)
REMARK    1  A    between atoms: C1_2  and  C2_3 
ROOT
ATOM      1  C2  UNL d   1      -1.431   0.481   0.314  0.00  0.00    -0.076 A 
ATOM      2  C3  UNL d   1      -2.413   1.399  -0.098  0.00  0.00     0.004 A 
ATOM      3  C4  UNL d   1      -3.477   1.734   0.738  0.00  0.00    -0.003 A 
ATOM      4  C5  UNL d   1      -3.576   1.157   1.999  0.00  0.00     0.000 A 
ATOM      5  C6  UNL d   1      -2.601   0.258   2.431  0.00  0.00     0.000 A 
ATOM      6  C7  UNL d   1      -1.513  -0.078   1.607  0.00  0.00    -0.073 A 
ATOM      7  C8  UNL d   1      -0.494  -1.058   2.121  0.00  0.00     0.078 C 
ENDROOT
BRANCH   1   8
ATOM      8  C1  UNL d   1      -0.315   0.136  -0.646  0.00  0.00     0.053 C 
ATOM      9  C   UNL d   1       0.801   1.169  -0.638  0.00  0.00     0.018 C 
ENDBRANCH   1   8
TORSDOF 1
ENDMDL
