MODEL 1
REMARK minimizedAffinity -3.56493115
REMARK minimizedRMSD -1
REMARK  1 active torsions:
REMARK  status: ('A' for Active; 'I' for Inactive)
REMARK    1  A    between atoms: C1_2  and  C2_3 
ROOT
ATOM      1  C2  UNL d   1      -0.093   0.250   0.282  0.00  0.00    -0.076 A 
ATOM      2  C3  UNL d   1      -0.202  -0.989  -0.373  0.00  0.00     0.004 A 
ATOM      3  C4  UNL d   1       0.700  -1.354  -1.371  0.00  0.00    -0.003 A 
ATOM      4  C5  UNL d   1       1.726  -0.487  -1.730  0.00  0.00     0.000 A 
ATOM      5  C6  UNL d   1       1.859   0.739  -1.078  0.00  0.00     0.000 A 
ATOM      6  C7  UNL d   1       0.968   1.116  -0.059  0.00  0.00    -0.073 A 
ATOM      7  C8  UNL d   1       1.156   2.452   0.606  0.00  0.00     0.078 C 
ENDROOT
BRANCH   1   8
ATOM      8  C1  UNL d   1      -1.117   0.604   1.337  0.00  0.00     0.053 C 
ATOM      9  C   UNL d   1      -2.510   0.104   0.989  0.00  0.00     0.018 C 
ENDBRANCH   1   8
TORSDOF 1
ENDMDL
