MODEL 1
REMARK minimizedAffinity -3.63759708
REMARK minimizedRMSD -1
REMARK  1 active torsions:
REMARK  status: ('A' for Active; 'I' for Inactive)
REMARK    1  A    between atoms: C1_2  and  C2_3 
ROOT
ATOM      1  C2  UNL d   1       0.138   0.006   0.185  0.00  0.00    -0.076 A 
ATOM      2  C3  UNL d   1       0.049  -1.113  -0.662  0.00  0.00     0.004 A 
ATOM      3  C4  UNL d   1       0.841  -1.213  -1.804  0.00  0.00    -0.003 A 
ATOM      4  C5  UNL d   1       1.736  -0.196  -2.118  0.00  0.00     0.000 A 
ATOM      5  C6  UNL d   1       1.850   0.913  -1.279  0.00  0.00     0.000 A 
ATOM      6  C7  UNL d   1       1.070   1.021  -0.115  0.00  0.00    -0.073 A 
ATOM      7  C8  UNL d   1       1.230   2.242   0.749  0.00  0.00     0.078 C 
ENDROOT
BRANCH   1   8
ATOM      8  C1  UNL d   1      -0.767   0.071   1.395  0.00  0.00     0.053 C 
ATOM      9  C   UNL d   1      -2.229   0.257   1.020  0.00  0.00     0.018 C 
ENDBRANCH   1   8
TORSDOF 1
ENDMDL
