MODEL 1
REMARK minimizedAffinity -4.51980305
REMARK minimizedRMSD -1
REMARK  1 active torsions:
REMARK  status: ('A' for Active; 'I' for Inactive)
REMARK    1  A    between atoms: C1_2  and  C2_3 
ROOT
ATOM      1  C2  UNL d   1       0.644   0.616  -0.099  0.00  0.00    -0.076 A 
ATOM      2  C3  UNL d   1      -0.159  -0.070   0.828  0.00  0.00     0.004 A 
ATOM      3  C4  UNL d   1      -0.290  -1.457   0.776  0.00  0.00    -0.003 A 
ATOM      4  C5  UNL d   1       0.381  -2.180  -0.203  0.00  0.00     0.000 A 
ATOM      5  C6  UNL d   1       1.197  -1.518  -1.120  0.00  0.00     0.000 A 
ATOM      6  C7  UNL d   1       1.353  -0.122  -1.072  0.00  0.00    -0.073 A 
ATOM      7  C8  UNL d   1       2.240   0.542  -2.089  0.00  0.00     0.078 C 
ENDROOT
BRANCH   1   8
ATOM      8  C1  UNL d   1       0.727   2.123  -0.010  0.00  0.00     0.053 C 
ATOM      9  C   UNL d   1       0.814   2.619   1.425  0.00  0.00     0.018 C 
ENDBRANCH   1   8
TORSDOF 1
ENDMDL
