MODEL 1
REMARK minimizedAffinity 0.0556669421
REMARK minimizedRMSD -1
REMARK  1 active torsions:
REMARK  status: ('A' for Active; 'I' for Inactive)
REMARK    1  A    between atoms: C1_2  and  C2_3 
ROOT
ATOM      1  C2  UNL d   1       1.413  -0.017  -0.983  0.00  0.00    -0.076 A 
ATOM      2  C3  UNL d   1       1.111  -1.387  -1.066  0.00  0.00     0.004 A 
ATOM      3  C4  UNL d   1       0.271  -1.994  -0.134  0.00  0.00    -0.003 A 
ATOM      4  C5  UNL d   1      -0.282  -1.240   0.895  0.00  0.00     0.000 A 
ATOM      5  C6  UNL d   1      -0.008   0.124   0.982  0.00  0.00     0.000 A 
ATOM      6  C7  UNL d   1       0.825   0.755   0.041  0.00  0.00    -0.073 A 
ATOM      7  C8  UNL d   1       1.092   2.228   0.186  0.00  0.00     0.078 C 
ENDROOT
BRANCH   1   8
ATOM      8  C1  UNL d   1       2.353   0.580  -2.006  0.00  0.00     0.053 C 
ATOM      9  C   UNL d   1       3.799   0.589  -1.534  0.00  0.00     0.018 C 
ENDBRANCH   1   8
TORSDOF 1
ENDMDL
