MODEL 1
REMARK minimizedAffinity -5.49808931
REMARK minimizedRMSD -1
REMARK  1 active torsions:
REMARK  status: ('A' for Active; 'I' for Inactive)
REMARK    1  A    between atoms: C1_2  and  C2_3 
ROOT
ATOM      1  C2  UNL d   1      -0.736   0.533  -0.240  0.00  0.00    -0.076 A 
ATOM      2  C3  UNL d   1      -1.799   0.903  -1.082  0.00  0.00     0.004 A 
ATOM      3  C4  UNL d   1      -3.123   0.772  -0.668  0.00  0.00    -0.003 A 
ATOM      4  C5  UNL d   1      -3.406   0.268   0.597  0.00  0.00     0.000 A 
ATOM      5  C6  UNL d   1      -2.364  -0.088   1.453  0.00  0.00     0.000 A 
ATOM      6  C7  UNL d   1      -1.023   0.054   1.056  0.00  0.00    -0.073 A 
ATOM      7  C8  UNL d   1       0.060  -0.352   2.017  0.00  0.00     0.078 C 
ENDROOT
BRANCH   1   8
ATOM      8  C1  UNL d   1       0.678   0.672  -0.755  0.00  0.00     0.053 C 
ATOM      9  C   UNL d   1       0.998  -0.325  -1.858  0.00  0.00     0.018 C 
ENDBRANCH   1   8
TORSDOF 1
ENDMDL
