MODEL 1
REMARK minimizedAffinity -5.08682394
REMARK minimizedRMSD -1
REMARK  1 active torsions:
REMARK  status: ('A' for Active; 'I' for Inactive)
REMARK    1  A    between atoms: C1_2  and  C2_3 
ROOT
ATOM      1  C2  UNL d   1       0.421  -0.047  -0.411  0.00  0.00    -0.076 A 
ATOM      2  C3  UNL d   1       0.714   1.294  -0.715  0.00  0.00     0.004 A 
ATOM      3  C4  UNL d   1       1.592   1.620  -1.747  0.00  0.00    -0.003 A 
ATOM      4  C5  UNL d   1       2.190   0.611  -2.493  0.00  0.00     0.000 A 
ATOM      5  C6  UNL d   1       1.897  -0.724  -2.218  0.00  0.00     0.000 A 
ATOM      6  C7  UNL d   1       1.001  -1.070  -1.191  0.00  0.00    -0.073 A 
ATOM      7  C8  UNL d   1       0.726  -2.526  -0.933  0.00  0.00     0.078 C 
ENDROOT
BRANCH   1   8
ATOM      8  C1  UNL d   1      -0.518  -0.341   0.737  0.00  0.00     0.053 C 
ATOM      9  C   UNL d   1      -1.804   0.467   0.660  0.00  0.00     0.018 C 
ENDBRANCH   1   8
TORSDOF 1
ENDMDL
