MODEL 1
REMARK minimizedAffinity 12.9229975
REMARK minimizedRMSD -1
REMARK  0 active torsions:
REMARK  status: ('A' for Active; 'I' for Inactive)
ROOT
ATOM      1  C1  DEN d   1       3.327  -5.726  -3.127  0.00  0.00     0.130 A 
ATOM      2  C2  DEN d   1       4.038  -5.999  -1.882  0.00  0.00    -0.031 A 
ATOM      3  C3  DEN d   1       3.221  -5.483  -0.766  0.00  0.00     0.027 A 
ATOM      4  C4  DEN d   1       0.931  -4.298  -0.845  0.00  0.00     0.027 A 
ATOM      5  C5  DEN d   1      -0.063  -3.831  -1.676  0.00  0.00    -0.003 A 
ATOM      6  C6  DEN d   1       0.018  -3.933  -3.040  0.00  0.00     0.001 A 
ATOM      7  C7  DEN d   1       1.096  -4.555  -3.612  0.00  0.00     0.017 A 
ATOM      8  C8  DEN d   1       2.106  -5.021  -2.780  0.00  0.00    -0.094 A 
ATOM      9  C9  DEN d   1       2.000  -4.920  -1.404  0.00  0.00    -0.072 A 
ENDROOT
TORSDOF 0
ENDMDL
