MODEL 1
REMARK minimizedAffinity 16.7580547
REMARK minimizedRMSD -1
REMARK  0 active torsions:
REMARK  status: ('A' for Active; 'I' for Inactive)
ROOT
ATOM      1  C1  DEN d   1       1.259   2.325  -0.143  0.00  0.00     0.130 A 
ATOM      2  C2  DEN d   1       1.998   2.220   1.113  0.00  0.00    -0.031 A 
ATOM      3  C3  DEN d   1       3.049   3.257   1.112  0.00  0.00     0.027 A 
ATOM      4  C4  DEN d   1       3.599   5.009  -0.700  0.00  0.00     0.027 A 
ATOM      5  C5  DEN d   1       3.254   5.480  -1.947  0.00  0.00    -0.003 A 
ATOM      6  C6  DEN d   1       2.250   4.915  -2.689  0.00  0.00     0.001 A 
ATOM      7  C7  DEN d   1       1.526   3.874  -2.170  0.00  0.00     0.017 A 
ATOM      8  C8  DEN d   1       1.873   3.389  -0.916  0.00  0.00    -0.094 A 
ATOM      9  C9  DEN d   1       2.883   3.981  -0.177  0.00  0.00    -0.072 A 
ENDROOT
TORSDOF 0
ENDMDL
