MODEL 1
REMARK minimizedAffinity 19.7725334
REMARK minimizedRMSD -1
REMARK  0 active torsions:
REMARK  status: ('A' for Active; 'I' for Inactive)
ROOT
ATOM      1  C1  DEN d   1      -4.890   1.091  -4.784  0.00  0.00     0.130 A 
ATOM      2  C2  DEN d   1      -4.017   0.856  -5.930  0.00  0.00    -0.031 A 
ATOM      3  C3  DEN d   1      -2.997   1.923  -5.953  0.00  0.00     0.027 A 
ATOM      4  C4  DEN d   1      -2.682   3.903  -4.330  0.00  0.00     0.027 A 
ATOM      5  C5  DEN d   1      -3.185   4.526  -3.209  0.00  0.00    -0.003 A 
ATOM      6  C6  DEN d   1      -4.302   4.072  -2.560  0.00  0.00     0.001 A 
ATOM      7  C7  DEN d   1      -4.928   2.935  -3.000  0.00  0.00     0.017 A 
ATOM      8  C8  DEN d   1      -4.431   2.305  -4.134  0.00  0.00    -0.094 A 
ATOM      9  C9  DEN d   1      -3.293   2.773  -4.769  0.00  0.00    -0.072 A 
ENDROOT
TORSDOF 0
ENDMDL
