MODEL 1
REMARK minimizedAffinity 14.6060076
REMARK minimizedRMSD -1
REMARK  0 active torsions:
REMARK  status: ('A' for Active; 'I' for Inactive)
ROOT
ATOM      1  C1  DEN d   1       1.550   3.359  -1.196  0.00  0.00     0.130 A 
ATOM      2  C2  DEN d   1       0.645   3.991  -2.152  0.00  0.00    -0.031 A 
ATOM      3  C3  DEN d   1      -0.734   3.832  -1.649  0.00  0.00     0.027 A 
ATOM      4  C4  DEN d   1      -1.551   2.678   0.508  0.00  0.00     0.027 A 
ATOM      5  C5  DEN d   1      -1.154   1.985   1.630  0.00  0.00    -0.003 A 
ATOM      6  C6  DEN d   1       0.158   1.674   1.870  0.00  0.00     0.001 A 
ATOM      7  C7  DEN d   1       1.126   2.096   0.997  0.00  0.00     0.017 A 
ATOM      8  C8  DEN d   1       0.733   2.789  -0.140  0.00  0.00    -0.094 A 
ATOM      9  C9  DEN d   1      -0.598   3.105  -0.358  0.00  0.00    -0.072 A 
ENDROOT
TORSDOF 0
ENDMDL
