MODEL 1
REMARK minimizedAffinity 15.7560863
REMARK minimizedRMSD -1
REMARK  0 active torsions:
REMARK  status: ('A' for Active; 'I' for Inactive)
ROOT
ATOM      1  C1  DEN d   1      -3.072   1.407  -5.585  0.00  0.00     0.130 A 
ATOM      2  C2  DEN d   1      -4.274   0.683  -5.989  0.00  0.00    -0.031 A 
ATOM      3  C3  DEN d   1      -5.438   1.351  -5.372  0.00  0.00     0.027 A 
ATOM      4  C4  DEN d   1      -5.494   3.428  -3.843  0.00  0.00     0.027 A 
ATOM      5  C5  DEN d   1      -4.722   4.378  -3.212  0.00  0.00    -0.003 A 
ATOM      6  C6  DEN d   1      -3.356   4.385  -3.299  0.00  0.00     0.001 A 
ATOM      7  C7  DEN d   1      -2.720   3.448  -4.071  0.00  0.00     0.017 A 
ATOM      8  C8  DEN d   1      -3.491   2.482  -4.704  0.00  0.00    -0.094 A 
ATOM      9  C9  DEN d   1      -4.872   2.500  -4.614  0.00  0.00    -0.072 A 
ENDROOT
TORSDOF 0
ENDMDL
