MODEL 1
REMARK minimizedAffinity 16.0127888
REMARK minimizedRMSD -1
REMARK  0 active torsions:
REMARK  status: ('A' for Active; 'I' for Inactive)
ROOT
ATOM      1  C1  DEN d   1       1.091   2.715  -0.590  0.00  0.00     0.130 A 
ATOM      2  C2  DEN d   1       0.211   3.298  -1.600  0.00  0.00    -0.031 A 
ATOM      3  C3  DEN d   1      -1.182   3.144  -1.135  0.00  0.00     0.027 A 
ATOM      4  C4  DEN d   1      -2.058   2.072   1.041  0.00  0.00     0.027 A 
ATOM      5  C5  DEN d   1      -1.690   1.430   2.204  0.00  0.00    -0.003 A 
ATOM      6  C6  DEN d   1      -0.384   1.145   2.498  0.00  0.00     0.001 A 
ATOM      7  C7  DEN d   1       0.608   1.541   1.640  0.00  0.00     0.017 A 
ATOM      8  C8  DEN d   1       0.245   2.182   0.463  0.00  0.00    -0.094 A 
ATOM      9  C9  DEN d   1      -1.081   2.473   0.189  0.00  0.00    -0.072 A 
ENDROOT
TORSDOF 0
ENDMDL
