MODEL 1
REMARK minimizedAffinity -0.898064613
REMARK minimizedRMSD -1
REMARK  0 active torsions:
REMARK  status: ('A' for Active; 'I' for Inactive)
ROOT
ATOM      1  C   UNL d   1       5.990  -3.339   4.800  0.00  0.00     0.023 A 
ATOM      2  C1  UNL d   1       5.991  -2.765   3.529  0.00  0.00     0.003 A 
ATOM      3  C2  UNL d   1       5.993  -1.375   3.389  0.00  0.00     0.048 A 
ATOM      4  C3  UNL d   1       5.996  -0.566   4.524  0.00  0.00     0.023 A 
ATOM      5  C4  UNL d   1       5.996  -1.136   5.798  0.00  0.00     0.048 A 
ATOM      6  C5  UNL d   1       5.992  -2.525   5.933  0.00  0.00     0.003 A 
ATOM      7  I   UNL d   1       6.000   1.502   4.318  0.00  0.00    -0.146 I 
ENDROOT
TORSDOF 0
ENDMDL
