MODEL 1
REMARK minimizedAffinity -1.27033961
REMARK minimizedRMSD -1
REMARK  0 active torsions:
REMARK  status: ('A' for Active; 'I' for Inactive)
ROOT
ATOM      1  C   UNL d   1       5.988   4.230   3.529  0.00  0.00     0.023 A 
ATOM      2  C1  UNL d   1       5.984   3.998   4.905  0.00  0.00     0.003 A 
ATOM      3  C2  UNL d   1       5.987   2.690   5.393  0.00  0.00     0.048 A 
ATOM      4  C3  UNL d   1       5.995   1.619   4.501  0.00  0.00     0.023 A 
ATOM      5  C4  UNL d   1       6.000   1.846   3.124  0.00  0.00     0.048 A 
ATOM      6  C5  UNL d   1       5.996   3.156   2.640  0.00  0.00     0.003 A 
ATOM      7  I   UNL d   1       5.999  -0.329   5.225  0.00  0.00    -0.146 I 
ENDROOT
TORSDOF 0
ENDMDL
