MODEL 1
REMARK minimizedAffinity -1.54901683
REMARK minimizedRMSD -1
REMARK  0 active torsions:
REMARK  status: ('A' for Active; 'I' for Inactive)
ROOT
ATOM      1  C   UNL d   1       5.026   0.045   4.112  0.00  0.00     0.023 A 
ATOM      2  C1  UNL d   1       5.695   0.398   5.284  0.00  0.00     0.003 A 
ATOM      3  C2  UNL d   1       5.975   1.739   5.554  0.00  0.00     0.048 A 
ATOM      4  C3  UNL d   1       5.581   2.723   4.647  0.00  0.00     0.023 A 
ATOM      5  C4  UNL d   1       4.911   2.375   3.473  0.00  0.00     0.048 A 
ATOM      6  C5  UNL d   1       4.635   1.032   3.208  0.00  0.00     0.003 A 
ATOM      7  I   UNL d   1       5.996   4.720   5.046  0.00  0.00    -0.146 I 
ENDROOT
TORSDOF 0
ENDMDL
