MODEL 1
REMARK minimizedAffinity -0.601910591
REMARK minimizedRMSD -1
REMARK  0 active torsions:
REMARK  status: ('A' for Active; 'I' for Inactive)
ROOT
ATOM      1  C   UNL d   1       5.990   2.882   3.121  0.00  0.00     0.023 A 
ATOM      2  C1  UNL d   1       5.987   1.738   2.322  0.00  0.00     0.003 A 
ATOM      3  C2  UNL d   1       5.990   0.473   2.913  0.00  0.00     0.048 A 
ATOM      4  C3  UNL d   1       5.996   0.359   4.303  0.00  0.00     0.023 A 
ATOM      5  C4  UNL d   1       5.998   1.500   5.106  0.00  0.00     0.048 A 
ATOM      6  C5  UNL d   1       5.996   2.763   4.511  0.00  0.00     0.003 A 
ATOM      7  I   UNL d   1       6.000  -1.524   5.184  0.00  0.00    -0.146 I 
ENDROOT
TORSDOF 0
ENDMDL
