MODEL 1
REMARK minimizedAffinity -1.84160376
REMARK minimizedRMSD -1
REMARK  0 active torsions:
REMARK  status: ('A' for Active; 'I' for Inactive)
ROOT
ATOM      1  C   UNL d   1       5.927  -0.793   5.028  0.00  0.00     0.023 A 
ATOM      2  C1  UNL d   1       5.996   0.206   6.000  0.00  0.00     0.003 A 
ATOM      3  C2  UNL d   1       6.000   1.550   5.622  0.00  0.00     0.048 A 
ATOM      4  C3  UNL d   1       5.933   1.889   4.271  0.00  0.00     0.023 A 
ATOM      5  C4  UNL d   1       5.863   0.894   3.296  0.00  0.00     0.048 A 
ATOM      6  C5  UNL d   1       5.860  -0.449   3.678  0.00  0.00     0.003 A 
ATOM      7  I   UNL d   1       5.938   3.890   3.707  0.00  0.00    -0.146 I 
ENDROOT
TORSDOF 0
ENDMDL
