MODEL 1
REMARK minimizedAffinity -1.21709979
REMARK minimizedRMSD -1
REMARK  0 active torsions:
REMARK  status: ('A' for Active; 'I' for Inactive)
ROOT
ATOM      1  C   UNL d   1       5.986   3.761   3.424  0.00  0.00     0.023 A 
ATOM      2  C1  UNL d   1       5.979   2.661   2.566  0.00  0.00     0.003 A 
ATOM      3  C2  UNL d   1       5.984   1.367   3.088  0.00  0.00     0.048 A 
ATOM      4  C3  UNL d   1       5.994   1.179   4.470  0.00  0.00     0.023 A 
ATOM      5  C4  UNL d   1       5.999   2.276   5.332  0.00  0.00     0.048 A 
ATOM      6  C5  UNL d   1       5.996   3.569   4.805  0.00  0.00     0.003 A 
ATOM      7  I   UNL d   1       6.000  -0.748   5.251  0.00  0.00    -0.146 I 
ENDROOT
TORSDOF 0
ENDMDL
