MODEL 1
REMARK minimizedAffinity 3.62966442
REMARK minimizedRMSD -1
REMARK  0 active torsions:
REMARK  status: ('A' for Active; 'I' for Inactive)
ROOT
ATOM      1  C   UNL d   1       5.998  -2.223   4.899  0.00  0.00     0.023 A 
ATOM      2  C1  UNL d   1       5.990  -1.715   3.600  0.00  0.00     0.003 A 
ATOM      3  C2  UNL d   1       5.984  -0.335   3.389  0.00  0.00     0.048 A 
ATOM      4  C3  UNL d   1       5.986   0.532   4.482  0.00  0.00     0.023 A 
ATOM      5  C4  UNL d   1       5.995   0.028   5.783  0.00  0.00     0.048 A 
ATOM      6  C5  UNL d   1       6.000  -1.353   5.989  0.00  0.00     0.003 A 
ATOM      7  I   UNL d   1       5.977   2.587   4.170  0.00  0.00    -0.146 I 
ENDROOT
TORSDOF 0
ENDMDL
