MODEL 1
REMARK minimizedAffinity 0.780431688
REMARK minimizedRMSD -1
REMARK  0 active torsions:
REMARK  status: ('A' for Active; 'I' for Inactive)
ROOT
ATOM      1  C   UNL d   1       5.986   0.010   4.854  0.00  0.00     0.023 A 
ATOM      2  C1  UNL d   1       5.995   1.107   5.716  0.00  0.00     0.003 A 
ATOM      3  C2  UNL d   1       5.999   2.404   5.198  0.00  0.00     0.048 A 
ATOM      4  C3  UNL d   1       5.993   2.597   3.817  0.00  0.00     0.023 A 
ATOM      5  C4  UNL d   1       5.983   1.502   2.951  0.00  0.00     0.048 A 
ATOM      6  C5  UNL d   1       5.980   0.208   3.474  0.00  0.00     0.003 A 
ATOM      7  I   UNL d   1       5.999   4.526   3.044  0.00  0.00    -0.146 I 
ENDROOT
TORSDOF 0
ENDMDL
