MODEL 1
REMARK minimizedAffinity -0.173077732
REMARK minimizedRMSD -1
REMARK  0 active torsions:
REMARK  status: ('A' for Active; 'I' for Inactive)
ROOT
ATOM      1  C   UNL d   1       5.970   2.940   4.210  0.00  0.00     0.023 A 
ATOM      2  C1  UNL d   1       5.993   2.349   5.474  0.00  0.00     0.003 A 
ATOM      3  C2  UNL d   1       5.999   0.958   5.596  0.00  0.00     0.048 A 
ATOM      4  C3  UNL d   1       5.985   0.164   4.450  0.00  0.00     0.023 A 
ATOM      5  C4  UNL d   1       5.964   0.750   3.184  0.00  0.00     0.048 A 
ATOM      6  C5  UNL d   1       5.956   2.141   3.067  0.00  0.00     0.003 A 
ATOM      7  I   UNL d   1       5.996  -1.907   4.629  0.00  0.00    -0.146 I 
ENDROOT
TORSDOF 0
ENDMDL
