MODEL 1
REMARK minimizedAffinity -0.520044327
REMARK minimizedRMSD -1
REMARK  0 active torsions:
REMARK  status: ('A' for Active; 'I' for Inactive)
ROOT
ATOM      1  C   UNL d   1       5.982   0.009   4.542  0.00  0.00     0.023 A 
ATOM      2  C1  UNL d   1       5.980   0.524   3.245  0.00  0.00     0.003 A 
ATOM      3  C2  UNL d   1       5.985   1.905   3.041  0.00  0.00     0.048 A 
ATOM      4  C3  UNL d   1       5.993   2.766   4.138  0.00  0.00     0.023 A 
ATOM      5  C4  UNL d   1       5.995   2.256   5.437  0.00  0.00     0.048 A 
ATOM      6  C5  UNL d   1       5.990   0.874   5.636  0.00  0.00     0.003 A 
ATOM      7  I   UNL d   1       6.000   4.823   3.836  0.00  0.00    -0.146 I 
ENDROOT
TORSDOF 0
ENDMDL
