MODEL 1
REMARK minimizedAffinity -1.94077134
REMARK minimizedRMSD -1
REMARK  0 active torsions:
REMARK  status: ('A' for Active; 'I' for Inactive)
ROOT
ATOM      1  C   UNL d   1       5.958  -1.131   5.135  0.00  0.00     0.023 A 
ATOM      2  C1  UNL d   1       5.965  -0.931   3.755  0.00  0.00     0.003 A 
ATOM      3  C2  UNL d   1       5.976   0.365   3.235  0.00  0.00     0.048 A 
ATOM      4  C3  UNL d   1       5.981   1.457   4.102  0.00  0.00     0.023 A 
ATOM      5  C4  UNL d   1       5.975   1.263   5.484  0.00  0.00     0.048 A 
ATOM      6  C5  UNL d   1       5.963  -0.035   5.999  0.00  0.00     0.003 A 
ATOM      7  I   UNL d   1       5.997   3.387   3.331  0.00  0.00    -0.146 I 
ENDROOT
TORSDOF 0
ENDMDL
