MODEL 1
REMARK minimizedAffinity 5.88229704
REMARK minimizedRMSD -1
REMARK  0 active torsions:
REMARK  status: ('A' for Active; 'I' for Inactive)
ROOT
ATOM      1  C   UNL d   1       5.996   1.347   4.108  0.00  0.00     0.023 A 
ATOM      2  C1  UNL d   1       5.994   1.587   2.734  0.00  0.00     0.003 A 
ATOM      3  C2  UNL d   1       5.993   2.899   2.253  0.00  0.00     0.048 A 
ATOM      4  C3  UNL d   1       5.994   3.964   3.152  0.00  0.00     0.023 A 
ATOM      5  C4  UNL d   1       5.997   3.728   4.528  0.00  0.00     0.048 A 
ATOM      6  C5  UNL d   1       5.998   2.416   5.004  0.00  0.00     0.003 A 
ATOM      7  I   UNL d   1       5.993   5.917   2.440  0.00  0.00    -0.146 I 
ENDROOT
TORSDOF 0
ENDMDL
