MODEL 1
REMARK minimizedAffinity -1.40898049
REMARK minimizedRMSD -1
REMARK  0 active torsions:
REMARK  status: ('A' for Active; 'I' for Inactive)
ROOT
ATOM      1  C   UNL d   1       5.959  -0.419   4.166  0.00  0.00     0.023 A 
ATOM      2  C1  UNL d   1       5.944  -0.012   2.832  0.00  0.00     0.003 A 
ATOM      3  C2  UNL d   1       5.955   1.347   2.515  0.00  0.00     0.048 A 
ATOM      4  C3  UNL d   1       5.982   2.295   3.537  0.00  0.00     0.023 A 
ATOM      5  C4  UNL d   1       5.997   1.893   4.874  0.00  0.00     0.048 A 
ATOM      6  C5  UNL d   1       5.986   0.532   5.186  0.00  0.00     0.003 A 
ATOM      7  I   UNL d   1       5.998   4.320   3.068  0.00  0.00    -0.146 I 
ENDROOT
TORSDOF 0
ENDMDL
