MODEL 1
REMARK minimizedAffinity 13.978899
REMARK minimizedRMSD -1
REMARK  1 active torsions:
REMARK  status: ('A' for Active; 'I' for Inactive)
REMARK    1  A    between atoms: C1_2  and  C2_3 
ROOT
ATOM      1  C2  UNL d   1       3.899  -3.253  -3.055  0.00  0.00    -0.073 A 
ATOM      2  C3  UNL d   1       2.929  -3.964  -3.770  0.00  0.00    -0.002 A 
ATOM      3  C4  UNL d   1       2.746  -5.329  -3.544  0.00  0.00     0.004 A 
ATOM      4  C5  UNL d   1       3.525  -5.994  -2.598  0.00  0.00    -0.004 A 
ATOM      5  C6  UNL d   1       4.492  -5.298  -1.865  0.00  0.00    -0.075 A 
ATOM      6  C7  UNL d   1       5.341  -6.000  -0.846  0.00  0.00     0.076 C 
ATOM      7  C8  UNL d   1       4.672  -3.928  -2.100  0.00  0.00     0.001 A 
ENDROOT
BRANCH   1   8
ATOM      8  C1  UNL d   1       4.096  -1.777  -3.291  0.00  0.00     0.053 C 
ATOM      9  C   UNL d   1       3.060  -0.940  -2.558  0.00  0.00     0.018 C 
ENDBRANCH   1   8
TORSDOF 1
ENDMDL
