MODEL 1
REMARK minimizedAffinity 1.77999961
REMARK minimizedRMSD -1
REMARK  1 active torsions:
REMARK  status: ('A' for Active; 'I' for Inactive)
REMARK    1  A    between atoms: C1_2  and  C2_3 
ROOT
ATOM      1  C2  UNL d   1       4.419  -3.954   0.075  0.00  0.00    -0.073 A 
ATOM      2  C3  UNL d   1       5.099  -3.580  -1.089  0.00  0.00    -0.002 A 
ATOM      3  C4  UNL d   1       5.156  -2.239  -1.472  0.00  0.00     0.004 A 
ATOM      4  C5  UNL d   1       4.539  -1.260  -0.694  0.00  0.00    -0.004 A 
ATOM      5  C6  UNL d   1       3.864  -1.612   0.479  0.00  0.00    -0.075 A 
ATOM      6  C7  UNL d   1       3.193  -0.571   1.327  0.00  0.00     0.076 C 
ATOM      7  C8  UNL d   1       3.810  -2.961   0.856  0.00  0.00     0.001 A 
ENDROOT
BRANCH   1   8
ATOM      8  C1  UNL d   1       4.361  -5.399   0.497  0.00  0.00     0.053 C 
ATOM      9  C   UNL d   1       5.669  -5.865   1.116  0.00  0.00     0.018 C 
ENDBRANCH   1   8
TORSDOF 1
ENDMDL
