MODEL 1
REMARK minimizedAffinity 3.21490526
REMARK minimizedRMSD -1
REMARK  1 active torsions:
REMARK  status: ('A' for Active; 'I' for Inactive)
REMARK    1  A    between atoms: C1_2  and  C2_3 
ROOT
ATOM      1  C2  UNL d   1       3.999  -4.813  -2.456  0.00  0.00    -0.073 A 
ATOM      2  C3  UNL d   1       4.837  -5.589  -1.647  0.00  0.00    -0.002 A 
ATOM      3  C4  UNL d   1       5.329  -5.077  -0.446  0.00  0.00     0.004 A 
ATOM      4  C5  UNL d   1       4.983  -3.789  -0.038  0.00  0.00    -0.004 A 
ATOM      5  C6  UNL d   1       4.136  -3.003  -0.826  0.00  0.00    -0.075 A 
ATOM      6  C7  UNL d   1       3.756  -1.614  -0.402  0.00  0.00     0.076 C 
ATOM      7  C8  UNL d   1       3.649  -3.523  -2.033  0.00  0.00     0.001 A 
ENDROOT
BRANCH   1   8
ATOM      8  C1  UNL d   1       3.460  -5.364  -3.751  0.00  0.00     0.053 C 
ATOM      9  C   UNL d   1       4.556  -5.974  -4.610  0.00  0.00     0.018 C 
ENDBRANCH   1   8
TORSDOF 1
ENDMDL
