MODEL 1
REMARK minimizedAffinity 5.35685587
REMARK minimizedRMSD -1
REMARK  1 active torsions:
REMARK  status: ('A' for Active; 'I' for Inactive)
REMARK    1  A    between atoms: C1_2  and  C2_3 
ROOT
ATOM      1  C2  UNL d   1       3.802  -4.659  -2.591  0.00  0.00    -0.073 A 
ATOM      2  C3  UNL d   1       4.312  -3.465  -3.114  0.00  0.00    -0.002 A 
ATOM      3  C4  UNL d   1       4.045  -2.249  -2.485  0.00  0.00     0.004 A 
ATOM      4  C5  UNL d   1       3.274  -2.213  -1.323  0.00  0.00    -0.004 A 
ATOM      5  C6  UNL d   1       2.765  -3.397  -0.778  0.00  0.00    -0.075 A 
ATOM      6  C7  UNL d   1       1.931  -3.375   0.469  0.00  0.00     0.076 C 
ATOM      7  C8  UNL d   1       3.035  -4.614  -1.418  0.00  0.00     0.001 A 
ENDROOT
BRANCH   1   8
ATOM      8  C1  UNL d   1       4.092  -5.975  -3.263  0.00  0.00     0.053 C 
ATOM      9  C   UNL d   1       5.474  -6.000  -3.896  0.00  0.00     0.018 C 
ENDBRANCH   1   8
TORSDOF 1
ENDMDL
