MODEL 1
REMARK minimizedAffinity 0.632630944
REMARK minimizedRMSD -1
REMARK  1 active torsions:
REMARK  status: ('A' for Active; 'I' for Inactive)
REMARK    1  A    between atoms: C1_2  and  C2_3 
ROOT
ATOM      1  C2  UNL d   1       3.971  -4.188  -3.128  0.00  0.00    -0.073 A 
ATOM      2  C3  UNL d   1       3.649  -2.864  -2.809  0.00  0.00    -0.002 A 
ATOM      3  C4  UNL d   1       4.078  -2.306  -1.604  0.00  0.00     0.004 A 
ATOM      4  C5  UNL d   1       4.838  -3.062  -0.711  0.00  0.00    -0.004 A 
ATOM      5  C6  UNL d   1       5.179  -4.383  -1.018  0.00  0.00    -0.075 A 
ATOM      6  C7  UNL d   1       5.994  -5.210  -0.067  0.00  0.00     0.076 C 
ATOM      7  C8  UNL d   1       4.742  -4.937  -2.229  0.00  0.00     0.001 A 
ENDROOT
BRANCH   1   8
ATOM      8  C1  UNL d   1       3.515  -4.793  -4.431  0.00  0.00     0.053 C 
ATOM      9  C   UNL d   1       4.514  -5.804  -4.970  0.00  0.00     0.018 C 
ENDBRANCH   1   8
TORSDOF 1
ENDMDL
