MODEL 1
REMARK minimizedAffinity 1.38015223
REMARK minimizedRMSD -1
REMARK  1 active torsions:
REMARK  status: ('A' for Active; 'I' for Inactive)
REMARK    1  A    between atoms: C1_2  and  C2_3 
ROOT
ATOM      1  C2  UNL d   1       4.308  -3.184  -1.073  0.00  0.00    -0.073 A 
ATOM      2  C3  UNL d   1       5.218  -4.223  -0.846  0.00  0.00    -0.002 A 
ATOM      3  C4  UNL d   1       5.301  -5.294  -1.736  0.00  0.00     0.004 A 
ATOM      4  C5  UNL d   1       4.482  -5.334  -2.864  0.00  0.00    -0.004 A 
ATOM      5  C6  UNL d   1       3.575  -4.300  -3.115  0.00  0.00    -0.075 A 
ATOM      6  C7  UNL d   1       2.685  -4.329  -4.323  0.00  0.00     0.076 C 
ATOM      7  C8  UNL d   1       3.496  -3.228  -2.215  0.00  0.00     0.001 A 
ENDROOT
BRANCH   1   8
ATOM      8  C1  UNL d   1       4.220  -2.022  -0.118  0.00  0.00     0.053 C 
ATOM      9  C   UNL d   1       2.874  -1.965   0.587  0.00  0.00     0.018 C 
ENDBRANCH   1   8
TORSDOF 1
ENDMDL
