MODEL 1
REMARK minimizedAffinity 5.53395462
REMARK minimizedRMSD -1
REMARK  1 active torsions:
REMARK  status: ('A' for Active; 'I' for Inactive)
REMARK    1  A    between atoms: C1_2  and  C2_3 
ROOT
ATOM      1  C2  UNL d   1      -2.445   1.142  -1.818  0.00  0.00    -0.073 A 
ATOM      2  C3  UNL d   1      -3.269   0.072  -1.452  0.00  0.00    -0.002 A 
ATOM      3  C4  UNL d   1      -4.647   0.254  -1.326  0.00  0.00     0.004 A 
ATOM      4  C5  UNL d   1      -5.215   1.504  -1.571  0.00  0.00    -0.004 A 
ATOM      5  C6  UNL d   1      -4.410   2.583  -1.949  0.00  0.00    -0.075 A 
ATOM      6  C7  UNL d   1      -5.005   3.934  -2.214  0.00  0.00     0.076 C 
ATOM      7  C8  UNL d   1      -3.027   2.393  -2.071  0.00  0.00     0.001 A 
ENDROOT
BRANCH   1   8
ATOM      8  C1  UNL d   1      -0.958   0.949  -1.961  0.00  0.00     0.053 C 
ATOM      9  C   UNL d   1      -0.170   2.000  -1.196  0.00  0.00     0.018 C 
ENDBRANCH   1   8
TORSDOF 1
ENDMDL
