MODEL 1
REMARK minimizedAffinity -0.781311989
REMARK minimizedRMSD -1
REMARK  1 active torsions:
REMARK  status: ('A' for Active; 'I' for Inactive)
REMARK    1  A    between atoms: C1_2  and  C2_3 
ROOT
ATOM      1  C2  UNL d   1       3.554  -4.261  -1.441  0.00  0.00    -0.073 A 
ATOM      2  C3  UNL d   1       4.938  -4.365  -1.620  0.00  0.00    -0.002 A 
ATOM      3  C4  UNL d   1       5.793  -3.405  -1.076  0.00  0.00     0.004 A 
ATOM      4  C5  UNL d   1       5.275  -2.338  -0.343  0.00  0.00    -0.004 A 
ATOM      5  C6  UNL d   1       3.895  -2.224  -0.143  0.00  0.00    -0.075 A 
ATOM      6  C7  UNL d   1       3.321  -1.080   0.641  0.00  0.00     0.076 C 
ATOM      7  C8  UNL d   1       3.043  -3.190  -0.695  0.00  0.00     0.001 A 
ENDROOT
BRANCH   1   8
ATOM      8  C1  UNL d   1       2.627  -5.299  -2.021  0.00  0.00     0.053 C 
ATOM      9  C   UNL d   1       1.811  -5.999  -0.946  0.00  0.00     0.018 C 
ENDBRANCH   1   8
TORSDOF 1
ENDMDL
