MODEL 1
REMARK minimizedAffinity 5.12392235
REMARK minimizedRMSD -1
REMARK  1 active torsions:
REMARK  status: ('A' for Active; 'I' for Inactive)
REMARK    1  A    between atoms: C1_2  and  C2_3 
ROOT
ATOM      1  C2  UNL d   1       4.627  -3.340  -1.611  0.00  0.00    -0.081 A 
ATOM      2  C3  UNL d   1       4.862  -2.859  -2.904  0.00  0.00     0.006 A 
ATOM      3  C4  UNL d   1       4.724  -3.703  -4.009  0.00  0.00     0.002 A 
ATOM      4  C5  UNL d   1       4.342  -5.038  -3.840  0.00  0.00    -0.080 A 
ATOM      5  C6  UNL d   1       4.161  -5.946  -5.020  0.00  0.00     0.076 C 
ATOM      6  C7  UNL d   1       4.124  -5.523  -2.546  0.00  0.00     0.002 A 
ATOM      7  C8  UNL d   1       4.263  -4.681  -1.441  0.00  0.00     0.006 A 
ENDROOT
BRANCH   1   8
ATOM      8  C1  UNL d   1       4.712  -2.417  -0.422  0.00  0.00     0.054 C 
ATOM      9  C   UNL d   1       3.341  -1.876  -0.043  0.00  0.00     0.018 C 
ENDBRANCH   1   8
TORSDOF 1
ENDMDL
