MODEL 1
REMARK minimizedAffinity 6.6937685
REMARK minimizedRMSD -1
REMARK  1 active torsions:
REMARK  status: ('A' for Active; 'I' for Inactive)
REMARK    1  A    between atoms: C1_2  and  C2_3 
ROOT
ATOM      1  C2  UNL d   1      -5.402   4.070  -4.271  0.00  0.00    -0.081 A 
ATOM      2  C3  UNL d   1      -5.970   2.791  -4.266  0.00  0.00     0.006 A 
ATOM      3  C4  UNL d   1      -5.972   2.021  -3.101  0.00  0.00     0.002 A 
ATOM      4  C5  UNL d   1      -5.413   2.519  -1.920  0.00  0.00    -0.080 A 
ATOM      5  C6  UNL d   1      -5.435   1.715  -0.654  0.00  0.00     0.076 C 
ATOM      6  C7  UNL d   1      -4.829   3.791  -1.928  0.00  0.00     0.002 A 
ATOM      7  C8  UNL d   1      -4.826   4.561  -3.093  0.00  0.00     0.006 A 
ENDROOT
BRANCH   1   8
ATOM      8  C1  UNL d   1      -5.456   4.929  -5.508  0.00  0.00     0.054 C 
ATOM      9  C   UNL d   1      -4.059   5.283  -5.998  0.00  0.00     0.018 C 
ENDBRANCH   1   8
TORSDOF 1
ENDMDL
