MODEL 1
REMARK minimizedAffinity -3.32012534
REMARK minimizedRMSD -1
REMARK  1 active torsions:
REMARK  status: ('A' for Active; 'I' for Inactive)
REMARK    1  A    between atoms: C1_2  and  C2_3 
ROOT
ATOM      1  C2  UNL d   1      -5.012   4.574  -3.571  0.00  0.00    -0.081 A 
ATOM      2  C3  UNL d   1      -4.135   3.483  -3.605  0.00  0.00     0.006 A 
ATOM      3  C4  UNL d   1      -4.194   2.496  -2.618  0.00  0.00     0.002 A 
ATOM      4  C5  UNL d   1      -5.136   2.580  -1.587  0.00  0.00    -0.080 A 
ATOM      5  C6  UNL d   1      -5.230   1.511  -0.538  0.00  0.00     0.076 C 
ATOM      6  C7  UNL d   1      -6.000   3.679  -1.543  0.00  0.00     0.002 A 
ATOM      7  C8  UNL d   1      -5.941   4.666  -2.529  0.00  0.00     0.006 A 
ENDROOT
BRANCH   1   8
ATOM      8  C1  UNL d   1      -4.993   5.607  -4.669  0.00  0.00     0.054 C 
ATOM      9  C   UNL d   1      -4.583   4.991  -6.000  0.00  0.00     0.018 C 
ENDBRANCH   1   8
TORSDOF 1
ENDMDL
