MODEL 1
REMARK minimizedAffinity -3.01989675
REMARK minimizedRMSD -1
REMARK  1 active torsions:
REMARK  status: ('A' for Active; 'I' for Inactive)
REMARK    1  A    between atoms: C1_2  and  C2_3 
ROOT
ATOM      1  C2  UNL d   1      -5.342   3.532  -4.510  0.00  0.00    -0.081 A 
ATOM      2  C3  UNL d   1      -5.888   2.346  -4.004  0.00  0.00     0.006 A 
ATOM      3  C4  UNL d   1      -5.279   1.117  -4.271  0.00  0.00     0.002 A 
ATOM      4  C5  UNL d   1      -4.113   1.054  -5.040  0.00  0.00    -0.080 A 
ATOM      5  C6  UNL d   1      -3.433  -0.255  -5.309  0.00  0.00     0.076 C 
ATOM      6  C7  UNL d   1      -3.578   2.238  -5.560  0.00  0.00     0.002 A 
ATOM      7  C8  UNL d   1      -4.186   3.467  -5.295  0.00  0.00     0.006 A 
ENDROOT
BRANCH   1   8
ATOM      8  C1  UNL d   1      -5.959   4.865  -4.170  0.00  0.00     0.054 C 
ATOM      9  C   UNL d   1      -5.999   5.782  -5.385  0.00  0.00     0.018 C 
ENDBRANCH   1   8
TORSDOF 1
ENDMDL
