MODEL 1
REMARK minimizedAffinity -0.830979645
REMARK minimizedRMSD -1
REMARK  1 active torsions:
REMARK  status: ('A' for Active; 'I' for Inactive)
REMARK    1  A    between atoms: C1_2  and  C2_3 
ROOT
ATOM      1  C2  UNL d   1       0.338   1.015  -0.821  0.00  0.00    -0.081 A 
ATOM      2  C3  UNL d   1       1.010  -0.173  -0.508  0.00  0.00     0.006 A 
ATOM      3  C4  UNL d   1       0.307  -1.275  -0.013  0.00  0.00     0.002 A 
ATOM      4  C5  UNL d   1      -1.078  -1.209   0.170  0.00  0.00    -0.080 A 
ATOM      5  C6  UNL d   1      -1.849  -2.393   0.673  0.00  0.00     0.076 C 
ATOM      6  C7  UNL d   1      -1.747  -0.016  -0.126  0.00  0.00     0.002 A 
ATOM      7  C8  UNL d   1      -1.045   1.086  -0.620  0.00  0.00     0.006 A 
ENDROOT
BRANCH   1   8
ATOM      8  C1  UNL d   1       1.083   2.182  -1.416  0.00  0.00     0.054 C 
ATOM      9  C   UNL d   1       1.429   1.932  -2.877  0.00  0.00     0.018 C 
ENDBRANCH   1   8
TORSDOF 1
ENDMDL
