MODEL 1
REMARK minimizedAffinity -6.04124069
REMARK minimizedRMSD -1
REMARK  1 active torsions:
REMARK  status: ('A' for Active; 'I' for Inactive)
REMARK    1  A    between atoms: C1_2  and  C2_3 
ROOT
ATOM      1  C2  UNL d   1      -1.768  -1.079   1.431  0.00  0.00    -0.081 A 
ATOM      2  C3  UNL d   1      -1.236  -2.245   1.994  0.00  0.00     0.006 A 
ATOM      3  C4  UNL d   1       0.035  -2.693   1.628  0.00  0.00     0.002 A 
ATOM      4  C5  UNL d   1       0.800  -1.978   0.700  0.00  0.00    -0.080 A 
ATOM      5  C6  UNL d   1       2.178  -2.431   0.321  0.00  0.00     0.076 C 
ATOM      6  C7  UNL d   1       0.262  -0.822   0.124  0.00  0.00     0.002 A 
ATOM      7  C8  UNL d   1      -1.010  -0.375   0.488  0.00  0.00     0.006 A 
ENDROOT
BRANCH   1   8
ATOM      8  C1  UNL d   1      -3.112  -0.559   1.871  0.00  0.00     0.054 C 
ATOM      9  C   UNL d   1      -3.095   0.955   2.028  0.00  0.00     0.018 C 
ENDBRANCH   1   8
TORSDOF 1
ENDMDL
