MODEL 1
REMARK minimizedAffinity -2.0492692
REMARK minimizedRMSD -1
REMARK  1 active torsions:
REMARK  status: ('A' for Active; 'I' for Inactive)
REMARK    1  A    between atoms: C1_2  and  C2_3 
ROOT
ATOM      1  C2  UNL d   1      -0.366  -1.381   0.893  0.00  0.00    -0.081 A 
ATOM      2  C3  UNL d   1       0.932  -1.272   0.378  0.00  0.00     0.006 A 
ATOM      3  C4  UNL d   1       1.331  -0.118  -0.299  0.00  0.00     0.002 A 
ATOM      4  C5  UNL d   1       0.442   0.950  -0.467  0.00  0.00    -0.080 A 
ATOM      5  C6  UNL d   1       0.867   2.207  -1.165  0.00  0.00     0.076 C 
ATOM      6  C7  UNL d   1      -0.860   0.834   0.032  0.00  0.00     0.002 A 
ATOM      7  C8  UNL d   1      -1.260  -0.320   0.709  0.00  0.00     0.006 A 
ENDROOT
BRANCH   1   8
ATOM      8  C1  UNL d   1      -0.779  -2.598   1.680  0.00  0.00     0.054 C 
ATOM      9  C   UNL d   1       0.264  -2.960   2.728  0.00  0.00     0.018 C 
ENDBRANCH   1   8
TORSDOF 1
ENDMDL
