MODEL 1
REMARK minimizedAffinity -0.707692027
REMARK minimizedRMSD -1
REMARK  1 active torsions:
REMARK  status: ('A' for Active; 'I' for Inactive)
REMARK    1  A    between atoms: C1_2  and  C2_3 
ROOT
ATOM      1  C2  UNL d   1       0.428   0.231   0.172  0.00  0.00    -0.081 A 
ATOM      2  C3  UNL d   1       0.745  -0.861   0.989  0.00  0.00     0.006 A 
ATOM      3  C4  UNL d   1      -0.237  -1.787   1.347  0.00  0.00     0.002 A 
ATOM      4  C5  UNL d   1      -1.551  -1.642   0.888  0.00  0.00    -0.080 A 
ATOM      5  C6  UNL d   1      -2.608  -2.645   1.240  0.00  0.00     0.076 C 
ATOM      6  C7  UNL d   1      -1.872  -0.542   0.086  0.00  0.00     0.002 A 
ATOM      7  C8  UNL d   1      -0.890   0.385  -0.272  0.00  0.00     0.006 A 
ENDROOT
BRANCH   1   8
ATOM      8  C1  UNL d   1       1.499   1.195  -0.269  0.00  0.00     0.054 C 
ATOM      9  C   UNL d   1       1.653   1.196  -1.783  0.00  0.00     0.018 C 
ENDBRANCH   1   8
TORSDOF 1
ENDMDL
