MODEL 1
REMARK minimizedAffinity -4.9673295
REMARK minimizedRMSD -1
REMARK  1 active torsions:
REMARK  status: ('A' for Active; 'I' for Inactive)
REMARK    1  A    between atoms: C1_2  and  C2_3 
ROOT
ATOM      1  C2  UNL d   1       0.799   0.775  -0.337  0.00  0.00    -0.081 A 
ATOM      2  C3  UNL d   1       1.534  -0.357   0.033  0.00  0.00     0.006 A 
ATOM      3  C4  UNL d   1       0.885  -1.503   0.497  0.00  0.00     0.002 A 
ATOM      4  C5  UNL d   1      -0.510  -1.539   0.593  0.00  0.00    -0.080 A 
ATOM      5  C6  UNL d   1      -1.222  -2.773   1.061  0.00  0.00     0.076 C 
ATOM      6  C7  UNL d   1      -1.245  -0.401   0.240  0.00  0.00     0.002 A 
ATOM      7  C8  UNL d   1      -0.596   0.745  -0.224  0.00  0.00     0.006 A 
ENDROOT
BRANCH   1   8
ATOM      8  C1  UNL d   1       1.492   1.990  -0.899  0.00  0.00     0.054 C 
ATOM      9  C   UNL d   1       1.193   2.161  -2.382  0.00  0.00     0.018 C 
ENDBRANCH   1   8
TORSDOF 1
ENDMDL
