MODEL 1
REMARK minimizedAffinity -3.71517682
REMARK minimizedRMSD -1
REMARK  1 active torsions:
REMARK  status: ('A' for Active; 'I' for Inactive)
REMARK    1  A    between atoms: C1_2  and  C2_3 
ROOT
ATOM      1  C2  UNL d   1       0.149   1.365  -0.826  0.00  0.00    -0.081 A 
ATOM      2  C3  UNL d   1       0.823   0.138  -0.811  0.00  0.00     0.006 A 
ATOM      3  C4  UNL d   1       0.246  -0.980  -0.203  0.00  0.00     0.002 A 
ATOM      4  C5  UNL d   1      -1.016  -0.891   0.393  0.00  0.00    -0.080 A 
ATOM      5  C6  UNL d   1      -1.660  -2.090   1.023  0.00  0.00     0.076 C 
ATOM      6  C7  UNL d   1      -1.682   0.340   0.394  0.00  0.00     0.002 A 
ATOM      7  C8  UNL d   1      -1.105   1.457  -0.213  0.00  0.00     0.006 A 
ENDROOT
BRANCH   1   8
ATOM      8  C1  UNL d   1       0.740   2.556  -1.537  0.00  0.00     0.054 C 
ATOM      9  C   UNL d   1       0.725   2.361  -3.047  0.00  0.00     0.018 C 
ENDBRANCH   1   8
TORSDOF 1
ENDMDL
