MODEL 1
REMARK minimizedAffinity -2.34994817
REMARK minimizedRMSD -1
REMARK  1 active torsions:
REMARK  status: ('A' for Active; 'I' for Inactive)
REMARK    1  A    between atoms: C1_2  and  C2_3 
ROOT
ATOM      1  C2  UNL d   1       0.180   0.689  -0.193  0.00  0.00    -0.081 A 
ATOM      2  C3  UNL d   1      -1.180   0.621   0.136  0.00  0.00     0.006 A 
ATOM      3  C4  UNL d   1      -1.729  -0.562   0.637  0.00  0.00     0.002 A 
ATOM      4  C5  UNL d   1      -0.927  -1.693   0.825  0.00  0.00    -0.080 A 
ATOM      5  C6  UNL d   1      -1.497  -2.960   1.390  0.00  0.00     0.076 C 
ATOM      6  C7  UNL d   1       0.428  -1.630   0.479  0.00  0.00     0.002 A 
ATOM      7  C8  UNL d   1       0.977  -0.448  -0.022  0.00  0.00     0.006 A 
ENDROOT
BRANCH   1   8
ATOM      8  C1  UNL d   1       0.788   1.982  -0.672  0.00  0.00     0.054 C 
ATOM      9  C   UNL d   1       0.543   2.191  -2.160  0.00  0.00     0.018 C 
ENDBRANCH   1   8
TORSDOF 1
ENDMDL
