MODEL 1
REMARK minimizedAffinity -4.0991354
REMARK minimizedRMSD -1
REMARK  1 active torsions:
REMARK  status: ('A' for Active; 'I' for Inactive)
REMARK    1  A    between atoms: C1_2  and  C2_3 
ROOT
ATOM      1  C2  UNL d   1       0.565   1.421  -0.355  0.00  0.00    -0.081 A 
ATOM      2  C3  UNL d   1       1.165   0.166  -0.192  0.00  0.00     0.006 A 
ATOM      3  C4  UNL d   1       0.437  -0.903   0.335  0.00  0.00     0.002 A 
ATOM      4  C5  UNL d   1      -0.903  -0.739   0.699  0.00  0.00    -0.080 A 
ATOM      5  C6  UNL d   1      -1.704  -1.887   1.238  0.00  0.00     0.076 C 
ATOM      6  C7  UNL d   1      -1.498   0.519   0.553  0.00  0.00     0.002 A 
ATOM      7  C8  UNL d   1      -0.771   1.589   0.026  0.00  0.00     0.006 A 
ENDROOT
BRANCH   1   8
ATOM      8  C1  UNL d   1       1.327   2.559  -0.983  0.00  0.00     0.054 C 
ATOM      9  C   UNL d   1       1.136   2.588  -2.493  0.00  0.00     0.018 C 
ENDBRANCH   1   8
TORSDOF 1
ENDMDL
