MODEL 1
REMARK minimizedAffinity -4.45383453
REMARK minimizedRMSD -1
REMARK  1 active torsions:
REMARK  status: ('A' for Active; 'I' for Inactive)
REMARK    1  A    between atoms: C1_2  and  C2_3 
ROOT
ATOM      1  C2  UNL d   1       0.581   1.020  -0.517  0.00  0.00    -0.081 A 
ATOM      2  C3  UNL d   1       1.309  -0.175  -0.583  0.00  0.00     0.006 A 
ATOM      3  C4  UNL d   1       0.767  -1.362  -0.085  0.00  0.00     0.002 A 
ATOM      4  C5  UNL d   1      -0.514  -1.376   0.479  0.00  0.00    -0.080 A 
ATOM      5  C6  UNL d   1      -1.119  -2.650   0.989  0.00  0.00     0.076 C 
ATOM      6  C7  UNL d   1      -1.233  -0.180   0.560  0.00  0.00     0.002 A 
ATOM      7  C8  UNL d   1      -0.692   1.008   0.063  0.00  0.00     0.006 A 
ENDROOT
BRANCH   1   8
ATOM      8  C1  UNL d   1       1.137   2.289  -1.112  0.00  0.00     0.054 C 
ATOM      9  C   UNL d   1       0.683   2.470  -2.553  0.00  0.00     0.018 C 
ENDBRANCH   1   8
TORSDOF 1
ENDMDL
