MODEL 1
REMARK minimizedAffinity -4.82202864
REMARK minimizedRMSD -1
REMARK  1 active torsions:
REMARK  status: ('A' for Active; 'I' for Inactive)
REMARK    1  A    between atoms: C1_2  and  C2_3 
ROOT
ATOM      1  C2  UNL d   1       0.199   0.755  -0.359  0.00  0.00    -0.081 A 
ATOM      2  C3  UNL d   1       0.881  -0.459  -0.211  0.00  0.00     0.006 A 
ATOM      3  C4  UNL d   1       0.266  -1.545   0.417  0.00  0.00     0.002 A 
ATOM      4  C5  UNL d   1      -1.042  -1.437   0.901  0.00  0.00    -0.080 A 
ATOM      5  C6  UNL d   1      -1.724  -2.604   1.551  0.00  0.00     0.076 C 
ATOM      6  C7  UNL d   1      -1.717  -0.219   0.769  0.00  0.00     0.002 A 
ATOM      7  C8  UNL d   1      -1.102   0.867   0.141  0.00  0.00     0.006 A 
ENDROOT
BRANCH   1   8
ATOM      8  C1  UNL d   1       0.836   1.907  -1.094  0.00  0.00     0.054 C 
ATOM      9  C   UNL d   1       0.333   1.994  -2.528  0.00  0.00     0.018 C 
ENDBRANCH   1   8
TORSDOF 1
ENDMDL
