MODEL 1
REMARK minimizedAffinity -1.84852982
REMARK minimizedRMSD -1
REMARK  1 active torsions:
REMARK  status: ('A' for Active; 'I' for Inactive)
REMARK    1  A    between atoms: C1_2  and  C2_3 
ROOT
ATOM      1  C2  UNL d   1       0.854   0.795  -0.652  0.00  0.00    -0.081 A 
ATOM      2  C3  UNL d   1       1.801  -0.237  -0.643  0.00  0.00     0.006 A 
ATOM      3  C4  UNL d   1       1.531  -1.439   0.017  0.00  0.00     0.002 A 
ATOM      4  C5  UNL d   1       0.309  -1.632   0.669  0.00  0.00    -0.080 A 
ATOM      5  C6  UNL d   1      -0.004  -2.929   1.355  0.00  0.00     0.076 C 
ATOM      6  C7  UNL d   1      -0.630  -0.595   0.675  0.00  0.00     0.002 A 
ATOM      7  C8  UNL d   1      -0.361   0.607   0.016  0.00  0.00     0.006 A 
ENDROOT
BRANCH   1   8
ATOM      8  C1  UNL d   1       1.115   2.067  -1.417  0.00  0.00     0.054 C 
ATOM      9  C   UNL d   1       0.834   1.888  -2.902  0.00  0.00     0.018 C 
ENDBRANCH   1   8
TORSDOF 1
ENDMDL
