MODEL 1
REMARK minimizedAffinity -3.70410156
REMARK minimizedRMSD -1
REMARK  1 active torsions:
REMARK  status: ('A' for Active; 'I' for Inactive)
REMARK    1  A    between atoms: C1_2  and  C2_3 
ROOT
ATOM      1  C2  UNL d   1       0.429   1.096  -1.254  0.00  0.00    -0.081 A 
ATOM      2  C3  UNL d   1       1.040  -0.157  -1.124  0.00  0.00     0.006 A 
ATOM      3  C4  UNL d   1       0.493  -1.128  -0.281  0.00  0.00     0.002 A 
ATOM      4  C5  UNL d   1      -0.678  -0.865   0.438  0.00  0.00    -0.080 A 
ATOM      5  C6  UNL d   1      -1.292  -1.909   1.323  0.00  0.00     0.076 C 
ATOM      6  C7  UNL d   1      -1.279   0.393   0.322  0.00  0.00     0.002 A 
ATOM      7  C8  UNL d   1      -0.732   1.364  -0.520  0.00  0.00     0.006 A 
ENDROOT
BRANCH   1   8
ATOM      8  C1  UNL d   1       0.980   2.122  -2.211  0.00  0.00     0.054 C 
ATOM      9  C   UNL d   1       0.913   1.629  -3.650  0.00  0.00     0.018 C 
ENDBRANCH   1   8
TORSDOF 1
ENDMDL
