MODEL 1
REMARK minimizedAffinity -3.23433495
REMARK minimizedRMSD -1
REMARK  0 active torsions:
REMARK  status: ('A' for Active; 'I' for Inactive)
ROOT
ATOM      1  C   UNL d   1       1.354  -1.207   2.436  0.00  0.00     0.124 A 
ATOM      2  C1  UNL d   1       2.008  -1.279   1.214  0.00  0.00     0.062 A 
ATOM      3  C2  UNL d   1       1.395  -0.795   0.062  0.00  0.00     0.162 A 
ATOM      4  C3  UNL d   1       0.120  -0.234   0.127  0.00  0.00    -0.034 A 
ATOM      5  C4  UNL d   1      -0.533  -0.166   1.359  0.00  0.00     0.162 A 
ATOM      6  C5  UNL d   1       0.085  -0.651   2.508  0.00  0.00     0.062 A 
ATOM      7  F   UNL d   1      -0.549  -0.581   3.687  0.00  0.00    -0.097 F 
ATOM      8  F1  UNL d   1      -1.760   0.367   1.457  0.00  0.00    -0.096 F 
ATOM      9  I   UNL d   1      -0.801   0.491  -1.593  0.00  0.00    -0.060 I 
ATOM     10  F2  UNL d   1       2.051  -0.877  -1.105  0.00  0.00    -0.096 F 
ATOM     11  F3  UNL d   1       3.235  -1.816   1.143  0.00  0.00    -0.097 F 
ATOM     12  F4  UNL d   1       1.946  -1.674   3.543  0.00  0.00    -0.092 F 
ENDROOT
TORSDOF 0
ENDMDL
