MODEL 1
REMARK minimizedAffinity -0.794988453
REMARK minimizedRMSD -1
REMARK  0 active torsions:
REMARK  status: ('A' for Active; 'I' for Inactive)
ROOT
ATOM      1  C   UNL d   1       0.590  -0.362   2.662  0.00  0.00     0.124 A 
ATOM      2  C1  UNL d   1      -0.509  -0.037   1.879  0.00  0.00     0.062 A 
ATOM      3  C2  UNL d   1      -0.404  -0.038   0.491  0.00  0.00     0.162 A 
ATOM      4  C3  UNL d   1       0.804  -0.367  -0.123  0.00  0.00    -0.034 A 
ATOM      5  C4  UNL d   1       1.905  -0.692   0.671  0.00  0.00     0.162 A 
ATOM      6  C5  UNL d   1       1.795  -0.689   2.058  0.00  0.00     0.062 A 
ATOM      7  F   UNL d   1       2.858  -1.004   2.813  0.00  0.00    -0.097 F 
ATOM      8  F1  UNL d   1       3.082  -1.013   0.114  0.00  0.00    -0.096 F 
ATOM      9  I   UNL d   1       0.965  -0.370  -2.198  0.00  0.00    -0.060 I 
ATOM     10  F2  UNL d   1      -1.482   0.280  -0.241  0.00  0.00    -0.096 F 
ATOM     11  F3  UNL d   1      -1.675   0.280   2.461  0.00  0.00    -0.097 F 
ATOM     12  F4  UNL d   1       0.486  -0.359   3.998  0.00  0.00    -0.092 F 
ENDROOT
TORSDOF 0
ENDMDL
