MODEL 1
REMARK minimizedAffinity -1.18192017
REMARK minimizedRMSD -1
REMARK  0 active torsions:
REMARK  status: ('A' for Active; 'I' for Inactive)
ROOT
ATOM      1  C   UNL d   1       0.885  -0.824   2.031  0.00  0.00     0.124 A 
ATOM      2  C1  UNL d   1       1.467  -0.603   0.791  0.00  0.00     0.062 A 
ATOM      3  C2  UNL d   1       0.729  -0.020  -0.235  0.00  0.00     0.162 A 
ATOM      4  C3  UNL d   1      -0.600   0.348  -0.025  0.00  0.00    -0.034 A 
ATOM      5  C4  UNL d   1      -1.179   0.121   1.225  0.00  0.00     0.162 A 
ATOM      6  C5  UNL d   1      -0.437  -0.462   2.247  0.00  0.00     0.062 A 
ATOM      7  F   UNL d   1      -1.002  -0.675   3.445  0.00  0.00    -0.097 F 
ATOM      8  F1  UNL d   1      -2.455   0.462   1.461  0.00  0.00    -0.096 F 
ATOM      9  I   UNL d   1      -1.707   1.220  -1.556  0.00  0.00    -0.060 I 
ATOM     10  F2  UNL d   1       1.318   0.182  -1.423  0.00  0.00    -0.096 F 
ATOM     11  F3  UNL d   1       2.744  -0.953   0.580  0.00  0.00    -0.097 F 
ATOM     12  F4  UNL d   1       1.597  -1.386   3.016  0.00  0.00    -0.092 F 
ENDROOT
TORSDOF 0
ENDMDL
