MODEL 1
REMARK minimizedAffinity 6.57995176
REMARK minimizedRMSD -1
REMARK  0 active torsions:
REMARK  status: ('A' for Active; 'I' for Inactive)
ROOT
ATOM      1  C   UNL d   1      -1.009  -1.166  -0.381  0.00  0.00     0.124 A 
ATOM      2  C1  UNL d   1      -1.548  -0.958   0.881  0.00  0.00     0.062 A 
ATOM      3  C2  UNL d   1      -0.714  -0.712   1.967  0.00  0.00     0.162 A 
ATOM      4  C3  UNL d   1       0.670  -0.670   1.796  0.00  0.00    -0.034 A 
ATOM      5  C4  UNL d   1       1.205  -0.880   0.524  0.00  0.00     0.162 A 
ATOM      6  C5  UNL d   1       0.367  -1.126  -0.559  0.00  0.00     0.062 A 
ATOM      7  F   UNL d   1       0.890  -1.327  -1.777  0.00  0.00    -0.097 F 
ATOM      8  F1  UNL d   1       2.531  -0.847   0.324  0.00  0.00    -0.096 F 
ATOM      9  I   UNL d   1       1.922  -0.301   3.417  0.00  0.00    -0.060 I 
ATOM     10  F2  UNL d   1      -1.262  -0.515   3.175  0.00  0.00    -0.096 F 
ATOM     11  F3  UNL d   1      -2.877  -0.997   1.055  0.00  0.00    -0.097 F 
ATOM     12  F4  UNL d   1      -1.814  -1.404  -1.424  0.00  0.00    -0.092 F 
ENDROOT
TORSDOF 0
ENDMDL
