MODEL 1
REMARK minimizedAffinity -2.64847279
REMARK minimizedRMSD -1
REMARK  0 active torsions:
REMARK  status: ('A' for Active; 'I' for Inactive)
ROOT
ATOM      1  C   UNL d   1       1.733  -1.231   1.698  0.00  0.00     0.124 A 
ATOM      2  C1  UNL d   1       0.659  -0.436   2.073  0.00  0.00     0.062 A 
ATOM      3  C2  UNL d   1      -0.139   0.165   1.105  0.00  0.00     0.162 A 
ATOM      4  C3  UNL d   1       0.133  -0.026  -0.250  0.00  0.00    -0.034 A 
ATOM      5  C4  UNL d   1       1.216  -0.826  -0.620  0.00  0.00     0.162 A 
ATOM      6  C5  UNL d   1       2.011  -1.425   0.352  0.00  0.00     0.062 A 
ATOM      7  F   UNL d   1       3.048  -2.192  -0.013  0.00  0.00    -0.097 F 
ATOM      8  F1  UNL d   1       1.505  -1.031  -1.913  0.00  0.00    -0.096 F 
ATOM      9  I   UNL d   1      -1.059   0.871  -1.701  0.00  0.00    -0.060 I 
ATOM     10  F2  UNL d   1      -1.171   0.928   1.497  0.00  0.00    -0.096 F 
ATOM     11  F3  UNL d   1       0.390  -0.246   3.373  0.00  0.00    -0.097 F 
ATOM     12  F4  UNL d   1       2.501  -1.807   2.632  0.00  0.00    -0.092 F 
ENDROOT
TORSDOF 0
ENDMDL
