MODEL 1
REMARK minimizedAffinity -0.397956431
REMARK minimizedRMSD -1
REMARK  0 active torsions:
REMARK  status: ('A' for Active; 'I' for Inactive)
ROOT
ATOM      1  C   UNL d   1      -1.263   0.203   1.563  0.00  0.00     0.124 A 
ATOM      2  C1  UNL d   1      -0.177  -0.105   2.371  0.00  0.00     0.062 A 
ATOM      3  C2  UNL d   1       0.971  -0.665   1.817  0.00  0.00     0.162 A 
ATOM      4  C3  UNL d   1       1.039  -0.921   0.448  0.00  0.00    -0.034 A 
ATOM      5  C4  UNL d   1      -0.057  -0.609  -0.358  0.00  0.00     0.162 A 
ATOM      6  C5  UNL d   1      -1.202  -0.050   0.200  0.00  0.00     0.062 A 
ATOM      7  F   UNL d   1      -2.250   0.247  -0.582  0.00  0.00    -0.097 F 
ATOM      8  F1  UNL d   1      -0.025  -0.842  -1.679  0.00  0.00    -0.096 F 
ATOM      9  I   UNL d   1       2.754  -1.758  -0.384  0.00  0.00    -0.060 I 
ATOM     10  F2  UNL d   1       2.005  -0.952   2.622  0.00  0.00    -0.096 F 
ATOM     11  F3  UNL d   1      -0.233   0.137   3.688  0.00  0.00    -0.097 F 
ATOM     12  F4  UNL d   1      -2.366   0.741   2.098  0.00  0.00    -0.092 F 
ENDROOT
TORSDOF 0
ENDMDL
