MODEL 1
REMARK minimizedAffinity 3.13198733
REMARK minimizedRMSD -1
REMARK  0 active torsions:
REMARK  status: ('A' for Active; 'I' for Inactive)
ROOT
ATOM      1  C   UNL d   1      -0.295  -0.748   1.814  0.00  0.00     0.124 A 
ATOM      2  C1  UNL d   1      -1.424  -0.297   1.144  0.00  0.00     0.062 A 
ATOM      3  C2  UNL d   1      -1.310   0.258  -0.127  0.00  0.00     0.162 A 
ATOM      4  C3  UNL d   1      -0.061   0.363  -0.739  0.00  0.00    -0.034 A 
ATOM      5  C4  UNL d   1       1.071  -0.091  -0.059  0.00  0.00     0.162 A 
ATOM      6  C5  UNL d   1       0.951  -0.645   1.212  0.00  0.00     0.062 A 
ATOM      7  F   UNL d   1       2.043  -1.080   1.857  0.00  0.00    -0.097 F 
ATOM      8  F1  UNL d   1       2.287  -0.005  -0.618  0.00  0.00    -0.096 F 
ATOM      9  I   UNL d   1       0.115   1.192  -2.640  0.00  0.00    -0.060 I 
ATOM     10  F2  UNL d   1      -2.418   0.685  -0.750  0.00  0.00    -0.096 F 
ATOM     11  F3  UNL d   1      -2.629  -0.395   1.724  0.00  0.00    -0.097 F 
ATOM     12  F4  UNL d   1      -0.408  -1.280   3.037  0.00  0.00    -0.092 F 
ENDROOT
TORSDOF 0
ENDMDL
