MODEL 1
REMARK minimizedAffinity 0.148112312
REMARK minimizedRMSD -1
REMARK  0 active torsions:
REMARK  status: ('A' for Active; 'I' for Inactive)
ROOT
ATOM      1  C   UNL d   1       2.972  -1.940   0.205  0.00  0.00     0.124 A 
ATOM      2  C1  UNL d   1       1.773  -1.577  -0.394  0.00  0.00     0.062 A 
ATOM      3  C2  UNL d   1       0.736  -1.058   0.376  0.00  0.00     0.162 A 
ATOM      4  C3  UNL d   1       0.893  -0.898   1.752  0.00  0.00    -0.034 A 
ATOM      5  C4  UNL d   1       2.101  -1.266   2.347  0.00  0.00     0.162 A 
ATOM      6  C5  UNL d   1       3.134  -1.784   1.574  0.00  0.00     0.062 A 
ATOM      7  F   UNL d   1       4.292  -2.135   2.154  0.00  0.00    -0.097 F 
ATOM      8  F1  UNL d   1       2.285  -1.125   3.668  0.00  0.00    -0.096 F 
ATOM      9  I   UNL d   1      -0.656  -0.122   2.906  0.00  0.00    -0.060 I 
ATOM     10  F2  UNL d   1      -0.411  -0.716  -0.229  0.00  0.00    -0.096 F 
ATOM     11  F3  UNL d   1       1.613  -1.728  -1.716  0.00  0.00    -0.097 F 
ATOM     12  F4  UNL d   1       3.968  -2.441  -0.538  0.00  0.00    -0.092 F 
ENDROOT
TORSDOF 0
ENDMDL
