MODEL 1
REMARK minimizedAffinity 0.88987267
REMARK minimizedRMSD -1
REMARK  0 active torsions:
REMARK  status: ('A' for Active; 'I' for Inactive)
ROOT
ATOM      1  C   UNL d   1      -2.071  -3.459   0.705  0.00  0.00     0.078 C 
ATOM      2  C1  UNL d   1      -2.861  -2.185   0.733  0.00  0.00    -0.077 A 
ATOM      3  C2  UNL d   1      -3.424  -1.711   1.924  0.00  0.00    -0.001 A 
ATOM      4  C3  UNL d   1      -4.166  -0.528   1.934  0.00  0.00     0.003 A 
ATOM      5  C4  UNL d   1      -4.352   0.190   0.754  0.00  0.00    -0.005 A 
ATOM      6  C5  UNL d   1      -3.798  -0.275  -0.437  0.00  0.00     0.003 A 
ATOM      7  C6  UNL d   1      -3.056  -1.457  -0.448  0.00  0.00    -0.001 A 
ENDROOT
TORSDOF 0
ENDMDL
