MODEL 1
REMARK minimizedAffinity -3.4437139
REMARK minimizedRMSD -1
REMARK  0 active torsions:
REMARK  status: ('A' for Active; 'I' for Inactive)
ROOT
ATOM      1  C   UNL d   1       0.001  -2.618   5.952  0.00  0.00     0.078 C 
ATOM      2  C1  UNL d   1      -0.662  -3.794   5.299  0.00  0.00    -0.077 A 
ATOM      3  C2  UNL d   1      -1.582  -4.583   6.000  0.00  0.00    -0.001 A 
ATOM      4  C3  UNL d   1      -2.185  -5.681   5.383  0.00  0.00     0.003 A 
ATOM      5  C4  UNL d   1      -1.872  -6.000   4.063  0.00  0.00    -0.005 A 
ATOM      6  C5  UNL d   1      -0.956  -5.222   3.359  0.00  0.00     0.003 A 
ATOM      7  C6  UNL d   1      -0.352  -4.124   3.974  0.00  0.00    -0.001 A 
ENDROOT
TORSDOF 0
ENDMDL
