MODEL 1
REMARK minimizedAffinity 6.67913485
REMARK minimizedRMSD -1
REMARK  0 active torsions:
REMARK  status: ('A' for Active; 'I' for Inactive)
ROOT
ATOM      1  C   UNL d   1      -1.590  -4.614   1.284  0.00  0.00     0.078 C 
ATOM      2  C1  UNL d   1      -1.896  -3.160   1.485  0.00  0.00    -0.077 A 
ATOM      3  C2  UNL d   1      -2.209  -2.658   2.754  0.00  0.00    -0.001 A 
ATOM      4  C3  UNL d   1      -2.500  -1.303   2.925  0.00  0.00     0.003 A 
ATOM      5  C4  UNL d   1      -2.483  -0.440   1.832  0.00  0.00    -0.005 A 
ATOM      6  C5  UNL d   1      -2.174  -0.931   0.565  0.00  0.00     0.003 A 
ATOM      7  C6  UNL d   1      -1.883  -2.285   0.391  0.00  0.00    -0.001 A 
ENDROOT
TORSDOF 0
ENDMDL
