MODEL 1
REMARK minimizedAffinity 5.15215492
REMARK minimizedRMSD -1
REMARK  0 active torsions:
REMARK  status: ('A' for Active; 'I' for Inactive)
ROOT
ATOM      1  C   UNL d   1      -5.830   4.886   1.448  0.00  0.00     0.078 C 
ATOM      2  C1  UNL d   1      -4.351   5.126   1.376  0.00  0.00    -0.077 A 
ATOM      3  C2  UNL d   1      -3.674   5.775   2.416  0.00  0.00    -0.001 A 
ATOM      4  C3  UNL d   1      -2.299   6.000   2.332  0.00  0.00     0.003 A 
ATOM      5  C4  UNL d   1      -1.590   5.581   1.209  0.00  0.00    -0.005 A 
ATOM      6  C5  UNL d   1      -2.255   4.936   0.167  0.00  0.00     0.003 A 
ATOM      7  C6  UNL d   1      -3.630   4.710   0.250  0.00  0.00    -0.001 A 
ENDROOT
TORSDOF 0
ENDMDL
