MODEL 1
REMARK minimizedAffinity 5.60441923
REMARK minimizedRMSD -1
REMARK  0 active torsions:
REMARK  status: ('A' for Active; 'I' for Inactive)
ROOT
ATOM      1  C   UNL d   1       1.874  -1.503   1.870  0.00  0.00     0.078 C 
ATOM      2  C1  UNL d   1       2.410  -0.817   0.649  0.00  0.00    -0.077 A 
ATOM      3  C2  UNL d   1       2.217  -1.360  -0.627  0.00  0.00    -0.001 A 
ATOM      4  C3  UNL d   1       2.730  -0.716  -1.754  0.00  0.00     0.003 A 
ATOM      5  C4  UNL d   1       3.440   0.475  -1.616  0.00  0.00    -0.005 A 
ATOM      6  C5  UNL d   1       3.639   1.023  -0.350  0.00  0.00     0.003 A 
ATOM      7  C6  UNL d   1       3.127   0.380   0.778  0.00  0.00    -0.001 A 
ENDROOT
TORSDOF 0
ENDMDL
