MODEL 1
REMARK minimizedAffinity 5.15605545
REMARK minimizedRMSD -1
REMARK  0 active torsions:
REMARK  status: ('A' for Active; 'I' for Inactive)
ROOT
ATOM      1  C   UNL d   1       0.128   2.564   1.129  0.00  0.00     0.078 C 
ATOM      2  C1  UNL d   1       1.393   1.925   0.637  0.00  0.00    -0.077 A 
ATOM      3  C2  UNL d   1       2.521   2.698   0.336  0.00  0.00    -0.001 A 
ATOM      4  C3  UNL d   1       3.688   2.091  -0.130  0.00  0.00     0.003 A 
ATOM      5  C4  UNL d   1       3.739   0.709  -0.299  0.00  0.00    -0.005 A 
ATOM      6  C5  UNL d   1       2.621  -0.068  -0.004  0.00  0.00     0.003 A 
ATOM      7  C6  UNL d   1       1.452   0.537   0.462  0.00  0.00    -0.001 A 
ENDROOT
TORSDOF 0
ENDMDL
