MODEL 1
REMARK minimizedAffinity 2.83688474
REMARK minimizedRMSD -1
REMARK  0 active torsions:
REMARK  status: ('A' for Active; 'I' for Inactive)
ROOT
ATOM      1  C   UNL d   1       0.743  -1.709   5.638  0.00  0.00     0.078 C 
ATOM      2  C1  UNL d   1       0.067  -3.042   5.757  0.00  0.00    -0.077 A 
ATOM      3  C2  UNL d   1      -1.325  -3.137   5.878  0.00  0.00    -0.001 A 
ATOM      4  C3  UNL d   1      -1.940  -4.384   5.998  0.00  0.00     0.003 A 
ATOM      5  C4  UNL d   1      -1.171  -5.546   6.000  0.00  0.00    -0.005 A 
ATOM      6  C5  UNL d   1       0.215  -5.462   5.883  0.00  0.00     0.003 A 
ATOM      7  C6  UNL d   1       0.832  -4.215   5.763  0.00  0.00    -0.001 A 
ENDROOT
TORSDOF 0
ENDMDL
