MODEL 1
REMARK minimizedAffinity 6.3698144
REMARK minimizedRMSD -1
REMARK  0 active torsions:
REMARK  status: ('A' for Active; 'I' for Inactive)
ROOT
ATOM      1  C   UNL d   1       3.762   1.436  -0.110  0.00  0.00     0.078 C 
ATOM      2  C1  UNL d   1       2.563   0.536  -0.141  0.00  0.00    -0.077 A 
ATOM      3  C2  UNL d   1       2.686  -0.818  -0.476  0.00  0.00    -0.001 A 
ATOM      4  C3  UNL d   1       1.560  -1.642  -0.510  0.00  0.00     0.003 A 
ATOM      5  C4  UNL d   1       0.303  -1.121  -0.210  0.00  0.00    -0.005 A 
ATOM      6  C5  UNL d   1       0.171   0.225   0.123  0.00  0.00     0.003 A 
ATOM      7  C6  UNL d   1       1.295   1.051   0.157  0.00  0.00    -0.001 A 
ENDROOT
TORSDOF 0
ENDMDL
