MODEL 1
REMARK minimizedAffinity 4.53364086
REMARK minimizedRMSD -1
REMARK  2 active torsions:
REMARK  status: ('A' for Active; 'I' for Inactive)
REMARK    1  A    between atoms: C2'_3  and  C1'_4 
REMARK    2  A    between atoms: C1'_4  and  C1_5 
ROOT
ATOM      1  C1  I4B d   1      -3.031   0.860   4.334  0.00  0.00    -0.075 A 
ATOM      2  C2  I4B d   1      -1.812   0.255   4.513  0.00  0.00     0.003 A 
ATOM      3  C3  I4B d   1      -1.188  -0.423   3.438  0.00  0.00     0.002 A 
ATOM      4  C4  I4B d   1      -1.837  -0.515   2.224  0.00  0.00    -0.004 A 
ATOM      5  C5  I4B d   1      -3.063   0.118   2.038  0.00  0.00     0.002 A 
ATOM      6  C6  I4B d   1      -3.658   0.821   3.095  0.00  0.00     0.003 A 
ENDROOT
BRANCH   1   7
ATOM      7  C1' I4B d   1      -3.677   1.540   5.500  0.00  0.00     0.060 C 
BRANCH   7   8
ATOM      8  C2' I4B d   1      -4.646   2.572   4.960  0.00  0.00    -0.013 C 
ATOM      9  C4' I4B d   1      -5.973   1.947   4.617  0.00  0.00     0.013 C 
ATOM     10  C3' I4B d   1      -4.804   3.645   5.996  0.00  0.00     0.013 C 
ENDBRANCH   7   8
ENDBRANCH   1   7
TORSDOF 2
ENDMDL
