MODEL 1
REMARK minimizedAffinity 10.966814
REMARK minimizedRMSD -1
REMARK  2 active torsions:
REMARK  status: ('A' for Active; 'I' for Inactive)
REMARK    1  A    between atoms: C2'_3  and  C1'_4 
REMARK    2  A    between atoms: C1'_4  and  C1_5 
ROOT
ATOM      1  C1  I4B d   1       2.250   3.234  -2.158  0.00  0.00    -0.075 A 
ATOM      2  C2  I4B d   1       1.156   4.064  -2.163  0.00  0.00     0.003 A 
ATOM      3  C3  I4B d   1       1.328   5.470  -2.196  0.00  0.00     0.002 A 
ATOM      4  C4  I4B d   1       2.602   5.999  -2.173  0.00  0.00    -0.004 A 
ATOM      5  C5  I4B d   1       3.710   5.156  -2.192  0.00  0.00     0.002 A 
ATOM      6  C6  I4B d   1       3.533   3.764  -2.197  0.00  0.00     0.003 A 
ENDROOT
BRANCH   1   7
ATOM      7  C1' I4B d   1       2.032   1.756  -2.089  0.00  0.00     0.060 C 
BRANCH   7   8
ATOM      8  C2' I4B d   1       2.827   1.221  -0.916  0.00  0.00    -0.013 C 
ATOM      9  C4' I4B d   1       1.923   0.830   0.223  0.00  0.00     0.013 C 
ATOM     10  C3' I4B d   1       3.630   0.049  -1.397  0.00  0.00     0.013 C 
ENDBRANCH   7   8
ENDBRANCH   1   7
TORSDOF 2
ENDMDL
