MODEL 1
REMARK minimizedAffinity 14.7910357
REMARK minimizedRMSD -1
REMARK  2 active torsions:
REMARK  status: ('A' for Active; 'I' for Inactive)
REMARK    1  A    between atoms: C2'_3  and  C1'_4 
REMARK    2  A    between atoms: C1'_4  and  C1_5 
ROOT
ATOM      1  C1  I4B d   1      -2.445   0.855   3.587  0.00  0.00    -0.075 A 
ATOM      2  C2  I4B d   1      -3.549   1.670   3.575  0.00  0.00     0.003 A 
ATOM      3  C3  I4B d   1      -4.138   2.090   4.792  0.00  0.00     0.002 A 
ATOM      4  C4  I4B d   1      -3.625   1.634   5.989  0.00  0.00    -0.004 A 
ATOM      5  C5  I4B d   1      -2.491   0.827   6.000  0.00  0.00     0.002 A 
ATOM      6  C6  I4B d   1      -1.890   0.444   4.792  0.00  0.00     0.003 A 
ENDROOT
BRANCH   1   7
ATOM      7  C1' I4B d   1      -1.868   0.403   2.283  0.00  0.00     0.060 C 
BRANCH   7   8
ATOM      8  C2' I4B d   1      -1.416  -1.034   2.445  0.00  0.00    -0.013 C 
ATOM      9  C4' I4B d   1      -2.113  -1.938   1.463  0.00  0.00     0.013 C 
ATOM     10  C3' I4B d   1       0.071  -1.076   2.258  0.00  0.00     0.013 C 
ENDBRANCH   7   8
ENDBRANCH   1   7
TORSDOF 2
ENDMDL
