MODEL 1
REMARK minimizedAffinity 16.9035397
REMARK minimizedRMSD -1
REMARK  2 active torsions:
REMARK  status: ('A' for Active; 'I' for Inactive)
REMARK    1  A    between atoms: C2'_3  and  C1'_4 
REMARK    2  A    between atoms: C1'_4  and  C1_5 
ROOT
ATOM      1  C1  I4B d   1      -4.637   1.063   3.055  0.00  0.00    -0.075 A 
ATOM      2  C2  I4B d   1      -4.894   0.278   1.959  0.00  0.00     0.003 A 
ATOM      3  C3  I4B d   1      -3.856  -0.482   1.368  0.00  0.00     0.002 A 
ATOM      4  C4  I4B d   1      -2.574  -0.389   1.870  0.00  0.00    -0.004 A 
ATOM      5  C5  I4B d   1      -2.320   0.390   2.996  0.00  0.00     0.002 A 
ATOM      6  C6  I4B d   1      -3.361   1.110   3.600  0.00  0.00     0.003 A 
ENDROOT
BRANCH   1   7
ATOM      7  C1' I4B d   1      -5.750   1.877   3.635  0.00  0.00     0.060 C 
BRANCH   7   8
ATOM      8  C2' I4B d   1      -5.176   2.721   4.755  0.00  0.00    -0.013 C 
ATOM      9  C4' I4B d   1      -5.981   3.977   4.959  0.00  0.00     0.013 C 
ATOM     10  C3' I4B d   1      -5.154   1.884   6.000  0.00  0.00     0.013 C 
ENDBRANCH   7   8
ENDBRANCH   1   7
TORSDOF 2
ENDMDL
