MODEL 1
REMARK minimizedAffinity 12.8997183
REMARK minimizedRMSD -1
REMARK  2 active torsions:
REMARK  status: ('A' for Active; 'I' for Inactive)
REMARK    1  A    between atoms: C2'_3  and  C1'_4 
REMARK    2  A    between atoms: C1'_4  and  C1_5 
ROOT
ATOM      1  C1  I4B d   1       3.566   5.285  -1.839  0.00  0.00    -0.075 A 
ATOM      2  C2  I4B d   1       2.392   5.991  -1.926  0.00  0.00     0.003 A 
ATOM      3  C3  I4B d   1       1.208   5.352  -2.367  0.00  0.00     0.002 A 
ATOM      4  C4  I4B d   1       1.254   4.029  -2.756  0.00  0.00    -0.004 A 
ATOM      5  C5  I4B d   1       2.440   3.309  -2.645  0.00  0.00     0.002 A 
ATOM      6  C6  I4B d   1       3.601   3.937  -2.172  0.00  0.00     0.003 A 
ENDROOT
BRANCH   1   7
ATOM      7  C1' I4B d   1       4.805   6.000  -1.401  0.00  0.00     0.060 C 
BRANCH   7   8
ATOM      8  C2' I4B d   1       5.999   5.186  -1.857  0.00  0.00    -0.013 C 
ATOM      9  C4' I4B d   1       5.987   3.810  -1.244  0.00  0.00     0.013 C 
ATOM     10  C3' I4B d   1       5.964   5.111  -3.354  0.00  0.00     0.013 C 
ENDBRANCH   7   8
ENDBRANCH   1   7
TORSDOF 2
ENDMDL
