MODEL 1
REMARK minimizedAffinity 13.3170891
REMARK minimizedRMSD -1
REMARK  2 active torsions:
REMARK  status: ('A' for Active; 'I' for Inactive)
REMARK    1  A    between atoms: C2'_3  and  C1'_4 
REMARK    2  A    between atoms: C1'_4  and  C1_5 
ROOT
ATOM      1  C1  I4B d   1       2.382   0.487  -0.318  0.00  0.00    -0.075 A 
ATOM      2  C2  I4B d   1       2.570   0.421  -1.676  0.00  0.00     0.003 A 
ATOM      3  C3  I4B d   1       2.458   1.588  -2.469  0.00  0.00     0.002 A 
ATOM      4  C4  I4B d   1       2.109   2.783  -1.874  0.00  0.00    -0.004 A 
ATOM      5  C5  I4B d   1       1.942   2.853  -0.494  0.00  0.00     0.002 A 
ATOM      6  C6  I4B d   1       2.091   1.701   0.291  0.00  0.00     0.003 A 
ENDROOT
BRANCH   1   7
ATOM      7  C1' I4B d   1       2.476  -0.771   0.485  0.00  0.00     0.060 C 
BRANCH   7   8
ATOM      8  C2' I4B d   1       1.379  -0.741   1.530  0.00  0.00    -0.013 C 
ATOM      9  C4' I4B d   1       0.217  -1.610   1.125  0.00  0.00     0.013 C 
ATOM     10  C3' I4B d   1       1.967  -1.196   2.832  0.00  0.00     0.013 C 
ENDBRANCH   7   8
ENDBRANCH   1   7
TORSDOF 2
ENDMDL
