MODEL 1
REMARK minimizedAffinity 5.20669794
REMARK minimizedRMSD -1
REMARK  2 active torsions:
REMARK  status: ('A' for Active; 'I' for Inactive)
REMARK    1  A    between atoms: C2'_3  and  C1'_4 
REMARK    2  A    between atoms: C1'_4  and  C1_5 
ROOT
ATOM      1  C1  I4B d   1      -1.264  -5.535  -1.713  0.00  0.00    -0.075 A 
ATOM      2  C2  I4B d   1      -0.143  -4.989  -2.287  0.00  0.00     0.003 A 
ATOM      3  C3  I4B d   1      -0.032  -4.905  -3.696  0.00  0.00     0.002 A 
ATOM      4  C4  I4B d   1      -1.037  -5.420  -4.488  0.00  0.00    -0.004 A 
ATOM      5  C5  I4B d   1      -2.184  -5.952  -3.905  0.00  0.00     0.002 A 
ATOM      6  C6  I4B d   1      -2.304  -5.999  -2.508  0.00  0.00     0.003 A 
ENDROOT
BRANCH   1   7
ATOM      7  C1' I4B d   1      -1.334  -5.638  -0.222  0.00  0.00     0.060 C 
BRANCH   7   8
ATOM      8  C2' I4B d   1      -0.860  -4.322   0.360  0.00  0.00    -0.013 C 
ATOM      9  C4' I4B d   1      -1.912  -3.707   1.244  0.00  0.00     0.013 C 
ATOM     10  C3' I4B d   1       0.405  -4.582   1.122  0.00  0.00     0.013 C 
ENDBRANCH   7   8
ENDBRANCH   1   7
TORSDOF 2
ENDMDL
