MODEL 1
REMARK minimizedAffinity -4.25494242
REMARK minimizedRMSD -1
REMARK  0 active torsions:
REMARK  status: ('A' for Active; 'I' for Inactive)
ROOT
ATOM      1  C   UNL d   1      -1.382  -0.198   2.827  0.00  0.00     0.023 A 
ATOM      2  C1  UNL d   1      -0.083   0.282   2.659  0.00  0.00     0.003 A 
ATOM      3  C2  UNL d   1       0.436   0.462   1.375  0.00  0.00     0.048 A 
ATOM      4  C3  UNL d   1      -0.350   0.160   0.263  0.00  0.00     0.023 A 
ATOM      5  C4  UNL d   1      -1.651  -0.320   0.426  0.00  0.00     0.048 A 
ATOM      6  C5  UNL d   1      -2.165  -0.498   1.712  0.00  0.00     0.003 A 
ATOM      7  I   UNL d   1       0.420   0.426  -1.649  0.00  0.00    -0.146 I 
ENDROOT
TORSDOF 0
ENDMDL
