MODEL 1
REMARK minimizedAffinity -0.726006925
REMARK minimizedRMSD -1
REMARK  0 active torsions:
REMARK  status: ('A' for Active; 'I' for Inactive)
ROOT
ATOM      1  C   UNL d   1      -0.597  -0.755   3.068  0.00  0.00     0.023 A 
ATOM      2  C1  UNL d   1      -1.240  -1.401   2.012  0.00  0.00     0.003 A 
ATOM      3  C2  UNL d   1      -1.085  -0.930   0.706  0.00  0.00     0.048 A 
ATOM      4  C3  UNL d   1      -0.286   0.186   0.463  0.00  0.00     0.023 A 
ATOM      5  C4  UNL d   1       0.360   0.835   1.516  0.00  0.00     0.048 A 
ATOM      6  C5  UNL d   1       0.202   0.362   2.820  0.00  0.00     0.003 A 
ATOM      7  I   UNL d   1      -0.055   0.888  -1.480  0.00  0.00    -0.146 I 
ENDROOT
TORSDOF 0
ENDMDL
