MODEL 1
REMARK minimizedAffinity 2.1397438
REMARK minimizedRMSD -1
REMARK  0 active torsions:
REMARK  status: ('A' for Active; 'I' for Inactive)
ROOT
ATOM      1  C   UNL d   1       0.971   0.512   0.577  0.00  0.00     0.023 A 
ATOM      2  C1  UNL d   1      -0.148   0.586  -0.252  0.00  0.00     0.003 A 
ATOM      3  C2  UNL d   1      -1.401   0.882   0.288  0.00  0.00     0.048 A 
ATOM      4  C3  UNL d   1      -1.527   1.104   1.659  0.00  0.00     0.023 A 
ATOM      5  C4  UNL d   1      -0.410   1.032   2.493  0.00  0.00     0.048 A 
ATOM      6  C5  UNL d   1       0.840   0.734   1.948  0.00  0.00     0.003 A 
ATOM      7  I   UNL d   1      -3.391   1.546   2.466  0.00  0.00    -0.146 I 
ENDROOT
TORSDOF 0
ENDMDL
