MODEL 1
REMARK minimizedAffinity -4.37029362
REMARK minimizedRMSD -1
REMARK  0 active torsions:
REMARK  status: ('A' for Active; 'I' for Inactive)
ROOT
ATOM      1  C   UNL d   1      -1.040   0.833   2.355  0.00  0.00     0.023 A 
ATOM      2  C1  UNL d   1      -1.954   0.863   1.301  0.00  0.00     0.003 A 
ATOM      3  C2  UNL d   1      -1.561   0.463   0.023  0.00  0.00     0.048 A 
ATOM      4  C3  UNL d   1      -0.253   0.032  -0.195  0.00  0.00     0.023 A 
ATOM      5  C4  UNL d   1       0.665  -0.001   0.856  0.00  0.00     0.048 A 
ATOM      6  C5  UNL d   1       0.267   0.401   2.133  0.00  0.00     0.003 A 
ATOM      7  I   UNL d   1       0.335  -0.564  -2.098  0.00  0.00    -0.146 I 
ENDROOT
TORSDOF 0
ENDMDL
