MODEL 1
REMARK minimizedAffinity -4.51304626
REMARK minimizedRMSD -1
REMARK  0 active torsions:
REMARK  status: ('A' for Active; 'I' for Inactive)
ROOT
ATOM      1  C   UNL d   1      -2.345  -0.006   3.107  0.00  0.00     0.023 A 
ATOM      2  C1  UNL d   1      -3.001   0.461   1.969  0.00  0.00     0.003 A 
ATOM      3  C2  UNL d   1      -2.324   0.528   0.749  0.00  0.00     0.048 A 
ATOM      4  C3  UNL d   1      -0.991   0.126   0.675  0.00  0.00     0.023 A 
ATOM      5  C4  UNL d   1      -0.331  -0.343   1.812  0.00  0.00     0.048 A 
ATOM      6  C5  UNL d   1      -1.011  -0.408   3.029  0.00  0.00     0.003 A 
ATOM      7  I   UNL d   1       0.019   0.225  -1.139  0.00  0.00    -0.146 I 
ENDROOT
TORSDOF 0
ENDMDL
