MODEL 1
REMARK minimizedAffinity -1.741189
REMARK minimizedRMSD -1
REMARK  0 active torsions:
REMARK  status: ('A' for Active; 'I' for Inactive)
ROOT
ATOM      1  C   UNL d   1       1.288  -2.028  -4.159  0.00  0.00     0.023 A 
ATOM      2  C1  UNL d   1       0.018  -2.291  -3.646  0.00  0.00     0.003 A 
ATOM      3  C2  UNL d   1      -0.453  -1.576  -2.544  0.00  0.00     0.048 A 
ATOM      4  C3  UNL d   1       0.350  -0.598  -1.959  0.00  0.00     0.023 A 
ATOM      5  C4  UNL d   1       1.622  -0.330  -2.470  0.00  0.00     0.048 A 
ATOM      6  C5  UNL d   1       2.089  -1.048  -3.572  0.00  0.00     0.003 A 
ATOM      7  I   UNL d   1      -0.349   0.469  -0.318  0.00  0.00    -0.146 I 
ENDROOT
TORSDOF 0
ENDMDL
