MODEL 1
REMARK minimizedAffinity -1.71331942
REMARK minimizedRMSD -1
REMARK  0 active torsions:
REMARK  status: ('A' for Active; 'I' for Inactive)
ROOT
ATOM      1  C   UNL d   1      -1.388   0.523   3.728  0.00  0.00     0.023 A 
ATOM      2  C1  UNL d   1      -2.381   0.698   2.763  0.00  0.00     0.003 A 
ATOM      3  C2  UNL d   1      -2.056   0.640   1.406  0.00  0.00     0.048 A 
ATOM      4  C3  UNL d   1      -0.736   0.405   1.021  0.00  0.00     0.023 A 
ATOM      5  C4  UNL d   1       0.260   0.228   1.983  0.00  0.00     0.048 A 
ATOM      6  C5  UNL d   1      -0.070   0.288   3.338  0.00  0.00     0.003 A 
ATOM      7  I   UNL d   1      -0.250   0.318  -0.998  0.00  0.00    -0.146 I 
ENDROOT
TORSDOF 0
ENDMDL
