MODEL 1
REMARK minimizedAffinity -1.5174228
REMARK minimizedRMSD -1
REMARK  0 active torsions:
REMARK  status: ('A' for Active; 'I' for Inactive)
ROOT
ATOM      1  C   UNL d   1      -1.030   0.679   2.587  0.00  0.00     0.023 A 
ATOM      2  C1  UNL d   1      -1.905   0.840   1.512  0.00  0.00     0.003 A 
ATOM      3  C2  UNL d   1      -1.421   0.786   0.203  0.00  0.00     0.048 A 
ATOM      4  C3  UNL d   1      -0.063   0.569  -0.024  0.00  0.00     0.023 A 
ATOM      5  C4  UNL d   1       0.816   0.406   1.049  0.00  0.00     0.048 A 
ATOM      6  C5  UNL d   1       0.328   0.462   2.356  0.00  0.00     0.003 A 
ATOM      7  I   UNL d   1       0.659   0.487  -1.971  0.00  0.00    -0.146 I 
ENDROOT
TORSDOF 0
ENDMDL
