MODEL 1
REMARK minimizedAffinity -3.16167998
REMARK minimizedRMSD -1
REMARK  0 active torsions:
REMARK  status: ('A' for Active; 'I' for Inactive)
ROOT
ATOM      1  C   UNL d   1      -1.153   0.149   3.283  0.00  0.00     0.023 A 
ATOM      2  C1  UNL d   1       0.114   0.635   2.962  0.00  0.00     0.003 A 
ATOM      3  C2  UNL d   1       0.552   0.624   1.636  0.00  0.00     0.048 A 
ATOM      4  C3  UNL d   1      -0.283   0.126   0.636  0.00  0.00     0.023 A 
ATOM      5  C4  UNL d   1      -1.552  -0.361   0.953  0.00  0.00     0.048 A 
ATOM      6  C5  UNL d   1      -1.985  -0.348   2.280  0.00  0.00     0.003 A 
ATOM      7  I   UNL d   1       0.367   0.109  -1.338  0.00  0.00    -0.146 I 
ENDROOT
TORSDOF 0
ENDMDL
