MODEL 1
REMARK minimizedAffinity -1.58549666
REMARK minimizedRMSD -1
REMARK  0 active torsions:
REMARK  status: ('A' for Active; 'I' for Inactive)
ROOT
ATOM      1  C   UNL d   1      -0.453  -0.386   3.084  0.00  0.00     0.023 A 
ATOM      2  C1  UNL d   1       0.708   0.194   2.573  0.00  0.00     0.003 A 
ATOM      3  C2  UNL d   1       0.838   0.405   1.199  0.00  0.00     0.048 A 
ATOM      4  C3  UNL d   1      -0.197   0.034   0.341  0.00  0.00     0.023 A 
ATOM      5  C4  UNL d   1      -1.360  -0.546   0.848  0.00  0.00     0.048 A 
ATOM      6  C5  UNL d   1      -1.486  -0.756   2.222  0.00  0.00     0.003 A 
ATOM      7  I   UNL d   1      -0.005   0.348  -1.704  0.00  0.00    -0.146 I 
ENDROOT
TORSDOF 0
ENDMDL
