MODEL 1
REMARK minimizedAffinity -3.27768683
REMARK minimizedRMSD -1
REMARK  0 active torsions:
REMARK  status: ('A' for Active; 'I' for Inactive)
ROOT
ATOM      1  C   UNL d   1      -1.101  -0.649   2.952  0.00  0.00     0.023 A 
ATOM      2  C1  UNL d   1      -1.509  -1.341   1.811  0.00  0.00     0.003 A 
ATOM      3  C2  UNL d   1      -0.857  -1.130   0.595  0.00  0.00     0.048 A 
ATOM      4  C3  UNL d   1       0.202  -0.225   0.526  0.00  0.00     0.023 A 
ATOM      5  C4  UNL d   1       0.614   0.469   1.664  0.00  0.00     0.048 A 
ATOM      6  C5  UNL d   1      -0.041   0.255   2.879  0.00  0.00     0.003 A 
ATOM      7  I   UNL d   1       1.174   0.091  -1.284  0.00  0.00    -0.146 I 
ENDROOT
TORSDOF 0
ENDMDL
