MODEL 1
REMARK minimizedAffinity -1.68065608
REMARK minimizedRMSD -1
REMARK  0 active torsions:
REMARK  status: ('A' for Active; 'I' for Inactive)
ROOT
ATOM      1  C   UNL d   1      -0.711  -0.017   2.980  0.00  0.00     0.023 A 
ATOM      2  C1  UNL d   1      -1.402  -0.632   1.936  0.00  0.00     0.003 A 
ATOM      3  C2  UNL d   1      -0.875  -0.616   0.643  0.00  0.00     0.048 A 
ATOM      4  C3  UNL d   1       0.344   0.016   0.401  0.00  0.00     0.023 A 
ATOM      5  C4  UNL d   1       1.040   0.632   1.443  0.00  0.00     0.048 A 
ATOM      6  C5  UNL d   1       0.508   0.614   2.734  0.00  0.00     0.003 A 
ATOM      7  I   UNL d   1       1.131   0.041  -1.522  0.00  0.00    -0.146 I 
ENDROOT
TORSDOF 0
ENDMDL
