MODEL 1
REMARK minimizedAffinity -1.91846299
REMARK minimizedRMSD -1
REMARK  0 active torsions:
REMARK  status: ('A' for Active; 'I' for Inactive)
ROOT
ATOM      1  C   UNL d   1      -0.839  -0.140   2.983  0.00  0.00     0.023 A 
ATOM      2  C1  UNL d   1      -1.823  -0.191   1.995  0.00  0.00     0.003 A 
ATOM      3  C2  UNL d   1      -1.468  -0.082   0.649  0.00  0.00     0.048 A 
ATOM      4  C3  UNL d   1      -0.128   0.077   0.297  0.00  0.00     0.023 A 
ATOM      5  C4  UNL d   1       0.860   0.128   1.283  0.00  0.00     0.048 A 
ATOM      6  C5  UNL d   1       0.500   0.019   2.627  0.00  0.00     0.003 A 
ATOM      7  I   UNL d   1       0.403   0.240  -1.706  0.00  0.00    -0.146 I 
ENDROOT
TORSDOF 0
ENDMDL
