MODEL 1
REMARK minimizedAffinity -3.6735785
REMARK minimizedRMSD -1
REMARK  0 active torsions:
REMARK  status: ('A' for Active; 'I' for Inactive)
ROOT
ATOM      1  C   UNL d   1      -1.253  -0.101   2.722  0.00  0.00     0.023 A 
ATOM      2  C1  UNL d   1      -2.097  -0.008   1.615  0.00  0.00     0.003 A 
ATOM      3  C2  UNL d   1      -1.562  -0.025   0.325  0.00  0.00     0.048 A 
ATOM      4  C3  UNL d   1      -0.183  -0.135   0.149  0.00  0.00     0.023 A 
ATOM      5  C4  UNL d   1       0.664  -0.230   1.254  0.00  0.00     0.048 A 
ATOM      6  C5  UNL d   1       0.126  -0.212   2.542  0.00  0.00     0.003 A 
ATOM      7  I   UNL d   1       0.614  -0.161  -1.770  0.00  0.00    -0.146 I 
ENDROOT
TORSDOF 0
ENDMDL
