MODEL 1
REMARK minimizedAffinity 19.5589523
REMARK minimizedRMSD -1
REMARK  0 active torsions:
REMARK  status: ('A' for Active; 'I' for Inactive)
ROOT
ATOM      1  C1  DEN d   1       5.210   5.999   2.564  0.00  0.00     0.130 A 
ATOM      2  C2  DEN d   1       5.712   6.000   3.935  0.00  0.00    -0.031 A 
ATOM      3  C3  DEN d   1       5.491   4.655   4.503  0.00  0.00     0.027 A 
ATOM      4  C4  DEN d   1       4.429   2.581   3.397  0.00  0.00     0.027 A 
ATOM      5  C5  DEN d   1       3.842   2.099   2.248  0.00  0.00    -0.003 A 
ATOM      6  C6  DEN d   1       3.641   2.885   1.145  0.00  0.00     0.001 A 
ATOM      7  C7  DEN d   1       4.071   4.186   1.151  0.00  0.00     0.017 A 
ATOM      8  C8  DEN d   1       4.657   4.682   2.308  0.00  0.00    -0.094 A 
ATOM      9  C9  DEN d   1       4.862   3.867   3.409  0.00  0.00    -0.072 A 
ENDROOT
TORSDOF 0
ENDMDL
