MODEL 1
REMARK minimizedAffinity 16.7555637
REMARK minimizedRMSD -1
REMARK  0 active torsions:
REMARK  status: ('A' for Active; 'I' for Inactive)
ROOT
ATOM      1  C1  DEN d   1       0.328  -4.009  -5.999  0.00  0.00     0.130 A 
ATOM      2  C2  DEN d   1       1.369  -5.034  -5.989  0.00  0.00    -0.031 A 
ATOM      3  C3  DEN d   1       2.612  -4.416  -5.486  0.00  0.00     0.027 A 
ATOM      4  C4  DEN d   1       3.024  -1.987  -4.723  0.00  0.00     0.027 A 
ATOM      5  C5  DEN d   1       2.445  -0.747  -4.562  0.00  0.00    -0.003 A 
ATOM      6  C6  DEN d   1       1.140  -0.502  -4.899  0.00  0.00     0.001 A 
ATOM      7  C7  DEN d   1       0.357  -1.522  -5.371  0.00  0.00     0.017 A 
ATOM      8  C8  DEN d   1       0.936  -2.773  -5.542  0.00  0.00    -0.094 A 
ATOM      9  C9  DEN d   1       2.253  -3.004  -5.185  0.00  0.00    -0.072 A 
ENDROOT
TORSDOF 0
ENDMDL
