MODEL 1
REMARK minimizedAffinity 8.11494446
REMARK minimizedRMSD -1
REMARK  0 active torsions:
REMARK  status: ('A' for Active; 'I' for Inactive)
ROOT
ATOM      1  C1  DEN d   1      -0.365   2.521   4.739  0.00  0.00     0.130 A 
ATOM      2  C2  DEN d   1       0.438   2.682   5.948  0.00  0.00    -0.031 A 
ATOM      3  C3  DEN d   1       1.413   1.575   5.999  0.00  0.00     0.027 A 
ATOM      4  C4  DEN d   1       1.758  -0.363   4.332  0.00  0.00     0.027 A 
ATOM      5  C5  DEN d   1       1.307  -0.928   3.160  0.00  0.00    -0.003 A 
ATOM      6  C6  DEN d   1       0.254  -0.408   2.456  0.00  0.00     0.001 A 
ATOM      7  C7  DEN d   1      -0.355   0.738   2.894  0.00  0.00     0.017 A 
ATOM      8  C8  DEN d   1       0.089   1.310   4.078  0.00  0.00    -0.094 A 
ATOM      9  C9  DEN d   1       1.163   0.776   4.769  0.00  0.00    -0.072 A 
ENDROOT
TORSDOF 0
ENDMDL
