MODEL 1
REMARK minimizedAffinity 10.8913126
REMARK minimizedRMSD -1
REMARK  0 active torsions:
REMARK  status: ('A' for Active; 'I' for Inactive)
ROOT
ATOM      1  C1  DEN d   1       4.305   1.997   5.571  0.00  0.00     0.130 A 
ATOM      2  C2  DEN d   1       5.351   1.397   4.748  0.00  0.00    -0.031 A 
ATOM      3  C3  DEN d   1       6.000   2.476   3.976  0.00  0.00     0.027 A 
ATOM      4  C4  DEN d   1       5.493   5.005   3.981  0.00  0.00     0.027 A 
ATOM      5  C5  DEN d   1       4.684   5.987   4.510  0.00  0.00    -0.003 A 
ATOM      6  C6  DEN d   1       3.679   5.706   5.397  0.00  0.00     0.001 A 
ATOM      7  C7  DEN d   1       3.484   4.416   5.816  0.00  0.00     0.017 A 
ATOM      8  C8  DEN d   1       4.291   3.420   5.281  0.00  0.00    -0.094 A 
ATOM      9  C9  DEN d   1       5.310   3.726   4.396  0.00  0.00    -0.072 A 
ENDROOT
TORSDOF 0
ENDMDL
