MODEL 1
REMARK minimizedAffinity 18.8965225
REMARK minimizedRMSD -1
REMARK  0 active torsions:
REMARK  status: ('A' for Active; 'I' for Inactive)
ROOT
ATOM      1  C1  DEN d   1      -1.122  -3.277  -5.999  0.00  0.00     0.130 A 
ATOM      2  C2  DEN d   1      -1.937  -4.282  -5.323  0.00  0.00    -0.031 A 
ATOM      3  C3  DEN d   1      -2.001  -3.929  -3.890  0.00  0.00     0.027 A 
ATOM      4  C4  DEN d   1      -0.927  -1.931  -2.662  0.00  0.00     0.027 A 
ATOM      5  C5  DEN d   1      -0.134  -0.815  -2.813  0.00  0.00    -0.003 A 
ATOM      6  C6  DEN d   1       0.409  -0.463  -4.021  0.00  0.00     0.001 A 
ATOM      7  C7  DEN d   1       0.128  -1.210  -5.134  0.00  0.00     0.017 A 
ATOM      8  C8  DEN d   1      -0.664  -2.341  -4.988  0.00  0.00    -0.094 A 
ATOM      9  C9  DEN d   1      -1.214  -2.673  -3.761  0.00  0.00    -0.072 A 
ENDROOT
TORSDOF 0
ENDMDL
