MODEL 1
REMARK minimizedAffinity 1.24524307
REMARK minimizedRMSD -1
REMARK  0 active torsions:
REMARK  status: ('A' for Active; 'I' for Inactive)
ROOT
ATOM      1  C   UNL d   1       3.685   0.433  -0.372  0.00  0.00     0.078 C 
ATOM      2  C1  UNL d   1       3.352  -0.956  -0.827  0.00  0.00    -0.077 A 
ATOM      3  C2  UNL d   1       2.988  -1.948   0.091  0.00  0.00    -0.001 A 
ATOM      4  C3  UNL d   1       2.690  -3.240  -0.346  0.00  0.00     0.003 A 
ATOM      5  C4  UNL d   1       2.754  -3.552  -1.703  0.00  0.00    -0.005 A 
ATOM      6  C5  UNL d   1       3.117  -2.571  -2.624  0.00  0.00     0.003 A 
ATOM      7  C6  UNL d   1       3.416  -1.279  -2.189  0.00  0.00    -0.001 A 
ENDROOT
TORSDOF 0
ENDMDL
