MODEL 1
REMARK minimizedAffinity -1.61663115
REMARK minimizedRMSD -1
REMARK  0 active torsions:
REMARK  status: ('A' for Active; 'I' for Inactive)
ROOT
ATOM      1  C   UNL d   1       3.007  -0.043  -1.116  0.00  0.00     0.078 C 
ATOM      2  C1  UNL d   1       3.850   0.917  -0.330  0.00  0.00    -0.077 A 
ATOM      3  C2  UNL d   1       3.310   2.107   0.172  0.00  0.00    -0.001 A 
ATOM      4  C3  UNL d   1       4.110   2.995   0.894  0.00  0.00     0.003 A 
ATOM      5  C4  UNL d   1       5.453   2.703   1.118  0.00  0.00    -0.005 A 
ATOM      6  C5  UNL d   1       6.000   1.522   0.621  0.00  0.00     0.003 A 
ATOM      7  C6  UNL d   1       5.202   0.632  -0.101  0.00  0.00    -0.001 A 
ENDROOT
TORSDOF 0
ENDMDL
