MODEL 1
REMARK minimizedAffinity 2.8732245
REMARK minimizedRMSD -1
REMARK  0 active torsions:
REMARK  status: ('A' for Active; 'I' for Inactive)
ROOT
ATOM      1  C   UNL d   1       2.700   0.004  -0.955  0.00  0.00     0.078 C 
ATOM      2  C1  UNL d   1       3.786   0.914  -0.465  0.00  0.00    -0.077 A 
ATOM      3  C2  UNL d   1       3.641   2.306  -0.520  0.00  0.00    -0.001 A 
ATOM      4  C3  UNL d   1       4.664   3.141  -0.069  0.00  0.00     0.003 A 
ATOM      5  C4  UNL d   1       5.841   2.594   0.439  0.00  0.00    -0.005 A 
ATOM      6  C5  UNL d   1       5.996   1.211   0.495  0.00  0.00     0.003 A 
ATOM      7  C6  UNL d   1       4.973   0.374   0.045  0.00  0.00    -0.001 A 
ENDROOT
TORSDOF 0
ENDMDL
