MODEL 1
REMARK minimizedAffinity 6.0085597
REMARK minimizedRMSD -1
REMARK  0 active torsions:
REMARK  status: ('A' for Active; 'I' for Inactive)
ROOT
ATOM      1  C   UNL d   1      -4.454  -0.526  -1.112  0.00  0.00     0.078 C 
ATOM      2  C1  UNL d   1      -4.054  -0.194  -2.519  0.00  0.00    -0.077 A 
ATOM      3  C2  UNL d   1      -2.730  -0.347  -2.947  0.00  0.00    -0.001 A 
ATOM      4  C3  UNL d   1      -2.370  -0.025  -4.257  0.00  0.00     0.003 A 
ATOM      5  C4  UNL d   1      -3.328   0.453  -5.149  0.00  0.00    -0.005 A 
ATOM      6  C5  UNL d   1      -4.648   0.611  -4.731  0.00  0.00     0.003 A 
ATOM      7  C6  UNL d   1      -5.010   0.289  -3.422  0.00  0.00    -0.001 A 
ENDROOT
TORSDOF 0
ENDMDL
