MODEL 1
REMARK minimizedAffinity -2.53833175
REMARK minimizedRMSD -1
REMARK  0 active torsions:
REMARK  status: ('A' for Active; 'I' for Inactive)
ROOT
ATOM      1  C   UNL d   1       5.679   2.702   0.710  0.00  0.00     0.078 C 
ATOM      2  C1  UNL d   1       4.817   1.635   0.105  0.00  0.00    -0.077 A 
ATOM      3  C2  UNL d   1       4.326   1.758  -1.201  0.00  0.00    -0.001 A 
ATOM      4  C3  UNL d   1       3.517   0.761  -1.748  0.00  0.00     0.003 A 
ATOM      5  C4  UNL d   1       3.189  -0.365  -0.996  0.00  0.00    -0.005 A 
ATOM      6  C5  UNL d   1       3.670  -0.495   0.305  0.00  0.00     0.003 A 
ATOM      7  C6  UNL d   1       4.480   0.500   0.854  0.00  0.00    -0.001 A 
ENDROOT
TORSDOF 0
ENDMDL
