MODEL 1
REMARK minimizedAffinity 5.4417057
REMARK minimizedRMSD -1
REMARK  0 active torsions:
REMARK  status: ('A' for Active; 'I' for Inactive)
ROOT
ATOM      1  C   UNL d   1       2.613   0.296  -0.758  0.00  0.00     0.078 C 
ATOM      2  C1  UNL d   1       3.681   1.132  -0.119  0.00  0.00    -0.077 A 
ATOM      3  C2  UNL d   1       3.391   2.400   0.400  0.00  0.00    -0.001 A 
ATOM      4  C3  UNL d   1       4.397   3.172   0.983  0.00  0.00     0.003 A 
ATOM      5  C4  UNL d   1       5.701   2.685   1.051  0.00  0.00    -0.005 A 
ATOM      6  C5  UNL d   1       6.000   1.425   0.535  0.00  0.00     0.003 A 
ATOM      7  C6  UNL d   1       4.995   0.652  -0.048  0.00  0.00    -0.001 A 
ENDROOT
TORSDOF 0
ENDMDL
