MODEL 1
REMARK minimizedAffinity 1.96478736
REMARK minimizedRMSD -1
REMARK  0 active torsions:
REMARK  status: ('A' for Active; 'I' for Inactive)
ROOT
ATOM      1  C   UNL d   1       3.059  -0.692  -0.384  0.00  0.00     0.078 C 
ATOM      2  C1  UNL d   1       3.912   0.520  -0.153  0.00  0.00    -0.077 A 
ATOM      3  C2  UNL d   1       5.221   0.399   0.329  0.00  0.00    -0.001 A 
ATOM      4  C3  UNL d   1       5.999   1.537   0.549  0.00  0.00     0.003 A 
ATOM      5  C4  UNL d   1       5.478   2.802   0.290  0.00  0.00    -0.005 A 
ATOM      6  C5  UNL d   1       4.175   2.932  -0.188  0.00  0.00     0.003 A 
ATOM      7  C6  UNL d   1       3.395   1.796  -0.409  0.00  0.00    -0.001 A 
ENDROOT
TORSDOF 0
ENDMDL
