MODEL 1
REMARK minimizedAffinity -4.84645796
REMARK minimizedRMSD -1
REMARK  2 active torsions:
REMARK  status: ('A' for Active; 'I' for Inactive)
REMARK    1  A    between atoms: C1_2  and  C2_3 
REMARK    2  A    between atoms: C2_3  and  C3_4 
ROOT
ATOM      1  C3  UNL d   1       0.046   0.544  -0.329  0.00  0.00    -0.075 A 
ATOM      2  C4  UNL d   1      -0.784   0.269   0.768  0.00  0.00     0.002 A 
ATOM      3  C5  UNL d   1      -0.975  -1.045   1.199  0.00  0.00     0.002 A 
ATOM      4  C6  UNL d   1      -0.350  -2.097   0.534  0.00  0.00    -0.004 A 
ATOM      5  C7  UNL d   1       0.463  -1.836  -0.567  0.00  0.00     0.002 A 
ATOM      6  C8  UNL d   1       0.660  -0.523  -0.997  0.00  0.00     0.002 A 
ENDROOT
BRANCH   1   7
ATOM      7  C2  UNL d   1       0.281   1.966  -0.782  0.00  0.00     0.056 C 
BRANCH   7   8
ATOM      8  C1  UNL d   1       0.930   2.859   0.280  0.00  0.00     0.007 C 
ATOM      9  C   UNL d   1       2.401   3.143   0.007  0.00  0.00     0.009 C 
ENDBRANCH   7   8
ENDBRANCH   1   7
TORSDOF 2
ENDMDL
