MODEL 1
REMARK minimizedAffinity -4.66705561
REMARK minimizedRMSD -1
REMARK  2 active torsions:
REMARK  status: ('A' for Active; 'I' for Inactive)
REMARK    1  A    between atoms: C1_2  and  C2_3 
REMARK    2  A    between atoms: C2_3  and  C3_4 
ROOT
ATOM      1  C3  UNL d   1       0.236   1.417  -0.398  0.00  0.00    -0.075 A 
ATOM      2  C4  UNL d   1       0.557   0.341   0.441  0.00  0.00     0.002 A 
ATOM      3  C5  UNL d   1       0.481  -0.971  -0.029  0.00  0.00     0.002 A 
ATOM      4  C6  UNL d   1       0.075  -1.223  -1.337  0.00  0.00    -0.004 A 
ATOM      5  C7  UNL d   1      -0.262  -0.161  -2.175  0.00  0.00     0.002 A 
ATOM      6  C8  UNL d   1      -0.183   1.152  -1.709  0.00  0.00     0.002 A 
ENDROOT
BRANCH   1   7
ATOM      7  C2  UNL d   1       0.345   2.840   0.096  0.00  0.00     0.056 C 
BRANCH   7   8
ATOM      8  C1  UNL d   1       1.783   3.364   0.177  0.00  0.00     0.007 C 
ATOM      9  C   UNL d   1       2.317   3.434   1.601  0.00  0.00     0.009 C 
ENDBRANCH   7   8
ENDBRANCH   1   7
TORSDOF 2
ENDMDL
