MODEL 1
REMARK minimizedAffinity -4.9054985
REMARK minimizedRMSD -1
REMARK  2 active torsions:
REMARK  status: ('A' for Active; 'I' for Inactive)
REMARK    1  A    between atoms: C1_2  and  C2_3 
REMARK    2  A    between atoms: C2_3  and  C3_4 
ROOT
ATOM      1  C3  UNL d   1       0.072  -1.406  -0.179  0.00  0.00    -0.075 A 
ATOM      2  C4  UNL d   1       0.313  -1.414  -1.561  0.00  0.00     0.002 A 
ATOM      3  C5  UNL d   1       0.246  -2.605  -2.284  0.00  0.00     0.002 A 
ATOM      4  C6  UNL d   1      -0.053  -3.802  -1.636  0.00  0.00    -0.004 A 
ATOM      5  C7  UNL d   1      -0.278  -3.808  -0.261  0.00  0.00     0.002 A 
ATOM      6  C8  UNL d   1      -0.215  -2.617   0.465  0.00  0.00     0.002 A 
ENDROOT
BRANCH   1   7
ATOM      7  C2  UNL d   1       0.114  -0.116   0.605  0.00  0.00     0.056 C 
BRANCH   7   8
ATOM      8  C1  UNL d   1      -0.085   1.140  -0.250  0.00  0.00     0.007 C 
ATOM      9  C   UNL d   1       0.462   2.403   0.401  0.00  0.00     0.009 C 
ENDBRANCH   7   8
ENDBRANCH   1   7
TORSDOF 2
ENDMDL
