MODEL 1
REMARK minimizedAffinity -1.54515791
REMARK minimizedRMSD -1
REMARK  2 active torsions:
REMARK  status: ('A' for Active; 'I' for Inactive)
REMARK    1  A    between atoms: C1_2  and  C2_3 
REMARK    2  A    between atoms: C2_3  and  C3_4 
ROOT
ATOM      1  C3  UNL d   1      -0.483   0.226  -0.053  0.00  0.00    -0.075 A 
ATOM      2  C4  UNL d   1       0.127  -0.801  -0.787  0.00  0.00     0.002 A 
ATOM      3  C5  UNL d   1      -0.033  -2.134  -0.408  0.00  0.00     0.002 A 
ATOM      4  C6  UNL d   1      -0.795  -2.456   0.713  0.00  0.00    -0.004 A 
ATOM      5  C7  UNL d   1      -1.392  -1.443   1.459  0.00  0.00     0.002 A 
ATOM      6  C8  UNL d   1      -1.237  -0.108   1.080  0.00  0.00     0.002 A 
ENDROOT
BRANCH   1   7
ATOM      7  C2  UNL d   1      -0.337   1.669  -0.475  0.00  0.00     0.056 C 
BRANCH   7   8
ATOM      8  C1  UNL d   1      -0.142   2.643   0.692  0.00  0.00     0.007 C 
ATOM      9  C   UNL d   1       1.244   3.273   0.722  0.00  0.00     0.009 C 
ENDBRANCH   7   8
ENDBRANCH   1   7
TORSDOF 2
ENDMDL
