MODEL 1
REMARK minimizedAffinity -1.46807182
REMARK minimizedRMSD -1
REMARK  2 active torsions:
REMARK  status: ('A' for Active; 'I' for Inactive)
REMARK    1  A    between atoms: C1_2  and  C2_3 
REMARK    2  A    between atoms: C2_3  and  C3_4 
ROOT
ATOM      1  C3  UNL d   1      -0.744  -1.045   0.512  0.00  0.00    -0.075 A 
ATOM      2  C4  UNL d   1      -1.181   0.209   0.963  0.00  0.00     0.002 A 
ATOM      3  C5  UNL d   1      -0.885   1.364   0.240  0.00  0.00     0.002 A 
ATOM      4  C6  UNL d   1      -0.141   1.283  -0.935  0.00  0.00    -0.004 A 
ATOM      5  C7  UNL d   1       0.313   0.045  -1.384  0.00  0.00     0.002 A 
ATOM      6  C8  UNL d   1       0.014  -1.114  -0.665  0.00  0.00     0.002 A 
ENDROOT
BRANCH   1   7
ATOM      7  C2  UNL d   1      -1.086  -2.303   1.274  0.00  0.00     0.056 C 
BRANCH   7   8
ATOM      8  C1  UNL d   1      -1.314  -3.529   0.384  0.00  0.00     0.007 C 
ATOM      9  C   UNL d   1      -0.058  -4.365   0.179  0.00  0.00     0.009 C 
ENDBRANCH   7   8
ENDBRANCH   1   7
TORSDOF 2
ENDMDL
