MODEL 1
REMARK minimizedAffinity -4.82163477
REMARK minimizedRMSD -1
REMARK  2 active torsions:
REMARK  status: ('A' for Active; 'I' for Inactive)
REMARK    1  A    between atoms: C1_2  and  C2_3 
REMARK    2  A    between atoms: C2_3  and  C3_4 
ROOT
ATOM      1  C3  UNL d   1      -0.194  -1.126  -0.136  0.00  0.00    -0.075 A 
ATOM      2  C4  UNL d   1      -0.766  -2.218   0.531  0.00  0.00     0.002 A 
ATOM      3  C5  UNL d   1      -0.586  -3.516   0.050  0.00  0.00     0.002 A 
ATOM      4  C6  UNL d   1       0.157  -3.736  -1.107  0.00  0.00    -0.004 A 
ATOM      5  C7  UNL d   1       0.715  -2.656  -1.788  0.00  0.00     0.002 A 
ATOM      6  C8  UNL d   1       0.541  -1.357  -1.307  0.00  0.00     0.002 A 
ENDROOT
BRANCH   1   7
ATOM      7  C2  UNL d   1      -0.361   0.278   0.396  0.00  0.00     0.056 C 
BRANCH   7   8
ATOM      8  C1  UNL d   1       0.207   1.364  -0.524  0.00  0.00     0.007 C 
ATOM      9  C   UNL d   1       1.136   2.334   0.195  0.00  0.00     0.009 C 
ENDBRANCH   7   8
ENDBRANCH   1   7
TORSDOF 2
ENDMDL
