MODEL 1
REMARK minimizedAffinity -5.03868246
REMARK minimizedRMSD -1
REMARK  2 active torsions:
REMARK  status: ('A' for Active; 'I' for Inactive)
REMARK    1  A    between atoms: C1_2  and  C2_3 
REMARK    2  A    between atoms: C2_3  and  C3_4 
ROOT
ATOM      1  C3  UNL d   1      -0.121   0.264  -0.301  0.00  0.00    -0.075 A 
ATOM      2  C4  UNL d   1       0.470  -0.896  -0.825  0.00  0.00     0.002 A 
ATOM      3  C5  UNL d   1       0.157  -2.150  -0.299  0.00  0.00     0.002 A 
ATOM      4  C6  UNL d   1      -0.739  -2.259   0.762  0.00  0.00    -0.004 A 
ATOM      5  C7  UNL d   1      -1.319  -1.113   1.301  0.00  0.00     0.002 A 
ATOM      6  C8  UNL d   1      -1.011   0.142   0.773  0.00  0.00     0.002 A 
ENDROOT
BRANCH   1   7
ATOM      7  C2  UNL d   1       0.191   1.621  -0.886  0.00  0.00     0.056 C 
BRANCH   7   8
ATOM      8  C1  UNL d   1       0.372   2.724   0.162  0.00  0.00     0.007 C 
ATOM      9  C   UNL d   1       1.770   3.328   0.161  0.00  0.00     0.009 C 
ENDBRANCH   7   8
ENDBRANCH   1   7
TORSDOF 2
ENDMDL
