MODEL 1
REMARK minimizedAffinity -5.59003305
REMARK minimizedRMSD -1
REMARK  2 active torsions:
REMARK  status: ('A' for Active; 'I' for Inactive)
REMARK    1  A    between atoms: C1_2  and  C2_3 
REMARK    2  A    between atoms: C2_3  and  C3_4 
ROOT
ATOM      1  C3  UNL d   1       0.685   1.299   0.492  0.00  0.00    -0.075 A 
ATOM      2  C4  UNL d   1       2.020   1.246   0.919  0.00  0.00     0.002 A 
ATOM      3  C5  UNL d   1       2.757   2.419   1.085  0.00  0.00     0.002 A 
ATOM      4  C6  UNL d   1       2.174   3.656   0.818  0.00  0.00    -0.004 A 
ATOM      5  C7  UNL d   1       0.854   3.719   0.377  0.00  0.00     0.002 A 
ATOM      6  C8  UNL d   1       0.112   2.547   0.214  0.00  0.00     0.002 A 
ENDROOT
BRANCH   1   7
ATOM      7  C2  UNL d   1      -0.127   0.035   0.338  0.00  0.00     0.056 C 
BRANCH   7   8
ATOM      8  C1  UNL d   1       0.695  -1.253   0.452  0.00  0.00     0.007 C 
ATOM      9  C   UNL d   1      -0.067  -2.493   0.007  0.00  0.00     0.009 C 
ENDBRANCH   7   8
ENDBRANCH   1   7
TORSDOF 2
ENDMDL
