MODEL 1
REMARK minimizedAffinity -1.92248333
REMARK minimizedRMSD -1
REMARK  2 active torsions:
REMARK  status: ('A' for Active; 'I' for Inactive)
REMARK    1  A    between atoms: C1_2  and  C2_3 
REMARK    2  A    between atoms: C2_3  and  C3_4 
ROOT
ATOM      1  C3  UNL d   1       0.366   0.394  -0.588  0.00  0.00    -0.075 A 
ATOM      2  C4  UNL d   1       0.340  -0.685   0.307  0.00  0.00     0.002 A 
ATOM      3  C5  UNL d   1       0.595  -1.982  -0.140  0.00  0.00     0.002 A 
ATOM      4  C6  UNL d   1       0.869  -2.217  -1.486  0.00  0.00    -0.004 A 
ATOM      5  C7  UNL d   1       0.881  -1.154  -2.387  0.00  0.00     0.002 A 
ATOM      6  C8  UNL d   1       0.630   0.145  -1.942  0.00  0.00     0.002 A 
ENDROOT
BRANCH   1   7
ATOM      7  C2  UNL d   1       0.120   1.804  -0.106  0.00  0.00     0.056 C 
BRANCH   7   8
ATOM      8  C1  UNL d   1       1.390   2.548   0.321  0.00  0.00     0.007 C 
ATOM      9  C   UNL d   1       1.104   3.829   1.094  0.00  0.00     0.009 C 
ENDBRANCH   7   8
ENDBRANCH   1   7
TORSDOF 2
ENDMDL
