MODEL 1
REMARK minimizedAffinity -3.08930159
REMARK minimizedRMSD -1
REMARK  2 active torsions:
REMARK  status: ('A' for Active; 'I' for Inactive)
REMARK    1  A    between atoms: C1_2  and  C2_3 
REMARK    2  A    between atoms: C2_3  and  C3_4 
ROOT
ATOM      1  C3  UNL d   1      -0.430   0.843  -0.147  0.00  0.00    -0.075 A 
ATOM      2  C4  UNL d   1      -0.314  -0.443   0.402  0.00  0.00     0.002 A 
ATOM      3  C5  UNL d   1       0.070  -1.522  -0.394  0.00  0.00     0.002 A 
ATOM      4  C6  UNL d   1       0.332  -1.332  -1.749  0.00  0.00    -0.004 A 
ATOM      5  C7  UNL d   1       0.204  -0.063  -2.309  0.00  0.00     0.002 A 
ATOM      6  C8  UNL d   1      -0.176   1.019  -1.513  0.00  0.00     0.002 A 
ENDROOT
BRANCH   1   7
ATOM      7  C2  UNL d   1      -0.817   2.020   0.716  0.00  0.00     0.056 C 
BRANCH   7   8
ATOM      8  C1  UNL d   1      -0.030   3.299   0.415  0.00  0.00     0.007 C 
ATOM      9  C   UNL d   1       1.108   3.550   1.395  0.00  0.00     0.009 C 
ENDBRANCH   7   8
ENDBRANCH   1   7
TORSDOF 2
ENDMDL
