MODEL 1
REMARK minimizedAffinity -3.64168119
REMARK minimizedRMSD -1
REMARK  2 active torsions:
REMARK  status: ('A' for Active; 'I' for Inactive)
REMARK    1  A    between atoms: C1_2  and  C2_3 
REMARK    2  A    between atoms: C2_3  and  C3_4 
ROOT
ATOM      1  C3  UNL d   1       0.293  -1.253  -0.219  0.00  0.00    -0.075 A 
ATOM      2  C4  UNL d   1       0.522  -0.959  -1.571  0.00  0.00     0.002 A 
ATOM      3  C5  UNL d   1       0.306   0.329  -2.062  0.00  0.00     0.002 A 
ATOM      4  C6  UNL d   1      -0.151   1.334  -1.212  0.00  0.00    -0.004 A 
ATOM      5  C7  UNL d   1      -0.398   1.049   0.129  0.00  0.00     0.002 A 
ATOM      6  C8  UNL d   1      -0.179  -0.237   0.624  0.00  0.00     0.002 A 
ENDROOT
BRANCH   1   7
ATOM      7  C2  UNL d   1       0.553  -2.637   0.325  0.00  0.00     0.056 C 
BRANCH   7   8
ATOM      8  C1  UNL d   1      -0.629  -3.600   0.171  0.00  0.00     0.007 C 
ATOM      9  C   UNL d   1      -1.975  -2.950   0.463  0.00  0.00     0.009 C 
ENDBRANCH   7   8
ENDBRANCH   1   7
TORSDOF 2
ENDMDL
