MODEL 1
REMARK minimizedAffinity -4.39737558
REMARK minimizedRMSD -1
REMARK  2 active torsions:
REMARK  status: ('A' for Active; 'I' for Inactive)
REMARK    1  A    between atoms: C1_2  and  C2_3 
REMARK    2  A    between atoms: C2_3  and  C3_4 
ROOT
ATOM      1  C3  UNL d   1      -0.139   0.292  -0.521  0.00  0.00    -0.075 A 
ATOM      2  C4  UNL d   1      -0.799  -0.284   0.574  0.00  0.00     0.002 A 
ATOM      3  C5  UNL d   1      -0.762  -1.664   0.777  0.00  0.00     0.002 A 
ATOM      4  C6  UNL d   1      -0.075  -2.484  -0.115  0.00  0.00    -0.004 A 
ATOM      5  C7  UNL d   1       0.570  -1.924  -1.215  0.00  0.00     0.002 A 
ATOM      6  C8  UNL d   1       0.539  -0.543  -1.419  0.00  0.00     0.002 A 
ENDROOT
BRANCH   1   7
ATOM      7  C2  UNL d   1      -0.151   1.788  -0.730  0.00  0.00     0.056 C 
BRANCH   7   8
ATOM      8  C1  UNL d   1       0.956   2.532   0.023  0.00  0.00     0.007 C 
ATOM      9  C   UNL d   1       0.451   3.279   1.250  0.00  0.00     0.009 C 
ENDBRANCH   7   8
ENDBRANCH   1   7
TORSDOF 2
ENDMDL
