MODEL 1
REMARK minimizedAffinity -2.63953614
REMARK minimizedRMSD -1
REMARK  2 active torsions:
REMARK  status: ('A' for Active; 'I' for Inactive)
REMARK    1  A    between atoms: C1_2  and  C2_3 
REMARK    2  A    between atoms: C2_3  and  C3_4 
ROOT
ATOM      1  C3  UNL d   1      -0.296  -0.121   0.019  0.00  0.00    -0.075 A 
ATOM      2  C4  UNL d   1      -1.023  -0.868   0.958  0.00  0.00     0.002 A 
ATOM      3  C5  UNL d   1      -0.904  -2.257   1.004  0.00  0.00     0.002 A 
ATOM      4  C6  UNL d   1      -0.066  -2.917   0.108  0.00  0.00    -0.004 A 
ATOM      5  C7  UNL d   1       0.649  -2.187  -0.840  0.00  0.00     0.002 A 
ATOM      6  C8  UNL d   1       0.534  -0.796  -0.885  0.00  0.00     0.002 A 
ENDROOT
BRANCH   1   7
ATOM      7  C2  UNL d   1      -0.399   1.385  -0.017  0.00  0.00     0.056 C 
BRANCH   7   8
ATOM      8  C1  UNL d   1       0.899   2.108   0.359  0.00  0.00     0.007 C 
ATOM      9  C   UNL d   1       0.663   3.437   1.065  0.00  0.00     0.009 C 
ENDBRANCH   7   8
ENDBRANCH   1   7
TORSDOF 2
ENDMDL
