MODEL 1
REMARK minimizedAffinity -3.68997884
REMARK minimizedRMSD -1
REMARK  2 active torsions:
REMARK  status: ('A' for Active; 'I' for Inactive)
REMARK    1  A    between atoms: C1_2  and  C2_3 
REMARK    2  A    between atoms: C2_3  and  C3_4 
ROOT
ATOM      1  C3  UNL d   1      -0.435  -0.392   0.260  0.00  0.00    -0.075 A 
ATOM      2  C4  UNL d   1      -1.389  -1.327   0.687  0.00  0.00     0.002 A 
ATOM      3  C5  UNL d   1      -1.136  -2.695   0.582  0.00  0.00     0.002 A 
ATOM      4  C6  UNL d   1       0.065  -3.145   0.039  0.00  0.00    -0.004 A 
ATOM      5  C7  UNL d   1       1.013  -2.225  -0.404  0.00  0.00     0.002 A 
ATOM      6  C8  UNL d   1       0.765  -0.856  -0.296  0.00  0.00     0.002 A 
ENDROOT
BRANCH   1   7
ATOM      7  C2  UNL d   1      -0.690   1.090   0.398  0.00  0.00     0.056 C 
BRANCH   7   8
ATOM      8  C1  UNL d   1       0.462   1.970  -0.099  0.00  0.00     0.007 C 
ATOM      9  C   UNL d   1       0.560   3.301   0.634  0.00  0.00     0.009 C 
ENDBRANCH   7   8
ENDBRANCH   1   7
TORSDOF 2
ENDMDL
