MODEL 1
REMARK minimizedAffinity 18.0049152
REMARK minimizedRMSD -1
REMARK  1 active torsions:
REMARK  status: ('A' for Active; 'I' for Inactive)
REMARK    1  A    between atoms: C1_2  and  C2_3 
ROOT
ATOM      1  C2  UNL d   1       1.059  -2.228  -2.407  0.00  0.00    -0.081 A 
ATOM      2  C3  UNL d   1      -0.059  -2.995  -2.757  0.00  0.00     0.006 A 
ATOM      3  C4  UNL d   1      -1.344  -2.454  -2.673  0.00  0.00     0.002 A 
ATOM      4  C5  UNL d   1      -1.532  -1.136  -2.245  0.00  0.00    -0.080 A 
ATOM      5  C6  UNL d   1      -2.904  -0.534  -2.179  0.00  0.00     0.076 C 
ATOM      6  C7  UNL d   1      -0.417  -0.375  -1.878  0.00  0.00     0.002 A 
ATOM      7  C8  UNL d   1       0.868  -0.915  -1.961  0.00  0.00     0.006 A 
ENDROOT
BRANCH   1   8
ATOM      8  C1  UNL d   1       2.451  -2.787  -2.558  0.00  0.00     0.054 C 
ATOM      9  C   UNL d   1       2.985  -2.568  -3.966  0.00  0.00     0.018 C 
ENDBRANCH   1   8
TORSDOF 1
ENDMDL
