MODEL 1
REMARK minimizedAffinity 14.6950769
REMARK minimizedRMSD -1
REMARK  1 active torsions:
REMARK  status: ('A' for Active; 'I' for Inactive)
REMARK    1  A    between atoms: C1_2  and  C2_3 
ROOT
ATOM      1  C2  UNL d   1      -4.915   0.330  -0.810  0.00  0.00    -0.081 A 
ATOM      2  C3  UNL d   1      -5.729   0.880  -1.808  0.00  0.00     0.006 A 
ATOM      3  C4  UNL d   1      -5.780   2.263  -1.997  0.00  0.00     0.002 A 
ATOM      4  C5  UNL d   1      -5.014   3.118  -1.197  0.00  0.00    -0.080 A 
ATOM      5  C6  UNL d   1      -5.037   4.603  -1.409  0.00  0.00     0.076 C 
ATOM      6  C7  UNL d   1      -4.214   2.570  -0.189  0.00  0.00     0.002 A 
ATOM      7  C8  UNL d   1      -4.163   1.187   0.001  0.00  0.00     0.006 A 
ENDROOT
BRANCH   1   8
ATOM      8  C1  UNL d   1      -4.807  -1.165  -0.646  0.00  0.00     0.054 C 
ATOM      9  C   UNL d   1      -3.867  -1.768  -1.679  0.00  0.00     0.018 C 
ENDBRANCH   1   8
TORSDOF 1
ENDMDL
