MODEL 1
REMARK minimizedAffinity 15.631259
REMARK minimizedRMSD -1
REMARK  1 active torsions:
REMARK  status: ('A' for Active; 'I' for Inactive)
REMARK    1  A    between atoms: C1_2  and  C2_3 
ROOT
ATOM      1  C2  UNL d   1       2.944   3.856   3.749  0.00  0.00    -0.081 A 
ATOM      2  C3  UNL d   1       2.166   3.018   4.558  0.00  0.00     0.006 A 
ATOM      3  C4  UNL d   1       1.093   3.535   5.288  0.00  0.00     0.002 A 
ATOM      4  C5  UNL d   1       0.777   4.896   5.217  0.00  0.00    -0.080 A 
ATOM      5  C6  UNL d   1      -0.390   5.459   5.973  0.00  0.00     0.076 C 
ATOM      6  C7  UNL d   1       1.564   5.736   4.423  0.00  0.00     0.002 A 
ATOM      7  C8  UNL d   1       2.637   5.220   3.693  0.00  0.00     0.006 A 
ENDROOT
BRANCH   1   8
ATOM      8  C1  UNL d   1       4.060   3.290   2.910  0.00  0.00     0.054 C 
ATOM      9  C   UNL d   1       3.518   2.548   1.696  0.00  0.00     0.018 C 
ENDBRANCH   1   8
TORSDOF 1
ENDMDL
