MODEL 1
REMARK minimizedAffinity -2.44310069
REMARK minimizedRMSD -1
REMARK  0 active torsions:
REMARK  status: ('A' for Active; 'I' for Inactive)
ROOT
ATOM      1  C   UNL d   1       0.288  -1.278  -0.983  0.00  0.00     0.172 C 
ATOM      2  N   UNL d   1      -0.006  -0.232  -0.031  0.00  0.00    -0.070 N 
ATOM      3  C1  UNL d   1       0.544  -0.111   1.217  0.00  0.00    -0.004 A 
ATOM      4  C2  UNL d   1       0.008   1.013   1.807  0.00  0.00    -0.047 A 
ATOM      5  C3  UNL d   1      -0.896   1.587   0.882  0.00  0.00    -0.047 A 
ATOM      6  C4  UNL d   1      -0.885   0.796  -0.247  0.00  0.00    -0.004 A 
ENDROOT
TORSDOF 0
ENDMDL
