MODEL 1
REMARK minimizedAffinity -2.43144655
REMARK minimizedRMSD -1
REMARK  0 active torsions:
REMARK  status: ('A' for Active; 'I' for Inactive)
ROOT
ATOM      1  C   UNL d   1      -1.485   2.147   1.187  0.00  0.00     0.172 C 
ATOM      2  N   UNL d   1      -0.831   1.383   0.151  0.00  0.00    -0.070 N 
ATOM      3  C1  UNL d   1      -0.567   1.823  -1.119  0.00  0.00    -0.004 A 
ATOM      4  C2  UNL d   1       0.065   0.802  -1.796  0.00  0.00    -0.047 A 
ATOM      5  C3  UNL d   1       0.185  -0.288  -0.902  0.00  0.00    -0.047 A 
ATOM      6  C4  UNL d   1      -0.378   0.099   0.296  0.00  0.00    -0.004 A 
ENDROOT
TORSDOF 0
ENDMDL
