MODEL 1
REMARK minimizedAffinity -1.56177509
REMARK minimizedRMSD -1
REMARK  0 active torsions:
REMARK  status: ('A' for Active; 'I' for Inactive)
ROOT
ATOM      1  C   UNL d   1      -1.601   2.287  -0.305  0.00  0.00     0.172 C 
ATOM      2  N   UNL d   1      -0.691   1.248  -0.729  0.00  0.00    -0.070 N 
ATOM      3  C1  UNL d   1      -0.262   0.200   0.040  0.00  0.00    -0.004 A 
ATOM      4  C2  UNL d   1       0.592  -0.564  -0.726  0.00  0.00    -0.047 A 
ATOM      5  C3  UNL d   1       0.680   0.048  -2.000  0.00  0.00    -0.047 A 
ATOM      6  C4  UNL d   1      -0.124   1.167  -1.974  0.00  0.00    -0.004 A 
ENDROOT
TORSDOF 0
ENDMDL
