MODEL 1
REMARK minimizedAffinity -2.86088872
REMARK minimizedRMSD -1
REMARK  0 active torsions:
REMARK  status: ('A' for Active; 'I' for Inactive)
ROOT
ATOM      1  C   UNL d   1      -1.589   2.437   1.425  0.00  0.00     0.172 C 
ATOM      2  N   UNL d   1      -0.837   1.613   0.507  0.00  0.00    -0.070 N 
ATOM      3  C1  UNL d   1       0.001   0.588   0.858  0.00  0.00    -0.004 A 
ATOM      4  C2  UNL d   1       0.523   0.055  -0.301  0.00  0.00    -0.047 A 
ATOM      5  C3  UNL d   1      -0.019   0.786  -1.385  0.00  0.00    -0.047 A 
ATOM      6  C4  UNL d   1      -0.857   1.744  -0.856  0.00  0.00    -0.004 A 
ENDROOT
TORSDOF 0
ENDMDL
