MODEL 1
REMARK minimizedAffinity -3.28470469
REMARK minimizedRMSD -1
REMARK  0 active torsions:
REMARK  status: ('A' for Active; 'I' for Inactive)
ROOT
ATOM      1  C   UNL d   1       2.299  -1.477  -0.771  0.00  0.00     0.172 C 
ATOM      2  N   UNL d   1       1.198  -2.264  -1.273  0.00  0.00    -0.070 N 
ATOM      3  C1  UNL d   1       0.079  -1.771  -1.889  0.00  0.00    -0.004 A 
ATOM      4  C2  UNL d   1      -0.728  -2.839  -2.217  0.00  0.00    -0.047 A 
ATOM      5  C3  UNL d   1      -0.072  -4.015  -1.782  0.00  0.00    -0.047 A 
ATOM      6  C4  UNL d   1       1.118  -3.630  -1.201  0.00  0.00    -0.004 A 
ENDROOT
TORSDOF 0
ENDMDL
