MODEL 1
REMARK minimizedAffinity -1.31099927
REMARK minimizedRMSD -1
REMARK  0 active torsions:
REMARK  status: ('A' for Active; 'I' for Inactive)
ROOT
ATOM      1  C   UNL d   1      -0.406   0.746  -1.570  0.00  0.00     0.172 C 
ATOM      2  N   UNL d   1      -0.355   0.668  -0.129  0.00  0.00    -0.070 N 
ATOM      3  C1  UNL d   1      -0.081  -0.458   0.600  0.00  0.00    -0.004 A 
ATOM      4  C2  UNL d   1      -0.128  -0.119   1.935  0.00  0.00    -0.047 A 
ATOM      5  C3  UNL d   1      -0.443   1.259   2.011  0.00  0.00    -0.047 A 
ATOM      6  C4  UNL d   1      -0.578   1.721   0.718  0.00  0.00    -0.004 A 
ENDROOT
TORSDOF 0
ENDMDL
