MODEL 1
REMARK minimizedAffinity 13.3001041
REMARK minimizedRMSD -1
REMARK  2 active torsions:
REMARK  status: ('A' for Active; 'I' for Inactive)
REMARK    1  A    between atoms: C1_2  and  C2_3 
REMARK    2  A    between atoms: C2_3  and  C3_4 
ROOT
ATOM      1  C3  UNL d   1       4.110  -1.154  -4.004  0.00  0.00    -0.075 A 
ATOM      2  C4  UNL d   1       4.106  -1.498  -2.644  0.00  0.00     0.002 A 
ATOM      3  C5  UNL d   1       4.124  -2.837  -2.252  0.00  0.00     0.002 A 
ATOM      4  C6  UNL d   1       4.137  -3.846  -3.212  0.00  0.00    -0.004 A 
ATOM      5  C7  UNL d   1       4.124  -3.517  -4.565  0.00  0.00     0.002 A 
ATOM      6  C8  UNL d   1       4.110  -2.178  -4.960  0.00  0.00     0.002 A 
ENDROOT
BRANCH   1   7
ATOM      7  C2  UNL d   1       4.121   0.293  -4.435  0.00  0.00     0.056 C 
BRANCH   7   8
ATOM      8  C1  UNL d   1       5.357   0.694  -5.246  0.00  0.00     0.007 C 
ATOM      9  C   UNL d   1       6.000   1.987  -4.761  0.00  0.00     0.009 C 
ENDBRANCH   7   8
ENDBRANCH   1   7
TORSDOF 2
ENDMDL
