MODEL 1
REMARK minimizedAffinity 10.8031282
REMARK minimizedRMSD -1
REMARK  2 active torsions:
REMARK  status: ('A' for Active; 'I' for Inactive)
REMARK    1  A    between atoms: C1_2  and  C2_3 
REMARK    2  A    between atoms: C2_3  and  C3_4 
ROOT
ATOM      1  C3  UNL d   1      -3.812   1.508   4.721  0.00  0.00    -0.075 A 
ATOM      2  C4  UNL d   1      -3.959   2.863   4.392  0.00  0.00     0.002 A 
ATOM      3  C5  UNL d   1      -5.044   3.595   4.875  0.00  0.00     0.002 A 
ATOM      4  C6  UNL d   1      -6.000   2.980   5.681  0.00  0.00    -0.004 A 
ATOM      5  C7  UNL d   1      -5.873   1.630   6.000  0.00  0.00     0.002 A 
ATOM      6  C8  UNL d   1      -4.785   0.896   5.522  0.00  0.00     0.002 A 
ENDROOT
BRANCH   1   7
ATOM      7  C2  UNL d   1      -2.624   0.717   4.226  0.00  0.00     0.056 C 
BRANCH   7   8
ATOM      8  C1  UNL d   1      -2.047  -0.254   5.261  0.00  0.00     0.007 C 
ATOM      9  C   UNL d   1      -1.498  -1.533   4.643  0.00  0.00     0.009 C 
ENDBRANCH   7   8
ENDBRANCH   1   7
TORSDOF 2
ENDMDL
