MODEL 1
REMARK minimizedAffinity 1.84986067
REMARK minimizedRMSD -1
REMARK  2 active torsions:
REMARK  status: ('A' for Active; 'I' for Inactive)
REMARK    1  A    between atoms: C1_2  and  C2_3 
REMARK    2  A    between atoms: C2_3  and  C3_4 
ROOT
ATOM      1  C3  UNL d   1       4.869  -2.594  -4.499  0.00  0.00    -0.075 A 
ATOM      2  C4  UNL d   1       5.968  -3.045  -5.245  0.00  0.00     0.002 A 
ATOM      3  C5  UNL d   1       5.884  -4.221  -5.991  0.00  0.00     0.002 A 
ATOM      4  C6  UNL d   1       4.706  -4.965  -5.993  0.00  0.00    -0.004 A 
ATOM      5  C7  UNL d   1       3.614  -4.536  -5.242  0.00  0.00     0.002 A 
ATOM      6  C8  UNL d   1       3.694  -3.357  -4.499  0.00  0.00     0.002 A 
ENDROOT
BRANCH   1   7
ATOM      7  C2  UNL d   1       4.944  -1.307  -3.713  0.00  0.00     0.056 C 
BRANCH   7   8
ATOM      8  C1  UNL d   1       5.984  -1.323  -2.588  0.00  0.00     0.007 C 
ATOM      9  C   UNL d   1       5.999  -2.628  -1.803  0.00  0.00     0.009 C 
ENDBRANCH   7   8
ENDBRANCH   1   7
TORSDOF 2
ENDMDL
