MODEL 1
REMARK minimizedAffinity 14.1600504
REMARK minimizedRMSD -1
REMARK  2 active torsions:
REMARK  status: ('A' for Active; 'I' for Inactive)
REMARK    1  A    between atoms: C1_2  and  C2_3 
REMARK    2  A    between atoms: C2_3  and  C3_4 
ROOT
ATOM      1  C3  UNL d   1      -2.247  -2.215   2.647  0.00  0.00    -0.075 A 
ATOM      2  C4  UNL d   1      -1.169  -3.077   2.397  0.00  0.00     0.002 A 
ATOM      3  C5  UNL d   1      -0.603  -3.152   1.123  0.00  0.00     0.002 A 
ATOM      4  C6  UNL d   1      -1.113  -2.377   0.085  0.00  0.00    -0.004 A 
ATOM      5  C7  UNL d   1      -2.194  -1.530   0.318  0.00  0.00     0.002 A 
ATOM      6  C8  UNL d   1      -2.759  -1.449   1.592  0.00  0.00     0.002 A 
ENDROOT
BRANCH   1   7
ATOM      7  C2  UNL d   1      -2.844  -2.108   4.030  0.00  0.00     0.056 C 
BRANCH   7   8
ATOM      8  C1  UNL d   1      -2.731  -0.711   4.651  0.00  0.00     0.007 C 
ATOM      9  C   UNL d   1      -3.432  -0.595   5.998  0.00  0.00     0.009 C 
ENDBRANCH   7   8
ENDBRANCH   1   7
TORSDOF 2
ENDMDL
