MODEL 1
REMARK minimizedAffinity 9.67494202
REMARK minimizedRMSD -1
REMARK  2 active torsions:
REMARK  status: ('A' for Active; 'I' for Inactive)
REMARK    1  A    between atoms: C1_2  and  C2_3 
REMARK    2  A    between atoms: C2_3  and  C3_4 
ROOT
ATOM      1  C3  UNL d   1       3.849  -3.372   4.461  0.00  0.00    -0.075 A 
ATOM      2  C4  UNL d   1       3.842  -4.700   4.910  0.00  0.00     0.002 A 
ATOM      3  C5  UNL d   1       4.897  -5.193   5.679  0.00  0.00     0.002 A 
ATOM      4  C6  UNL d   1       5.974  -4.370   5.999  0.00  0.00    -0.004 A 
ATOM      5  C7  UNL d   1       6.000  -3.053   5.543  0.00  0.00     0.002 A 
ATOM      6  C8  UNL d   1       4.944  -2.556   4.778  0.00  0.00     0.002 A 
ENDROOT
BRANCH   1   7
ATOM      7  C2  UNL d   1       2.697  -2.823   3.653  0.00  0.00     0.056 C 
BRANCH   7   8
ATOM      8  C1  UNL d   1       1.641  -3.870   3.283  0.00  0.00     0.007 C 
ATOM      9  C   UNL d   1       1.246  -3.831   1.813  0.00  0.00     0.009 C 
ENDBRANCH   7   8
ENDBRANCH   1   7
TORSDOF 2
ENDMDL
