MODEL 1
REMARK minimizedAffinity 9.63265324
REMARK minimizedRMSD -1
REMARK  2 active torsions:
REMARK  status: ('A' for Active; 'I' for Inactive)
REMARK    1  A    between atoms: C1_2  and  C2_3 
REMARK    2  A    between atoms: C2_3  and  C3_4 
ROOT
ATOM      1  C3  UNL d   1       3.823  -3.376  -4.062  0.00  0.00    -0.075 A 
ATOM      2  C4  UNL d   1       4.179  -2.652  -5.209  0.00  0.00     0.002 A 
ATOM      3  C5  UNL d   1       5.256  -3.059  -5.998  0.00  0.00     0.002 A 
ATOM      4  C6  UNL d   1       5.995  -4.186  -5.646  0.00  0.00    -0.004 A 
ATOM      5  C7  UNL d   1       5.660  -4.903  -4.499  0.00  0.00     0.002 A 
ATOM      6  C8  UNL d   1       4.581  -4.501  -3.711  0.00  0.00     0.002 A 
ENDROOT
BRANCH   1   7
ATOM      7  C2  UNL d   1       2.641  -2.958  -3.221  0.00  0.00     0.056 C 
BRANCH   7   8
ATOM      8  C1  UNL d   1       2.304  -3.936  -2.090  0.00  0.00     0.007 C 
ATOM      9  C   UNL d   1       1.467  -3.308  -0.983  0.00  0.00     0.009 C 
ENDBRANCH   7   8
ENDBRANCH   1   7
TORSDOF 2
ENDMDL
