MODEL 1
REMARK minimizedAffinity 21.8288784
REMARK minimizedRMSD -1
REMARK  2 active torsions:
REMARK  status: ('A' for Active; 'I' for Inactive)
REMARK    1  A    between atoms: C1_2  and  C2_3 
REMARK    2  A    between atoms: C2_3  and  C3_4 
ROOT
ATOM      1  C3  UNL d   1      -1.205   2.898   1.053  0.00  0.00    -0.075 A 
ATOM      2  C4  UNL d   1      -2.334   3.687   0.787  0.00  0.00     0.002 A 
ATOM      3  C5  UNL d   1      -3.560   3.091   0.489  0.00  0.00     0.002 A 
ATOM      4  C6  UNL d   1      -3.670   1.703   0.443  0.00  0.00    -0.004 A 
ATOM      5  C7  UNL d   1      -2.552   0.910   0.689  0.00  0.00     0.002 A 
ATOM      6  C8  UNL d   1      -1.325   1.503   0.991  0.00  0.00     0.002 A 
ENDROOT
BRANCH   1   7
ATOM      7  C2  UNL d   1       0.118   3.536   1.405  0.00  0.00     0.056 C 
BRANCH   7   8
ATOM      8  C1  UNL d   1       0.516   4.695   0.485  0.00  0.00     0.007 C 
ATOM      9  C   UNL d   1       0.946   5.943   1.244  0.00  0.00     0.009 C 
ENDBRANCH   7   8
ENDBRANCH   1   7
TORSDOF 2
ENDMDL
