MODEL 1
REMARK minimizedAffinity 9.32374096
REMARK minimizedRMSD -1
REMARK  2 active torsions:
REMARK  status: ('A' for Active; 'I' for Inactive)
REMARK    1  A    between atoms: C1_2  and  C2_3 
REMARK    2  A    between atoms: C2_3  and  C3_4 
ROOT
ATOM      1  C3  UNL d   1      -2.257  -1.586   4.035  0.00  0.00    -0.075 A 
ATOM      2  C4  UNL d   1      -2.253  -0.184   4.023  0.00  0.00     0.002 A 
ATOM      3  C5  UNL d   1      -2.946   0.534   4.998  0.00  0.00     0.002 A 
ATOM      4  C6  UNL d   1      -3.658  -0.138   5.989  0.00  0.00    -0.004 A 
ATOM      5  C7  UNL d   1      -3.682  -1.531   6.000  0.00  0.00     0.002 A 
ATOM      6  C8  UNL d   1      -2.986  -2.252   5.028  0.00  0.00     0.002 A 
ENDROOT
BRANCH   1   7
ATOM      7  C2  UNL d   1      -1.485  -2.369   3.000  0.00  0.00     0.056 C 
BRANCH   7   8
ATOM      8  C1  UNL d   1      -2.256  -2.613   1.698  0.00  0.00     0.007 C 
ATOM      9  C   UNL d   1      -1.365  -2.616   0.464  0.00  0.00     0.009 C 
ENDBRANCH   7   8
ENDBRANCH   1   7
TORSDOF 2
ENDMDL
