MODEL 1
REMARK minimizedAffinity 4.95818281
REMARK minimizedRMSD -1
REMARK  2 active torsions:
REMARK  status: ('A' for Active; 'I' for Inactive)
REMARK    1  A    between atoms: C1_2  and  C2_3 
REMARK    2  A    between atoms: C2_3  and  C3_4 
ROOT
ATOM      1  C3  UNL d   1      -2.698  -3.811  -4.108  0.00  0.00    -0.075 A 
ATOM      2  C4  UNL d   1      -4.093  -3.841  -3.974  0.00  0.00     0.002 A 
ATOM      3  C5  UNL d   1      -4.828  -4.930  -4.446  0.00  0.00     0.002 A 
ATOM      4  C6  UNL d   1      -4.179  -5.995  -5.066  0.00  0.00    -0.004 A 
ATOM      5  C7  UNL d   1      -2.794  -5.968  -5.220  0.00  0.00     0.002 A 
ATOM      6  C8  UNL d   1      -2.057  -4.883  -4.745  0.00  0.00     0.002 A 
ENDROOT
BRANCH   1   7
ATOM      7  C2  UNL d   1      -1.895  -2.650  -3.573  0.00  0.00     0.056 C 
BRANCH   7   8
ATOM      8  C1  UNL d   1      -0.627  -2.345  -4.377  0.00  0.00     0.007 C 
ATOM      9  C   UNL d   1       0.512  -1.805  -3.522  0.00  0.00     0.009 C 
ENDBRANCH   7   8
ENDBRANCH   1   7
TORSDOF 2
ENDMDL
