MODEL 1
REMARK minimizedAffinity -2.16612124
REMARK minimizedRMSD -1
REMARK  2 active torsions:
REMARK  status: ('A' for Active; 'I' for Inactive)
REMARK    1  A    between atoms: C1_2  and  C2_3 
REMARK    2  A    between atoms: C2_3  and  C3_4 
ROOT
ATOM      1  C3  UNL d   1      -0.389  -1.239  -0.126  0.00  0.00    -0.075 A 
ATOM      2  C4  UNL d   1      -0.755  -0.114   0.628  0.00  0.00     0.002 A 
ATOM      3  C5  UNL d   1      -0.334   1.161   0.249  0.00  0.00     0.002 A 
ATOM      4  C6  UNL d   1       0.465   1.326  -0.881  0.00  0.00    -0.004 A 
ATOM      5  C7  UNL d   1       0.848   0.215  -1.628  0.00  0.00     0.002 A 
ATOM      6  C8  UNL d   1       0.425  -1.062  -1.253  0.00  0.00     0.002 A 
ENDROOT
BRANCH   1   7
ATOM      7  C2  UNL d   1      -0.865  -2.618   0.263  0.00  0.00     0.056 C 
BRANCH   7   8
ATOM      8  C1  UNL d   1      -2.313  -2.660   0.763  0.00  0.00     0.007 C 
ATOM      9  C   UNL d   1      -3.198  -3.605  -0.039  0.00  0.00     0.009 C 
ENDBRANCH   7   8
ENDBRANCH   1   7
TORSDOF 2
ENDMDL
