MODEL 1
REMARK minimizedAffinity 6.25987005
REMARK minimizedRMSD -1
REMARK  2 active torsions:
REMARK  status: ('A' for Active; 'I' for Inactive)
REMARK    1  A    between atoms: C1_2  and  C2_3 
REMARK    2  A    between atoms: C2_3  and  C3_4 
ROOT
ATOM      1  C3  UNL d   1      -2.594  -4.065  -3.727  0.00  0.00    -0.075 A 
ATOM      2  C4  UNL d   1      -3.442  -5.182  -3.742  0.00  0.00     0.002 A 
ATOM      3  C5  UNL d   1      -3.515  -6.000  -4.870  0.00  0.00     0.002 A 
ATOM      4  C6  UNL d   1      -2.752  -5.707  -5.998  0.00  0.00    -0.004 A 
ATOM      5  C7  UNL d   1      -1.918  -4.590  -6.000  0.00  0.00     0.002 A 
ATOM      6  C8  UNL d   1      -1.840  -3.772  -4.871  0.00  0.00     0.002 A 
ENDROOT
BRANCH   1   7
ATOM      7  C2  UNL d   1      -2.488  -3.192  -2.499  0.00  0.00     0.056 C 
BRANCH   7   8
ATOM      8  C1  UNL d   1      -1.109  -2.552  -2.306  0.00  0.00     0.007 C 
ATOM      9  C   UNL d   1      -1.101  -1.052  -2.572  0.00  0.00     0.009 C 
ENDBRANCH   7   8
ENDBRANCH   1   7
TORSDOF 2
ENDMDL
