MODEL 1
REMARK minimizedAffinity 8.38005638
REMARK minimizedRMSD -1
REMARK  1 active torsions:
REMARK  status: ('A' for Active; 'I' for Inactive)
REMARK    1  A    between atoms: C1_2  and  C2_3 
ROOT
ATOM      1  C2  UNL d   1      -3.493   1.754  -2.112  0.00  0.00    -0.081 A 
ATOM      2  C3  UNL d   1      -2.147   1.941  -1.775  0.00  0.00     0.006 A 
ATOM      3  C4  UNL d   1      -1.252   0.869  -1.810  0.00  0.00     0.002 A 
ATOM      4  C5  UNL d   1      -1.686  -0.406  -2.190  0.00  0.00    -0.080 A 
ATOM      5  C6  UNL d   1      -0.730  -1.559  -2.261  0.00  0.00     0.076 C 
ATOM      6  C7  UNL d   1      -3.035  -0.597  -2.510  0.00  0.00     0.002 A 
ATOM      7  C8  UNL d   1      -3.930   0.475  -2.475  0.00  0.00     0.006 A 
ENDROOT
BRANCH   1   8
ATOM      8  C1  UNL d   1      -4.446   2.921  -2.138  0.00  0.00     0.054 C 
ATOM      9  C   UNL d   1      -3.941   4.028  -3.053  0.00  0.00     0.018 C 
ENDBRANCH   1   8
TORSDOF 1
ENDMDL
