MODEL 1
REMARK minimizedAffinity -0.680735588
REMARK minimizedRMSD -1
REMARK  1 active torsions:
REMARK  status: ('A' for Active; 'I' for Inactive)
REMARK    1  A    between atoms: C1_2  and  C2_3 
ROOT
ATOM      1  C2  UNL d   1       0.656   0.329   1.678  0.00  0.00    -0.081 A 
ATOM      2  C3  UNL d   1       0.232   0.635   0.380  0.00  0.00     0.006 A 
ATOM      3  C4  UNL d   1       0.063   1.964  -0.016  0.00  0.00     0.002 A 
ATOM      4  C5  UNL d   1       0.324   3.009   0.877  0.00  0.00    -0.080 A 
ATOM      5  C6  UNL d   1       0.176   4.441   0.456  0.00  0.00     0.076 C 
ATOM      6  C7  UNL d   1       0.731   2.703   2.180  0.00  0.00     0.002 A 
ATOM      7  C8  UNL d   1       0.899   1.375   2.576  0.00  0.00     0.006 A 
ENDROOT
BRANCH   1   8
ATOM      8  C1  UNL d   1       0.901  -1.100   2.088  0.00  0.00     0.054 C 
ATOM      9  C   UNL d   1       2.190  -1.234   2.887  0.00  0.00     0.018 C 
ENDBRANCH   1   8
TORSDOF 1
ENDMDL
