MODEL 1
REMARK minimizedAffinity 1.50534916
REMARK minimizedRMSD -1
REMARK  1 active torsions:
REMARK  status: ('A' for Active; 'I' for Inactive)
REMARK    1  A    between atoms: C1_2  and  C2_3 
ROOT
ATOM      1  C2  UNL d   1       0.391   2.878   1.227  0.00  0.00    -0.081 A 
ATOM      2  C3  UNL d   1       0.149   1.559   1.632  0.00  0.00     0.006 A 
ATOM      3  C4  UNL d   1      -0.426   0.642   0.749  0.00  0.00     0.002 A 
ATOM      4  C5  UNL d   1      -0.762   1.026  -0.554  0.00  0.00    -0.080 A 
ATOM      5  C6  UNL d   1      -1.353   0.043  -1.521  0.00  0.00     0.076 C 
ATOM      6  C7  UNL d   1      -0.537   2.348  -0.952  0.00  0.00     0.002 A 
ATOM      7  C8  UNL d   1       0.038   3.266  -0.070  0.00  0.00     0.006 A 
ENDROOT
BRANCH   1   8
ATOM      8  C1  UNL d   1       1.070   3.852   2.156  0.00  0.00     0.054 C 
ATOM      9  C   UNL d   1       1.956   3.131   3.162  0.00  0.00     0.018 C 
ENDBRANCH   1   8
TORSDOF 1
ENDMDL
