MODEL 1
REMARK minimizedAffinity 5.56030607
REMARK minimizedRMSD -1
REMARK  1 active torsions:
REMARK  status: ('A' for Active; 'I' for Inactive)
REMARK    1  A    between atoms: C1_2  and  C2_3 
ROOT
ATOM      1  C2  UNL d   1       2.046  -5.406  -1.767  0.00  0.00    -0.081 A 
ATOM      2  C3  UNL d   1       3.307  -5.817  -1.318  0.00  0.00     0.006 A 
ATOM      3  C4  UNL d   1       4.379  -5.911  -2.209  0.00  0.00     0.002 A 
ATOM      4  C5  UNL d   1       4.210  -5.589  -3.560  0.00  0.00    -0.080 A 
ATOM      5  C6  UNL d   1       5.360  -5.656  -4.520  0.00  0.00     0.076 C 
ATOM      6  C7  UNL d   1       2.946  -5.195  -4.011  0.00  0.00     0.002 A 
ATOM      7  C8  UNL d   1       1.874  -5.101  -3.121  0.00  0.00     0.006 A 
ENDROOT
BRANCH   1   8
ATOM      8  C1  UNL d   1       0.904  -5.241  -0.797  0.00  0.00     0.054 C 
ATOM      9  C   UNL d   1       0.035  -4.047  -1.163  0.00  0.00     0.018 C 
ENDBRANCH   1   8
TORSDOF 1
ENDMDL
