MODEL 1
REMARK minimizedAffinity 3.20262718
REMARK minimizedRMSD -1
REMARK  1 active torsions:
REMARK  status: ('A' for Active; 'I' for Inactive)
REMARK    1  A    between atoms: C1_2  and  C2_3 
ROOT
ATOM      1  C2  UNL d   1      -3.539   2.941  -2.546  0.00  0.00    -0.081 A 
ATOM      2  C3  UNL d   1      -2.181   3.233  -2.365  0.00  0.00     0.006 A 
ATOM      3  C4  UNL d   1      -1.270   2.215  -2.076  0.00  0.00     0.002 A 
ATOM      4  C5  UNL d   1      -1.699   0.887  -1.970  0.00  0.00    -0.080 A 
ATOM      5  C6  UNL d   1      -0.727  -0.219  -1.690  0.00  0.00     0.076 C 
ATOM      6  C7  UNL d   1      -3.058   0.598  -2.134  0.00  0.00     0.002 A 
ATOM      7  C8  UNL d   1      -3.970   1.616  -2.423  0.00  0.00     0.006 A 
ENDROOT
BRANCH   1   8
ATOM      8  C1  UNL d   1      -4.513   4.028  -2.923  0.00  0.00     0.054 C 
ATOM      9  C   UNL d   1      -4.628   4.170  -4.434  0.00  0.00     0.018 C 
ENDBRANCH   1   8
TORSDOF 1
ENDMDL
