MODEL 1
REMARK minimizedAffinity 2.3187983
REMARK minimizedRMSD -1
REMARK  1 active torsions:
REMARK  status: ('A' for Active; 'I' for Inactive)
REMARK    1  A    between atoms: C1_2  and  C2_3 
ROOT
ATOM      1  C2  UNL d   1      -1.007   1.686  -1.547  0.00  0.00    -0.081 A 
ATOM      2  C3  UNL d   1      -0.025   2.369  -0.820  0.00  0.00     0.006 A 
ATOM      3  C4  UNL d   1       0.030   3.765  -0.842  0.00  0.00     0.002 A 
ATOM      4  C5  UNL d   1      -0.900   4.500  -1.584  0.00  0.00    -0.080 A 
ATOM      5  C6  UNL d   1      -0.871   6.000  -1.592  0.00  0.00     0.076 C 
ATOM      6  C7  UNL d   1      -1.871   3.817  -2.325  0.00  0.00     0.002 A 
ATOM      7  C8  UNL d   1      -1.925   2.422  -2.304  0.00  0.00     0.006 A 
ENDROOT
BRANCH   1   8
ATOM      8  C1  UNL d   1      -1.109   0.184  -1.474  0.00  0.00     0.054 C 
ATOM      9  C   UNL d   1       0.066  -0.485  -2.174  0.00  0.00     0.018 C 
ENDBRANCH   1   8
TORSDOF 1
ENDMDL
