MODEL 1
REMARK minimizedAffinity 14.2823715
REMARK minimizedRMSD -1
REMARK  1 active torsions:
REMARK  status: ('A' for Active; 'I' for Inactive)
REMARK    1  A    between atoms: C1_2  and  C2_3 
ROOT
ATOM      1  C2  UNL d   1      -1.349   1.439  -1.430  0.00  0.00    -0.081 A 
ATOM      2  C3  UNL d   1      -1.180   2.592  -2.206  0.00  0.00     0.006 A 
ATOM      3  C4  UNL d   1      -0.664   3.759  -1.637  0.00  0.00     0.002 A 
ATOM      4  C5  UNL d   1      -0.302   3.790  -0.287  0.00  0.00    -0.080 A 
ATOM      5  C6  UNL d   1       0.282   5.027   0.329  0.00  0.00     0.076 C 
ATOM      6  C7  UNL d   1      -0.487   2.643   0.493  0.00  0.00     0.002 A 
ATOM      7  C8  UNL d   1      -1.004   1.476  -0.075  0.00  0.00     0.006 A 
ENDROOT
BRANCH   1   8
ATOM      8  C1  UNL d   1      -1.845   0.160  -2.056  0.00  0.00     0.054 C 
ATOM      9  C   UNL d   1      -3.365   0.135  -2.134  0.00  0.00     0.018 C 
ENDBRANCH   1   8
TORSDOF 1
ENDMDL
