MODEL 1
REMARK minimizedAffinity 2.51625133
REMARK minimizedRMSD -1
REMARK  1 active torsions:
REMARK  status: ('A' for Active; 'I' for Inactive)
REMARK    1  A    between atoms: C1_2  and  C2_3 
ROOT
ATOM      1  C2  UNL d   1      -0.458   1.531  -0.547  0.00  0.00    -0.081 A 
ATOM      2  C3  UNL d   1      -0.286   0.573   0.460  0.00  0.00     0.006 A 
ATOM      3  C4  UNL d   1       0.238   0.937   1.702  0.00  0.00     0.002 A 
ATOM      4  C5  UNL d   1       0.591   2.265   1.962  0.00  0.00    -0.080 A 
ATOM      5  C6  UNL d   1       1.126   2.675   3.302  0.00  0.00     0.076 C 
ATOM      6  C7  UNL d   1       0.435   3.220   0.951  0.00  0.00     0.002 A 
ATOM      7  C8  UNL d   1      -0.088   2.856  -0.292  0.00  0.00     0.006 A 
ENDROOT
BRANCH   1   8
ATOM      8  C1  UNL d   1      -1.084   1.154  -1.865  0.00  0.00     0.054 C 
ATOM      9  C   UNL d   1      -0.493  -0.140  -2.408  0.00  0.00     0.018 C 
ENDBRANCH   1   8
TORSDOF 1
ENDMDL
