MODEL 1
REMARK minimizedAffinity 3.54750347
REMARK minimizedRMSD -1
REMARK  1 active torsions:
REMARK  status: ('A' for Active; 'I' for Inactive)
REMARK    1  A    between atoms: C1_2  and  C2_3 
ROOT
ATOM      1  C2  UNL d   1       0.049   3.350  -0.792  0.00  0.00    -0.081 A 
ATOM      2  C3  UNL d   1       0.507   3.479   0.525  0.00  0.00     0.006 A 
ATOM      3  C4  UNL d   1       0.520   2.375   1.381  0.00  0.00     0.002 A 
ATOM      4  C5  UNL d   1       0.084   1.124   0.932  0.00  0.00    -0.080 A 
ATOM      5  C6  UNL d   1       0.122  -0.076   1.832  0.00  0.00     0.076 C 
ATOM      6  C7  UNL d   1      -0.389   0.999  -0.378  0.00  0.00     0.002 A 
ATOM      7  C8  UNL d   1      -0.403   2.102  -1.234  0.00  0.00     0.006 A 
ENDROOT
BRANCH   1   8
ATOM      8  C1  UNL d   1       0.095   4.524  -1.738  0.00  0.00     0.054 C 
ATOM      9  C   UNL d   1      -0.352   5.806  -1.050  0.00  0.00     0.018 C 
ENDBRANCH   1   8
TORSDOF 1
ENDMDL
