MODEL 1
REMARK minimizedAffinity 2.07806826
REMARK minimizedRMSD -1
REMARK  1 active torsions:
REMARK  status: ('A' for Active; 'I' for Inactive)
REMARK    1  A    between atoms: C1_2  and  C2_3 
ROOT
ATOM      1  C2  UNL d   1       0.400   0.982   0.383  0.00  0.00    -0.081 A 
ATOM      2  C3  UNL d   1       1.142  -0.195   0.532  0.00  0.00     0.006 A 
ATOM      3  C4  UNL d   1       1.387  -0.722   1.803  0.00  0.00     0.002 A 
ATOM      4  C5  UNL d   1       0.886  -0.086   2.944  0.00  0.00    -0.080 A 
ATOM      5  C6  UNL d   1       1.116  -0.658   4.311  0.00  0.00     0.076 C 
ATOM      6  C7  UNL d   1       0.159   1.100   2.796  0.00  0.00     0.002 A 
ATOM      7  C8  UNL d   1      -0.085   1.628   1.526  0.00  0.00     0.006 A 
ENDROOT
BRANCH   1   8
ATOM      8  C1  UNL d   1       0.079   1.518  -0.989  0.00  0.00     0.054 C 
ATOM      9  C   UNL d   1       0.102   0.412  -2.034  0.00  0.00     0.018 C 
ENDBRANCH   1   8
TORSDOF 1
ENDMDL
