MODEL 1
REMARK minimizedAffinity -4.15730906
REMARK minimizedRMSD -1
REMARK  1 active torsions:
REMARK  status: ('A' for Active; 'I' for Inactive)
REMARK    1  A    between atoms: C1_2  and  C2_3 
ROOT
ATOM      1  C2  UNL d   1      -0.395   1.458  -0.829  0.00  0.00    -0.081 A 
ATOM      2  C3  UNL d   1      -0.190   0.850   0.416  0.00  0.00     0.006 A 
ATOM      3  C4  UNL d   1       0.297   1.591   1.495  0.00  0.00     0.002 A 
ATOM      4  C5  UNL d   1       0.580   2.953   1.350  0.00  0.00    -0.080 A 
ATOM      5  C6  UNL d   1       1.074   3.767   2.509  0.00  0.00     0.076 C 
ATOM      6  C7  UNL d   1       0.392   3.557   0.102  0.00  0.00     0.002 A 
ATOM      7  C8  UNL d   1      -0.094   2.817  -0.977  0.00  0.00     0.006 A 
ENDROOT
BRANCH   1   8
ATOM      8  C1  UNL d   1      -0.981   0.677  -1.977  0.00  0.00     0.054 C 
ATOM      9  C   UNL d   1      -2.466   0.965  -2.142  0.00  0.00     0.018 C 
ENDBRANCH   1   8
TORSDOF 1
ENDMDL
