MODEL 1
REMARK minimizedAffinity 9.92290497
REMARK minimizedRMSD -1
REMARK  1 active torsions:
REMARK  status: ('A' for Active; 'I' for Inactive)
REMARK    1  A    between atoms: C1_2  and  C2_3 
ROOT
ATOM      1  C2  UNL d   1       5.098   1.742  -1.857  0.00  0.00    -0.081 A 
ATOM      2  C3  UNL d   1       5.383   2.011  -0.513  0.00  0.00     0.006 A 
ATOM      3  C4  UNL d   1       4.580   1.483   0.501  0.00  0.00     0.002 A 
ATOM      4  C5  UNL d   1       3.484   0.672   0.188  0.00  0.00    -0.080 A 
ATOM      5  C6  UNL d   1       2.632   0.074   1.268  0.00  0.00     0.076 C 
ATOM      6  C7  UNL d   1       3.188   0.418  -1.155  0.00  0.00     0.002 A 
ATOM      7  C8  UNL d   1       3.991   0.946  -2.169  0.00  0.00     0.006 A 
ENDROOT
BRANCH   1   8
ATOM      8  C1  UNL d   1       6.000   2.257  -2.950  0.00  0.00     0.054 C 
ATOM      9  C   UNL d   1       5.999   3.778  -2.997  0.00  0.00     0.018 C 
ENDBRANCH   1   8
TORSDOF 1
ENDMDL
