MODEL 1
REMARK minimizedAffinity 10.4959431
REMARK minimizedRMSD -1
REMARK  1 active torsions:
REMARK  status: ('A' for Active; 'I' for Inactive)
REMARK    1  A    between atoms: C1_2  and  C2_3 
ROOT
ATOM      1  C2  UNL d   1       5.357   2.207  -2.336  0.00  0.00    -0.081 A 
ATOM      2  C3  UNL d   1       4.246   1.415  -2.649  0.00  0.00     0.006 A 
ATOM      3  C4  UNL d   1       3.617   0.655  -1.660  0.00  0.00     0.002 A 
ATOM      4  C5  UNL d   1       4.083   0.681  -0.341  0.00  0.00    -0.080 A 
ATOM      5  C6  UNL d   1       3.398  -0.105   0.737  0.00  0.00     0.076 C 
ATOM      6  C7  UNL d   1       5.204   1.459  -0.032  0.00  0.00     0.002 A 
ATOM      7  C8  UNL d   1       5.834   2.218  -1.021  0.00  0.00     0.006 A 
ENDROOT
BRANCH   1   8
ATOM      8  C1  UNL d   1       5.999   3.077  -3.387  0.00  0.00     0.054 C 
ATOM      9  C   UNL d   1       5.963   4.545  -2.987  0.00  0.00     0.018 C 
ENDBRANCH   1   8
TORSDOF 1
ENDMDL
