MODEL 1
REMARK minimizedAffinity 2.07477307
REMARK minimizedRMSD -1
REMARK  1 active torsions:
REMARK  status: ('A' for Active; 'I' for Inactive)
REMARK    1  A    between atoms: C1_2  and  C2_3 
ROOT
ATOM      1  C2  UNL d   1       3.967   0.761   0.484  0.00  0.00    -0.081 A 
ATOM      2  C3  UNL d   1       5.108   1.537   0.724  0.00  0.00     0.006 A 
ATOM      3  C4  UNL d   1       5.775   2.161  -0.333  0.00  0.00     0.002 A 
ATOM      4  C5  UNL d   1       5.308   2.027  -1.645  0.00  0.00    -0.080 A 
ATOM      5  C6  UNL d   1       5.997   2.716  -2.785  0.00  0.00     0.076 C 
ATOM      6  C7  UNL d   1       4.179   1.237  -1.887  0.00  0.00     0.002 A 
ATOM      7  C8  UNL d   1       3.512   0.613  -0.831  0.00  0.00     0.006 A 
ENDROOT
BRANCH   1   8
ATOM      8  C1  UNL d   1       3.208   0.140   1.629  0.00  0.00     0.054 C 
ATOM      9  C   UNL d   1       4.152  -0.364   2.711  0.00  0.00     0.018 C 
ENDBRANCH   1   8
TORSDOF 1
ENDMDL
