MODEL 1
REMARK minimizedAffinity 7.04408407
REMARK minimizedRMSD -1
REMARK  1 active torsions:
REMARK  status: ('A' for Active; 'I' for Inactive)
REMARK    1  A    between atoms: C1_2  and  C2_3 
ROOT
ATOM      1  C2  UNL d   1      -2.220   1.803   0.156  0.00  0.00    -0.081 A 
ATOM      2  C3  UNL d   1      -2.437   0.563  -0.458  0.00  0.00     0.006 A 
ATOM      3  C4  UNL d   1      -3.653  -0.105  -0.296  0.00  0.00     0.002 A 
ATOM      4  C5  UNL d   1      -4.675   0.459   0.476  0.00  0.00    -0.080 A 
ATOM      5  C6  UNL d   1      -5.996  -0.233   0.633  0.00  0.00     0.076 C 
ATOM      6  C7  UNL d   1      -4.452   1.689   1.104  0.00  0.00     0.002 A 
ATOM      7  C8  UNL d   1      -3.236   2.357   0.943  0.00  0.00     0.006 A 
ENDROOT
BRANCH   1   8
ATOM      8  C1  UNL d   1      -0.934   2.555  -0.069  0.00  0.00     0.054 C 
ATOM      9  C   UNL d   1      -0.727   3.627   0.991  0.00  0.00     0.018 C 
ENDBRANCH   1   8
TORSDOF 1
ENDMDL
