MODEL 1
REMARK minimizedAffinity 8.38960934
REMARK minimizedRMSD -1
REMARK  1 active torsions:
REMARK  status: ('A' for Active; 'I' for Inactive)
REMARK    1  A    between atoms: C1_2  and  C2_3 
ROOT
ATOM      1  C2  UNL d   1       3.516   0.765   0.447  0.00  0.00    -0.081 A 
ATOM      2  C3  UNL d   1       4.545   1.564   0.960  0.00  0.00     0.006 A 
ATOM      3  C4  UNL d   1       5.357   2.309   0.101  0.00  0.00     0.002 A 
ATOM      4  C5  UNL d   1       5.150   2.273  -1.282  0.00  0.00    -0.080 A 
ATOM      5  C6  UNL d   1       5.995   3.091  -2.212  0.00  0.00     0.076 C 
ATOM      6  C7  UNL d   1       4.133   1.461  -1.795  0.00  0.00     0.002 A 
ATOM      7  C8  UNL d   1       3.321   0.715  -0.938  0.00  0.00     0.006 A 
ENDROOT
BRANCH   1   8
ATOM      8  C1  UNL d   1       2.597   0.011   1.374  0.00  0.00     0.054 C 
ATOM      9  C   UNL d   1       3.382  -0.767   2.420  0.00  0.00     0.018 C 
ENDBRANCH   1   8
TORSDOF 1
ENDMDL
