MODEL 1
REMARK minimizedAffinity 25.5617714
REMARK minimizedRMSD -1
REMARK  0 active torsions:
REMARK  status: ('A' for Active; 'I' for Inactive)
ROOT
ATOM      1  C   UNL d   1       4.153   5.998   0.069  0.00  0.00    -0.002 A 
ATOM      2  C1  UNL d   1       4.797   5.650  -1.110  0.00  0.00     0.010 A 
ATOM      3  C2  UNL d   1       4.635   4.376  -1.659  0.00  0.00     0.041 A 
ATOM      4  C3  UNL d   1       3.805   3.450  -0.997  0.00  0.00    -0.075 A 
ATOM      5  S   UNL d   1       3.457   1.833  -1.484  0.00  0.00     0.015 SA
ATOM      6  C4  UNL d   1       2.445   1.566  -0.138  0.00  0.00     0.022 A 
ATOM      7  C5  UNL d   1       2.363   2.673   0.673  0.00  0.00     0.026 A 
ATOM      8  C6  UNL d   1       3.145   3.777   0.191  0.00  0.00    -0.082 A 
ATOM      9  C7  UNL d   1       3.331   5.076   0.722  0.00  0.00     0.045 A 
ENDROOT
TORSDOF 0
ENDMDL
