MODEL 1
REMARK minimizedAffinity 16.0451584
REMARK minimizedRMSD -1
REMARK  0 active torsions:
REMARK  status: ('A' for Active; 'I' for Inactive)
ROOT
ATOM      1  C   UNL d   1       1.612   4.122  -5.302  0.00  0.00    -0.002 A 
ATOM      2  C1  UNL d   1       2.181   5.180  -5.995  0.00  0.00     0.010 A 
ATOM      3  C2  UNL d   1       3.537   5.480  -5.845  0.00  0.00     0.041 A 
ATOM      4  C3  UNL d   1       4.318   4.689  -4.979  0.00  0.00    -0.075 A 
ATOM      5  S   UNL d   1       5.999   4.869  -4.640  0.00  0.00     0.015 SA
ATOM      6  C4  UNL d   1       6.000   3.545  -3.567  0.00  0.00     0.022 A 
ATOM      7  C5  UNL d   1       4.757   2.969  -3.458  0.00  0.00     0.026 A 
ATOM      8  C6  UNL d   1       3.767   3.618  -4.271  0.00  0.00    -0.082 A 
ATOM      9  C7  UNL d   1       2.390   3.340  -4.444  0.00  0.00     0.045 A 
ENDROOT
TORSDOF 0
ENDMDL
