MODEL 1
REMARK minimizedAffinity 11.1602402
REMARK minimizedRMSD -1
REMARK  0 active torsions:
REMARK  status: ('A' for Active; 'I' for Inactive)
ROOT
ATOM      1  C   UNL d   1       2.975   1.242  -1.503  0.00  0.00    -0.002 A 
ATOM      2  C1  UNL d   1       1.650   1.148  -1.099  0.00  0.00     0.010 A 
ATOM      3  C2  UNL d   1       1.331   0.873   0.232  0.00  0.00     0.041 A 
ATOM      4  C3  UNL d   1       2.375   0.695   1.160  0.00  0.00    -0.075 A 
ATOM      5  S   UNL d   1       2.223   0.351   2.843  0.00  0.00     0.015 SA
ATOM      6  C4  UNL d   1       3.912   0.322   3.066  0.00  0.00     0.022 A 
ATOM      7  C5  UNL d   1       4.591   0.566   1.896  0.00  0.00     0.026 A 
ATOM      8  C6  UNL d   1       3.717   0.785   0.778  0.00  0.00    -0.082 A 
ATOM      9  C7  UNL d   1       4.008   1.064  -0.579  0.00  0.00     0.045 A 
ENDROOT
TORSDOF 0
ENDMDL
