MODEL 1
REMARK minimizedAffinity 9.0797987
REMARK minimizedRMSD -1
REMARK  0 active torsions:
REMARK  status: ('A' for Active; 'I' for Inactive)
ROOT
ATOM      1  C   UNL d   1      -5.545  -5.992  -2.620  0.00  0.00    -0.002 A 
ATOM      2  C1  UNL d   1      -6.000  -4.999  -3.476  0.00  0.00     0.010 A 
ATOM      3  C2  UNL d   1      -5.270  -3.821  -3.650  0.00  0.00     0.041 A 
ATOM      4  C3  UNL d   1      -4.062  -3.658  -2.944  0.00  0.00    -0.075 A 
ATOM      5  S   UNL d   1      -3.001  -2.300  -3.000  0.00  0.00     0.015 SA
ATOM      6  C4  UNL d   1      -1.917  -3.007  -1.890  0.00  0.00     0.022 A 
ATOM      7  C5  UNL d   1      -2.340  -4.248  -1.476  0.00  0.00     0.026 A 
ATOM      8  C6  UNL d   1      -3.582  -4.644  -2.077  0.00  0.00    -0.082 A 
ATOM      9  C7  UNL d   1      -4.346  -5.826  -1.921  0.00  0.00     0.045 A 
ENDROOT
TORSDOF 0
ENDMDL
