MODEL 1
REMARK minimizedAffinity 13.0184155
REMARK minimizedRMSD -1
REMARK  0 active torsions:
REMARK  status: ('A' for Active; 'I' for Inactive)
ROOT
ATOM      1  C   UNL d   1       1.870   0.013   2.553  0.00  0.00    -0.002 A 
ATOM      2  C1  UNL d   1       0.831   0.632   3.234  0.00  0.00     0.010 A 
ATOM      3  C2  UNL d   1       0.412   1.915   2.876  0.00  0.00     0.041 A 
ATOM      4  C3  UNL d   1       1.059   2.570   1.809  0.00  0.00    -0.075 A 
ATOM      5  S   UNL d   1       0.714   4.143   1.194  0.00  0.00     0.015 SA
ATOM      6  C4  UNL d   1       1.937   4.030   0.012  0.00  0.00     0.022 A 
ATOM      7  C5  UNL d   1       2.602   2.828   0.071  0.00  0.00     0.026 A 
ATOM      8  C6  UNL d   1       2.106   1.967   1.108  0.00  0.00    -0.082 A 
ATOM      9  C7  UNL d   1       2.509   0.666   1.496  0.00  0.00     0.045 A 
ENDROOT
TORSDOF 0
ENDMDL
