MODEL 1
REMARK minimizedAffinity 15.2072535
REMARK minimizedRMSD -1
REMARK  0 active torsions:
REMARK  status: ('A' for Active; 'I' for Inactive)
ROOT
ATOM      1  C   UNL d   1       0.015   1.600   4.170  0.00  0.00    -0.002 A 
ATOM      2  C1  UNL d   1       0.844   0.748   4.886  0.00  0.00     0.010 A 
ATOM      3  C2  UNL d   1       2.065   0.331   4.352  0.00  0.00     0.041 A 
ATOM      4  C3  UNL d   1       2.444   0.791   3.076  0.00  0.00    -0.075 A 
ATOM      5  S   UNL d   1       3.894   0.413   2.223  0.00  0.00     0.015 SA
ATOM      6  C4  UNL d   1       3.447   1.376   0.889  0.00  0.00     0.022 A 
ATOM      7  C5  UNL d   1       2.225   1.977   1.072  0.00  0.00     0.026 A 
ATOM      8  C6  UNL d   1       1.626   1.650   2.336  0.00  0.00    -0.082 A 
ATOM      9  C7  UNL d   1       0.394   2.054   2.904  0.00  0.00     0.045 A 
ENDROOT
TORSDOF 0
ENDMDL
