MODEL 1
REMARK minimizedAffinity 14.113698
REMARK minimizedRMSD -1
REMARK  0 active torsions:
REMARK  status: ('A' for Active; 'I' for Inactive)
ROOT
ATOM      1  C   UNL d   1       3.141   2.317  -4.542  0.00  0.00    -0.002 A 
ATOM      2  C1  UNL d   1       4.153   1.448  -4.160  0.00  0.00     0.010 A 
ATOM      3  C2  UNL d   1       4.093   0.783  -2.934  0.00  0.00     0.041 A 
ATOM      4  C3  UNL d   1       2.987   1.006  -2.091  0.00  0.00    -0.075 A 
ATOM      5  S   UNL d   1       2.699   0.301  -0.544  0.00  0.00     0.015 SA
ATOM      6  C4  UNL d   1       1.225   1.137  -0.355  0.00  0.00     0.022 A 
ATOM      7  C5  UNL d   1       0.944   1.938  -1.436  0.00  0.00     0.026 A 
ATOM      8  C6  UNL d   1       1.955   1.876  -2.454  0.00  0.00    -0.082 A 
ATOM      9  C7  UNL d   1       2.046   2.537  -3.703  0.00  0.00     0.045 A 
ENDROOT
TORSDOF 0
ENDMDL
