MODEL 1
REMARK minimizedAffinity 10.4648476
REMARK minimizedRMSD -1
REMARK  0 active torsions:
REMARK  status: ('A' for Active; 'I' for Inactive)
ROOT
ATOM      1  C   UNL d   1      -5.267   0.398   5.703  0.00  0.00    -0.002 A 
ATOM      2  C1  UNL d   1      -3.988   0.497   5.175  0.00  0.00     0.010 A 
ATOM      3  C2  UNL d   1      -3.414   1.746   4.931  0.00  0.00     0.041 A 
ATOM      4  C3  UNL d   1      -4.155   2.906   5.231  0.00  0.00    -0.075 A 
ATOM      5  S   UNL d   1      -3.657   4.543   5.016  0.00  0.00     0.015 SA
ATOM      6  C4  UNL d   1      -5.130   5.149   5.621  0.00  0.00     0.022 A 
ATOM      7  C5  UNL d   1      -5.993   4.142   5.982  0.00  0.00     0.026 A 
ATOM      8  C6  UNL d   1      -5.445   2.833   5.764  0.00  0.00    -0.082 A 
ATOM      9  C7  UNL d   1      -5.999   1.551   5.999  0.00  0.00     0.045 A 
ENDROOT
TORSDOF 0
ENDMDL
