MODEL 1
REMARK minimizedAffinity 14.8956022
REMARK minimizedRMSD -1
REMARK  0 active torsions:
REMARK  status: ('A' for Active; 'I' for Inactive)
ROOT
ATOM      1  C   UNL d   1      -5.603   3.375   5.021  0.00  0.00    -0.002 A 
ATOM      2  C1  UNL d   1      -6.000   2.474   5.999  0.00  0.00     0.010 A 
ATOM      3  C2  UNL d   1      -5.704   1.115   5.875  0.00  0.00     0.041 A 
ATOM      4  C3  UNL d   1      -4.995   0.673   4.741  0.00  0.00    -0.075 A 
ATOM      5  S   UNL d   1      -4.521  -0.944   4.377  0.00  0.00     0.015 SA
ATOM      6  C4  UNL d   1      -3.780  -0.477   2.915  0.00  0.00     0.022 A 
ATOM      7  C5  UNL d   1      -3.882   0.876   2.695  0.00  0.00     0.026 A 
ATOM      8  C6  UNL d   1      -4.584   1.561   3.744  0.00  0.00    -0.082 A 
ATOM      9  C7  UNL d   1      -4.899   2.933   3.898  0.00  0.00     0.045 A 
ENDROOT
TORSDOF 0
ENDMDL
