MODEL 1
REMARK minimizedAffinity -3.09207439
REMARK minimizedRMSD -1
REMARK  0 active torsions:
REMARK  status: ('A' for Active; 'I' for Inactive)
ROOT
ATOM      1  C   UNL d   1       2.886  -1.352   1.073  0.00  0.00     0.172 C 
ATOM      2  N   UNL d   1       1.787  -0.485   0.718  0.00  0.00    -0.070 N 
ATOM      3  C1  UNL d   1       1.832   0.883   0.673  0.00  0.00    -0.004 A 
ATOM      4  C2  UNL d   1       0.586   1.334   0.292  0.00  0.00    -0.047 A 
ATOM      5  C3  UNL d   1      -0.235   0.197   0.102  0.00  0.00    -0.047 A 
ATOM      6  C4  UNL d   1       0.534  -0.915   0.372  0.00  0.00    -0.004 A 
ENDROOT
TORSDOF 0
ENDMDL
