MODEL 1
REMARK minimizedAffinity -3.43794036
REMARK minimizedRMSD -1
REMARK  0 active torsions:
REMARK  status: ('A' for Active; 'I' for Inactive)
ROOT
ATOM      1  C   UNL d   1      -0.919   0.017  -0.465  0.00  0.00     0.172 C 
ATOM      2  N   UNL d   1       0.338  -0.235   0.200  0.00  0.00    -0.070 N 
ATOM      3  C1  UNL d   1       0.973   0.621   1.060  0.00  0.00    -0.004 A 
ATOM      4  C2  UNL d   1       2.137   0.014   1.477  0.00  0.00    -0.047 A 
ATOM      5  C3  UNL d   1       2.206  -1.250   0.845  0.00  0.00    -0.047 A 
ATOM      6  C4  UNL d   1       1.079  -1.378   0.060  0.00  0.00    -0.004 A 
ENDROOT
TORSDOF 0
ENDMDL
