MODEL 1
REMARK minimizedAffinity -2.37697959
REMARK minimizedRMSD -1
REMARK  0 active torsions:
REMARK  status: ('A' for Active; 'I' for Inactive)
ROOT
ATOM      1  C   UNL d   1       1.994   1.214   1.399  0.00  0.00     0.172 C 
ATOM      2  N   UNL d   1       0.965   0.653   0.556  0.00  0.00    -0.070 N 
ATOM      3  C1  UNL d   1      -0.123   1.326   0.067  0.00  0.00    -0.004 A 
ATOM      4  C2  UNL d   1      -0.860   0.442  -0.692  0.00  0.00    -0.047 A 
ATOM      5  C3  UNL d   1      -0.192  -0.805  -0.657  0.00  0.00    -0.047 A 
ATOM      6  C4  UNL d   1       0.934  -0.647   0.122  0.00  0.00    -0.004 A 
ENDROOT
TORSDOF 0
ENDMDL
