MODEL 1
REMARK minimizedAffinity -3.00876617
REMARK minimizedRMSD -1
REMARK  0 active torsions:
REMARK  status: ('A' for Active; 'I' for Inactive)
ROOT
ATOM      1  C   UNL d   1       0.129   0.437   0.504  0.00  0.00     0.172 C 
ATOM      2  N   UNL d   1       1.176  -0.549   0.374  0.00  0.00    -0.070 N 
ATOM      3  C1  UNL d   1       1.354  -1.388  -0.694  0.00  0.00    -0.004 A 
ATOM      4  C2  UNL d   1       2.457  -2.172  -0.435  0.00  0.00    -0.047 A 
ATOM      5  C3  UNL d   1       2.959  -1.792   0.832  0.00  0.00    -0.047 A 
ATOM      6  C4  UNL d   1       2.147  -0.786   1.311  0.00  0.00    -0.004 A 
ENDROOT
TORSDOF 0
ENDMDL
