MODEL 1
REMARK minimizedAffinity -3.98635077
REMARK minimizedRMSD -1
REMARK  0 active torsions:
REMARK  status: ('A' for Active; 'I' for Inactive)
ROOT
ATOM      1  C   UNL d   1      -0.361   0.720  -0.322  0.00  0.00     0.172 C 
ATOM      2  N   UNL d   1       0.789  -0.067   0.059  0.00  0.00    -0.070 N 
ATOM      3  C1  UNL d   1       1.988   0.430   0.493  0.00  0.00    -0.004 A 
ATOM      4  C2  UNL d   1       2.818  -0.638   0.754  0.00  0.00    -0.047 A 
ATOM      5  C3  UNL d   1       2.093  -1.819   0.466  0.00  0.00    -0.047 A 
ATOM      6  C4  UNL d   1       0.840  -1.436   0.037  0.00  0.00    -0.004 A 
ENDROOT
TORSDOF 0
ENDMDL
