MODEL 1
REMARK minimizedAffinity -3.25420785
REMARK minimizedRMSD -1
REMARK  0 active torsions:
REMARK  status: ('A' for Active; 'I' for Inactive)
ROOT
ATOM      1  C   UNL d   1       0.508  -0.845  -0.023  0.00  0.00     0.172 C 
ATOM      2  N   UNL d   1       1.826  -0.255  -0.037  0.00  0.00    -0.070 N 
ATOM      3  C1  UNL d   1       2.100   1.086   0.007  0.00  0.00    -0.004 A 
ATOM      4  C2  UNL d   1       3.470   1.237  -0.024  0.00  0.00    -0.047 A 
ATOM      5  C3  UNL d   1       4.038  -0.058  -0.090  0.00  0.00    -0.047 A 
ATOM      6  C4  UNL d   1       2.997  -0.962  -0.096  0.00  0.00    -0.004 A 
ENDROOT
TORSDOF 0
ENDMDL
