MODEL 1
REMARK minimizedAffinity -3.67559695
REMARK minimizedRMSD -1
REMARK  0 active torsions:
REMARK  status: ('A' for Active; 'I' for Inactive)
ROOT
ATOM      1  C   UNL d   1       2.764  -1.595   1.015  0.00  0.00     0.172 C 
ATOM      2  N   UNL d   1       1.530  -1.271   0.340  0.00  0.00    -0.070 N 
ATOM      3  C1  UNL d   1       0.749  -0.173   0.588  0.00  0.00    -0.004 A 
ATOM      4  C2  UNL d   1      -0.335  -0.226  -0.261  0.00  0.00    -0.047 A 
ATOM      5  C3  UNL d   1      -0.202  -1.397  -1.045  0.00  0.00    -0.047 A 
ATOM      6  C4  UNL d   1       0.961  -2.024  -0.653  0.00  0.00    -0.004 A 
ENDROOT
TORSDOF 0
ENDMDL
