MODEL 1
REMARK minimizedAffinity -3.36877799
REMARK minimizedRMSD -1
REMARK  0 active torsions:
REMARK  status: ('A' for Active; 'I' for Inactive)
ROOT
ATOM      1  C   UNL d   1      -1.288   1.114  -0.147  0.00  0.00     0.172 C 
ATOM      2  N   UNL d   1       0.019   0.724   0.326  0.00  0.00    -0.070 N 
ATOM      3  C1  UNL d   1       1.054   1.576   0.606  0.00  0.00    -0.004 A 
ATOM      4  C2  UNL d   1       2.124   0.817   1.029  0.00  0.00    -0.047 A 
ATOM      5  C3  UNL d   1       1.718  -0.539   1.000  0.00  0.00    -0.047 A 
ATOM      6  C4  UNL d   1       0.412  -0.568   0.562  0.00  0.00    -0.004 A 
ENDROOT
TORSDOF 0
ENDMDL
