MODEL 1
REMARK minimizedAffinity -3.17519069
REMARK minimizedRMSD -1
REMARK  0 active torsions:
REMARK  status: ('A' for Active; 'I' for Inactive)
ROOT
ATOM      1  C   UNL d   1      -2.191   1.064   0.020  0.00  0.00     0.172 C 
ATOM      2  N   UNL d   1      -0.754   1.019   0.159  0.00  0.00    -0.070 N 
ATOM      3  C1  UNL d   1       0.074   2.106   0.238  0.00  0.00    -0.004 A 
ATOM      4  C2  UNL d   1       1.367   1.643   0.364  0.00  0.00    -0.047 A 
ATOM      5  C3  UNL d   1       1.313   0.229   0.359  0.00  0.00    -0.047 A 
ATOM      6  C4  UNL d   1      -0.012  -0.131   0.231  0.00  0.00    -0.004 A 
ENDROOT
TORSDOF 0
ENDMDL
