MODEL 1
REMARK minimizedAffinity 0.54568553
REMARK minimizedRMSD -1
REMARK  0 active torsions:
REMARK  status: ('A' for Active; 'I' for Inactive)
ROOT
ATOM      1  C   UNL d   1      -3.426   0.946   3.181  0.00  0.00     0.172 C 
ATOM      2  N   UNL d   1      -2.411   0.343   2.349  0.00  0.00    -0.070 N 
ATOM      3  C1  UNL d   1      -2.507   0.132   1.000  0.00  0.00    -0.004 A 
ATOM      4  C2  UNL d   1      -1.336  -0.462   0.581  0.00  0.00    -0.047 A 
ATOM      5  C3  UNL d   1      -0.508  -0.613   1.718  0.00  0.00    -0.047 A 
ATOM      6  C4  UNL d   1      -1.198  -0.107   2.799  0.00  0.00    -0.004 A 
ENDROOT
TORSDOF 0
ENDMDL
