MODEL 1
REMARK minimizedAffinity 2.79738092
REMARK minimizedRMSD -1
REMARK  0 active torsions:
REMARK  status: ('A' for Active; 'I' for Inactive)
ROOT
ATOM      1  C   UNL d   1      -4.325   0.453   3.038  0.00  0.00     0.172 C 
ATOM      2  N   UNL d   1      -3.114   0.129   2.321  0.00  0.00    -0.070 N 
ATOM      3  C1  UNL d   1      -1.878  -0.053   2.883  0.00  0.00    -0.004 A 
ATOM      4  C2  UNL d   1      -0.993  -0.347   1.868  0.00  0.00    -0.047 A 
ATOM      5  C3  UNL d   1      -1.721  -0.340   0.655  0.00  0.00    -0.047 A 
ATOM      6  C4  UNL d   1      -3.032  -0.043   0.965  0.00  0.00    -0.004 A 
ENDROOT
TORSDOF 0
ENDMDL
