MODEL 1
REMARK minimizedAffinity -0.0454209037
REMARK minimizedRMSD -1
REMARK  0 active torsions:
REMARK  status: ('A' for Active; 'I' for Inactive)
ROOT
ATOM      1  C   UNL d   1       0.100  -2.563   1.267  0.00  0.00     0.172 C 
ATOM      2  N   UNL d   1       0.023  -1.206   0.780  0.00  0.00    -0.070 N 
ATOM      3  C1  UNL d   1       0.928  -0.605  -0.053  0.00  0.00    -0.004 A 
ATOM      4  C2  UNL d   1       0.499   0.685  -0.282  0.00  0.00    -0.047 A 
ATOM      5  C3  UNL d   1      -0.706   0.864   0.438  0.00  0.00    -0.047 A 
ATOM      6  C4  UNL d   1      -0.977  -0.322   1.087  0.00  0.00    -0.004 A 
ENDROOT
TORSDOF 0
ENDMDL
