MODEL 1
REMARK minimizedAffinity 2.38241696
REMARK minimizedRMSD -1
REMARK  0 active torsions:
REMARK  status: ('A' for Active; 'I' for Inactive)
ROOT
ATOM      1  C   UNL d   1      -6.000  -5.999  -5.999  0.00  0.00     0.172 C 
ATOM      2  N   UNL d   1      -4.736  -5.717  -5.359  0.00  0.00    -0.070 N 
ATOM      3  C1  UNL d   1      -3.538  -5.543  -6.000  0.00  0.00    -0.004 A 
ATOM      4  C2  UNL d   1      -2.580  -5.293  -5.042  0.00  0.00    -0.047 A 
ATOM      5  C3  UNL d   1      -3.223  -5.320  -3.782  0.00  0.00    -0.047 A 
ATOM      6  C4  UNL d   1      -4.558  -5.585  -4.008  0.00  0.00    -0.004 A 
ENDROOT
TORSDOF 0
ENDMDL
