MODEL 1
REMARK minimizedAffinity 4.46164894
REMARK minimizedRMSD -1
REMARK  0 active torsions:
REMARK  status: ('A' for Active; 'I' for Inactive)
ROOT
ATOM      1  C   UNL d   1       0.723  -1.706   2.022  0.00  0.00     0.172 C 
ATOM      2  N   UNL d   1      -0.587  -1.464   1.463  0.00  0.00    -0.070 N 
ATOM      3  C1  UNL d   1      -1.297  -0.298   1.567  0.00  0.00    -0.004 A 
ATOM      4  C2  UNL d   1      -2.491  -0.470   0.902  0.00  0.00    -0.047 A 
ATOM      5  C3  UNL d   1      -2.500  -1.786   0.380  0.00  0.00    -0.047 A 
ATOM      6  C4  UNL d   1      -1.309  -2.379   0.742  0.00  0.00    -0.004 A 
ENDROOT
TORSDOF 0
ENDMDL
