MODEL 1
REMARK minimizedAffinity 1.3670516
REMARK minimizedRMSD -1
REMARK  0 active torsions:
REMARK  status: ('A' for Active; 'I' for Inactive)
ROOT
ATOM      1  C   UNL d   1       3.549   1.509   0.558  0.00  0.00     0.172 C 
ATOM      2  N   UNL d   1       3.599   1.528  -0.885  0.00  0.00    -0.070 N 
ATOM      3  C1  UNL d   1       2.687   0.943  -1.723  0.00  0.00    -0.004 A 
ATOM      4  C2  UNL d   1       3.087   1.186  -3.019  0.00  0.00    -0.047 A 
ATOM      5  C3  UNL d   1       4.282   1.942  -2.958  0.00  0.00    -0.047 A 
ATOM      6  C4  UNL d   1       4.576   2.139  -1.625  0.00  0.00    -0.004 A 
ENDROOT
TORSDOF 0
ENDMDL
