MODEL 1
REMARK minimizedAffinity 1.3107121
REMARK minimizedRMSD -1
REMARK  0 active torsions:
REMARK  status: ('A' for Active; 'I' for Inactive)
ROOT
ATOM      1  C   UNL d   1       0.457  -1.922   1.342  0.00  0.00     0.172 C 
ATOM      2  N   UNL d   1      -0.666  -1.036   1.146  0.00  0.00    -0.070 N 
ATOM      3  C1  UNL d   1      -1.847  -1.368   0.537  0.00  0.00    -0.004 A 
ATOM      4  C2  UNL d   1      -2.656  -0.252   0.549  0.00  0.00    -0.047 A 
ATOM      5  C3  UNL d   1      -1.936   0.787   1.185  0.00  0.00    -0.047 A 
ATOM      6  C4  UNL d   1      -0.707   0.274   1.545  0.00  0.00    -0.004 A 
ENDROOT
TORSDOF 0
ENDMDL
