MODEL 1
REMARK minimizedAffinity 6.95552874
REMARK minimizedRMSD -1
REMARK  0 active torsions:
REMARK  status: ('A' for Active; 'I' for Inactive)
ROOT
ATOM      1  C   UNL d   1       0.192  -1.172   2.160  0.00  0.00     0.172 C 
ATOM      2  N   UNL d   1      -1.065  -1.333   1.467  0.00  0.00    -0.070 N 
ATOM      3  C1  UNL d   1      -2.104  -0.441   1.481  0.00  0.00    -0.004 A 
ATOM      4  C2  UNL d   1      -3.115  -0.959   0.701  0.00  0.00    -0.047 A 
ATOM      5  C3  UNL d   1      -2.669  -2.205   0.202  0.00  0.00    -0.047 A 
ATOM      6  C4  UNL d   1      -1.397  -2.412   0.692  0.00  0.00    -0.004 A 
ENDROOT
TORSDOF 0
ENDMDL
