MODEL 1
REMARK minimizedAffinity -1.98915362
REMARK minimizedRMSD -1
REMARK  0 active torsions:
REMARK  status: ('A' for Active; 'I' for Inactive)
ROOT
ATOM      1  C   UNL d   1      -5.978  -3.000  -5.578  0.00  0.00     0.172 C 
ATOM      2  N   UNL d   1      -5.354  -1.867  -4.935  0.00  0.00    -0.070 N 
ATOM      3  C1  UNL d   1      -4.037  -1.511  -5.049  0.00  0.00    -0.004 A 
ATOM      4  C2  UNL d   1      -3.838  -0.379  -4.288  0.00  0.00    -0.047 A 
ATOM      5  C3  UNL d   1      -5.079  -0.045  -3.695  0.00  0.00    -0.047 A 
ATOM      6  C4  UNL d   1      -6.000  -0.982  -4.113  0.00  0.00    -0.004 A 
ENDROOT
TORSDOF 0
ENDMDL
