MODEL 1
REMARK minimizedAffinity 4.94937801
REMARK minimizedRMSD -1
REMARK  0 active torsions:
REMARK  status: ('A' for Active; 'I' for Inactive)
ROOT
ATOM      1  C   UNL d   1       3.350   1.258   0.458  0.00  0.00     0.172 C 
ATOM      2  N   UNL d   1       3.195  -0.174   0.357  0.00  0.00    -0.070 N 
ATOM      3  C1  UNL d   1       2.004  -0.847   0.297  0.00  0.00    -0.004 A 
ATOM      4  C2  UNL d   1       2.283  -2.193   0.207  0.00  0.00    -0.047 A 
ATOM      5  C3  UNL d   1       3.691  -2.335   0.213  0.00  0.00    -0.047 A 
ATOM      6  C4  UNL d   1       4.231  -1.070   0.307  0.00  0.00    -0.004 A 
ENDROOT
TORSDOF 0
ENDMDL
