MODEL 1
REMARK minimizedAffinity 14.5305281
REMARK minimizedRMSD -1
REMARK  0 active torsions:
REMARK  status: ('A' for Active; 'I' for Inactive)
ROOT
ATOM      1  C   UNL d   1       4.869  -1.626   0.659  0.00  0.00     0.172 C 
ATOM      2  N   UNL d   1       3.830  -0.631   0.539  0.00  0.00    -0.070 N 
ATOM      3  C1  UNL d   1       2.510  -0.882   0.272  0.00  0.00    -0.004 A 
ATOM      4  C2  UNL d   1       1.848   0.326   0.240  0.00  0.00    -0.047 A 
ATOM      5  C3  UNL d   1       2.803   1.339   0.495  0.00  0.00    -0.047 A 
ATOM      6  C4  UNL d   1       4.021   0.719   0.677  0.00  0.00    -0.004 A 
ENDROOT
TORSDOF 0
ENDMDL
