MODEL 1
REMARK minimizedAffinity 5.06549883
REMARK minimizedRMSD -1
REMARK  0 active torsions:
REMARK  status: ('A' for Active; 'I' for Inactive)
ROOT
ATOM      1  C   UNL d   1      -5.275   1.109  -2.795  0.00  0.00     0.172 C 
ATOM      2  N   UNL d   1      -5.226   0.003  -3.721  0.00  0.00    -0.070 N 
ATOM      3  C1  UNL d   1      -5.999  -1.125  -3.659  0.00  0.00    -0.004 A 
ATOM      4  C2  UNL d   1      -5.651  -1.935  -4.719  0.00  0.00    -0.047 A 
ATOM      5  C3  UNL d   1      -4.633  -1.270  -5.443  0.00  0.00    -0.047 A 
ATOM      6  C4  UNL d   1      -4.389  -0.073  -4.803  0.00  0.00    -0.004 A 
ENDROOT
TORSDOF 0
ENDMDL
