MODEL 1
REMARK minimizedAffinity 2.95172429
REMARK minimizedRMSD -1
REMARK  0 active torsions:
REMARK  status: ('A' for Active; 'I' for Inactive)
ROOT
ATOM      1  C   UNL d   1       1.113  -2.204   0.422  0.00  0.00     0.172 C 
ATOM      2  N   UNL d   1      -0.166  -1.545   0.547  0.00  0.00    -0.070 N 
ATOM      3  C1  UNL d   1      -1.335  -1.953  -0.039  0.00  0.00    -0.004 A 
ATOM      4  C2  UNL d   1      -2.322  -1.062   0.323  0.00  0.00    -0.047 A 
ATOM      5  C3  UNL d   1      -1.725  -0.084   1.154  0.00  0.00    -0.047 A 
ATOM      6  C4  UNL d   1      -0.390  -0.408   1.276  0.00  0.00    -0.004 A 
ENDROOT
TORSDOF 0
ENDMDL
