MODEL 1
REMARK minimizedAffinity 3.42572522
REMARK minimizedRMSD -1
REMARK  0 active torsions:
REMARK  status: ('A' for Active; 'I' for Inactive)
ROOT
ATOM      1  C   UNL d   1      -6.000  -2.422  -4.850  0.00  0.00     0.172 C 
ATOM      2  N   UNL d   1      -5.347  -1.331  -4.166  0.00  0.00    -0.070 N 
ATOM      3  C1  UNL d   1      -3.993  -1.153  -4.057  0.00  0.00    -0.004 A 
ATOM      4  C2  UNL d   1      -3.776  -0.000  -3.333  0.00  0.00    -0.047 A 
ATOM      5  C3  UNL d   1      -5.043   0.532  -2.995  0.00  0.00    -0.047 A 
ATOM      6  C4  UNL d   1      -5.997  -0.311  -3.522  0.00  0.00    -0.004 A 
ENDROOT
TORSDOF 0
ENDMDL
