MODEL 1
REMARK minimizedAffinity 2.62763619
REMARK minimizedRMSD -1
REMARK  0 active torsions:
REMARK  status: ('A' for Active; 'I' for Inactive)
ROOT
ATOM      1  C   UNL d   1       1.806  -1.888   0.684  0.00  0.00     0.172 C 
ATOM      2  N   UNL d   1       0.404  -1.561   0.577  0.00  0.00    -0.070 N 
ATOM      3  C1  UNL d   1      -0.186  -0.416   1.042  0.00  0.00    -0.004 A 
ATOM      4  C2  UNL d   1      -1.530  -0.484   0.745  0.00  0.00    -0.047 A 
ATOM      5  C3  UNL d   1      -1.756  -1.712   0.079  0.00  0.00    -0.047 A 
ATOM      6  C4  UNL d   1      -0.541  -2.359  -0.012  0.00  0.00    -0.004 A 
ENDROOT
TORSDOF 0
ENDMDL
