MODEL 1
REMARK minimizedAffinity -1.64871001
REMARK minimizedRMSD -1
REMARK  1 active torsions:
REMARK  status: ('A' for Active; 'I' for Inactive)
REMARK    1  A    between atoms: C1_2  and  C2_3 
ROOT
ATOM      1  C2  UNL d   1       0.401  -0.047  -1.472  0.00  0.00    -0.076 A 
ATOM      2  C3  UNL d   1      -0.193  -0.247  -2.730  0.00  0.00     0.004 A 
ATOM      3  C4  UNL d   1       0.285   0.412  -3.862  0.00  0.00    -0.003 A 
ATOM      4  C5  UNL d   1       1.366   1.280  -3.754  0.00  0.00     0.000 A 
ATOM      5  C6  UNL d   1       1.978   1.477  -2.517  0.00  0.00     0.000 A 
ATOM      6  C7  UNL d   1       1.519   0.808  -1.369  0.00  0.00    -0.073 A 
ATOM      7  C8  UNL d   1       2.213   1.062  -0.059  0.00  0.00     0.078 C 
ENDROOT
BRANCH   1   8
ATOM      8  C1  UNL d   1      -0.178  -0.768  -0.276  0.00  0.00     0.053 C 
ATOM      9  C   UNL d   1      -1.534  -0.218   0.136  0.00  0.00     0.018 C 
ENDBRANCH   1   8
TORSDOF 1
ENDMDL
