MODEL 1
REMARK minimizedAffinity 2.81198192
REMARK minimizedRMSD -1
REMARK  1 active torsions:
REMARK  status: ('A' for Active; 'I' for Inactive)
REMARK    1  A    between atoms: C1_2  and  C2_3 
ROOT
ATOM      1  C2  UNL d   1      -0.009  -0.669   0.087  0.00  0.00    -0.076 A 
ATOM      2  C3  UNL d   1      -0.950  -0.972   1.086  0.00  0.00     0.004 A 
ATOM      3  C4  UNL d   1      -2.138  -0.250   1.195  0.00  0.00    -0.003 A 
ATOM      4  C5  UNL d   1      -2.403   0.786   0.306  0.00  0.00     0.000 A 
ATOM      5  C6  UNL d   1      -1.488   1.088  -0.702  0.00  0.00     0.000 A 
ATOM      6  C7  UNL d   1      -0.294   0.359  -0.836  0.00  0.00    -0.073 A 
ATOM      7  C8  UNL d   1       0.660   0.732  -1.938  0.00  0.00     0.078 C 
ENDROOT
BRANCH   1   8
ATOM      8  C1  UNL d   1       1.274  -1.469   0.035  0.00  0.00     0.053 C 
ATOM      9  C   UNL d   1       2.326  -0.946   1.001  0.00  0.00     0.018 C 
ENDBRANCH   1   8
TORSDOF 1
ENDMDL
