MODEL 1
REMARK minimizedAffinity -0.879740715
REMARK minimizedRMSD -1
REMARK  1 active torsions:
REMARK  status: ('A' for Active; 'I' for Inactive)
REMARK    1  A    between atoms: C1_2  and  C2_3 
ROOT
ATOM      1  C2  UNL d   1       0.196  -0.099   1.455  0.00  0.00    -0.076 A 
ATOM      2  C3  UNL d   1       0.409   0.162   2.820  0.00  0.00     0.004 A 
ATOM      3  C4  UNL d   1      -0.560   0.809   3.586  0.00  0.00    -0.003 A 
ATOM      4  C5  UNL d   1      -1.757   1.203   2.999  0.00  0.00     0.000 A 
ATOM      5  C6  UNL d   1      -1.992   0.936   1.651  0.00  0.00     0.000 A 
ATOM      6  C7  UNL d   1      -1.033   0.271   0.869  0.00  0.00    -0.073 A 
ATOM      7  C8  UNL d   1      -1.336   0.013  -0.582  0.00  0.00     0.078 C 
ENDROOT
BRANCH   1   8
ATOM      8  C1  UNL d   1       1.294  -0.779   0.668  0.00  0.00     0.053 C 
ATOM      9  C   UNL d   1       2.614  -0.818   1.424  0.00  0.00     0.018 C 
ENDBRANCH   1   8
TORSDOF 1
ENDMDL
