MODEL 1
REMARK minimizedAffinity -2.47015738
REMARK minimizedRMSD -1
REMARK  1 active torsions:
REMARK  status: ('A' for Active; 'I' for Inactive)
REMARK    1  A    between atoms: C1_2  and  C2_3 
ROOT
ATOM      1  C2  UNL d   1       0.179  -0.262   2.455  0.00  0.00    -0.076 A 
ATOM      2  C3  UNL d   1      -1.117   0.277   2.382  0.00  0.00     0.004 A 
ATOM      3  C4  UNL d   1      -1.761   0.434   1.156  0.00  0.00    -0.003 A 
ATOM      4  C5  UNL d   1      -1.119   0.054  -0.018  0.00  0.00     0.000 A 
ATOM      5  C6  UNL d   1       0.160  -0.499   0.038  0.00  0.00     0.000 A 
ATOM      6  C7  UNL d   1       0.817  -0.679   1.267  0.00  0.00    -0.073 A 
ATOM      7  C8  UNL d   1       2.198  -1.275   1.268  0.00  0.00     0.078 C 
ENDROOT
BRANCH   1   8
ATOM      8  C1  UNL d   1       0.838  -0.383   3.811  0.00  0.00     0.053 C 
ATOM      9  C   UNL d   1       0.603   0.840   4.684  0.00  0.00     0.018 C 
ENDBRANCH   1   8
TORSDOF 1
ENDMDL
