MODEL 1
REMARK minimizedAffinity 4.29227018
REMARK minimizedRMSD -1
REMARK  0 active torsions:
REMARK  status: ('A' for Active; 'I' for Inactive)
ROOT
ATOM      1  O1  BZF d   1       3.021  -2.653  -0.606  0.00  0.00    -0.204 OA
ATOM      2  C2  BZF d   1       2.004  -3.268   0.099  0.00  0.00     0.174 A 
ATOM      3  C3  BZF d   1       1.448  -2.412   0.980  0.00  0.00    -0.012 A 
ATOM      4  C3A BZF d   1       2.100  -1.159   0.750  0.00  0.00    -0.107 A 
ATOM      5  C4  BZF d   1       1.970   0.082   1.304  0.00  0.00     0.055 A 
ATOM      6  C5  BZF d   1       2.809   1.074   0.906  0.00  0.00    -0.016 A 
ATOM      7  C6  BZF d   1       3.791   0.859  -0.038  0.00  0.00     0.022 A 
ATOM      8  C7  BZF d   1       3.955  -0.354  -0.620  0.00  0.00     0.029 A 
ATOM      9  C7A BZF d   1       3.087  -1.350  -0.244  0.00  0.00     0.058 A 
ENDROOT
TORSDOF 0
ENDMDL
