MODEL 1
REMARK minimizedAffinity 9.22267628
REMARK minimizedRMSD -1
REMARK  0 active torsions:
REMARK  status: ('A' for Active; 'I' for Inactive)
ROOT
ATOM      1  O1  BZF d   1      -3.065   3.360  -2.715  0.00  0.00    -0.204 OA
ATOM      2  C2  BZF d   1      -1.825   2.992  -3.201  0.00  0.00     0.174 A 
ATOM      3  C3  BZF d   1      -1.917   2.575  -4.480  0.00  0.00    -0.012 A 
ATOM      4  C3A BZF d   1      -3.286   2.777  -4.845  0.00  0.00    -0.107 A 
ATOM      5  C4  BZF d   1      -3.992   2.568  -5.995  0.00  0.00     0.055 A 
ATOM      6  C5  BZF d   1      -5.331   2.800  -5.999  0.00  0.00    -0.016 A 
ATOM      7  C6  BZF d   1      -5.996   3.236  -4.872  0.00  0.00     0.022 A 
ATOM      8  C7  BZF d   1      -5.337   3.463  -3.710  0.00  0.00     0.029 A 
ATOM      9  C7A BZF d   1      -3.979   3.261  -3.711  0.00  0.00     0.058 A 
ENDROOT
TORSDOF 0
ENDMDL
