MODEL 1
REMARK minimizedAffinity 1.28771627
REMARK minimizedRMSD -1
REMARK  0 active torsions:
REMARK  status: ('A' for Active; 'I' for Inactive)
ROOT
ATOM      1  O1  BZF d   1      -3.188  -0.413  -3.135  0.00  0.00    -0.204 OA
ATOM      2  C2  BZF d   1      -2.665   0.138  -4.290  0.00  0.00     0.174 A 
ATOM      3  C3  BZF d   1      -3.300   1.286  -4.602  0.00  0.00    -0.012 A 
ATOM      4  C3A BZF d   1      -4.218   1.512  -3.528  0.00  0.00    -0.107 A 
ATOM      5  C4  BZF d   1      -5.121   2.500  -3.257  0.00  0.00     0.055 A 
ATOM      6  C5  BZF d   1      -5.915   2.386  -2.160  0.00  0.00    -0.016 A 
ATOM      7  C6  BZF d   1      -5.839   1.297  -1.318  0.00  0.00     0.022 A 
ATOM      8  C7  BZF d   1      -4.955   0.294  -1.543  0.00  0.00     0.029 A 
ATOM      9  C7A BZF d   1      -4.128   0.422  -2.632  0.00  0.00     0.058 A 
ENDROOT
TORSDOF 0
ENDMDL
