MODEL 1
REMARK minimizedAffinity 4.08186817
REMARK minimizedRMSD -1
REMARK  0 active torsions:
REMARK  status: ('A' for Active; 'I' for Inactive)
ROOT
ATOM      1  O1  BZF d   1      -5.259   2.256  -5.283  0.00  0.00    -0.204 OA
ATOM      2  C2  BZF d   1      -5.869   1.025  -5.142  0.00  0.00     0.174 A 
ATOM      3  C3  BZF d   1      -5.237   0.282  -4.210  0.00  0.00    -0.012 A 
ATOM      4  C3A BZF d   1      -4.221   1.135  -3.674  0.00  0.00    -0.107 A 
ATOM      5  C4  BZF d   1      -3.274   0.972  -2.704  0.00  0.00     0.055 A 
ATOM      6  C5  BZF d   1      -2.387   1.975  -2.472  0.00  0.00    -0.016 A 
ATOM      7  C6  BZF d   1      -2.414   3.150  -3.194  0.00  0.00     0.022 A 
ATOM      8  C7  BZF d   1      -3.338   3.360  -4.163  0.00  0.00     0.029 A 
ATOM      9  C7A BZF d   1      -4.257   2.361  -4.378  0.00  0.00     0.058 A 
ENDROOT
TORSDOF 0
ENDMDL
