MODEL 1
REMARK minimizedAffinity -0.760749638
REMARK minimizedRMSD -1
REMARK  0 active torsions:
REMARK  status: ('A' for Active; 'I' for Inactive)
ROOT
ATOM      1  O1  BZF d   1      -3.908   3.654  -2.295  0.00  0.00    -0.204 OA
ATOM      2  C2  BZF d   1      -5.265   3.910  -2.267  0.00  0.00     0.174 A 
ATOM      3  C3  BZF d   1      -5.939   2.999  -2.998  0.00  0.00    -0.012 A 
ATOM      4  C3A BZF d   1      -4.950   2.065  -3.441  0.00  0.00    -0.107 A 
ATOM      5  C4  BZF d   1      -5.004   0.926  -4.193  0.00  0.00     0.055 A 
ATOM      6  C5  BZF d   1      -3.847   0.286  -4.505  0.00  0.00    -0.016 A 
ATOM      7  C6  BZF d   1      -2.620   0.758  -4.087  0.00  0.00     0.022 A 
ATOM      8  C7  BZF d   1      -2.517   1.881  -3.335  0.00  0.00     0.029 A 
ATOM      9  C7A BZF d   1      -3.687   2.512  -2.990  0.00  0.00     0.058 A 
ENDROOT
TORSDOF 0
ENDMDL
