MODEL 1
REMARK minimizedAffinity -1.82258308
REMARK minimizedRMSD -1
REMARK  0 active torsions:
REMARK  status: ('A' for Active; 'I' for Inactive)
ROOT
ATOM      1  O1  BZF d   1      -5.273  -0.249  -1.041  0.00  0.00    -0.204 OA
ATOM      2  C2  BZF d   1      -5.999   0.740  -0.405  0.00  0.00     0.174 A 
ATOM      3  C3  BZF d   1      -5.999   1.876  -1.132  0.00  0.00    -0.012 A 
ATOM      4  C3A BZF d   1      -5.302   1.551  -2.338  0.00  0.00    -0.107 A 
ATOM      5  C4  BZF d   1      -4.989   2.260  -3.462  0.00  0.00     0.055 A 
ATOM      6  C5  BZF d   1      -4.235   1.671  -4.427  0.00  0.00    -0.016 A 
ATOM      7  C6  BZF d   1      -3.774   0.377  -4.299  0.00  0.00     0.022 A 
ATOM      8  C7  BZF d   1      -4.063  -0.368  -3.205  0.00  0.00     0.029 A 
ATOM      9  C7A BZF d   1      -4.852   0.214  -2.243  0.00  0.00     0.058 A 
ENDROOT
TORSDOF 0
ENDMDL
