MODEL 1
REMARK minimizedAffinity 3.49076056
REMARK minimizedRMSD -1
REMARK  0 active torsions:
REMARK  status: ('A' for Active; 'I' for Inactive)
ROOT
ATOM      1  O1  BZF d   1      -4.122   1.626  -3.663  0.00  0.00    -0.204 OA
ATOM      2  C2  BZF d   1      -3.582   0.382  -3.927  0.00  0.00     0.174 A 
ATOM      3  C3  BZF d   1      -3.818  -0.468  -2.907  0.00  0.00    -0.012 A 
ATOM      4  C3A BZF d   1      -4.631   0.265  -1.986  0.00  0.00    -0.107 A 
ATOM      5  C4  BZF d   1      -5.203  -0.045  -0.785  0.00  0.00     0.055 A 
ATOM      6  C5  BZF d   1      -5.876   0.921  -0.106  0.00  0.00    -0.016 A 
ATOM      7  C6  BZF d   1      -5.992   2.206  -0.594  0.00  0.00     0.022 A 
ATOM      8  C7  BZF d   1      -5.446   2.559  -1.783  0.00  0.00     0.029 A 
ATOM      9  C7A BZF d   1      -4.793   1.577  -2.488  0.00  0.00     0.058 A 
ENDROOT
TORSDOF 0
ENDMDL
