MODEL 1
REMARK minimizedAffinity 5.52463198
REMARK minimizedRMSD -1
REMARK  0 active torsions:
REMARK  status: ('A' for Active; 'I' for Inactive)
ROOT
ATOM      1  O1  BZF d   1      -2.587   2.797  -3.362  0.00  0.00    -0.204 OA
ATOM      2  C2  BZF d   1      -3.102   3.965  -2.834  0.00  0.00     0.174 A 
ATOM      3  C3  BZF d   1      -4.448   3.976  -2.921  0.00  0.00    -0.012 A 
ATOM      4  C3A BZF d   1      -4.801   2.697  -3.457  0.00  0.00    -0.107 A 
ATOM      5  C4  BZF d   1      -5.993   2.103  -3.759  0.00  0.00     0.055 A 
ATOM      6  C5  BZF d   1      -5.989   0.873  -4.337  0.00  0.00    -0.016 A 
ATOM      7  C6  BZF d   1      -4.814   0.212  -4.631  0.00  0.00     0.022 A 
ATOM      8  C7  BZF d   1      -3.608   0.760  -4.345  0.00  0.00     0.029 A 
ATOM      9  C7A BZF d   1      -3.609   1.988  -3.731  0.00  0.00     0.058 A 
ENDROOT
TORSDOF 0
ENDMDL
