MODEL 1
REMARK minimizedAffinity -4.75823069
REMARK minimizedRMSD -1
REMARK  0 active torsions:
REMARK  status: ('A' for Active; 'I' for Inactive)
ROOT
ATOM      1  C1  DEN d   1       0.800  -0.198   0.112  0.00  0.00     0.130 A 
ATOM      2  C2  DEN d   1       0.002   0.265  -1.020  0.00  0.00    -0.031 A 
ATOM      3  C3  DEN d   1      -1.399   0.389  -0.570  0.00  0.00     0.027 A 
ATOM      4  C4  DEN d   1      -2.404  -0.084   1.758  0.00  0.00     0.027 A 
ATOM      5  C5  DEN d   1      -2.121  -0.509   3.038  0.00  0.00    -0.003 A 
ATOM      6  C6  DEN d   1      -0.861  -0.889   3.419  0.00  0.00     0.001 A 
ATOM      7  C7  DEN d   1       0.172  -0.809   2.524  0.00  0.00     0.017 A 
ATOM      8  C8  DEN d   1      -0.106  -0.389   1.230  0.00  0.00    -0.094 A 
ATOM      9  C9  DEN d   1      -1.384   0.003   0.867  0.00  0.00    -0.072 A 
ENDROOT
TORSDOF 0
ENDMDL
