MODEL 1
REMARK minimizedAffinity -4.54784107
REMARK minimizedRMSD -1
REMARK  0 active torsions:
REMARK  status: ('A' for Active; 'I' for Inactive)
ROOT
ATOM      1  C1  DEN d   1      -0.882  -0.214  -0.080  0.00  0.00     0.130 A 
ATOM      2  C2  DEN d   1      -0.112   0.584   0.869  0.00  0.00    -0.031 A 
ATOM      3  C3  DEN d   1       1.205   0.868   0.264  0.00  0.00     0.027 A 
ATOM      4  C4  DEN d   1       2.120   0.156  -2.040  0.00  0.00     0.027 A 
ATOM      5  C5  DEN d   1       1.837  -0.541  -3.193  0.00  0.00    -0.003 A 
ATOM      6  C6  DEN d   1       0.650  -1.201  -3.375  0.00  0.00     0.001 A 
ATOM      7  C7  DEN d   1      -0.315  -1.140  -2.405  0.00  0.00     0.017 A 
ATOM      8  C8  DEN d   1      -0.034  -0.446  -1.236  0.00  0.00    -0.094 A 
ATOM      9  C9  DEN d   1       1.166   0.226  -1.077  0.00  0.00    -0.072 A 
ENDROOT
TORSDOF 0
ENDMDL
