MODEL 1
REMARK minimizedAffinity -2.7510035
REMARK minimizedRMSD -1
REMARK  0 active torsions:
REMARK  status: ('A' for Active; 'I' for Inactive)
ROOT
ATOM      1  C1  DEN d   1      -0.831  -1.014  -0.722  0.00  0.00     0.130 A 
ATOM      2  C2  DEN d   1       0.126  -0.451  -1.670  0.00  0.00    -0.031 A 
ATOM      3  C3  DEN d   1       1.079   0.387  -0.914  0.00  0.00     0.027 A 
ATOM      4  C4  DEN d   1       1.167   0.860   1.620  0.00  0.00     0.027 A 
ATOM      5  C5  DEN d   1       0.557   0.614   2.829  0.00  0.00    -0.003 A 
ATOM      6  C6  DEN d   1      -0.570  -0.158   2.935  0.00  0.00     0.001 A 
ATOM      7  C7  DEN d   1      -1.095  -0.749   1.816  0.00  0.00     0.017 A 
ATOM      8  C8  DEN d   1      -0.490  -0.499   0.592  0.00  0.00    -0.094 A 
ATOM      9  C9  DEN d   1       0.656   0.274   0.507  0.00  0.00    -0.072 A 
ENDROOT
TORSDOF 0
ENDMDL
