MODEL 1
REMARK minimizedAffinity -2.57338142
REMARK minimizedRMSD -1
REMARK  0 active torsions:
REMARK  status: ('A' for Active; 'I' for Inactive)
ROOT
ATOM      1  C1  DEN d   1      -0.858   0.217  -1.034  0.00  0.00     0.130 A 
ATOM      2  C2  DEN d   1       0.411   0.056  -1.737  0.00  0.00    -0.031 A 
ATOM      3  C3  DEN d   1       1.463  -0.190  -0.730  0.00  0.00     0.027 A 
ATOM      4  C4  DEN d   1       1.250  -0.340   1.836  0.00  0.00     0.027 A 
ATOM      5  C5  DEN d   1       0.375  -0.258   2.896  0.00  0.00    -0.003 A 
ATOM      6  C6  DEN d   1      -0.956   0.020   2.725  0.00  0.00     0.001 A 
ATOM      7  C7  DEN d   1      -1.458   0.181   1.461  0.00  0.00     0.017 A 
ATOM      8  C8  DEN d   1      -0.581   0.107   0.387  0.00  0.00    -0.094 A 
ATOM      9  C9  DEN d   1       0.759  -0.187   0.580  0.00  0.00    -0.072 A 
ENDROOT
TORSDOF 0
ENDMDL
