MODEL 1
REMARK minimizedAffinity -4.18688393
REMARK minimizedRMSD -1
REMARK  0 active torsions:
REMARK  status: ('A' for Active; 'I' for Inactive)
ROOT
ATOM      1  C1  DEN d   1       1.343   0.492  -0.107  0.00  0.00     0.130 A 
ATOM      2  C2  DEN d   1       0.484   0.479  -1.288  0.00  0.00    -0.031 A 
ATOM      3  C3  DEN d   1      -0.866   0.057  -0.866  0.00  0.00     0.027 A 
ATOM      4  C4  DEN d   1      -1.708  -0.568   1.490  0.00  0.00     0.027 A 
ATOM      5  C5  DEN d   1      -1.342  -0.718   2.810  0.00  0.00    -0.003 A 
ATOM      6  C6  DEN d   1      -0.059  -0.509   3.240  0.00  0.00     0.001 A 
ATOM      7  C7  DEN d   1       0.897  -0.095   2.350  0.00  0.00     0.017 A 
ATOM      8  C8  DEN d   1       0.537   0.050   1.017  0.00  0.00    -0.094 A 
ATOM      9  C9  DEN d   1      -0.768  -0.153   0.604  0.00  0.00    -0.072 A 
ENDROOT
TORSDOF 0
ENDMDL
