MODEL 1
REMARK minimizedAffinity -5.90646744
REMARK minimizedRMSD -1
REMARK  0 active torsions:
REMARK  status: ('A' for Active; 'I' for Inactive)
ROOT
ATOM      1  C1  DEN d   1      -0.275   0.173  -0.344  0.00  0.00     0.130 A 
ATOM      2  C2  DEN d   1       1.173   0.072  -0.183  0.00  0.00    -0.031 A 
ATOM      3  C3  DEN d   1       1.454  -0.224   1.236  0.00  0.00     0.027 A 
ATOM      4  C4  DEN d   1      -0.202  -0.539   3.188  0.00  0.00     0.027 A 
ATOM      5  C5  DEN d   1      -1.533  -0.535   3.542  0.00  0.00    -0.003 A 
ATOM      6  C6  DEN d   1      -2.528  -0.263   2.641  0.00  0.00     0.001 A 
ATOM      7  C7  DEN d   1      -2.210  -0.028   1.329  0.00  0.00     0.017 A 
ATOM      8  C8  DEN d   1      -0.869  -0.024   0.966  0.00  0.00    -0.094 A 
ATOM      9  C9  DEN d   1       0.121  -0.312   1.889  0.00  0.00    -0.072 A 
ENDROOT
TORSDOF 0
ENDMDL
