MODEL 1
REMARK minimizedAffinity -3.70791388
REMARK minimizedRMSD -1
REMARK  0 active torsions:
REMARK  status: ('A' for Active; 'I' for Inactive)
ROOT
ATOM      1  C1  DEN d   1      -1.500  -0.037   0.340  0.00  0.00     0.130 A 
ATOM      2  C2  DEN d   1      -0.898   0.183  -0.972  0.00  0.00    -0.031 A 
ATOM      3  C3  DEN d   1       0.460   0.725  -0.766  0.00  0.00     0.027 A 
ATOM      4  C4  DEN d   1       1.684   1.239   1.445  0.00  0.00     0.027 A 
ATOM      5  C5  DEN d   1       1.573   1.228   2.818  0.00  0.00    -0.003 A 
ATOM      6  C6  DEN d   1       0.428   0.829   3.456  0.00  0.00     0.001 A 
ATOM      7  C7  DEN d   1      -0.638   0.383   2.720  0.00  0.00     0.017 A 
ATOM      8  C8  DEN d   1      -0.536   0.398   1.335  0.00  0.00    -0.094 A 
ATOM      9  C9  DEN d   1       0.634   0.793   0.710  0.00  0.00    -0.072 A 
ENDROOT
TORSDOF 0
ENDMDL
