MODEL 1
REMARK minimizedAffinity -6.51547241
REMARK minimizedRMSD -1
REMARK  0 active torsions:
REMARK  status: ('A' for Active; 'I' for Inactive)
ROOT
ATOM      1  C1  DEN d   1       0.304   0.720  -0.858  0.00  0.00     0.130 A 
ATOM      2  C2  DEN d   1      -0.930   1.037  -1.573  0.00  0.00    -0.031 A 
ATOM      3  C3  DEN d   1      -2.065   0.752  -0.672  0.00  0.00     0.027 A 
ATOM      4  C4  DEN d   1      -2.032  -0.140   1.748  0.00  0.00     0.027 A 
ATOM      5  C5  DEN d   1      -1.221  -0.567   2.776  0.00  0.00    -0.003 A 
ATOM      6  C6  DEN d   1       0.142  -0.627   2.654  0.00  0.00     0.001 A 
ATOM      7  C7  DEN d   1       0.739  -0.210   1.493  0.00  0.00     0.017 A 
ATOM      8  C8  DEN d   1      -0.073   0.214   0.450  0.00  0.00    -0.094 A 
ATOM      9  C9  DEN d   1      -1.448   0.279   0.597  0.00  0.00    -0.072 A 
ENDROOT
TORSDOF 0
ENDMDL
