MODEL 1
REMARK minimizedAffinity -6.9484334
REMARK minimizedRMSD -1
REMARK  0 active torsions:
REMARK  status: ('A' for Active; 'I' for Inactive)
ROOT
ATOM      1  C1  DEN d   1       1.784   0.443   0.706  0.00  0.00     0.130 A 
ATOM      2  C2  DEN d   1       1.378   0.584  -0.690  0.00  0.00    -0.031 A 
ATOM      3  C3  DEN d   1      -0.080   0.363  -0.765  0.00  0.00     0.027 A 
ATOM      4  C4  DEN d   1      -1.740  -0.176   1.134  0.00  0.00     0.027 A 
ATOM      5  C5  DEN d   1      -1.862  -0.405   2.487  0.00  0.00    -0.003 A 
ATOM      6  C6  DEN d   1      -0.781  -0.401   3.328  0.00  0.00     0.001 A 
ATOM      7  C7  DEN d   1       0.464  -0.118   2.833  0.00  0.00     0.017 A 
ATOM      8  C8  DEN d   1       0.596   0.106   1.469  0.00  0.00    -0.094 A 
ATOM      9  C9  DEN d   1      -0.510   0.110   0.636  0.00  0.00    -0.072 A 
ENDROOT
TORSDOF 0
ENDMDL
