MODEL 1
REMARK minimizedAffinity -3.18537259
REMARK minimizedRMSD -1
REMARK  0 active torsions:
REMARK  status: ('A' for Active; 'I' for Inactive)
ROOT
ATOM      1  C1  DEN d   1       2.762   2.301   0.337  0.00  0.00     0.130 A 
ATOM      2  C2  DEN d   1       3.481   1.830   1.517  0.00  0.00    -0.031 A 
ATOM      3  C3  DEN d   1       2.896   0.535   1.921  0.00  0.00     0.027 A 
ATOM      4  C4  DEN d   1       0.961  -0.780   0.837  0.00  0.00     0.027 A 
ATOM      5  C5  DEN d   1       0.031  -0.776  -0.180  0.00  0.00    -0.003 A 
ATOM      6  C6  DEN d   1      -0.075   0.262  -1.067  0.00  0.00     0.001 A 
ATOM      7  C7  DEN d   1       0.793   1.319  -0.983  0.00  0.00     0.017 A 
ATOM      8  C8  DEN d   1       1.728   1.325   0.044  0.00  0.00    -0.094 A 
ATOM      9  C9  DEN d   1       1.828   0.260   0.923  0.00  0.00    -0.072 A 
ENDROOT
TORSDOF 0
ENDMDL
