MODEL 1
REMARK minimizedAffinity -5.28312111
REMARK minimizedRMSD -1
REMARK  0 active torsions:
REMARK  status: ('A' for Active; 'I' for Inactive)
ROOT
ATOM      1  C1  DEN d   1       0.200   0.003   0.236  0.00  0.00     0.130 A 
ATOM      2  C2  DEN d   1       1.285  -0.194   1.194  0.00  0.00    -0.031 A 
ATOM      3  C3  DEN d   1       0.697  -0.233   2.548  0.00  0.00     0.027 A 
ATOM      4  C4  DEN d   1      -1.775  -0.012   3.251  0.00  0.00     0.027 A 
ATOM      5  C5  DEN d   1      -3.059   0.180   2.792  0.00  0.00    -0.003 A 
ATOM      6  C6  DEN d   1      -3.341   0.360   1.464  0.00  0.00     0.001 A 
ATOM      7  C7  DEN d   1      -2.330   0.305   0.542  0.00  0.00     0.017 A 
ATOM      8  C8  DEN d   1      -1.031   0.119   0.997  0.00  0.00    -0.094 A 
ATOM      9  C9  DEN d   1      -0.768  -0.073   2.343  0.00  0.00    -0.072 A 
ENDROOT
TORSDOF 0
ENDMDL
