MODEL 1
REMARK minimizedAffinity -0.448230773
REMARK minimizedRMSD -1
REMARK  0 active torsions:
REMARK  status: ('A' for Active; 'I' for Inactive)
ROOT
ATOM      1  C1  DEN d   1      -1.166   0.976   3.844  0.00  0.00     0.130 A 
ATOM      2  C2  DEN d   1      -2.260   0.358   3.100  0.00  0.00    -0.031 A 
ATOM      3  C3  DEN d   1      -1.772   0.055   1.739  0.00  0.00     0.027 A 
ATOM      4  C4  DEN d   1       0.559   0.476   0.719  0.00  0.00     0.027 A 
ATOM      5  C5  DEN d   1       1.814   0.988   0.962  0.00  0.00    -0.003 A 
ATOM      6  C6  DEN d   1       2.151   1.558   2.161  0.00  0.00     0.001 A 
ATOM      7  C7  DEN d   1       1.235   1.589   3.179  0.00  0.00     0.017 A 
ATOM      8  C8  DEN d   1      -0.035   1.082   2.939  0.00  0.00    -0.094 A 
ATOM      9  C9  DEN d   1      -0.352   0.499   1.725  0.00  0.00    -0.072 A 
ENDROOT
TORSDOF 0
ENDMDL
