MODEL 1
REMARK minimizedAffinity 18.4428272
REMARK minimizedRMSD -1
REMARK  0 active torsions:
REMARK  status: ('A' for Active; 'I' for Inactive)
ROOT
ATOM      1  C2' OXE d   1       3.053   1.286  -3.740  0.00  0.00     0.078 C 
ATOM      2  C1' OXE d   1       2.809  -1.509  -3.648  0.00  0.00     0.078 C 
ATOM      3  C1  OXE d   1       3.932  -0.927  -4.470  0.00  0.00    -0.078 A 
ATOM      4  C2  OXE d   1       4.016   0.442  -4.547  0.00  0.00    -0.078 A 
ATOM      5  C3  OXE d   1       5.065   1.031  -5.247  0.00  0.00     0.003 A 
ATOM      6  C4  OXE d   1       5.945   0.243  -5.999  0.00  0.00    -0.002 A 
ATOM      7  C5  OXE d   1       5.853  -1.152  -5.967  0.00  0.00    -0.002 A 
ATOM      8  C6  OXE d   1       4.881  -1.753  -5.175  0.00  0.00     0.003 A 
ENDROOT
TORSDOF 0
ENDMDL
