MODEL 1
REMARK minimizedAffinity -0.922468662
REMARK minimizedRMSD -1
REMARK  0 active torsions:
REMARK  status: ('A' for Active; 'I' for Inactive)
ROOT
ATOM      1  C2' OXE d   1      -4.065   1.827  -1.880  0.00  0.00     0.078 C 
ATOM      2  C1' OXE d   1      -6.000   3.861  -1.845  0.00  0.00     0.078 C 
ATOM      3  C1  OXE d   1      -5.520   3.323  -0.520  0.00  0.00    -0.078 A 
ATOM      4  C2  OXE d   1      -4.608   2.296  -0.547  0.00  0.00    -0.078 A 
ATOM      5  C3  OXE d   1      -4.091   1.800   0.647  0.00  0.00     0.003 A 
ATOM      6  C4  OXE d   1      -4.606   2.233   1.875  0.00  0.00    -0.002 A 
ATOM      7  C5  OXE d   1      -5.565   3.250   1.924  0.00  0.00    -0.002 A 
ATOM      8  C6  OXE d   1      -6.000   3.835   0.740  0.00  0.00     0.003 A 
ENDROOT
TORSDOF 0
ENDMDL
