MODEL 1
REMARK minimizedAffinity 7.43858194
REMARK minimizedRMSD -1
REMARK  0 active torsions:
REMARK  status: ('A' for Active; 'I' for Inactive)
ROOT
ATOM      1  C2' OXE d   1       0.640  -3.660   4.490  0.00  0.00     0.078 C 
ATOM      2  C1' OXE d   1       2.285  -4.353   2.323  0.00  0.00     0.078 C 
ATOM      3  C1  OXE d   1       1.835  -2.918   2.434  0.00  0.00    -0.078 A 
ATOM      4  C2  OXE d   1       0.993  -2.598   3.471  0.00  0.00    -0.078 A 
ATOM      5  C3  OXE d   1       0.593  -1.277   3.651  0.00  0.00     0.003 A 
ATOM      6  C4  OXE d   1       0.915  -0.302   2.699  0.00  0.00    -0.002 A 
ATOM      7  C5  OXE d   1       1.740  -0.616   1.614  0.00  0.00    -0.002 A 
ATOM      8  C6  OXE d   1       2.242  -1.906   1.490  0.00  0.00     0.003 A 
ENDROOT
TORSDOF 0
ENDMDL
