MODEL 1
REMARK minimizedAffinity 5.90409279
REMARK minimizedRMSD -1
REMARK  0 active torsions:
REMARK  status: ('A' for Active; 'I' for Inactive)
ROOT
ATOM      1  C2' OXE d   1       5.790  -2.363   3.627  0.00  0.00     0.078 C 
ATOM      2  C1' OXE d   1       4.289  -2.339   6.000  0.00  0.00     0.078 C 
ATOM      3  C1  OXE d   1       3.538  -2.333   4.692  0.00  0.00    -0.078 A 
ATOM      4  C2  OXE d   1       4.281  -2.298   3.536  0.00  0.00    -0.078 A 
ATOM      5  C3  OXE d   1       3.639  -2.346   2.302  0.00  0.00     0.003 A 
ATOM      6  C4  OXE d   1       2.242  -2.275   2.226  0.00  0.00    -0.002 A 
ATOM      7  C5  OXE d   1       1.468  -2.270   3.391  0.00  0.00    -0.002 A 
ATOM      8  C6  OXE d   1       2.097  -2.341   4.629  0.00  0.00     0.003 A 
ENDROOT
TORSDOF 0
ENDMDL
