MODEL 1
REMARK minimizedAffinity 7.80279064
REMARK minimizedRMSD -1
REMARK  0 active torsions:
REMARK  status: ('A' for Active; 'I' for Inactive)
ROOT
ATOM      1  O1  BZF d   1      -5.999   1.662  -2.705  0.00  0.00    -0.204 OA
ATOM      2  C2  BZF d   1      -5.858   2.882  -3.339  0.00  0.00     0.174 A 
ATOM      3  C3  BZF d   1      -5.645   2.712  -4.659  0.00  0.00    -0.012 A 
ATOM      4  C3A BZF d   1      -5.745   1.302  -4.879  0.00  0.00    -0.107 A 
ATOM      5  C4  BZF d   1      -5.644   0.516  -5.991  0.00  0.00     0.055 A 
ATOM      6  C5  BZF d   1      -5.718  -0.834  -5.854  0.00  0.00    -0.016 A 
ATOM      7  C6  BZF d   1      -5.889  -1.431  -4.622  0.00  0.00     0.022 A 
ATOM      8  C7  BZF d   1      -6.000  -0.692  -3.491  0.00  0.00     0.029 A 
ATOM      9  C7A BZF d   1      -5.957   0.674  -3.630  0.00  0.00     0.058 A 
ENDROOT
TORSDOF 0
ENDMDL
