MODEL 1
REMARK minimizedAffinity 9.5049324
REMARK minimizedRMSD -1
REMARK  0 active torsions:
REMARK  status: ('A' for Active; 'I' for Inactive)
ROOT
ATOM      1  O1  BZF d   1       4.907  -1.824   3.305  0.00  0.00    -0.204 OA
ATOM      2  C2  BZF d   1       5.998  -2.633   3.054  0.00  0.00     0.174 A 
ATOM      3  C3  BZF d   1       5.694  -3.929   3.272  0.00  0.00    -0.012 A 
ATOM      4  C3A BZF d   1       4.301  -3.939   3.596  0.00  0.00    -0.107 A 
ATOM      5  C4  BZF d   1       3.415  -4.933   3.899  0.00  0.00     0.055 A 
ATOM      6  C5  BZF d   1       2.141  -4.601   4.239  0.00  0.00    -0.016 A 
ATOM      7  C6  BZF d   1       1.722  -3.288   4.290  0.00  0.00     0.022 A 
ATOM      8  C7  BZF d   1       2.563  -2.268   3.993  0.00  0.00     0.029 A 
ATOM      9  C7A BZF d   1       3.842  -2.602   3.618  0.00  0.00     0.058 A 
ENDROOT
TORSDOF 0
ENDMDL
