MODEL 1
REMARK minimizedAffinity 10.958745
REMARK minimizedRMSD -1
REMARK  0 active torsions:
REMARK  status: ('A' for Active; 'I' for Inactive)
ROOT
ATOM      1  O1  BZF d   1       1.721  -0.570   3.352  0.00  0.00    -0.204 OA
ATOM      2  C2  BZF d   1       2.530  -1.535   3.920  0.00  0.00     0.174 A 
ATOM      3  C3  BZF d   1       2.697  -2.575   3.079  0.00  0.00    -0.012 A 
ATOM      4  C3A BZF d   1       2.020  -2.199   1.876  0.00  0.00    -0.107 A 
ATOM      5  C4  BZF d   1       1.844  -2.810   0.667  0.00  0.00     0.055 A 
ATOM      6  C5  BZF d   1       1.069  -2.205  -0.272  0.00  0.00    -0.016 A 
ATOM      7  C6  BZF d   1       0.453  -0.994  -0.034  0.00  0.00     0.022 A 
ATOM      8  C7  BZF d   1       0.602  -0.347   1.147  0.00  0.00     0.029 A 
ATOM      9  C7A BZF d   1       1.411  -0.940   2.086  0.00  0.00     0.058 A 
ENDROOT
TORSDOF 0
ENDMDL
