MODEL 1
REMARK minimizedAffinity 3.13561201
REMARK minimizedRMSD -1
REMARK  0 active torsions:
REMARK  status: ('A' for Active; 'I' for Inactive)
ROOT
ATOM      1  O1  BZF d   1       4.277  -2.408  -3.310  0.00  0.00    -0.204 OA
ATOM      2  C2  BZF d   1       3.229  -1.595  -2.922  0.00  0.00     0.174 A 
ATOM      3  C3  BZF d   1       2.228  -2.325  -2.389  0.00  0.00    -0.012 A 
ATOM      4  C3A BZF d   1       2.716  -3.670  -2.363  0.00  0.00    -0.107 A 
ATOM      5  C4  BZF d   1       2.187  -4.852  -1.931  0.00  0.00     0.055 A 
ATOM      6  C5  BZF d   1       2.894  -5.998  -2.115  0.00  0.00    -0.016 A 
ATOM      7  C6  BZF d   1       4.128  -5.999  -2.730  0.00  0.00     0.022 A 
ATOM      8  C7  BZF d   1       4.696  -4.850  -3.171  0.00  0.00     0.029 A 
ATOM      9  C7A BZF d   1       3.999  -3.686  -2.957  0.00  0.00     0.058 A 
ENDROOT
TORSDOF 0
ENDMDL
