MODEL 1
REMARK minimizedAffinity -0.134426087
REMARK minimizedRMSD -1
REMARK  1 active torsions:
REMARK  status: ('A' for Active; 'I' for Inactive)
REMARK    1  A    between atoms: C1_2  and  C2_3 
ROOT
ATOM      1  C2  UNL d   1      -1.397  -5.983  -4.595  0.00  0.00    -0.076 A 
ATOM      2  C3  UNL d   1      -2.801  -5.965  -4.655  0.00  0.00     0.004 A 
ATOM      3  C4  UNL d   1      -3.569  -5.973  -3.492  0.00  0.00    -0.003 A 
ATOM      4  C5  UNL d   1      -2.945  -5.999  -2.249  0.00  0.00     0.000 A 
ATOM      5  C6  UNL d   1      -1.553  -5.999  -2.171  0.00  0.00     0.000 A 
ATOM      6  C7  UNL d   1      -0.764  -5.974  -3.333  0.00  0.00    -0.073 A 
ATOM      7  C8  UNL d   1       0.733  -5.982  -3.190  0.00  0.00     0.078 C 
ENDROOT
BRANCH   1   8
ATOM      8  C1  UNL d   1      -0.617  -6.000  -5.890  0.00  0.00     0.053 C 
ATOM      9  C   UNL d   1       0.360  -4.838  -5.997  0.00  0.00     0.018 C 
ENDBRANCH   1   8
TORSDOF 1
ENDMDL
