MODEL 1
REMARK minimizedAffinity 9.76959133
REMARK minimizedRMSD -1
REMARK  1 active torsions:
REMARK  status: ('A' for Active; 'I' for Inactive)
REMARK    1  A    between atoms: C1_2  and  C2_3 
ROOT
ATOM      1  C2  UNL d   1       1.375  -0.764   0.885  0.00  0.00    -0.076 A 
ATOM      2  C3  UNL d   1       2.724  -0.971   0.547  0.00  0.00     0.004 A 
ATOM      3  C4  UNL d   1       3.373  -0.134  -0.360  0.00  0.00    -0.003 A 
ATOM      4  C5  UNL d   1       2.684   0.924  -0.941  0.00  0.00     0.000 A 
ATOM      5  C6  UNL d   1       1.351   1.156  -0.603  0.00  0.00     0.000 A 
ATOM      6  C7  UNL d   1       0.687   0.331   0.321  0.00  0.00    -0.073 A 
ATOM      7  C8  UNL d   1      -0.753   0.623   0.644  0.00  0.00     0.078 C 
ENDROOT
BRANCH   1   8
ATOM      8  C1  UNL d   1       0.716  -1.720   1.853  0.00  0.00     0.053 C 
ATOM      9  C   UNL d   1       0.338  -3.041   1.201  0.00  0.00     0.018 C 
ENDBRANCH   1   8
TORSDOF 1
ENDMDL
