MODEL 1
REMARK minimizedAffinity 3.94622993
REMARK minimizedRMSD -1
REMARK  1 active torsions:
REMARK  status: ('A' for Active; 'I' for Inactive)
REMARK    1  A    between atoms: C1_2  and  C2_3 
ROOT
ATOM      1  C2  UNL d   1      -3.931  -5.981  -0.199  0.00  0.00    -0.076 A 
ATOM      2  C3  UNL d   1      -5.319  -5.998  -0.424  0.00  0.00     0.004 A 
ATOM      3  C4  UNL d   1      -5.835  -5.999  -1.719  0.00  0.00    -0.003 A 
ATOM      4  C5  UNL d   1      -4.973  -5.984  -2.809  0.00  0.00     0.000 A 
ATOM      5  C6  UNL d   1      -3.593  -5.984  -2.604  0.00  0.00     0.000 A 
ATOM      6  C7  UNL d   1      -3.056  -5.999  -1.306  0.00  0.00    -0.073 A 
ATOM      7  C8  UNL d   1      -1.561  -5.993  -1.143  0.00  0.00     0.078 C 
ENDROOT
BRANCH   1   8
ATOM      8  C1  UNL d   1      -3.430  -5.953   1.227  0.00  0.00     0.053 C 
ATOM      9  C   UNL d   1      -4.561  -5.964   2.243  0.00  0.00     0.018 C 
ENDBRANCH   1   8
TORSDOF 1
ENDMDL
