MODEL 1
REMARK minimizedAffinity 2.16582894
REMARK minimizedRMSD -1
REMARK  1 active torsions:
REMARK  status: ('A' for Active; 'I' for Inactive)
REMARK    1  A    between atoms: C1_2  and  C2_3 
ROOT
ATOM      1  C2  UNL d   1       1.413  -0.766   0.878  0.00  0.00    -0.076 A 
ATOM      2  C3  UNL d   1       2.767  -0.761   0.501  0.00  0.00     0.004 A 
ATOM      3  C4  UNL d   1       3.300   0.288  -0.246  0.00  0.00    -0.003 A 
ATOM      4  C5  UNL d   1       2.487   1.350  -0.628  0.00  0.00     0.000 A 
ATOM      5  C6  UNL d   1       1.145   1.370  -0.247  0.00  0.00     0.000 A 
ATOM      6  C7  UNL d   1       0.597   0.328   0.520  0.00  0.00    -0.073 A 
ATOM      7  C8  UNL d   1      -0.858   0.397   0.898  0.00  0.00     0.078 C 
ENDROOT
BRANCH   1   8
ATOM      8  C1  UNL d   1       0.885  -1.945   1.665  0.00  0.00     0.053 C 
ATOM      9  C   UNL d   1       0.445  -3.093   0.771  0.00  0.00     0.018 C 
ENDBRANCH   1   8
TORSDOF 1
ENDMDL
