MODEL 1
REMARK minimizedAffinity 1.55244398
REMARK minimizedRMSD -1
REMARK  1 active torsions:
REMARK  status: ('A' for Active; 'I' for Inactive)
REMARK    1  A    between atoms: C1_2  and  C2_3 
ROOT
ATOM      1  C2  UNL d   1       0.163  -1.035   0.638  0.00  0.00    -0.076 A 
ATOM      2  C3  UNL d   1       0.054   0.341   0.371  0.00  0.00     0.004 A 
ATOM      3  C4  UNL d   1       1.168   1.090  -0.003  0.00  0.00    -0.003 A 
ATOM      4  C5  UNL d   1       2.410   0.476  -0.118  0.00  0.00     0.000 A 
ATOM      5  C6  UNL d   1       2.534  -0.892   0.126  0.00  0.00     0.000 A 
ATOM      6  C7  UNL d   1       1.417  -1.665   0.488  0.00  0.00    -0.073 A 
ATOM      7  C8  UNL d   1       1.610  -3.134   0.745  0.00  0.00     0.078 C 
ENDROOT
BRANCH   1   8
ATOM      8  C1  UNL d   1      -1.074  -1.790   1.066  0.00  0.00     0.053 C 
ATOM      9  C   UNL d   1      -2.067  -1.975  -0.071  0.00  0.00     0.018 C 
ENDBRANCH   1   8
TORSDOF 1
ENDMDL
