MODEL 1
REMARK minimizedAffinity 7.58979845
REMARK minimizedRMSD -1
REMARK  1 active torsions:
REMARK  status: ('A' for Active; 'I' for Inactive)
REMARK    1  A    between atoms: C1_2  and  C2_3 
ROOT
ATOM      1  C2  UNL d   1       2.270  -1.170   0.665  0.00  0.00    -0.076 A 
ATOM      2  C3  UNL d   1       2.300  -2.567   0.819  0.00  0.00     0.004 A 
ATOM      3  C4  UNL d   1       1.123  -3.314   0.825  0.00  0.00    -0.003 A 
ATOM      4  C5  UNL d   1      -0.103  -2.676   0.677  0.00  0.00     0.000 A 
ATOM      5  C6  UNL d   1      -0.151  -1.293   0.505  0.00  0.00     0.000 A 
ATOM      6  C7  UNL d   1       1.027  -0.527   0.480  0.00  0.00    -0.073 A 
ATOM      7  C8  UNL d   1       0.917   0.962   0.298  0.00  0.00     0.078 C 
ENDROOT
BRANCH   1   8
ATOM      8  C1  UNL d   1       3.577  -0.410   0.693  0.00  0.00     0.053 C 
ATOM      9  C   UNL d   1       4.118  -0.129  -0.700  0.00  0.00     0.018 C 
ENDBRANCH   1   8
TORSDOF 1
ENDMDL
