MODEL 1
REMARK minimizedAffinity 4.69429255
REMARK minimizedRMSD -1
REMARK  1 active torsions:
REMARK  status: ('A' for Active; 'I' for Inactive)
REMARK    1  A    between atoms: C1_2  and  C2_3 
ROOT
ATOM      1  C2  UNL d   1       0.054  -5.900  -4.716  0.00  0.00    -0.076 A 
ATOM      2  C3  UNL d   1       0.741  -5.926  -3.490  0.00  0.00     0.004 A 
ATOM      3  C4  UNL d   1       0.048  -5.965  -2.281  0.00  0.00    -0.003 A 
ATOM      4  C5  UNL d   1      -1.342  -5.980  -2.279  0.00  0.00     0.000 A 
ATOM      5  C6  UNL d   1      -2.039  -5.973  -3.487  0.00  0.00     0.000 A 
ATOM      6  C7  UNL d   1      -1.356  -5.950  -4.715  0.00  0.00    -0.073 A 
ATOM      7  C8  UNL d   1      -2.159  -5.937  -5.987  0.00  0.00     0.078 C 
ENDROOT
BRANCH   1   8
ATOM      8  C1  UNL d   1       0.858  -5.831  -5.995  0.00  0.00     0.053 C 
ATOM      9  C   UNL d   1       2.068  -4.918  -5.874  0.00  0.00     0.018 C 
ENDBRANCH   1   8
TORSDOF 1
ENDMDL
