MODEL 1
REMARK minimizedAffinity 2.22137451
REMARK minimizedRMSD -1
REMARK  1 active torsions:
REMARK  status: ('A' for Active; 'I' for Inactive)
REMARK    1  A    between atoms: C1_2  and  C2_3 
ROOT
ATOM      1  C2  UNL d   1       1.265  -1.167   1.086  0.00  0.00    -0.076 A 
ATOM      2  C3  UNL d   1       1.330  -2.570   1.031  0.00  0.00     0.004 A 
ATOM      3  C4  UNL d   1       0.202  -3.329   0.725  0.00  0.00    -0.003 A 
ATOM      4  C5  UNL d   1      -1.010  -2.697   0.470  0.00  0.00     0.000 A 
ATOM      5  C6  UNL d   1      -1.089  -1.306   0.502  0.00  0.00     0.000 A 
ATOM      6  C7  UNL d   1       0.043  -0.525   0.793  0.00  0.00    -0.073 A 
ATOM      7  C8  UNL d   1      -0.101   0.972   0.821  0.00  0.00     0.078 C 
ENDROOT
BRANCH   1   8
ATOM      8  C1  UNL d   1       2.515  -0.398   1.449  0.00  0.00     0.053 C 
ATOM      9  C   UNL d   1       3.725  -0.837   0.639  0.00  0.00     0.018 C 
ENDBRANCH   1   8
TORSDOF 1
ENDMDL
