MODEL 1
REMARK minimizedAffinity 5.12204933
REMARK minimizedRMSD -1
REMARK  1 active torsions:
REMARK  status: ('A' for Active; 'I' for Inactive)
REMARK    1  A    between atoms: C1_2  and  C2_3 
ROOT
ATOM      1  C2  UNL d   1      -0.511  -5.890  -3.558  0.00  0.00    -0.076 A 
ATOM      2  C3  UNL d   1       0.760  -5.831  -2.959  0.00  0.00     0.004 A 
ATOM      3  C4  UNL d   1       1.919  -5.861  -3.732  0.00  0.00    -0.003 A 
ATOM      4  C5  UNL d   1       1.827  -5.950  -5.117  0.00  0.00     0.000 A 
ATOM      5  C6  UNL d   1       0.575  -5.992  -5.729  0.00  0.00     0.000 A 
ATOM      6  C7  UNL d   1      -0.604  -5.946  -4.965  0.00  0.00    -0.073 A 
ATOM      7  C8  UNL d   1      -1.928  -6.000  -5.677  0.00  0.00     0.078 C 
ENDROOT
BRANCH   1   8
ATOM      8  C1  UNL d   1      -1.732  -5.881  -2.667  0.00  0.00     0.053 C 
ATOM      9  C   UNL d   1      -3.028  -6.000  -3.454  0.00  0.00     0.018 C 
ENDBRANCH   1   8
TORSDOF 1
ENDMDL
