MODEL 1
REMARK minimizedAffinity 0.22639738
REMARK minimizedRMSD -1
REMARK  1 active torsions:
REMARK  status: ('A' for Active; 'I' for Inactive)
REMARK    1  A    between atoms: C1_2  and  C2_3 
ROOT
ATOM      1  C2  UNL d   1      -1.371  -5.942  -3.476  0.00  0.00    -0.076 A 
ATOM      2  C3  UNL d   1      -0.842  -5.883  -2.175  0.00  0.00     0.004 A 
ATOM      3  C4  UNL d   1       0.535  -5.862  -1.961  0.00  0.00    -0.003 A 
ATOM      4  C5  UNL d   1       1.405  -5.898  -3.045  0.00  0.00     0.000 A 
ATOM      5  C6  UNL d   1       0.898  -5.939  -4.343  0.00  0.00     0.000 A 
ATOM      6  C7  UNL d   1      -0.488  -5.945  -4.577  0.00  0.00    -0.073 A 
ATOM      7  C8  UNL d   1      -0.981  -5.996  -5.997  0.00  0.00     0.078 C 
ENDROOT
BRANCH   1   8
ATOM      8  C1  UNL d   1      -2.873  -5.991  -3.646  0.00  0.00     0.053 C 
ATOM      9  C   UNL d   1      -3.610  -5.979  -2.315  0.00  0.00     0.018 C 
ENDBRANCH   1   8
TORSDOF 1
ENDMDL
