MODEL 1
REMARK minimizedAffinity 4.5937252
REMARK minimizedRMSD -1
REMARK  1 active torsions:
REMARK  status: ('A' for Active; 'I' for Inactive)
REMARK    1  A    between atoms: C1_2  and  C2_3 
ROOT
ATOM      1  C2  UNL d   1      -0.056  -0.845   0.636  0.00  0.00    -0.076 A 
ATOM      2  C3  UNL d   1       1.221  -0.705   0.065  0.00  0.00     0.004 A 
ATOM      3  C4  UNL d   1       1.680   0.537  -0.369  0.00  0.00    -0.003 A 
ATOM      4  C5  UNL d   1       0.870   1.660  -0.238  0.00  0.00     0.000 A 
ATOM      5  C6  UNL d   1      -0.393   1.542   0.342  0.00  0.00     0.000 A 
ATOM      6  C7  UNL d   1      -0.864   0.300   0.799  0.00  0.00    -0.073 A 
ATOM      7  C8  UNL d   1      -2.237   0.230   1.411  0.00  0.00     0.078 C 
ENDROOT
BRANCH   1   8
ATOM      8  C1  UNL d   1      -0.511  -2.223   1.064  0.00  0.00     0.053 C 
ATOM      9  C   UNL d   1       0.563  -2.979   1.831  0.00  0.00     0.018 C 
ENDBRANCH   1   8
TORSDOF 1
ENDMDL
