MODEL 1
REMARK minimizedAffinity 7.02583694
REMARK minimizedRMSD -1
REMARK  1 active torsions:
REMARK  status: ('A' for Active; 'I' for Inactive)
REMARK    1  A    between atoms: C1_2  and  C2_3 
ROOT
ATOM      1  C2  UNL d   1      -0.961  -5.986  -3.368  0.00  0.00    -0.076 A 
ATOM      2  C3  UNL d   1      -1.282  -6.000  -4.737  0.00  0.00     0.004 A 
ATOM      3  C4  UNL d   1      -0.282  -5.993  -5.708  0.00  0.00    -0.003 A 
ATOM      4  C5  UNL d   1       1.055  -5.973  -5.326  0.00  0.00     0.000 A 
ATOM      5  C6  UNL d   1       1.392  -5.977  -3.973  0.00  0.00     0.000 A 
ATOM      6  C7  UNL d   1       0.396  -6.000  -2.981  0.00  0.00    -0.073 A 
ATOM      7  C8  UNL d   1       0.816  -5.997  -1.537  0.00  0.00     0.078 C 
ENDROOT
BRANCH   1   8
ATOM      8  C1  UNL d   1      -2.088  -5.967  -2.360  0.00  0.00     0.053 C 
ATOM      9  C   UNL d   1      -2.829  -4.638  -2.340  0.00  0.00     0.018 C 
ENDBRANCH   1   8
TORSDOF 1
ENDMDL
