MODEL 1
REMARK minimizedAffinity 4.08150339
REMARK minimizedRMSD -1
REMARK  1 active torsions:
REMARK  status: ('A' for Active; 'I' for Inactive)
REMARK    1  A    between atoms: C1_2  and  C2_3 
ROOT
ATOM      1  C2  UNL d   1      -3.796  -1.185   2.163  0.00  0.00    -0.076 A 
ATOM      2  C3  UNL d   1      -5.103  -0.693   1.999  0.00  0.00     0.004 A 
ATOM      3  C4  UNL d   1      -5.674  -0.580   0.733  0.00  0.00    -0.003 A 
ATOM      4  C5  UNL d   1      -4.947  -0.957  -0.391  0.00  0.00     0.000 A 
ATOM      5  C6  UNL d   1      -3.656  -1.463  -0.247  0.00  0.00     0.000 A 
ATOM      6  C7  UNL d   1      -3.072  -1.599   1.024  0.00  0.00    -0.073 A 
ATOM      7  C8  UNL d   1      -1.674  -2.146   1.122  0.00  0.00     0.078 C 
ENDROOT
BRANCH   1   8
ATOM      8  C1  UNL d   1      -3.220  -1.260   3.558  0.00  0.00     0.053 C 
ATOM      9  C   UNL d   1      -2.205  -0.160   3.830  0.00  0.00     0.018 C 
ENDBRANCH   1   8
TORSDOF 1
ENDMDL
