MODEL 1
REMARK minimizedAffinity 7.0267415
REMARK minimizedRMSD -1
REMARK  1 active torsions:
REMARK  status: ('A' for Active; 'I' for Inactive)
REMARK    1  A    between atoms: C1_2  and  C2_3 
ROOT
ATOM      1  C2  UNL d   1      -4.409  -1.411   2.527  0.00  0.00    -0.076 A 
ATOM      2  C3  UNL d   1      -5.690  -0.909   2.237  0.00  0.00     0.004 A 
ATOM      3  C4  UNL d   1      -5.995  -0.412   0.971  0.00  0.00    -0.003 A 
ATOM      4  C5  UNL d   1      -5.025  -0.410  -0.026  0.00  0.00     0.000 A 
ATOM      5  C6  UNL d   1      -3.755  -0.921   0.240  0.00  0.00     0.000 A 
ATOM      6  C7  UNL d   1      -3.436  -1.441   1.506  0.00  0.00    -0.073 A 
ATOM      7  C8  UNL d   1      -2.048  -1.974   1.739  0.00  0.00     0.078 C 
ENDROOT
BRANCH   1   8
ATOM      8  C1  UNL d   1      -4.128  -1.912   3.926  0.00  0.00     0.053 C 
ATOM      9  C   UNL d   1      -3.683  -0.801   4.864  0.00  0.00     0.018 C 
ENDBRANCH   1   8
TORSDOF 1
ENDMDL
