MODEL 1
REMARK minimizedAffinity 5.19362259
REMARK minimizedRMSD -1
REMARK  1 active torsions:
REMARK  status: ('A' for Active; 'I' for Inactive)
REMARK    1  A    between atoms: C1_2  and  C2_3 
ROOT
ATOM      1  C2  UNL d   1       5.398   3.189   4.045  0.00  0.00    -0.076 A 
ATOM      2  C3  UNL d   1       5.999   2.654   5.197  0.00  0.00     0.004 A 
ATOM      3  C4  UNL d   1       5.993   1.281   5.437  0.00  0.00    -0.003 A 
ATOM      4  C5  UNL d   1       5.387   0.421   4.528  0.00  0.00     0.000 A 
ATOM      5  C6  UNL d   1       4.801   0.933   3.371  0.00  0.00     0.000 A 
ATOM      6  C7  UNL d   1       4.812   2.313   3.106  0.00  0.00    -0.073 A 
ATOM      7  C8  UNL d   1       4.160   2.811   1.845  0.00  0.00     0.078 C 
ENDROOT
BRANCH   1   8
ATOM      8  C1  UNL d   1       5.411   4.689   3.851  0.00  0.00     0.053 C 
ATOM      9  C   UNL d   1       6.000   5.425   5.044  0.00  0.00     0.018 C 
ENDBRANCH   1   8
TORSDOF 1
ENDMDL
