MODEL 1
REMARK minimizedAffinity 8.09998703
REMARK minimizedRMSD -1
REMARK  1 active torsions:
REMARK  status: ('A' for Active; 'I' for Inactive)
REMARK    1  A    between atoms: C1_2  and  C2_3 
ROOT
ATOM      1  C2  UNL d   1       5.129   1.726   3.809  0.00  0.00    -0.076 A 
ATOM      2  C3  UNL d   1       4.827   3.059   3.481  0.00  0.00     0.004 A 
ATOM      3  C4  UNL d   1       4.073   3.365   2.349  0.00  0.00    -0.003 A 
ATOM      4  C5  UNL d   1       3.609   2.343   1.528  0.00  0.00     0.000 A 
ATOM      5  C6  UNL d   1       3.885   1.015   1.848  0.00  0.00     0.000 A 
ATOM      6  C7  UNL d   1       4.629   0.688   2.994  0.00  0.00    -0.073 A 
ATOM      7  C8  UNL d   1       4.902  -0.762   3.289  0.00  0.00     0.078 C 
ENDROOT
BRANCH   1   8
ATOM      8  C1  UNL d   1       5.974   1.456   5.034  0.00  0.00     0.053 C 
ATOM      9  C   UNL d   1       5.995   2.632   5.998  0.00  0.00     0.018 C 
ENDBRANCH   1   8
TORSDOF 1
ENDMDL
