MODEL 1
REMARK minimizedAffinity 5.65005732
REMARK minimizedRMSD -1
REMARK  1 active torsions:
REMARK  status: ('A' for Active; 'I' for Inactive)
REMARK    1  A    between atoms: C1_2  and  C2_3 
ROOT
ATOM      1  C2  UNL d   1      -0.433   1.985  -1.303  0.00  0.00    -0.076 A 
ATOM      2  C3  UNL d   1      -1.792   1.646  -1.178  0.00  0.00     0.004 A 
ATOM      3  C4  UNL d   1      -2.661   2.432  -0.424  0.00  0.00    -0.003 A 
ATOM      4  C5  UNL d   1      -2.186   3.571   0.217  0.00  0.00     0.000 A 
ATOM      5  C6  UNL d   1      -0.845   3.932   0.090  0.00  0.00     0.000 A 
ATOM      6  C7  UNL d   1       0.041   3.159  -0.680  0.00  0.00    -0.073 A 
ATOM      7  C8  UNL d   1       1.478   3.592  -0.778  0.00  0.00     0.078 C 
ENDROOT
BRANCH   1   8
ATOM      8  C1  UNL d   1       0.468   1.079  -2.112  0.00  0.00     0.053 C 
ATOM      9  C   UNL d   1       0.521   1.471  -3.580  0.00  0.00     0.018 C 
ENDBRANCH   1   8
TORSDOF 1
ENDMDL
