MODEL 1
REMARK minimizedAffinity 12.8103485
REMARK minimizedRMSD -1
REMARK  1 active torsions:
REMARK  status: ('A' for Active; 'I' for Inactive)
REMARK    1  A    between atoms: C1_2  and  C2_3 
ROOT
ATOM      1  C2  UNL d   1       4.732   0.815   3.006  0.00  0.00    -0.076 A 
ATOM      2  C3  UNL d   1       5.399   0.148   4.048  0.00  0.00     0.004 A 
ATOM      3  C4  UNL d   1       6.000   0.858   5.086  0.00  0.00    -0.003 A 
ATOM      4  C5  UNL d   1       5.944   2.248   5.098  0.00  0.00     0.000 A 
ATOM      5  C6  UNL d   1       5.272   2.925   4.081  0.00  0.00     0.000 A 
ATOM      6  C7  UNL d   1       4.646   2.223   3.036  0.00  0.00    -0.073 A 
ATOM      7  C8  UNL d   1       3.940   3.005   1.962  0.00  0.00     0.078 C 
ENDROOT
BRANCH   1   8
ATOM      8  C1  UNL d   1       4.122  -0.008   1.893  0.00  0.00     0.053 C 
ATOM      9  C   UNL d   1       4.488  -1.481   1.990  0.00  0.00     0.018 C 
ENDBRANCH   1   8
TORSDOF 1
ENDMDL
