MODEL 1
REMARK minimizedAffinity 6.26595163
REMARK minimizedRMSD -1
REMARK  1 active torsions:
REMARK  status: ('A' for Active; 'I' for Inactive)
REMARK    1  A    between atoms: C1_2  and  C2_3 
ROOT
ATOM      1  C2  UNL d   1       5.209   1.559  -5.559  0.00  0.00    -0.076 A 
ATOM      2  C3  UNL d   1       5.929   2.750  -5.360  0.00  0.00     0.004 A 
ATOM      3  C4  UNL d   1       5.292   3.988  -5.399  0.00  0.00    -0.003 A 
ATOM      4  C5  UNL d   1       3.923   4.057  -5.637  0.00  0.00     0.000 A 
ATOM      5  C6  UNL d   1       3.190   2.884  -5.819  0.00  0.00     0.000 A 
ATOM      6  C7  UNL d   1       3.815   1.626  -5.767  0.00  0.00    -0.073 A 
ATOM      7  C8  UNL d   1       2.977   0.395  -5.976  0.00  0.00     0.078 C 
ENDROOT
BRANCH   1   8
ATOM      8  C1  UNL d   1       5.959   0.246  -5.533  0.00  0.00     0.053 C 
ATOM      9  C   UNL d   1       6.000  -0.374  -4.145  0.00  0.00     0.018 C 
ENDBRANCH   1   8
TORSDOF 1
ENDMDL
