MODEL 1
REMARK minimizedAffinity 6.18155909
REMARK minimizedRMSD -1
REMARK  1 active torsions:
REMARK  status: ('A' for Active; 'I' for Inactive)
REMARK    1  A    between atoms: C1_2  and  C2_3 
ROOT
ATOM      1  C2  UNL d   1       5.262   3.041   3.573  0.00  0.00    -0.076 A 
ATOM      2  C3  UNL d   1       6.000   2.498   4.640  0.00  0.00     0.004 A 
ATOM      3  C4  UNL d   1       6.000   1.127   4.887  0.00  0.00    -0.003 A 
ATOM      4  C5  UNL d   1       5.262   0.275   4.071  0.00  0.00     0.000 A 
ATOM      5  C6  UNL d   1       4.539   0.795   2.998  0.00  0.00     0.000 A 
ATOM      6  C7  UNL d   1       4.541   2.174   2.725  0.00  0.00    -0.073 A 
ATOM      7  C8  UNL d   1       3.738   2.680   1.559  0.00  0.00     0.078 C 
ENDROOT
BRANCH   1   8
ATOM      8  C1  UNL d   1       5.279   4.540   3.370  0.00  0.00     0.053 C 
ATOM      9  C   UNL d   1       5.569   5.299   4.656  0.00  0.00     0.018 C 
ENDBRANCH   1   8
TORSDOF 1
ENDMDL
