MODEL 1
REMARK minimizedAffinity 6.89391041
REMARK minimizedRMSD -1
REMARK  1 active torsions:
REMARK  status: ('A' for Active; 'I' for Inactive)
REMARK    1  A    between atoms: C1_2  and  C2_3 
ROOT
ATOM      1  C2  UNL d   1       5.199   3.410   3.875  0.00  0.00    -0.076 A 
ATOM      2  C3  UNL d   1       5.993   2.774   4.846  0.00  0.00     0.004 A 
ATOM      3  C4  UNL d   1       6.000   1.386   4.970  0.00  0.00    -0.003 A 
ATOM      4  C5  UNL d   1       5.214   0.611   4.124  0.00  0.00     0.000 A 
ATOM      5  C6  UNL d   1       4.434   1.224   3.144  0.00  0.00     0.000 A 
ATOM      6  C7  UNL d   1       4.428   2.621   2.995  0.00  0.00    -0.073 A 
ATOM      7  C8  UNL d   1       3.564   3.229   1.925  0.00  0.00     0.078 C 
ENDROOT
BRANCH   1   8
ATOM      8  C1  UNL d   1       5.211   4.920   3.806  0.00  0.00     0.053 C 
ATOM      9  C   UNL d   1       5.988   5.550   4.952  0.00  0.00     0.018 C 
ENDBRANCH   1   8
TORSDOF 1
ENDMDL
