MODEL 1
REMARK minimizedAffinity 4.63142347
REMARK minimizedRMSD -1
REMARK  1 active torsions:
REMARK  status: ('A' for Active; 'I' for Inactive)
REMARK    1  A    between atoms: C1_2  and  C2_3 
ROOT
ATOM      1  C2  UNL d   1      -0.107   0.153  -1.652  0.00  0.00    -0.076 A 
ATOM      2  C3  UNL d   1      -0.997   1.058  -1.048  0.00  0.00     0.004 A 
ATOM      3  C4  UNL d   1      -2.035   0.609  -0.234  0.00  0.00    -0.003 A 
ATOM      4  C5  UNL d   1      -2.200  -0.753  -0.010  0.00  0.00     0.000 A 
ATOM      5  C6  UNL d   1      -1.316  -1.665  -0.587  0.00  0.00     0.000 A 
ATOM      6  C7  UNL d   1      -0.254  -1.227  -1.397  0.00  0.00    -0.073 A 
ATOM      7  C8  UNL d   1       0.666  -2.254  -1.998  0.00  0.00     0.078 C 
ENDROOT
BRANCH   1   8
ATOM      8  C1  UNL d   1       0.983   0.697  -2.547  0.00  0.00     0.053 C 
ATOM      9  C   UNL d   1       0.614   2.035  -3.168  0.00  0.00     0.018 C 
ENDBRANCH   1   8
TORSDOF 1
ENDMDL
