MODEL 1
REMARK minimizedAffinity -5.88521194
REMARK minimizedRMSD -1
REMARK  1 active torsions:
REMARK  status: ('A' for Active; 'I' for Inactive)
REMARK    1  A    between atoms: C1_2  and  C2_3 
ROOT
ATOM      1  C2  UNL d   1      -3.143   1.809   2.287  0.00  0.00    -0.076 A 
ATOM      2  C3  UNL d   1      -2.834   0.988   1.189  0.00  0.00     0.004 A 
ATOM      3  C4  UNL d   1      -3.277  -0.332   1.132  0.00  0.00    -0.003 A 
ATOM      4  C5  UNL d   1      -4.037  -0.853   2.173  0.00  0.00     0.000 A 
ATOM      5  C6  UNL d   1      -4.369  -0.048   3.262  0.00  0.00     0.000 A 
ATOM      6  C7  UNL d   1      -3.944   1.290   3.327  0.00  0.00    -0.073 A 
ATOM      7  C8  UNL d   1      -4.325   2.111   4.529  0.00  0.00     0.078 C 
ENDROOT
BRANCH   1   8
ATOM      8  C1  UNL d   1      -2.612   3.224   2.306  0.00  0.00     0.053 C 
ATOM      9  C   UNL d   1      -3.406   4.157   1.405  0.00  0.00     0.018 C 
ENDBRANCH   1   8
TORSDOF 1
ENDMDL
