MODEL 1
REMARK minimizedAffinity -5.51420069
REMARK minimizedRMSD -1
REMARK  1 active torsions:
REMARK  status: ('A' for Active; 'I' for Inactive)
REMARK    1  A    between atoms: C1_2  and  C2_3 
ROOT
ATOM      1  C2  UNL d   1      -3.917   3.414   3.837  0.00  0.00    -0.076 A 
ATOM      2  C3  UNL d   1      -3.615   4.437   2.922  0.00  0.00     0.004 A 
ATOM      3  C4  UNL d   1      -3.170   4.140   1.635  0.00  0.00    -0.003 A 
ATOM      4  C5  UNL d   1      -3.020   2.814   1.242  0.00  0.00     0.000 A 
ATOM      5  C6  UNL d   1      -3.332   1.786   2.131  0.00  0.00     0.000 A 
ATOM      6  C7  UNL d   1      -3.798   2.069   3.427  0.00  0.00    -0.073 A 
ATOM      7  C8  UNL d   1      -4.113   0.921   4.347  0.00  0.00     0.078 C 
ENDROOT
BRANCH   1   8
ATOM      8  C1  UNL d   1      -4.370   3.797   5.228  0.00  0.00     0.053 C 
ATOM      9  C   UNL d   1      -4.762   5.263   5.330  0.00  0.00     0.018 C 
ENDBRANCH   1   8
TORSDOF 1
ENDMDL
