MODEL 1
REMARK minimizedAffinity 3.00889897
REMARK minimizedRMSD -1
REMARK  0 active torsions:
REMARK  status: ('A' for Active; 'I' for Inactive)
ROOT
ATOM      1  C4' PXY d   1      -2.158  -0.947   3.449  0.00  0.00     0.077 C 
ATOM      2  C1' PXY d   1      -5.834  -1.387  -0.990  0.00  0.00     0.077 C 
ATOM      3  C1  PXY d   1      -4.870  -1.284   0.175  0.00  0.00    -0.082 A 
ATOM      4  C2  PXY d   1      -4.818  -0.169   0.885  0.00  0.00     0.003 A 
ATOM      5  C3  PXY d   1      -3.930  -0.048   1.923  0.00  0.00     0.003 A 
ATOM      6  C4  PXY d   1      -3.123  -1.098   2.270  0.00  0.00    -0.082 A 
ATOM      7  C5  PXY d   1      -3.177  -2.243   1.557  0.00  0.00     0.003 A 
ATOM      8  C6  PXY d   1      -4.056  -2.331   0.482  0.00  0.00     0.003 A 
ENDROOT
TORSDOF 0
ENDMDL
