MODEL 1
REMARK minimizedAffinity 4.26001692
REMARK minimizedRMSD -1
REMARK  0 active torsions:
REMARK  status: ('A' for Active; 'I' for Inactive)
ROOT
ATOM      1  C4' PXY d   1      -1.121  -6.000  -1.014  0.00  0.00     0.077 C 
ATOM      2  C1' PXY d   1      -1.585  -0.261  -1.524  0.00  0.00     0.077 C 
ATOM      3  C1  PXY d   1      -1.458  -1.764  -1.378  0.00  0.00    -0.082 A 
ATOM      4  C2  PXY d   1      -1.349  -2.519  -2.459  0.00  0.00     0.003 A 
ATOM      5  C3  PXY d   1      -1.266  -3.883  -2.347  0.00  0.00     0.003 A 
ATOM      6  C4  PXY d   1      -1.241  -4.477  -1.113  0.00  0.00    -0.082 A 
ATOM      7  C5  PXY d   1      -1.342  -3.712  -0.005  0.00  0.00     0.003 A 
ATOM      8  C6  PXY d   1      -1.467  -2.333  -0.142  0.00  0.00     0.003 A 
ENDROOT
TORSDOF 0
ENDMDL
