MODEL 1
REMARK minimizedAffinity 5.72322178
REMARK minimizedRMSD -1
REMARK  0 active torsions:
REMARK  status: ('A' for Active; 'I' for Inactive)
ROOT
ATOM      1  C4' PXY d   1      -6.000  -1.483  -0.450  0.00  0.00     0.077 C 
ATOM      2  C1' PXY d   1      -1.956  -0.858   3.633  0.00  0.00     0.077 C 
ATOM      3  C1  PXY d   1      -3.020  -1.009   2.563  0.00  0.00    -0.082 A 
ATOM      4  C2  PXY d   1      -3.528  -2.204   2.310  0.00  0.00     0.003 A 
ATOM      5  C3  PXY d   1      -4.467  -2.364   1.325  0.00  0.00     0.003 A 
ATOM      6  C4  PXY d   1      -4.931  -1.281   0.627  0.00  0.00    -0.082 A 
ATOM      7  C5  PXY d   1      -4.425  -0.057   0.887  0.00  0.00     0.003 A 
ATOM      8  C6  PXY d   1      -3.442   0.078   1.863  0.00  0.00     0.003 A 
ENDROOT
TORSDOF 0
ENDMDL
