MODEL 1
REMARK minimizedAffinity -2.82665205
REMARK minimizedRMSD -1
REMARK  0 active torsions:
REMARK  status: ('A' for Active; 'I' for Inactive)
ROOT
ATOM      1  C4' PXY d   1      -3.018  -5.977   5.935  0.00  0.00     0.077 C 
ATOM      2  C1' PXY d   1       1.699  -2.636   5.999  0.00  0.00     0.077 C 
ATOM      3  C1  PXY d   1       0.469  -3.522   5.977  0.00  0.00    -0.082 A 
ATOM      4  C2  PXY d   1      -0.734  -2.971   5.959  0.00  0.00     0.003 A 
ATOM      5  C3  PXY d   1      -1.857  -3.757   5.971  0.00  0.00     0.003 A 
ATOM      6  C4  PXY d   1      -1.748  -5.122   5.948  0.00  0.00    -0.082 A 
ATOM      7  C5  PXY d   1      -0.524  -5.692   5.955  0.00  0.00     0.003 A 
ATOM      8  C6  PXY d   1       0.603  -4.876   5.984  0.00  0.00     0.003 A 
ENDROOT
TORSDOF 0
ENDMDL
