MODEL 1
REMARK minimizedAffinity 0.208349645
REMARK minimizedRMSD -1
REMARK  0 active torsions:
REMARK  status: ('A' for Active; 'I' for Inactive)
ROOT
ATOM      1  C4' PXY d   1      -1.110  -1.310  -1.357  0.00  0.00     0.077 C 
ATOM      2  C1' PXY d   1      -1.897   1.135   3.822  0.00  0.00     0.077 C 
ATOM      3  C1  PXY d   1      -1.701   0.487   2.465  0.00  0.00    -0.082 A 
ATOM      4  C2  PXY d   1      -0.497   0.469   1.916  0.00  0.00     0.003 A 
ATOM      5  C3  PXY d   1      -0.309  -0.085   0.676  0.00  0.00     0.003 A 
ATOM      6  C4  PXY d   1      -1.353  -0.674   0.015  0.00  0.00    -0.082 A 
ATOM      7  C5  PXY d   1      -2.582  -0.670   0.573  0.00  0.00     0.003 A 
ATOM      8  C6  PXY d   1      -2.760  -0.066   1.814  0.00  0.00     0.003 A 
ENDROOT
TORSDOF 0
ENDMDL
