MODEL 1
REMARK minimizedAffinity 7.61013508
REMARK minimizedRMSD -1
REMARK  0 active torsions:
REMARK  status: ('A' for Active; 'I' for Inactive)
ROOT
ATOM      1  C4' PXY d   1      -5.576  -0.628  -1.434  0.00  0.00     0.077 C 
ATOM      2  C1' PXY d   1      -2.474  -0.846   3.439  0.00  0.00     0.077 C 
ATOM      3  C1  PXY d   1      -3.297  -0.796   2.167  0.00  0.00    -0.082 A 
ATOM      4  C2  PXY d   1      -2.692  -0.620   1.003  0.00  0.00     0.003 A 
ATOM      5  C3  PXY d   1      -3.424  -0.541  -0.154  0.00  0.00     0.003 A 
ATOM      6  C4  PXY d   1      -4.784  -0.695  -0.125  0.00  0.00    -0.082 A 
ATOM      7  C5  PXY d   1      -5.408  -0.885   1.057  0.00  0.00     0.003 A 
ATOM      8  C6  PXY d   1      -4.651  -0.922   2.225  0.00  0.00     0.003 A 
ENDROOT
TORSDOF 0
ENDMDL
