MODEL 1
REMARK minimizedAffinity 5.70247889
REMARK minimizedRMSD -1
REMARK  0 active torsions:
REMARK  status: ('A' for Active; 'I' for Inactive)
ROOT
ATOM      1  C4' PXY d   1      -5.996  -1.470   0.043  0.00  0.00     0.077 C 
ATOM      2  C1' PXY d   1      -1.347   0.321   2.975  0.00  0.00     0.077 C 
ATOM      3  C1  PXY d   1      -2.570  -0.137   2.205  0.00  0.00    -0.082 A 
ATOM      4  C2  PXY d   1      -3.018  -1.371   2.362  0.00  0.00     0.003 A 
ATOM      5  C3  PXY d   1      -4.104  -1.811   1.650  0.00  0.00     0.003 A 
ATOM      6  C4  PXY d   1      -4.770  -0.962   0.807  0.00  0.00    -0.082 A 
ATOM      7  C5  PXY d   1      -4.325   0.303   0.649  0.00  0.00     0.003 A 
ATOM      8  C6  PXY d   1      -3.197   0.717   1.351  0.00  0.00     0.003 A 
ENDROOT
TORSDOF 0
ENDMDL
