MODEL 1
REMARK minimizedAffinity 15.4836273
REMARK minimizedRMSD -1
REMARK  0 active torsions:
REMARK  status: ('A' for Active; 'I' for Inactive)
ROOT
ATOM      1  C4' PXY d   1       2.303  -6.000   1.323  0.00  0.00     0.077 C 
ATOM      2  C1' PXY d   1      -1.990  -5.675  -2.534  0.00  0.00     0.077 C 
ATOM      3  C1  PXY d   1      -0.872  -5.754  -1.514  0.00  0.00    -0.082 A 
ATOM      4  C2  PXY d   1       0.378  -5.893  -1.923  0.00  0.00     0.003 A 
ATOM      5  C3  PXY d   1       1.399  -5.999  -1.013  0.00  0.00     0.003 A 
ATOM      6  C4  PXY d   1       1.142  -5.906   0.329  0.00  0.00    -0.082 A 
ATOM      7  C5  PXY d   1      -0.129  -5.753   0.754  0.00  0.00     0.003 A 
ATOM      8  C6  PXY d   1      -1.155  -5.690  -0.184  0.00  0.00     0.003 A 
ENDROOT
TORSDOF 0
ENDMDL
