MODEL 1
REMARK minimizedAffinity -3.15046215
REMARK minimizedRMSD -1
REMARK  0 active torsions:
REMARK  status: ('A' for Active; 'I' for Inactive)
ROOT
ATOM      1  C4' PXY d   1      -5.840   5.373   6.000  0.00  0.00     0.077 C 
ATOM      2  C1' PXY d   1      -3.137   5.999   0.929  0.00  0.00     0.077 C 
ATOM      3  C1  PXY d   1      -3.834   5.832   2.265  0.00  0.00    -0.082 A 
ATOM      4  C2  PXY d   1      -5.123   5.532   2.297  0.00  0.00     0.003 A 
ATOM      5  C3  PXY d   1      -5.777   5.409   3.496  0.00  0.00     0.003 A 
ATOM      6  C4  PXY d   1      -5.093   5.542   4.674  0.00  0.00    -0.082 A 
ATOM      7  C5  PXY d   1      -3.776   5.838   4.650  0.00  0.00     0.003 A 
ATOM      8  C6  PXY d   1      -3.140   5.999   3.423  0.00  0.00     0.003 A 
ENDROOT
TORSDOF 0
ENDMDL
