MODEL 1
REMARK minimizedAffinity 8.5299511
REMARK minimizedRMSD -1
REMARK  0 active torsions:
REMARK  status: ('A' for Active; 'I' for Inactive)
ROOT
ATOM      1  C4' PXY d   1       1.237  -1.413   0.179  0.00  0.00     0.077 C 
ATOM      2  C1' PXY d   1       4.243   3.524   0.135  0.00  0.00     0.077 C 
ATOM      3  C1  PXY d   1       3.448   2.233   0.157  0.00  0.00    -0.082 A 
ATOM      4  C2  PXY d   1       3.958   1.141  -0.390  0.00  0.00     0.003 A 
ATOM      5  C3  PXY d   1       3.239  -0.026  -0.407  0.00  0.00     0.003 A 
ATOM      6  C4  PXY d   1       2.008  -0.090   0.188  0.00  0.00    -0.082 A 
ATOM      7  C5  PXY d   1       1.485   1.017   0.757  0.00  0.00     0.003 A 
ATOM      8  C6  PXY d   1       2.214   2.202   0.728  0.00  0.00     0.003 A 
ENDROOT
TORSDOF 0
ENDMDL
