MODEL 1
REMARK minimizedAffinity 7.92744637
REMARK minimizedRMSD -1
REMARK  0 active torsions:
REMARK  status: ('A' for Active; 'I' for Inactive)
ROOT
ATOM      1  C4' PXY d   1       3.893   1.583  -0.016  0.00  0.00     0.077 C 
ATOM      2  C1' PXY d   1      -0.591  -2.037  -0.469  0.00  0.00     0.077 C 
ATOM      3  C1  PXY d   1       0.576  -1.078  -0.352  0.00  0.00    -0.082 A 
ATOM      4  C2  PXY d   1       1.794  -1.487  -0.670  0.00  0.00     0.003 A 
ATOM      5  C3  PXY d   1       2.866  -0.642  -0.539  0.00  0.00     0.003 A 
ATOM      6  C4  PXY d   1       2.683   0.651  -0.129  0.00  0.00    -0.082 A 
ATOM      7  C5  PXY d   1       1.442   1.079   0.188  0.00  0.00     0.003 A 
ATOM      8  C6  PXY d   1       0.373   0.194   0.088  0.00  0.00     0.003 A 
ENDROOT
TORSDOF 0
ENDMDL
