MODEL 1
REMARK minimizedAffinity -3.75463152
REMARK minimizedRMSD -1
REMARK  2 active torsions:
REMARK  status: ('A' for Active; 'I' for Inactive)
REMARK    1  A    between atoms: C1_2  and  C2_3 
REMARK    2  A    between atoms: C2_3  and  C3_4 
ROOT
ATOM      1  C3  UNL d   1       0.447   0.473  -0.273  0.00  0.00    -0.075 A 
ATOM      2  C4  UNL d   1      -0.008  -0.151   0.898  0.00  0.00     0.002 A 
ATOM      3  C5  UNL d   1      -0.637   0.591   1.897  0.00  0.00     0.002 A 
ATOM      4  C6  UNL d   1      -0.811   1.965   1.745  0.00  0.00    -0.004 A 
ATOM      5  C7  UNL d   1      -0.348   2.598   0.593  0.00  0.00     0.002 A 
ATOM      6  C8  UNL d   1       0.278   1.857  -0.411  0.00  0.00     0.002 A 
ENDROOT
BRANCH   1   7
ATOM      7  C2  UNL d   1       1.102  -0.329  -1.372  0.00  0.00     0.056 C 
BRANCH   7   8
ATOM      8  C1  UNL d   1       0.969  -1.846  -1.201  0.00  0.00     0.007 C 
ATOM      9  C   UNL d   1       0.503  -2.554  -2.466  0.00  0.00     0.009 C 
ENDBRANCH   7   8
ENDBRANCH   1   7
TORSDOF 2
ENDMDL
