MODEL 1
REMARK minimizedAffinity -1.18547666
REMARK minimizedRMSD -1
REMARK  2 active torsions:
REMARK  status: ('A' for Active; 'I' for Inactive)
REMARK    1  A    between atoms: C1_2  and  C2_3 
REMARK    2  A    between atoms: C2_3  and  C3_4 
ROOT
ATOM      1  C3  UNL d   1       1.195  -1.177  -0.476  0.00  0.00    -0.075 A 
ATOM      2  C4  UNL d   1       0.562  -1.156   0.775  0.00  0.00     0.002 A 
ATOM      3  C5  UNL d   1      -0.266  -0.091   1.132  0.00  0.00     0.002 A 
ATOM      4  C6  UNL d   1      -0.462   0.969   0.250  0.00  0.00    -0.004 A 
ATOM      5  C7  UNL d   1       0.176   0.967  -0.989  0.00  0.00     0.002 A 
ATOM      6  C8  UNL d   1       1.001  -0.100  -1.351  0.00  0.00     0.002 A 
ENDROOT
BRANCH   1   7
ATOM      7  C2  UNL d   1       2.068  -2.341  -0.880  0.00  0.00     0.056 C 
BRANCH   7   8
ATOM      8  C1  UNL d   1       1.291  -3.623  -1.198  0.00  0.00     0.007 C 
ATOM      9  C   UNL d   1       0.694  -3.631  -2.599  0.00  0.00     0.009 C 
ENDBRANCH   7   8
ENDBRANCH   1   7
TORSDOF 2
ENDMDL
