MODEL 1
REMARK minimizedAffinity -2.02026486
REMARK minimizedRMSD -1
REMARK  2 active torsions:
REMARK  status: ('A' for Active; 'I' for Inactive)
REMARK    1  A    between atoms: C1_2  and  C2_3 
REMARK    2  A    between atoms: C2_3  and  C3_4 
ROOT
ATOM      1  C3  UNL d   1       0.161  -0.059  -0.208  0.00  0.00    -0.075 A 
ATOM      2  C4  UNL d   1      -0.099  -0.710   1.007  0.00  0.00     0.002 A 
ATOM      3  C5  UNL d   1      -0.755  -0.043   2.042  0.00  0.00     0.002 A 
ATOM      4  C6  UNL d   1      -1.150   1.283   1.880  0.00  0.00    -0.004 A 
ATOM      5  C7  UNL d   1      -0.882   1.945   0.683  0.00  0.00     0.002 A 
ATOM      6  C8  UNL d   1      -0.230   1.278  -0.355  0.00  0.00     0.002 A 
ENDROOT
BRANCH   1   7
ATOM      7  C2  UNL d   1       0.844  -0.785  -1.342  0.00  0.00     0.056 C 
BRANCH   7   8
ATOM      8  C1  UNL d   1       1.260  -2.220  -1.004  0.00  0.00     0.007 C 
ATOM      9  C   UNL d   1       0.917  -3.220  -2.100  0.00  0.00     0.009 C 
ENDBRANCH   7   8
ENDBRANCH   1   7
TORSDOF 2
ENDMDL
