MODEL 1
REMARK minimizedAffinity -3.70691514
REMARK minimizedRMSD -1
REMARK  2 active torsions:
REMARK  status: ('A' for Active; 'I' for Inactive)
REMARK    1  A    between atoms: C1_2  and  C2_3 
REMARK    2  A    between atoms: C2_3  and  C3_4 
ROOT
ATOM      1  C3  UNL d   1       0.398  -0.646  -0.187  0.00  0.00    -0.075 A 
ATOM      2  C4  UNL d   1       0.023  -1.172   1.058  0.00  0.00     0.002 A 
ATOM      3  C5  UNL d   1      -0.739  -0.413   1.947  0.00  0.00     0.002 A 
ATOM      4  C6  UNL d   1      -1.127   0.881   1.608  0.00  0.00    -0.004 A 
ATOM      5  C7  UNL d   1      -0.746   1.420   0.381  0.00  0.00     0.002 A 
ATOM      6  C8  UNL d   1       0.014   0.662  -0.512  0.00  0.00     0.002 A 
ENDROOT
BRANCH   1   7
ATOM      7  C2  UNL d   1       1.199  -1.472  -1.165  0.00  0.00     0.056 C 
BRANCH   7   8
ATOM      8  C1  UNL d   1       0.344  -2.238  -2.180  0.00  0.00     0.007 C 
ATOM      9  C   UNL d   1       0.561  -3.745  -2.131  0.00  0.00     0.009 C 
ENDBRANCH   7   8
ENDBRANCH   1   7
TORSDOF 2
ENDMDL
