MODEL 1
REMARK minimizedAffinity 3.3705337
REMARK minimizedRMSD -1
REMARK  2 active torsions:
REMARK  status: ('A' for Active; 'I' for Inactive)
REMARK    1  A    between atoms: C1_2  and  C2_3 
REMARK    2  A    between atoms: C2_3  and  C3_4 
ROOT
ATOM      1  C3  UNL d   1       0.440   0.078  -0.052  0.00  0.00    -0.075 A 
ATOM      2  C4  UNL d   1       1.444   0.354  -0.992  0.00  0.00     0.002 A 
ATOM      3  C5  UNL d   1       1.383   1.506  -1.777  0.00  0.00     0.002 A 
ATOM      4  C6  UNL d   1       0.315   2.390  -1.640  0.00  0.00    -0.004 A 
ATOM      5  C7  UNL d   1      -0.697   2.117  -0.721  0.00  0.00     0.002 A 
ATOM      6  C8  UNL d   1      -0.636   0.968   0.069  0.00  0.00     0.002 A 
ENDROOT
BRANCH   1   7
ATOM      7  C2  UNL d   1       0.516  -1.151   0.821  0.00  0.00     0.056 C 
BRANCH   7   8
ATOM      8  C1  UNL d   1       0.688  -0.847   2.313  0.00  0.00     0.007 C 
ATOM      9  C   UNL d   1       1.386  -1.965   3.077  0.00  0.00     0.009 C 
ENDBRANCH   7   8
ENDBRANCH   1   7
TORSDOF 2
ENDMDL
