MODEL 1
REMARK minimizedAffinity -2.03791714
REMARK minimizedRMSD -1
REMARK  2 active torsions:
REMARK  status: ('A' for Active; 'I' for Inactive)
REMARK    1  A    between atoms: C1_2  and  C2_3 
REMARK    2  A    between atoms: C2_3  and  C3_4 
ROOT
ATOM      1  C3  UNL d   1       0.296  -0.561  -0.800  0.00  0.00    -0.075 A 
ATOM      2  C4  UNL d   1      -0.372  -0.547   0.433  0.00  0.00     0.002 A 
ATOM      3  C5  UNL d   1      -0.872   0.647   0.954  0.00  0.00     0.002 A 
ATOM      4  C6  UNL d   1      -0.703   1.840   0.255  0.00  0.00    -0.004 A 
ATOM      5  C7  UNL d   1      -0.027   1.840  -0.963  0.00  0.00     0.002 A 
ATOM      6  C8  UNL d   1       0.471   0.647  -1.489  0.00  0.00     0.002 A 
ENDROOT
BRANCH   1   7
ATOM      7  C2  UNL d   1       0.814  -1.854  -1.384  0.00  0.00     0.056 C 
BRANCH   7   8
ATOM      8  C1  UNL d   1      -0.063  -2.430  -2.501  0.00  0.00     0.007 C 
ATOM      9  C   UNL d   1      -0.109  -3.952  -2.504  0.00  0.00     0.009 C 
ENDBRANCH   7   8
ENDBRANCH   1   7
TORSDOF 2
ENDMDL
