MODEL 1
REMARK minimizedAffinity -3.48591757
REMARK minimizedRMSD -1
REMARK  2 active torsions:
REMARK  status: ('A' for Active; 'I' for Inactive)
REMARK    1  A    between atoms: C1_2  and  C2_3 
REMARK    2  A    between atoms: C2_3  and  C3_4 
ROOT
ATOM      1  C3  UNL d   1       0.819   0.055  -0.429  0.00  0.00    -0.075 A 
ATOM      2  C4  UNL d   1       0.169  -0.443   0.710  0.00  0.00     0.002 A 
ATOM      3  C5  UNL d   1      -0.637   0.390   1.486  0.00  0.00     0.002 A 
ATOM      4  C6  UNL d   1      -0.794   1.731   1.141  0.00  0.00    -0.004 A 
ATOM      5  C7  UNL d   1      -0.140   2.240   0.021  0.00  0.00     0.002 A 
ATOM      6  C8  UNL d   1       0.663   1.407  -0.760  0.00  0.00     0.002 A 
ENDROOT
BRANCH   1   7
ATOM      7  C2  UNL d   1       1.669  -0.849  -1.290  0.00  0.00     0.056 C 
BRANCH   7   8
ATOM      8  C1  UNL d   1       1.189  -2.304  -1.331  0.00  0.00     0.007 C 
ATOM      9  C   UNL d   1       0.596  -2.704  -2.675  0.00  0.00     0.009 C 
ENDBRANCH   7   8
ENDBRANCH   1   7
TORSDOF 2
ENDMDL
