MODEL 1
REMARK minimizedAffinity -4.28793955
REMARK minimizedRMSD -1
REMARK  2 active torsions:
REMARK  status: ('A' for Active; 'I' for Inactive)
REMARK    1  A    between atoms: C1_2  and  C2_3 
REMARK    2  A    between atoms: C2_3  and  C3_4 
ROOT
ATOM      1  C3  UNL d   1       0.049  -0.207  -0.038  0.00  0.00    -0.075 A 
ATOM      2  C4  UNL d   1      -0.066   1.164   0.232  0.00  0.00     0.002 A 
ATOM      3  C5  UNL d   1      -0.785   1.610   1.340  0.00  0.00     0.002 A 
ATOM      4  C6  UNL d   1      -1.407   0.694   2.186  0.00  0.00    -0.004 A 
ATOM      5  C7  UNL d   1      -1.314  -0.670   1.918  0.00  0.00     0.002 A 
ATOM      6  C8  UNL d   1      -0.590  -1.119   0.812  0.00  0.00     0.002 A 
ENDROOT
BRANCH   1   7
ATOM      7  C2  UNL d   1       0.851  -0.697  -1.220  0.00  0.00     0.056 C 
BRANCH   7   8
ATOM      8  C1  UNL d   1       0.843  -2.220  -1.391  0.00  0.00     0.007 C 
ATOM      9  C   UNL d   1      -0.129  -2.700  -2.460  0.00  0.00     0.009 C 
ENDBRANCH   7   8
ENDBRANCH   1   7
TORSDOF 2
ENDMDL
