MODEL 1
REMARK minimizedAffinity -3.58810186
REMARK minimizedRMSD -1
REMARK  2 active torsions:
REMARK  status: ('A' for Active; 'I' for Inactive)
REMARK    1  A    between atoms: C1_2  and  C2_3 
REMARK    2  A    between atoms: C2_3  and  C3_4 
ROOT
ATOM      1  C3  UNL d   1       0.268  -0.919   0.063  0.00  0.00    -0.075 A 
ATOM      2  C4  UNL d   1      -0.103  -1.283   1.366  0.00  0.00     0.002 A 
ATOM      3  C5  UNL d   1      -0.844  -0.409   2.162  0.00  0.00     0.002 A 
ATOM      4  C6  UNL d   1      -1.215   0.841   1.671  0.00  0.00    -0.004 A 
ATOM      5  C7  UNL d   1      -0.838   1.220   0.384  0.00  0.00     0.002 A 
ATOM      6  C8  UNL d   1      -0.100   0.346  -0.416  0.00  0.00     0.002 A 
ENDROOT
BRANCH   1   7
ATOM      7  C2  UNL d   1       1.044  -1.871  -0.814  0.00  0.00     0.056 C 
BRANCH   7   8
ATOM      8  C1  UNL d   1       0.166  -2.767  -1.693  0.00  0.00     0.007 C 
ATOM      9  C   UNL d   1      -0.267  -2.096  -2.990  0.00  0.00     0.009 C 
ENDBRANCH   7   8
ENDBRANCH   1   7
TORSDOF 2
ENDMDL
