MODEL 1
REMARK minimizedAffinity -2.98223162
REMARK minimizedRMSD -1
REMARK  2 active torsions:
REMARK  status: ('A' for Active; 'I' for Inactive)
REMARK    1  A    between atoms: C1_2  and  C2_3 
REMARK    2  A    between atoms: C2_3  and  C3_4 
ROOT
ATOM      1  C3  UNL d   1       0.517  -1.277  -0.989  0.00  0.00    -0.075 A 
ATOM      2  C4  UNL d   1      -0.065  -1.153  -2.259  0.00  0.00     0.002 A 
ATOM      3  C5  UNL d   1      -0.113  -2.245  -3.126  0.00  0.00     0.002 A 
ATOM      4  C6  UNL d   1       0.429  -3.469  -2.739  0.00  0.00    -0.004 A 
ATOM      5  C7  UNL d   1       1.024  -3.599  -1.486  0.00  0.00     0.002 A 
ATOM      6  C8  UNL d   1       1.069  -2.509  -0.615  0.00  0.00     0.002 A 
ENDROOT
BRANCH   1   7
ATOM      7  C2  UNL d   1       0.545  -0.107  -0.034  0.00  0.00     0.056 C 
BRANCH   7   8
ATOM      8  C1  UNL d   1       0.182  -0.471   1.409  0.00  0.00     0.007 C 
ATOM      9  C   UNL d   1      -1.161   0.095   1.852  0.00  0.00     0.009 C 
ENDBRANCH   7   8
ENDBRANCH   1   7
TORSDOF 2
ENDMDL
