MODEL 1
REMARK minimizedAffinity -5.04898357
REMARK minimizedRMSD -1
REMARK  2 active torsions:
REMARK  status: ('A' for Active; 'I' for Inactive)
REMARK    1  A    between atoms: C1_2  and  C2_3 
REMARK    2  A    between atoms: C2_3  and  C3_4 
ROOT
ATOM      1  C3  UNL d   1       0.360  -0.020  -0.071  0.00  0.00    -0.075 A 
ATOM      2  C4  UNL d   1       0.299   1.379  -0.151  0.00  0.00     0.002 A 
ATOM      3  C5  UNL d   1      -0.505   2.104   0.729  0.00  0.00     0.002 A 
ATOM      4  C6  UNL d   1      -1.265   1.441   1.690  0.00  0.00    -0.004 A 
ATOM      5  C7  UNL d   1      -1.225   0.051   1.768  0.00  0.00     0.002 A 
ATOM      6  C8  UNL d   1      -0.417  -0.677   0.892  0.00  0.00     0.002 A 
ENDROOT
BRANCH   1   7
ATOM      7  C2  UNL d   1       1.251  -0.808  -1.001  0.00  0.00     0.056 C 
BRANCH   7   8
ATOM      8  C1  UNL d   1       0.912  -2.301  -1.073  0.00  0.00     0.007 C 
ATOM      9  C   UNL d   1       0.512  -2.759  -2.469  0.00  0.00     0.009 C 
ENDBRANCH   7   8
ENDBRANCH   1   7
TORSDOF 2
ENDMDL
