MODEL 1
REMARK minimizedAffinity -5.54939413
REMARK minimizedRMSD -1
REMARK  2 active torsions:
REMARK  status: ('A' for Active; 'I' for Inactive)
REMARK    1  A    between atoms: C1_2  and  C2_3 
REMARK    2  A    between atoms: C2_3  and  C3_4 
ROOT
ATOM      1  C3  UNL d   1      -0.588   1.240   0.693  0.00  0.00    -0.075 A 
ATOM      2  C4  UNL d   1      -0.302   2.236  -0.252  0.00  0.00     0.002 A 
ATOM      3  C5  UNL d   1      -0.894   3.496  -0.154  0.00  0.00     0.002 A 
ATOM      4  C6  UNL d   1      -1.786   3.772   0.879  0.00  0.00    -0.004 A 
ATOM      5  C7  UNL d   1      -2.091   2.784   1.814  0.00  0.00     0.002 A 
ATOM      6  C8  UNL d   1      -1.496   1.524   1.721  0.00  0.00     0.002 A 
ENDROOT
BRANCH   1   7
ATOM      7  C2  UNL d   1       0.072  -0.116   0.610  0.00  0.00     0.056 C 
BRANCH   7   8
ATOM      8  C1  UNL d   1       0.942  -0.311  -0.636  0.00  0.00     0.007 C 
ATOM      9  C   UNL d   1       0.889  -1.729  -1.189  0.00  0.00     0.009 C 
ENDBRANCH   7   8
ENDBRANCH   1   7
TORSDOF 2
ENDMDL
