MODEL 1
REMARK minimizedAffinity -1.74881089
REMARK minimizedRMSD -1
REMARK  2 active torsions:
REMARK  status: ('A' for Active; 'I' for Inactive)
REMARK    1  A    between atoms: C1_2  and  C2_3 
REMARK    2  A    between atoms: C2_3  and  C3_4 
ROOT
ATOM      1  C3  UNL d   1       0.238  -0.573   0.007  0.00  0.00    -0.075 A 
ATOM      2  C4  UNL d   1       0.182   0.700  -0.578  0.00  0.00     0.002 A 
ATOM      3  C5  UNL d   1      -0.366   1.777   0.120  0.00  0.00     0.002 A 
ATOM      4  C6  UNL d   1      -0.873   1.594   1.404  0.00  0.00    -0.004 A 
ATOM      5  C7  UNL d   1      -0.837   0.330   1.989  0.00  0.00     0.002 A 
ATOM      6  C8  UNL d   1      -0.286  -0.749   1.295  0.00  0.00     0.002 A 
ENDROOT
BRANCH   1   7
ATOM      7  C2  UNL d   1       0.857  -1.736  -0.731  0.00  0.00     0.056 C 
BRANCH   7   8
ATOM      8  C1  UNL d   1       0.001  -2.267  -1.886  0.00  0.00     0.007 C 
ATOM      9  C   UNL d   1      -0.010  -3.788  -1.975  0.00  0.00     0.009 C 
ENDBRANCH   7   8
ENDBRANCH   1   7
TORSDOF 2
ENDMDL
