MODEL 1
REMARK minimizedAffinity 0.578615546
REMARK minimizedRMSD -1
REMARK  2 active torsions:
REMARK  status: ('A' for Active; 'I' for Inactive)
REMARK    1  A    between atoms: C1_2  and  C2_3 
REMARK    2  A    between atoms: C2_3  and  C3_4 
ROOT
ATOM      1  C3  UNL d   1       3.541   4.830  -4.539  0.00  0.00    -0.075 A 
ATOM      2  C4  UNL d   1       3.920   5.965  -5.270  0.00  0.00     0.002 A 
ATOM      3  C5  UNL d   1       5.139   5.998  -5.947  0.00  0.00     0.002 A 
ATOM      4  C6  UNL d   1       5.998   4.902  -5.895  0.00  0.00    -0.004 A 
ATOM      5  C7  UNL d   1       5.639   3.775  -5.159  0.00  0.00     0.002 A 
ATOM      6  C8  UNL d   1       4.418   3.738  -4.484  0.00  0.00     0.002 A 
ENDROOT
BRANCH   1   7
ATOM      7  C2  UNL d   1       2.210   4.777  -3.828  0.00  0.00     0.056 C 
BRANCH   7   8
ATOM      8  C1  UNL d   1       1.997   3.508  -2.996  0.00  0.00     0.007 C 
ATOM      9  C   UNL d   1       0.557   3.013  -3.013  0.00  0.00     0.009 C 
ENDBRANCH   7   8
ENDBRANCH   1   7
TORSDOF 2
ENDMDL
