MODEL 1
REMARK minimizedAffinity 5.0041008
REMARK minimizedRMSD -1
REMARK  2 active torsions:
REMARK  status: ('A' for Active; 'I' for Inactive)
REMARK    1  A    between atoms: C1_2  and  C2_3 
REMARK    2  A    between atoms: C2_3  and  C3_4 
ROOT
ATOM      1  C3  UNL d   1      -3.337  -4.555  -2.287  0.00  0.00    -0.075 A 
ATOM      2  C4  UNL d   1      -4.260  -3.500  -2.244  0.00  0.00     0.002 A 
ATOM      3  C5  UNL d   1      -5.454  -3.574  -2.961  0.00  0.00     0.002 A 
ATOM      4  C6  UNL d   1      -5.735  -4.696  -3.738  0.00  0.00    -0.004 A 
ATOM      5  C7  UNL d   1      -4.818  -5.742  -3.801  0.00  0.00     0.002 A 
ATOM      6  C8  UNL d   1      -3.624  -5.673  -3.080  0.00  0.00     0.002 A 
ENDROOT
BRANCH   1   7
ATOM      7  C2  UNL d   1      -2.056  -4.493  -1.489  0.00  0.00     0.056 C 
BRANCH   7   8
ATOM      8  C1  UNL d   1      -2.189  -3.758  -0.151  0.00  0.00     0.007 C 
ATOM      9  C   UNL d   1      -0.881  -3.680   0.624  0.00  0.00     0.009 C 
ENDBRANCH   7   8
ENDBRANCH   1   7
TORSDOF 2
ENDMDL
