MODEL 1
REMARK minimizedAffinity 9.39598656
REMARK minimizedRMSD -1
REMARK  2 active torsions:
REMARK  status: ('A' for Active; 'I' for Inactive)
REMARK    1  A    between atoms: C1_2  and  C2_3 
REMARK    2  A    between atoms: C2_3  and  C3_4 
ROOT
ATOM      1  C3  UNL d   1       1.496   1.885   0.364  0.00  0.00    -0.075 A 
ATOM      2  C4  UNL d   1       1.538   0.652   1.031  0.00  0.00     0.002 A 
ATOM      3  C5  UNL d   1       0.846   0.471   2.229  0.00  0.00     0.002 A 
ATOM      4  C6  UNL d   1       0.114   1.520   2.780  0.00  0.00    -0.004 A 
ATOM      5  C7  UNL d   1       0.079   2.754   2.134  0.00  0.00     0.002 A 
ATOM      6  C8  UNL d   1       0.766   2.937   0.933  0.00  0.00     0.002 A 
ENDROOT
BRANCH   1   7
ATOM      7  C2  UNL d   1       2.218   2.079  -0.948  0.00  0.00     0.056 C 
BRANCH   7   8
ATOM      8  C1  UNL d   1       1.864   1.037  -2.015  0.00  0.00     0.007 C 
ATOM      9  C   UNL d   1       0.634   1.408  -2.831  0.00  0.00     0.009 C 
ENDBRANCH   7   8
ENDBRANCH   1   7
TORSDOF 2
ENDMDL
