MODEL 1
REMARK minimizedAffinity 4.00507498
REMARK minimizedRMSD -1
REMARK  2 active torsions:
REMARK  status: ('A' for Active; 'I' for Inactive)
REMARK    1  A    between atoms: C1_2  and  C2_3 
REMARK    2  A    between atoms: C2_3  and  C3_4 
ROOT
ATOM      1  C3  UNL d   1       1.704   0.516  -0.572  0.00  0.00    -0.075 A 
ATOM      2  C4  UNL d   1       1.588   1.329   0.564  0.00  0.00     0.002 A 
ATOM      3  C5  UNL d   1       2.722   1.892   1.151  0.00  0.00     0.002 A 
ATOM      4  C6  UNL d   1       3.984   1.640   0.617  0.00  0.00    -0.004 A 
ATOM      5  C7  UNL d   1       4.112   0.820  -0.501  0.00  0.00     0.002 A 
ATOM      6  C8  UNL d   1       2.979   0.259  -1.094  0.00  0.00     0.002 A 
ENDROOT
BRANCH   1   7
ATOM      7  C2  UNL d   1       0.478  -0.072  -1.230  0.00  0.00     0.056 C 
BRANCH   7   8
ATOM      8  C1  UNL d   1       0.022   0.681  -2.484  0.00  0.00     0.007 C 
ATOM      9  C   UNL d   1       0.138   2.194  -2.352  0.00  0.00     0.009 C 
ENDBRANCH   7   8
ENDBRANCH   1   7
TORSDOF 2
ENDMDL
