MODEL 1
REMARK minimizedAffinity 1.78307593
REMARK minimizedRMSD -1
REMARK  2 active torsions:
REMARK  status: ('A' for Active; 'I' for Inactive)
REMARK    1  A    between atoms: C1_2  and  C2_3 
REMARK    2  A    between atoms: C2_3  and  C3_4 
ROOT
ATOM      1  C3  UNL d   1      -1.788  -4.167  -0.874  0.00  0.00    -0.075 A 
ATOM      2  C4  UNL d   1      -2.242  -2.845  -0.996  0.00  0.00     0.002 A 
ATOM      3  C5  UNL d   1      -1.550  -1.799  -0.385  0.00  0.00     0.002 A 
ATOM      4  C6  UNL d   1      -0.404  -2.061   0.362  0.00  0.00    -0.004 A 
ATOM      5  C7  UNL d   1       0.047  -3.372   0.504  0.00  0.00     0.002 A 
ATOM      6  C8  UNL d   1      -0.641  -4.420  -0.110  0.00  0.00     0.002 A 
ENDROOT
BRANCH   1   7
ATOM      7  C2  UNL d   1      -2.515  -5.300  -1.557  0.00  0.00     0.056 C 
BRANCH   7   8
ATOM      8  C1  UNL d   1      -1.755  -5.905  -2.742  0.00  0.00     0.007 C 
ATOM      9  C   UNL d   1      -2.428  -5.645  -4.083  0.00  0.00     0.009 C 
ENDBRANCH   7   8
ENDBRANCH   1   7
TORSDOF 2
ENDMDL
