MODEL 1
REMARK minimizedAffinity 0.279306471
REMARK minimizedRMSD -1
REMARK  2 active torsions:
REMARK  status: ('A' for Active; 'I' for Inactive)
REMARK    1  A    between atoms: C1_2  and  C2_3 
REMARK    2  A    between atoms: C2_3  and  C3_4 
ROOT
ATOM      1  C3  UNL d   1      -4.276   1.541   3.832  0.00  0.00    -0.075 A 
ATOM      2  C4  UNL d   1      -4.492   1.940   5.159  0.00  0.00     0.002 A 
ATOM      3  C5  UNL d   1      -5.314   1.190   6.000  0.00  0.00     0.002 A 
ATOM      4  C6  UNL d   1      -5.938   0.039   5.523  0.00  0.00    -0.004 A 
ATOM      5  C7  UNL d   1      -5.744  -0.358   4.202  0.00  0.00     0.002 A 
ATOM      6  C8  UNL d   1      -4.918   0.388   3.360  0.00  0.00     0.002 A 
ENDROOT
BRANCH   1   7
ATOM      7  C2  UNL d   1      -3.364   2.332   2.926  0.00  0.00     0.056 C 
BRANCH   7   8
ATOM      8  C1  UNL d   1      -2.057   1.613   2.574  0.00  0.00     0.007 C 
ATOM      9  C   UNL d   1      -0.934   2.565   2.184  0.00  0.00     0.009 C 
ENDBRANCH   7   8
ENDBRANCH   1   7
TORSDOF 2
ENDMDL
