MODEL 1
REMARK minimizedAffinity 4.45291805
REMARK minimizedRMSD -1
REMARK  2 active torsions:
REMARK  status: ('A' for Active; 'I' for Inactive)
REMARK    1  A    between atoms: C1_2  and  C2_3 
REMARK    2  A    between atoms: C2_3  and  C3_4 
ROOT
ATOM      1  C3  UNL d   1       2.184   1.223  -0.259  0.00  0.00    -0.075 A 
ATOM      2  C4  UNL d   1       1.859   1.117   1.101  0.00  0.00     0.002 A 
ATOM      3  C5  UNL d   1       1.388   2.226   1.805  0.00  0.00     0.002 A 
ATOM      4  C6  UNL d   1       1.246   3.454   1.163  0.00  0.00    -0.004 A 
ATOM      5  C7  UNL d   1       1.581   3.575  -0.184  0.00  0.00     0.002 A 
ATOM      6  C8  UNL d   1       2.049   2.466  -0.892  0.00  0.00     0.002 A 
ENDROOT
BRANCH   1   7
ATOM      7  C2  UNL d   1       2.666   0.020  -1.034  0.00  0.00     0.056 C 
BRANCH   7   8
ATOM      8  C1  UNL d   1       1.584  -1.036  -1.284  0.00  0.00     0.007 C 
ATOM      9  C   UNL d   1       0.950  -0.930  -2.665  0.00  0.00     0.009 C 
ENDBRANCH   7   8
ENDBRANCH   1   7
TORSDOF 2
ENDMDL
