MODEL 1
REMARK minimizedAffinity 8.38885117
REMARK minimizedRMSD -1
REMARK  2 active torsions:
REMARK  status: ('A' for Active; 'I' for Inactive)
REMARK    1  A    between atoms: C1_2  and  C2_3 
REMARK    2  A    between atoms: C2_3  and  C3_4 
ROOT
ATOM      1  C3  UNL d   1       1.651   1.049  -0.492  0.00  0.00    -0.075 A 
ATOM      2  C4  UNL d   1       1.019   1.799  -1.495  0.00  0.00     0.002 A 
ATOM      3  C5  UNL d   1       0.345   1.162  -2.537  0.00  0.00     0.002 A 
ATOM      4  C6  UNL d   1       0.303  -0.229  -2.597  0.00  0.00    -0.004 A 
ATOM      5  C7  UNL d   1       0.942  -0.984  -1.616  0.00  0.00     0.002 A 
ATOM      6  C8  UNL d   1       1.613  -0.350  -0.569  0.00  0.00     0.002 A 
ENDROOT
BRANCH   1   7
ATOM      7  C2  UNL d   1       2.356   1.732   0.655  0.00  0.00     0.056 C 
BRANCH   7   8
ATOM      8  C1  UNL d   1       1.886   3.167   0.911  0.00  0.00     0.007 C 
ATOM      9  C   UNL d   1       0.501   3.242   1.541  0.00  0.00     0.009 C 
ENDBRANCH   7   8
ENDBRANCH   1   7
TORSDOF 2
ENDMDL
