MODEL 1
REMARK minimizedAffinity 5.16461849
REMARK minimizedRMSD -1
REMARK  2 active torsions:
REMARK  status: ('A' for Active; 'I' for Inactive)
REMARK    1  A    between atoms: C1_2  and  C2_3 
REMARK    2  A    between atoms: C2_3  and  C3_4 
ROOT
ATOM      1  C3  UNL d   1       1.013   0.222  -0.010  0.00  0.00    -0.075 A 
ATOM      2  C4  UNL d   1       0.940   0.727   1.296  0.00  0.00     0.002 A 
ATOM      3  C5  UNL d   1       1.738   1.804   1.684  0.00  0.00     0.002 A 
ATOM      4  C6  UNL d   1       2.623   2.382   0.777  0.00  0.00    -0.004 A 
ATOM      5  C7  UNL d   1       2.716   1.877  -0.518  0.00  0.00     0.002 A 
ATOM      6  C8  UNL d   1       1.916   0.803  -0.911  0.00  0.00     0.002 A 
ENDROOT
BRANCH   1   7
ATOM      7  C2  UNL d   1       0.131  -0.924  -0.445  0.00  0.00     0.056 C 
BRANCH   7   8
ATOM      8  C1  UNL d   1      -0.628  -1.598   0.703  0.00  0.00     0.007 C 
ATOM      9  C   UNL d   1      -2.048  -2.002   0.328  0.00  0.00     0.009 C 
ENDBRANCH   7   8
ENDBRANCH   1   7
TORSDOF 2
ENDMDL
