MODEL 1
REMARK minimizedAffinity 8.3375349
REMARK minimizedRMSD -1
REMARK  2 active torsions:
REMARK  status: ('A' for Active; 'I' for Inactive)
REMARK    1  A    between atoms: C1_2  and  C2_3 
REMARK    2  A    between atoms: C2_3  and  C3_4 
ROOT
ATOM      1  C3  UNL d   1       2.246   1.261  -2.089  0.00  0.00    -0.075 A 
ATOM      2  C4  UNL d   1       1.802  -0.048  -1.851  0.00  0.00     0.002 A 
ATOM      3  C5  UNL d   1       0.640  -0.523  -2.459  0.00  0.00     0.002 A 
ATOM      4  C6  UNL d   1      -0.097   0.304  -3.303  0.00  0.00    -0.004 A 
ATOM      5  C7  UNL d   1       0.326   1.612  -3.534  0.00  0.00     0.002 A 
ATOM      6  C8  UNL d   1       1.490   2.089  -2.930  0.00  0.00     0.002 A 
ENDROOT
BRANCH   1   7
ATOM      7  C2  UNL d   1       3.519   1.772  -1.457  0.00  0.00     0.056 C 
BRANCH   7   8
ATOM      8  C1  UNL d   1       4.787   1.439  -2.251  0.00  0.00     0.007 C 
ATOM      9  C   UNL d   1       5.633   2.663  -2.572  0.00  0.00     0.009 C 
ENDBRANCH   7   8
ENDBRANCH   1   7
TORSDOF 2
ENDMDL
