MODEL 1
REMARK minimizedAffinity 4.62007427
REMARK minimizedRMSD -1
REMARK  2 active torsions:
REMARK  status: ('A' for Active; 'I' for Inactive)
REMARK    1  A    between atoms: C1_2  and  C2_3 
REMARK    2  A    between atoms: C2_3  and  C3_4 
ROOT
ATOM      1  C3  UNL d   1       2.240   0.948   0.150  0.00  0.00    -0.075 A 
ATOM      2  C4  UNL d   1       1.539   0.459   1.263  0.00  0.00     0.002 A 
ATOM      3  C5  UNL d   1       1.055   1.334   2.235  0.00  0.00     0.002 A 
ATOM      4  C6  UNL d   1       1.273   2.705   2.114  0.00  0.00    -0.004 A 
ATOM      5  C7  UNL d   1       1.982   3.200   1.022  0.00  0.00     0.002 A 
ATOM      6  C8  UNL d   1       2.464   2.327   0.045  0.00  0.00     0.002 A 
ENDROOT
BRANCH   1   7
ATOM      7  C2  UNL d   1       2.740   0.009  -0.921  0.00  0.00     0.056 C 
BRANCH   7   8
ATOM      8  C1  UNL d   1       1.756  -1.110  -1.280  0.00  0.00     0.007 C 
ATOM      9  C   UNL d   1       0.935  -0.810  -2.527  0.00  0.00     0.009 C 
ENDBRANCH   7   8
ENDBRANCH   1   7
TORSDOF 2
ENDMDL
