MODEL 1
REMARK minimizedAffinity 4.23428297
REMARK minimizedRMSD -1
REMARK  2 active torsions:
REMARK  status: ('A' for Active; 'I' for Inactive)
REMARK    1  A    between atoms: C1_2  and  C2_3 
REMARK    2  A    between atoms: C2_3  and  C3_4 
ROOT
ATOM      1  C3  UNL d   1       2.243   0.983  -1.107  0.00  0.00    -0.075 A 
ATOM      2  C4  UNL d   1       1.575   1.840  -1.994  0.00  0.00     0.002 A 
ATOM      3  C5  UNL d   1       0.554   1.356  -2.813  0.00  0.00     0.002 A 
ATOM      4  C6  UNL d   1       0.195   0.011  -2.763  0.00  0.00    -0.004 A 
ATOM      5  C7  UNL d   1       0.863  -0.853  -1.897  0.00  0.00     0.002 A 
ATOM      6  C8  UNL d   1       1.882  -0.371  -1.074  0.00  0.00     0.002 A 
ENDROOT
BRANCH   1   7
ATOM      7  C2  UNL d   1       3.329   1.507  -0.198  0.00  0.00     0.056 C 
BRANCH   7   8
ATOM      8  C1  UNL d   1       2.852   2.576   0.791  0.00  0.00     0.007 C 
ATOM      9  C   UNL d   1       1.503   2.253   1.420  0.00  0.00     0.009 C 
ENDBRANCH   7   8
ENDBRANCH   1   7
TORSDOF 2
ENDMDL
