MODEL 1
REMARK minimizedAffinity 10.4724445
REMARK minimizedRMSD -1
REMARK  2 active torsions:
REMARK  status: ('A' for Active; 'I' for Inactive)
REMARK    1  A    between atoms: C1_2  and  C2_3 
REMARK    2  A    between atoms: C2_3  and  C3_4 
ROOT
ATOM      1  C3  UNL d   1      -3.458  -5.318  -3.176  0.00  0.00    -0.075 A 
ATOM      2  C4  UNL d   1      -4.673  -5.994  -3.357  0.00  0.00     0.002 A 
ATOM      3  C5  UNL d   1      -5.886  -5.351  -3.107  0.00  0.00     0.002 A 
ATOM      4  C6  UNL d   1      -5.899  -4.031  -2.663  0.00  0.00    -0.004 A 
ATOM      5  C7  UNL d   1      -4.697  -3.355  -2.463  0.00  0.00     0.002 A 
ATOM      6  C8  UNL d   1      -3.482  -3.994  -2.717  0.00  0.00     0.002 A 
ENDROOT
BRANCH   1   7
ATOM      7  C2  UNL d   1      -2.143  -5.998  -3.473  0.00  0.00     0.056 C 
BRANCH   7   8
ATOM      8  C1  UNL d   1      -1.509  -5.576  -4.803  0.00  0.00     0.007 C 
ATOM      9  C   UNL d   1      -0.281  -4.694  -4.629  0.00  0.00     0.009 C 
ENDBRANCH   7   8
ENDBRANCH   1   7
TORSDOF 2
ENDMDL
