MODEL 1
REMARK minimizedAffinity 0.238334149
REMARK minimizedRMSD -1
REMARK  2 active torsions:
REMARK  status: ('A' for Active; 'I' for Inactive)
REMARK    1  A    between atoms: C1_2  and  C2_3 
REMARK    2  A    between atoms: C2_3  and  C3_4 
ROOT
ATOM      1  C3  UNL d   1      -2.704  -5.242  -1.885  0.00  0.00    -0.075 A 
ATOM      2  C4  UNL d   1      -3.069  -4.510  -0.746  0.00  0.00     0.002 A 
ATOM      3  C5  UNL d   1      -2.256  -4.514   0.389  0.00  0.00     0.002 A 
ATOM      4  C6  UNL d   1      -1.077  -5.256   0.402  0.00  0.00    -0.004 A 
ATOM      5  C7  UNL d   1      -0.714  -6.000  -0.718  0.00  0.00     0.002 A 
ATOM      6  C8  UNL d   1      -1.522  -5.994  -1.856  0.00  0.00     0.002 A 
ENDROOT
BRANCH   1   7
ATOM      7  C2  UNL d   1      -3.563  -5.219  -3.126  0.00  0.00     0.056 C 
BRANCH   7   8
ATOM      8  C1  UNL d   1      -5.034  -5.567  -2.873  0.00  0.00     0.007 C 
ATOM      9  C   UNL d   1      -5.998  -4.499  -3.372  0.00  0.00     0.009 C 
ENDBRANCH   7   8
ENDBRANCH   1   7
TORSDOF 2
ENDMDL
