MODEL 1
REMARK minimizedAffinity 1.48435223
REMARK minimizedRMSD -1
REMARK  2 active torsions:
REMARK  status: ('A' for Active; 'I' for Inactive)
REMARK    1  A    between atoms: C1_2  and  C2_3 
REMARK    2  A    between atoms: C2_3  and  C3_4 
ROOT
ATOM      1  C3  UNL d   1       2.082   0.858   0.762  0.00  0.00    -0.075 A 
ATOM      2  C4  UNL d   1       0.681   0.816   0.820  0.00  0.00     0.002 A 
ATOM      3  C5  UNL d   1       0.003   1.324   1.929  0.00  0.00     0.002 A 
ATOM      4  C6  UNL d   1       0.715   1.870   2.995  0.00  0.00    -0.004 A 
ATOM      5  C7  UNL d   1       2.107   1.901   2.955  0.00  0.00     0.002 A 
ATOM      6  C8  UNL d   1       2.788   1.397   1.845  0.00  0.00     0.002 A 
ENDROOT
BRANCH   1   7
ATOM      7  C2  UNL d   1       2.821   0.336  -0.447  0.00  0.00     0.056 C 
BRANCH   7   8
ATOM      8  C1  UNL d   1       1.907  -0.078  -1.606  0.00  0.00     0.007 C 
ATOM      9  C   UNL d   1       1.570   1.072  -2.546  0.00  0.00     0.009 C 
ENDBRANCH   7   8
ENDBRANCH   1   7
TORSDOF 2
ENDMDL
