MODEL 1
REMARK minimizedAffinity 9.28722477
REMARK minimizedRMSD -1
REMARK  0 active torsions:
REMARK  status: ('A' for Active; 'I' for Inactive)
ROOT
ATOM      1  C   UNL d   1      -4.504   2.046   4.531  0.00  0.00     0.172 C 
ATOM      2  N   UNL d   1      -3.841   1.038   3.738  0.00  0.00    -0.070 N 
ATOM      3  C1  UNL d   1      -4.072  -0.310   3.805  0.00  0.00    -0.004 A 
ATOM      4  C2  UNL d   1      -3.243  -0.926   2.893  0.00  0.00    -0.047 A 
ATOM      5  C3  UNL d   1      -2.487   0.086   2.256  0.00  0.00    -0.047 A 
ATOM      6  C4  UNL d   1      -2.878   1.293   2.798  0.00  0.00    -0.004 A 
ENDROOT
TORSDOF 0
ENDMDL
