MODEL 1
REMARK minimizedAffinity 3.50495028
REMARK minimizedRMSD -1
REMARK  0 active torsions:
REMARK  status: ('A' for Active; 'I' for Inactive)
ROOT
ATOM      1  C   UNL d   1      -5.998   2.894   3.819  0.00  0.00     0.172 C 
ATOM      2  N   UNL d   1      -4.956   1.994   4.254  0.00  0.00    -0.070 N 
ATOM      3  C1  UNL d   1      -4.430   0.966   3.518  0.00  0.00    -0.004 A 
ATOM      4  C2  UNL d   1      -3.464   0.350   4.284  0.00  0.00    -0.047 A 
ATOM      5  C3  UNL d   1      -3.408   1.031   5.524  0.00  0.00    -0.047 A 
ATOM      6  C4  UNL d   1      -4.343   2.044   5.478  0.00  0.00    -0.004 A 
ENDROOT
TORSDOF 0
ENDMDL
