MODEL 1
REMARK minimizedAffinity 12.7578154
REMARK minimizedRMSD -1
REMARK  0 active torsions:
REMARK  status: ('A' for Active; 'I' for Inactive)
ROOT
ATOM      1  C   UNL d   1       0.689   2.248  -4.147  0.00  0.00     0.172 C 
ATOM      2  N   UNL d   1      -0.605   2.625  -4.665  0.00  0.00    -0.070 N 
ATOM      3  C1  UNL d   1      -1.119   2.249  -5.877  0.00  0.00    -0.004 A 
ATOM      4  C2  UNL d   1      -2.371   2.813  -5.998  0.00  0.00    -0.047 A 
ATOM      5  C3  UNL d   1      -2.617   3.554  -4.817  0.00  0.00    -0.047 A 
ATOM      6  C4  UNL d   1      -1.508   3.420  -4.010  0.00  0.00    -0.004 A 
ENDROOT
TORSDOF 0
ENDMDL
