MODEL 1
REMARK minimizedAffinity 5.86144447
REMARK minimizedRMSD -1
REMARK  0 active torsions:
REMARK  status: ('A' for Active; 'I' for Inactive)
ROOT
ATOM      1  C   UNL d   1      -4.764  -1.584   2.346  0.00  0.00     0.172 C 
ATOM      2  N   UNL d   1      -3.896  -0.459   2.602  0.00  0.00    -0.070 N 
ATOM      3  C1  UNL d   1      -4.162   0.576   3.458  0.00  0.00    -0.004 A 
ATOM      4  C2  UNL d   1      -3.090   1.441   3.420  0.00  0.00    -0.047 A 
ATOM      5  C3  UNL d   1      -2.147   0.908   2.509  0.00  0.00    -0.047 A 
ATOM      6  C4  UNL d   1      -2.672  -0.269   2.017  0.00  0.00    -0.004 A 
ENDROOT
TORSDOF 0
ENDMDL
