MODEL 1
REMARK minimizedAffinity 7.56982374
REMARK minimizedRMSD -1
REMARK  0 active torsions:
REMARK  status: ('A' for Active; 'I' for Inactive)
ROOT
ATOM      1  C   UNL d   1      -4.107  -2.040   2.607  0.00  0.00     0.172 C 
ATOM      2  N   UNL d   1      -4.387  -3.212   1.812  0.00  0.00    -0.070 N 
ATOM      3  C1  UNL d   1      -5.511  -3.413   1.055  0.00  0.00    -0.004 A 
ATOM      4  C2  UNL d   1      -5.398  -4.647   0.452  0.00  0.00    -0.047 A 
ATOM      5  C3  UNL d   1      -4.164  -5.207   0.860  0.00  0.00    -0.047 A 
ATOM      6  C4  UNL d   1      -3.559  -4.297   1.702  0.00  0.00    -0.004 A 
ENDROOT
TORSDOF 0
ENDMDL
