MODEL 1
REMARK minimizedAffinity 1.3397547
REMARK minimizedRMSD -1
REMARK  0 active torsions:
REMARK  status: ('A' for Active; 'I' for Inactive)
ROOT
ATOM      1  C   UNL d   1      -4.324   4.130  -6.000  0.00  0.00     0.172 C 
ATOM      2  N   UNL d   1      -3.043   3.629  -5.561  0.00  0.00    -0.070 N 
ATOM      3  C1  UNL d   1      -2.848   2.626  -4.649  0.00  0.00    -0.004 A 
ATOM      4  C2  UNL d   1      -1.489   2.446  -4.504  0.00  0.00    -0.047 A 
ATOM      5  C3  UNL d   1      -0.846   3.374  -5.357  0.00  0.00    -0.047 A 
ATOM      6  C4  UNL d   1      -1.831   4.094  -5.999  0.00  0.00    -0.004 A 
ENDROOT
TORSDOF 0
ENDMDL
