MODEL 1
REMARK minimizedAffinity 3.82769275
REMARK minimizedRMSD -1
REMARK  0 active torsions:
REMARK  status: ('A' for Active; 'I' for Inactive)
ROOT
ATOM      1  C   UNL d   1      -3.138   4.015  -5.999  0.00  0.00     0.172 C 
ATOM      2  N   UNL d   1      -2.658   2.811  -5.361  0.00  0.00    -0.070 N 
ATOM      3  C1  UNL d   1      -2.326   1.647  -6.000  0.00  0.00    -0.004 A 
ATOM      4  C2  UNL d   1      -1.916   0.743  -5.044  0.00  0.00    -0.047 A 
ATOM      5  C3  UNL d   1      -2.005   1.386  -3.787  0.00  0.00    -0.047 A 
ATOM      6  C4  UNL d   1      -2.468   2.666  -4.012  0.00  0.00    -0.004 A 
ENDROOT
TORSDOF 0
ENDMDL
