MODEL 1
REMARK minimizedAffinity 4.67821312
REMARK minimizedRMSD -1
REMARK  0 active torsions:
REMARK  status: ('A' for Active; 'I' for Inactive)
ROOT
ATOM      1  C   UNL d   1      -4.411   1.933   3.941  0.00  0.00     0.172 C 
ATOM      2  N   UNL d   1      -3.605   0.910   3.317  0.00  0.00    -0.070 N 
ATOM      3  C1  UNL d   1      -3.895  -0.428   3.290  0.00  0.00    -0.004 A 
ATOM      4  C2  UNL d   1      -2.885  -1.065   2.602  0.00  0.00    -0.047 A 
ATOM      5  C3  UNL d   1      -1.955  -0.076   2.204  0.00  0.00    -0.047 A 
ATOM      6  C4  UNL d   1      -2.426   1.137   2.659  0.00  0.00    -0.004 A 
ENDROOT
TORSDOF 0
ENDMDL
