MODEL 1
REMARK minimizedAffinity 0.76026541
REMARK minimizedRMSD -1
REMARK  0 active torsions:
REMARK  status: ('A' for Active; 'I' for Inactive)
ROOT
ATOM      1  C   UNL d   1      -2.676  -3.305  -5.996  0.00  0.00     0.172 C 
ATOM      2  N   UNL d   1      -3.859  -4.135  -5.994  0.00  0.00    -0.070 N 
ATOM      3  C1  UNL d   1      -5.151  -3.682  -5.985  0.00  0.00    -0.004 A 
ATOM      4  C2  UNL d   1      -5.983  -4.781  -5.986  0.00  0.00    -0.047 A 
ATOM      5  C3  UNL d   1      -5.162  -5.934  -5.994  0.00  0.00    -0.047 A 
ATOM      6  C4  UNL d   1      -3.851  -5.504  -5.999  0.00  0.00    -0.004 A 
ENDROOT
TORSDOF 0
ENDMDL
