MODEL 1
REMARK minimizedAffinity 4.69104338
REMARK minimizedRMSD -1
REMARK  0 active torsions:
REMARK  status: ('A' for Active; 'I' for Inactive)
ROOT
ATOM      1  C   UNL d   1      -5.883  -1.699   1.836  0.00  0.00     0.172 C 
ATOM      2  N   UNL d   1      -4.748  -0.948   2.318  0.00  0.00    -0.070 N 
ATOM      3  C1  UNL d   1      -4.068  -1.188   3.483  0.00  0.00    -0.004 A 
ATOM      4  C2  UNL d   1      -3.056  -0.258   3.581  0.00  0.00    -0.047 A 
ATOM      5  C3  UNL d   1      -3.131   0.571   2.436  0.00  0.00    -0.047 A 
ATOM      6  C4  UNL d   1      -4.187   0.121   1.672  0.00  0.00    -0.004 A 
ENDROOT
TORSDOF 0
ENDMDL
