MODEL 1
REMARK minimizedAffinity 5.78928137
REMARK minimizedRMSD -1
REMARK  0 active torsions:
REMARK  status: ('A' for Active; 'I' for Inactive)
ROOT
ATOM      1  C   UNL d   1       4.826   0.966  -0.176  0.00  0.00     0.172 C 
ATOM      2  N   UNL d   1       3.745   0.074  -0.527  0.00  0.00    -0.070 N 
ATOM      3  C1  UNL d   1       2.726   0.359  -1.396  0.00  0.00    -0.004 A 
ATOM      4  C2  UNL d   1       1.905  -0.746  -1.460  0.00  0.00    -0.047 A 
ATOM      5  C3  UNL d   1       2.450  -1.729  -0.599  0.00  0.00    -0.047 A 
ATOM      6  C4  UNL d   1       3.588  -1.195  -0.035  0.00  0.00    -0.004 A 
ENDROOT
TORSDOF 0
ENDMDL
