MODEL 1
REMARK minimizedAffinity 0.972196758
REMARK minimizedRMSD -1
REMARK  0 active torsions:
REMARK  status: ('A' for Active; 'I' for Inactive)
ROOT
ATOM      1  C   UNL d   1       0.345  -3.320  -2.629  0.00  0.00     0.172 C 
ATOM      2  N   UNL d   1       1.349  -2.588  -1.893  0.00  0.00    -0.070 N 
ATOM      3  C1  UNL d   1       1.867  -1.371  -2.245  0.00  0.00    -0.004 A 
ATOM      4  C2  UNL d   1       2.793  -1.014  -1.289  0.00  0.00    -0.047 A 
ATOM      5  C3  UNL d   1       2.833  -2.053  -0.329  0.00  0.00    -0.047 A 
ATOM      6  C4  UNL d   1       1.929  -3.015  -0.728  0.00  0.00    -0.004 A 
ENDROOT
TORSDOF 0
ENDMDL
