MODEL 1
REMARK minimizedAffinity 3.62440705
REMARK minimizedRMSD -1
REMARK  0 active torsions:
REMARK  status: ('A' for Active; 'I' for Inactive)
ROOT
ATOM      1  C   UNL d   1       3.043  -3.047  -0.070  0.00  0.00     0.172 C 
ATOM      2  N   UNL d   1       2.634  -1.890  -0.831  0.00  0.00    -0.070 N 
ATOM      3  C1  UNL d   1       1.918  -1.915  -1.998  0.00  0.00    -0.004 A 
ATOM      4  C2  UNL d   1       1.732  -0.612  -2.407  0.00  0.00    -0.047 A 
ATOM      5  C3  UNL d   1       2.357   0.225  -1.453  0.00  0.00    -0.047 A 
ATOM      6  C4  UNL d   1       2.908  -0.593  -0.488  0.00  0.00    -0.004 A 
ENDROOT
TORSDOF 0
ENDMDL
