MODEL 1
REMARK minimizedAffinity 0.407589853
REMARK minimizedRMSD -1
REMARK  0 active torsions:
REMARK  status: ('A' for Active; 'I' for Inactive)
ROOT
ATOM      1  C   UNL d   1       2.495  -4.026  -0.637  0.00  0.00     0.172 C 
ATOM      2  N   UNL d   1       2.918  -3.846  -2.006  0.00  0.00    -0.070 N 
ATOM      3  C1  UNL d   1       2.328  -3.016  -2.921  0.00  0.00    -0.004 A 
ATOM      4  C2  UNL d   1       3.025  -3.129  -4.104  0.00  0.00    -0.047 A 
ATOM      5  C3  UNL d   1       4.070  -4.060  -3.893  0.00  0.00    -0.047 A 
ATOM      6  C4  UNL d   1       3.980  -4.488  -2.585  0.00  0.00    -0.004 A 
ENDROOT
TORSDOF 0
ENDMDL
