MODEL 1
REMARK minimizedAffinity 3.470016
REMARK minimizedRMSD -1
REMARK  0 active torsions:
REMARK  status: ('A' for Active; 'I' for Inactive)
ROOT
ATOM      1  C   UNL d   1       1.178  -3.596  -3.879  0.00  0.00     0.172 C 
ATOM      2  N   UNL d   1       1.670  -2.794  -2.783  0.00  0.00    -0.070 N 
ATOM      3  C1  UNL d   1       1.805  -1.432  -2.788  0.00  0.00    -0.004 A 
ATOM      4  C2  UNL d   1       2.302  -1.052  -1.561  0.00  0.00    -0.047 A 
ATOM      5  C3  UNL d   1       2.473  -2.227  -0.791  0.00  0.00    -0.047 A 
ATOM      6  C4  UNL d   1       2.074  -3.291  -1.572  0.00  0.00    -0.004 A 
ENDROOT
TORSDOF 0
ENDMDL
