MODEL 1
REMARK minimizedAffinity 1.63753259
REMARK minimizedRMSD -1
REMARK  0 active torsions:
REMARK  status: ('A' for Active; 'I' for Inactive)
ROOT
ATOM      1  C   UNL d   1       2.835  -3.233  -4.096  0.00  0.00     0.172 C 
ATOM      2  N   UNL d   1       2.435  -2.662  -2.831  0.00  0.00    -0.070 N 
ATOM      3  C1  UNL d   1       2.418  -1.326  -2.529  0.00  0.00    -0.004 A 
ATOM      4  C2  UNL d   1       1.978  -1.193  -1.230  0.00  0.00    -0.047 A 
ATOM      5  C3  UNL d   1       1.723  -2.494  -0.734  0.00  0.00    -0.047 A 
ATOM      6  C4  UNL d   1       2.014  -3.384  -1.746  0.00  0.00    -0.004 A 
ENDROOT
TORSDOF 0
ENDMDL
