MODEL 1
REMARK minimizedAffinity 5.66728544
REMARK minimizedRMSD -1
REMARK  0 active torsions:
REMARK  status: ('A' for Active; 'I' for Inactive)
ROOT
ATOM      1  C   UNL d   1       3.744  -3.277  -0.213  0.00  0.00     0.172 C 
ATOM      2  N   UNL d   1       3.138  -2.497  -1.266  0.00  0.00    -0.070 N 
ATOM      3  C1  UNL d   1       3.019  -2.880  -2.575  0.00  0.00    -0.004 A 
ATOM      4  C2  UNL d   1       2.386  -1.863  -3.257  0.00  0.00    -0.047 A 
ATOM      5  C3  UNL d   1       2.116  -0.833  -2.325  0.00  0.00    -0.047 A 
ATOM      6  C4  UNL d   1       2.593  -1.252  -1.100  0.00  0.00    -0.004 A 
ENDROOT
TORSDOF 0
ENDMDL
