MODEL 1
REMARK minimizedAffinity 6.78159142
REMARK minimizedRMSD -1
REMARK  0 active torsions:
REMARK  status: ('A' for Active; 'I' for Inactive)
ROOT
ATOM      1  C   UNL d   1       2.683  -2.955  -0.036  0.00  0.00     0.172 C 
ATOM      2  N   UNL d   1       2.268  -2.361  -1.285  0.00  0.00    -0.070 N 
ATOM      3  C1  UNL d   1       2.055  -1.026  -1.503  0.00  0.00    -0.004 A 
ATOM      4  C2  UNL d   1       1.673  -0.868  -2.817  0.00  0.00    -0.047 A 
ATOM      5  C3  UNL d   1       1.656  -2.153  -3.411  0.00  0.00    -0.047 A 
ATOM      6  C4  UNL d   1       2.028  -3.058  -2.440  0.00  0.00    -0.004 A 
ENDROOT
TORSDOF 0
ENDMDL
