MODEL 1
REMARK minimizedAffinity 3.49791336
REMARK minimizedRMSD -1
REMARK  0 active torsions:
REMARK  status: ('A' for Active; 'I' for Inactive)
ROOT
ATOM      1  C   UNL d   1       2.151   0.112  -0.994  0.00  0.00     0.172 C 
ATOM      2  N   UNL d   1       2.015  -1.243  -1.473  0.00  0.00    -0.070 N 
ATOM      3  C1  UNL d   1       2.226  -2.376  -0.733  0.00  0.00    -0.004 A 
ATOM      4  C2  UNL d   1       1.994  -3.462  -1.548  0.00  0.00    -0.047 A 
ATOM      5  C3  UNL d   1       1.633  -2.965  -2.823  0.00  0.00    -0.047 A 
ATOM      6  C4  UNL d   1       1.654  -1.588  -2.748  0.00  0.00    -0.004 A 
ENDROOT
TORSDOF 0
ENDMDL
