MODEL 1
REMARK minimizedAffinity 6.09708309
REMARK minimizedRMSD -1
REMARK  0 active torsions:
REMARK  status: ('A' for Active; 'I' for Inactive)
ROOT
ATOM      1  C   UNL d   1      -1.858  -2.423  -3.381  0.00  0.00     0.172 C 
ATOM      2  N   UNL d   1      -1.834  -3.675  -2.661  0.00  0.00    -0.070 N 
ATOM      3  C1  UNL d   1      -2.383  -4.853  -3.090  0.00  0.00    -0.004 A 
ATOM      4  C2  UNL d   1      -2.147  -5.806  -2.123  0.00  0.00    -0.047 A 
ATOM      5  C3  UNL d   1      -1.432  -5.178  -1.076  0.00  0.00    -0.047 A 
ATOM      6  C4  UNL d   1      -1.251  -3.859  -1.435  0.00  0.00    -0.004 A 
ENDROOT
TORSDOF 0
ENDMDL
