MODEL 1
REMARK minimizedAffinity -0.687227011
REMARK minimizedRMSD -1
REMARK  0 active torsions:
REMARK  status: ('A' for Active; 'I' for Inactive)
ROOT
ATOM      1  C   UNL d   1       1.985  -1.571  -1.774  0.00  0.00     0.172 C 
ATOM      2  N   UNL d   1       1.227  -0.721  -0.885  0.00  0.00    -0.070 N 
ATOM      3  C1  UNL d   1       1.187  -0.827   0.479  0.00  0.00    -0.004 A 
ATOM      4  C2  UNL d   1       0.356   0.164   0.955  0.00  0.00    -0.047 A 
ATOM      5  C3  UNL d   1      -0.121   0.890  -0.163  0.00  0.00    -0.047 A 
ATOM      6  C4  UNL d   1       0.434   0.320  -1.289  0.00  0.00    -0.004 A 
ENDROOT
TORSDOF 0
ENDMDL
