MODEL 1
REMARK minimizedAffinity -4.108706
REMARK minimizedRMSD -1
REMARK  0 active torsions:
REMARK  status: ('A' for Active; 'I' for Inactive)
ROOT
ATOM      1  C   UNL d   1      -0.286  -1.899  -0.377  0.00  0.00     0.172 C 
ATOM      2  N   UNL d   1       0.921  -1.177  -0.704  0.00  0.00    -0.070 N 
ATOM      3  C1  UNL d   1       1.378  -0.055  -0.066  0.00  0.00    -0.004 A 
ATOM      4  C2  UNL d   1       2.554   0.327  -0.674  0.00  0.00    -0.047 A 
ATOM      5  C3  UNL d   1       2.813  -0.598  -1.714  0.00  0.00    -0.047 A 
ATOM      6  C4  UNL d   1       1.786  -1.518  -1.710  0.00  0.00    -0.004 A 
ENDROOT
TORSDOF 0
ENDMDL
