MODEL 1
REMARK minimizedAffinity -2.47386312
REMARK minimizedRMSD -1
REMARK  0 active torsions:
REMARK  status: ('A' for Active; 'I' for Inactive)
ROOT
ATOM      1  C   UNL d   1       2.296  -0.391  -1.151  0.00  0.00     0.172 C 
ATOM      2  N   UNL d   1       1.052   0.064  -0.574  0.00  0.00    -0.070 N 
ATOM      3  C1  UNL d   1       0.479  -0.420   0.571  0.00  0.00    -0.004 A 
ATOM      4  C2  UNL d   1      -0.693   0.272   0.782  0.00  0.00    -0.047 A 
ATOM      5  C3  UNL d   1      -0.831   1.204  -0.274  0.00  0.00    -0.047 A 
ATOM      6  C4  UNL d   1       0.264   1.054  -1.099  0.00  0.00    -0.004 A 
ENDROOT
TORSDOF 0
ENDMDL
