MODEL 1
REMARK minimizedAffinity -3.35074663
REMARK minimizedRMSD -1
REMARK  0 active torsions:
REMARK  status: ('A' for Active; 'I' for Inactive)
ROOT
ATOM      1  C   UNL d   1       1.546  -1.721  -1.306  0.00  0.00     0.172 C 
ATOM      2  N   UNL d   1       0.816  -0.788  -0.480  0.00  0.00    -0.070 N 
ATOM      3  C1  UNL d   1       1.313   0.380   0.036  0.00  0.00    -0.004 A 
ATOM      4  C2  UNL d   1       0.309   0.980   0.764  0.00  0.00    -0.047 A 
ATOM      5  C3  UNL d   1      -0.831   0.144   0.684  0.00  0.00    -0.047 A 
ATOM      6  C4  UNL d   1      -0.488  -0.943  -0.092  0.00  0.00    -0.004 A 
ENDROOT
TORSDOF 0
ENDMDL
