MODEL 1
REMARK minimizedAffinity -3.90213084
REMARK minimizedRMSD -1
REMARK  0 active torsions:
REMARK  status: ('A' for Active; 'I' for Inactive)
ROOT
ATOM      1  C   UNL d   1      -1.004   0.379  -0.119  0.00  0.00     0.172 C 
ATOM      2  N   UNL d   1       0.296  -0.182  -0.403  0.00  0.00    -0.070 N 
ATOM      3  C1  UNL d   1       1.485   0.494  -0.355  0.00  0.00    -0.004 A 
ATOM      4  C2  UNL d   1       2.488  -0.390  -0.691  0.00  0.00    -0.047 A 
ATOM      5  C3  UNL d   1       1.879  -1.641  -0.951  0.00  0.00    -0.047 A 
ATOM      6  C4  UNL d   1       0.522  -1.484  -0.766  0.00  0.00    -0.004 A 
ENDROOT
TORSDOF 0
ENDMDL
