MODEL 1
REMARK minimizedAffinity -3.96078944
REMARK minimizedRMSD -1
REMARK  0 active torsions:
REMARK  status: ('A' for Active; 'I' for Inactive)
ROOT
ATOM      1  C   UNL d   1       1.100   1.463  -1.089  0.00  0.00     0.172 C 
ATOM      2  N   UNL d   1       1.149   0.022  -1.011  0.00  0.00    -0.070 N 
ATOM      3  C1  UNL d   1       2.090  -0.778  -1.601  0.00  0.00    -0.004 A 
ATOM      4  C2  UNL d   1       1.788  -2.086  -1.289  0.00  0.00    -0.047 A 
ATOM      5  C3  UNL d   1       0.625  -2.072  -0.484  0.00  0.00    -0.047 A 
ATOM      6  C4  UNL d   1       0.250  -0.754  -0.327  0.00  0.00    -0.004 A 
ENDROOT
TORSDOF 0
ENDMDL
