MODEL 1
REMARK minimizedAffinity -3.4214344
REMARK minimizedRMSD -1
REMARK  0 active torsions:
REMARK  status: ('A' for Active; 'I' for Inactive)
ROOT
ATOM      1  C   UNL d   1      -0.957   0.126   0.601  0.00  0.00     0.172 C 
ATOM      2  N   UNL d   1       0.204  -0.329  -0.127  0.00  0.00    -0.070 N 
ATOM      3  C1  UNL d   1       1.197   0.471  -0.628  0.00  0.00    -0.004 A 
ATOM      4  C2  UNL d   1       2.118  -0.341  -1.252  0.00  0.00    -0.047 A 
ATOM      5  C3  UNL d   1       1.663  -1.675  -1.124  0.00  0.00    -0.047 A 
ATOM      6  C4  UNL d   1       0.476  -1.638  -0.423  0.00  0.00    -0.004 A 
ENDROOT
TORSDOF 0
ENDMDL
