MODEL 1
REMARK minimizedAffinity -3.51442909
REMARK minimizedRMSD -1
REMARK  0 active torsions:
REMARK  status: ('A' for Active; 'I' for Inactive)
ROOT
ATOM      1  C   UNL d   1       2.959  -0.664  -1.006  0.00  0.00     0.172 C 
ATOM      2  N   UNL d   1       1.581  -0.430  -0.643  0.00  0.00    -0.070 N 
ATOM      3  C1  UNL d   1       0.978   0.795  -0.543  0.00  0.00    -0.004 A 
ATOM      4  C2  UNL d   1      -0.335   0.591  -0.176  0.00  0.00    -0.047 A 
ATOM      5  C3  UNL d   1      -0.527  -0.805  -0.050  0.00  0.00    -0.047 A 
ATOM      6  C4  UNL d   1       0.675  -1.414  -0.344  0.00  0.00    -0.004 A 
ENDROOT
TORSDOF 0
ENDMDL
