MODEL 1
REMARK minimizedAffinity -3.24345136
REMARK minimizedRMSD -1
REMARK  0 active torsions:
REMARK  status: ('A' for Active; 'I' for Inactive)
ROOT
ATOM      1  C   UNL d   1      -1.331   0.190   0.443  0.00  0.00     0.172 C 
ATOM      2  N   UNL d   1      -2.163  -0.025   1.603  0.00  0.00    -0.070 N 
ATOM      3  C1  UNL d   1      -1.859   0.352   2.884  0.00  0.00    -0.004 A 
ATOM      4  C2  UNL d   1      -2.905  -0.030   3.696  0.00  0.00    -0.047 A 
ATOM      5  C3  UNL d   1      -3.871  -0.658   2.875  0.00  0.00    -0.047 A 
ATOM      6  C4  UNL d   1      -3.387  -0.641   1.584  0.00  0.00    -0.004 A 
ENDROOT
TORSDOF 0
ENDMDL
