MODEL 1
REMARK minimizedAffinity -3.55080318
REMARK minimizedRMSD -1
REMARK  0 active torsions:
REMARK  status: ('A' for Active; 'I' for Inactive)
ROOT
ATOM      1  C   UNL d   1      -0.006  -1.750  -0.186  0.00  0.00     0.172 C 
ATOM      2  N   UNL d   1       0.733  -0.553  -0.515  0.00  0.00    -0.070 N 
ATOM      3  C1  UNL d   1       0.227   0.719  -0.526  0.00  0.00    -0.004 A 
ATOM      4  C2  UNL d   1       1.245   1.575  -0.888  0.00  0.00    -0.047 A 
ATOM      5  C3  UNL d   1       2.402   0.789  -1.103  0.00  0.00    -0.047 A 
ATOM      6  C4  UNL d   1       2.057  -0.525  -0.865  0.00  0.00    -0.004 A 
ENDROOT
TORSDOF 0
ENDMDL
