MODEL 1
REMARK minimizedAffinity -3.17129827
REMARK minimizedRMSD -1
REMARK  0 active torsions:
REMARK  status: ('A' for Active; 'I' for Inactive)
ROOT
ATOM      1  C   UNL d   1      -0.229   0.413   0.167  0.00  0.00     0.172 C 
ATOM      2  N   UNL d   1       0.993  -0.096  -0.411  0.00  0.00    -0.070 N 
ATOM      3  C1  UNL d   1       1.343  -1.416  -0.502  0.00  0.00    -0.004 A 
ATOM      4  C2  UNL d   1       2.576  -1.485  -1.114  0.00  0.00    -0.047 A 
ATOM      5  C3  UNL d   1       2.982  -0.159  -1.399  0.00  0.00    -0.047 A 
ATOM      6  C4  UNL d   1       1.983   0.681  -0.953  0.00  0.00    -0.004 A 
ENDROOT
TORSDOF 0
ENDMDL
