MODEL 1
REMARK minimizedAffinity -3.46345568
REMARK minimizedRMSD -1
REMARK  0 active torsions:
REMARK  status: ('A' for Active; 'I' for Inactive)
ROOT
ATOM      1  C   UNL d   1      -1.657  -0.218  -0.406  0.00  0.00     0.172 C 
ATOM      2  N   UNL d   1      -0.255  -0.464  -0.652  0.00  0.00    -0.070 N 
ATOM      3  C1  UNL d   1       0.753   0.453  -0.517  0.00  0.00    -0.004 A 
ATOM      4  C2  UNL d   1       1.938  -0.171  -0.842  0.00  0.00    -0.047 A 
ATOM      5  C3  UNL d   1       1.631  -1.509  -1.185  0.00  0.00    -0.047 A 
ATOM      6  C4  UNL d   1       0.267  -1.664  -1.059  0.00  0.00    -0.004 A 
ENDROOT
TORSDOF 0
ENDMDL
