MODEL 1
REMARK minimizedAffinity -3.84341717
REMARK minimizedRMSD -1
REMARK  0 active torsions:
REMARK  status: ('A' for Active; 'I' for Inactive)
ROOT
ATOM      1  C   UNL d   1      -1.088   0.277  -0.228  0.00  0.00     0.172 C 
ATOM      2  N   UNL d   1       0.165  -0.391  -0.491  0.00  0.00    -0.070 N 
ATOM      3  C1  UNL d   1       1.397   0.205  -0.516  0.00  0.00    -0.004 A 
ATOM      4  C2  UNL d   1       2.331  -0.768  -0.800  0.00  0.00    -0.047 A 
ATOM      5  C3  UNL d   1       1.635  -1.991  -0.951  0.00  0.00    -0.047 A 
ATOM      6  C4  UNL d   1       0.296  -1.729  -0.754  0.00  0.00    -0.004 A 
ENDROOT
TORSDOF 0
ENDMDL
