MODEL 1
REMARK minimizedAffinity -3.6620245
REMARK minimizedRMSD -1
REMARK  0 active torsions:
REMARK  status: ('A' for Active; 'I' for Inactive)
ROOT
ATOM      1  C   UNL d   1      -1.219  -0.047  -0.167  0.00  0.00     0.172 C 
ATOM      2  N   UNL d   1       0.083  -0.551  -0.536  0.00  0.00    -0.070 N 
ATOM      3  C1  UNL d   1       1.144   0.207  -0.951  0.00  0.00    -0.004 A 
ATOM      4  C2  UNL d   1       2.197  -0.644  -1.206  0.00  0.00    -0.047 A 
ATOM      5  C3  UNL d   1       1.753  -1.960  -0.936  0.00  0.00    -0.047 A 
ATOM      6  C4  UNL d   1       0.440  -1.873  -0.523  0.00  0.00    -0.004 A 
ENDROOT
TORSDOF 0
ENDMDL
