MODEL 1
REMARK minimizedAffinity -1.75190771
REMARK minimizedRMSD -1
REMARK  0 active torsions:
REMARK  status: ('A' for Active; 'I' for Inactive)
ROOT
ATOM      1  C   UNL d   1       0.858  -0.964  -0.995  0.00  0.00     0.078 C 
ATOM      2  C1  UNL d   1       0.140  -0.351   0.169  0.00  0.00    -0.077 A 
ATOM      3  C2  UNL d   1      -0.223   1.001   0.163  0.00  0.00    -0.001 A 
ATOM      4  C3  UNL d   1      -0.883   1.561   1.258  0.00  0.00     0.003 A 
ATOM      5  C4  UNL d   1      -1.185   0.776   2.368  0.00  0.00    -0.005 A 
ATOM      6  C5  UNL d   1      -0.826  -0.571   2.385  0.00  0.00     0.003 A 
ATOM      7  C6  UNL d   1      -0.166  -1.132   1.291  0.00  0.00    -0.001 A 
ENDROOT
TORSDOF 0
ENDMDL
