MODEL 1
REMARK minimizedAffinity -5.90113497
REMARK minimizedRMSD -1
REMARK  0 active torsions:
REMARK  status: ('A' for Active; 'I' for Inactive)
ROOT
ATOM      1  C   UNL d   1      -1.084   3.178  -1.109  0.00  0.00     0.078 C 
ATOM      2  C1  UNL d   1      -0.839   2.078  -0.120  0.00  0.00    -0.077 A 
ATOM      3  C2  UNL d   1      -1.362   2.144   1.177  0.00  0.00    -0.001 A 
ATOM      4  C3  UNL d   1      -1.117   1.117   2.090  0.00  0.00     0.003 A 
ATOM      5  C4  UNL d   1      -0.348   0.017   1.716  0.00  0.00    -0.005 A 
ATOM      6  C5  UNL d   1       0.178  -0.057   0.428  0.00  0.00     0.003 A 
ATOM      7  C6  UNL d   1      -0.065   0.969  -0.486  0.00  0.00    -0.001 A 
ENDROOT
TORSDOF 0
ENDMDL
