MODEL 1
REMARK minimizedAffinity -5.34307671
REMARK minimizedRMSD -1
REMARK  0 active torsions:
REMARK  status: ('A' for Active; 'I' for Inactive)
ROOT
ATOM      1  C   UNL d   1      -2.425   3.420   2.338  0.00  0.00     0.078 C 
ATOM      2  C1  UNL d   1      -1.823   2.549   1.276  0.00  0.00    -0.077 A 
ATOM      3  C2  UNL d   1      -1.970   1.157   1.316  0.00  0.00    -0.001 A 
ATOM      4  C3  UNL d   1      -1.396   0.359   0.326  0.00  0.00     0.003 A 
ATOM      5  C4  UNL d   1      -0.670   0.942  -0.711  0.00  0.00    -0.005 A 
ATOM      6  C5  UNL d   1      -0.517   2.326  -0.758  0.00  0.00     0.003 A 
ATOM      7  C6  UNL d   1      -1.090   3.127   0.232  0.00  0.00    -0.001 A 
ENDROOT
TORSDOF 0
ENDMDL
