MODEL 1
REMARK minimizedAffinity -2.48317289
REMARK minimizedRMSD -1
REMARK  0 active torsions:
REMARK  status: ('A' for Active; 'I' for Inactive)
ROOT
ATOM      1  C   UNL d   1      -1.139   2.580   0.136  0.00  0.00     0.078 C 
ATOM      2  C1  UNL d   1      -0.379   1.307  -0.090  0.00  0.00    -0.077 A 
ATOM      3  C2  UNL d   1      -0.258   0.349   0.924  0.00  0.00    -0.001 A 
ATOM      4  C3  UNL d   1       0.460  -0.827   0.702  0.00  0.00     0.003 A 
ATOM      5  C4  UNL d   1       1.063  -1.056  -0.533  0.00  0.00    -0.005 A 
ATOM      6  C5  UNL d   1       0.949  -0.109  -1.548  0.00  0.00     0.003 A 
ATOM      7  C6  UNL d   1       0.232   1.068  -1.328  0.00  0.00    -0.001 A 
ENDROOT
TORSDOF 0
ENDMDL
