MODEL 1
REMARK minimizedAffinity -5.17780209
REMARK minimizedRMSD -1
REMARK  0 active torsions:
REMARK  status: ('A' for Active; 'I' for Inactive)
ROOT
ATOM      1  C   UNL d   1       0.890  -0.324  -0.249  0.00  0.00     0.078 C 
ATOM      2  C1  UNL d   1      -0.026   0.860  -0.161  0.00  0.00    -0.077 A 
ATOM      3  C2  UNL d   1      -1.171   0.828   0.643  0.00  0.00    -0.001 A 
ATOM      4  C3  UNL d   1      -2.020   1.934   0.708  0.00  0.00     0.003 A 
ATOM      5  C4  UNL d   1      -1.733   3.081  -0.030  0.00  0.00    -0.005 A 
ATOM      6  C5  UNL d   1      -0.596   3.121  -0.835  0.00  0.00     0.003 A 
ATOM      7  C6  UNL d   1       0.254   2.016  -0.901  0.00  0.00    -0.001 A 
ENDROOT
TORSDOF 0
ENDMDL
