MODEL 1
REMARK minimizedAffinity -3.42598128
REMARK minimizedRMSD -1
REMARK  0 active torsions:
REMARK  status: ('A' for Active; 'I' for Inactive)
ROOT
ATOM      1  C   UNL d   1      -2.201   3.742   2.352  0.00  0.00     0.078 C 
ATOM      2  C1  UNL d   1      -1.453   2.851   1.405  0.00  0.00    -0.077 A 
ATOM      3  C2  UNL d   1      -0.700   3.387   0.354  0.00  0.00    -0.001 A 
ATOM      4  C3  UNL d   1      -0.016   2.546  -0.525  0.00  0.00     0.003 A 
ATOM      5  C4  UNL d   1      -0.079   1.163  -0.362  0.00  0.00    -0.005 A 
ATOM      6  C5  UNL d   1      -0.828   0.621   0.680  0.00  0.00     0.003 A 
ATOM      7  C6  UNL d   1      -1.513   1.461   1.560  0.00  0.00    -0.001 A 
ENDROOT
TORSDOF 0
ENDMDL
