MODEL 1
REMARK minimizedAffinity -5.31524086
REMARK minimizedRMSD -1
REMARK  0 active torsions:
REMARK  status: ('A' for Active; 'I' for Inactive)
ROOT
ATOM      1  C   UNL d   1       0.331   4.121  -0.910  0.00  0.00     0.078 C 
ATOM      2  C1  UNL d   1      -0.647   3.292  -0.132  0.00  0.00    -0.077 A 
ATOM      3  C2  UNL d   1      -1.639   3.894   0.652  0.00  0.00    -0.001 A 
ATOM      4  C3  UNL d   1      -2.537   3.111   1.378  0.00  0.00     0.003 A 
ATOM      5  C4  UNL d   1      -2.452   1.721   1.329  0.00  0.00    -0.005 A 
ATOM      6  C5  UNL d   1      -1.466   1.113   0.553  0.00  0.00     0.003 A 
ATOM      7  C6  UNL d   1      -0.568   1.895  -0.174  0.00  0.00    -0.001 A 
ENDROOT
TORSDOF 0
ENDMDL
