MODEL 1
REMARK minimizedAffinity -5.86071634
REMARK minimizedRMSD -1
REMARK  0 active torsions:
REMARK  status: ('A' for Active; 'I' for Inactive)
ROOT
ATOM      1  C   UNL d   1       0.018  -0.121   0.001  0.00  0.00     0.078 C 
ATOM      2  C1  UNL d   1      -0.543   1.264   0.130  0.00  0.00    -0.077 A 
ATOM      3  C2  UNL d   1      -0.118   2.296  -0.715  0.00  0.00    -0.001 A 
ATOM      4  C3  UNL d   1      -0.642   3.583  -0.577  0.00  0.00     0.003 A 
ATOM      5  C4  UNL d   1      -1.592   3.849   0.407  0.00  0.00    -0.005 A 
ATOM      6  C5  UNL d   1      -2.019   2.829   1.254  0.00  0.00     0.003 A 
ATOM      7  C6  UNL d   1      -1.497   1.542   1.117  0.00  0.00    -0.001 A 
ENDROOT
TORSDOF 0
ENDMDL
