MODEL 1
REMARK minimizedAffinity -4.40413284
REMARK minimizedRMSD -1
REMARK  0 active torsions:
REMARK  status: ('A' for Active; 'I' for Inactive)
ROOT
ATOM      1  C   UNL d   1      -0.532   3.868  -0.087  0.00  0.00     0.078 C 
ATOM      2  C1  UNL d   1      -0.724   2.443   0.338  0.00  0.00    -0.077 A 
ATOM      3  C2  UNL d   1      -1.560   2.118   1.413  0.00  0.00    -0.001 A 
ATOM      4  C3  UNL d   1      -1.722   0.788   1.805  0.00  0.00     0.003 A 
ATOM      5  C4  UNL d   1      -1.049  -0.227   1.128  0.00  0.00    -0.005 A 
ATOM      6  C5  UNL d   1      -0.213   0.087   0.058  0.00  0.00     0.003 A 
ATOM      7  C6  UNL d   1      -0.051   1.416  -0.335  0.00  0.00    -0.001 A 
ENDROOT
TORSDOF 0
ENDMDL
