MODEL 1
REMARK minimizedAffinity -5.6109128
REMARK minimizedRMSD -1
REMARK  0 active torsions:
REMARK  status: ('A' for Active; 'I' for Inactive)
ROOT
ATOM      1  C   UNL d   1       0.921  -0.738  -0.788  0.00  0.00     0.078 C 
ATOM      2  C1  UNL d   1      -0.012   0.304  -0.249  0.00  0.00    -0.077 A 
ATOM      3  C2  UNL d   1      -0.275   1.477  -0.966  0.00  0.00    -0.001 A 
ATOM      4  C3  UNL d   1      -1.139   2.444  -0.447  0.00  0.00     0.003 A 
ATOM      5  C4  UNL d   1      -1.744   2.247   0.792  0.00  0.00    -0.005 A 
ATOM      6  C5  UNL d   1      -1.487   1.084   1.515  0.00  0.00     0.003 A 
ATOM      7  C6  UNL d   1      -0.624   0.117   0.997  0.00  0.00    -0.001 A 
ENDROOT
TORSDOF 0
ENDMDL
