MODEL 1
REMARK minimizedAffinity -5.12934923
REMARK minimizedRMSD -1
REMARK  0 active torsions:
REMARK  status: ('A' for Active; 'I' for Inactive)
ROOT
ATOM      1  C   UNL d   1       0.111  -0.284  -0.114  0.00  0.00     0.078 C 
ATOM      2  C1  UNL d   1      -0.519   1.058   0.114  0.00  0.00    -0.077 A 
ATOM      3  C2  UNL d   1      -0.226   2.143  -0.721  0.00  0.00    -0.001 A 
ATOM      4  C3  UNL d   1      -0.812   3.389  -0.491  0.00  0.00     0.003 A 
ATOM      5  C4  UNL d   1      -1.694   3.561   0.574  0.00  0.00    -0.005 A 
ATOM      6  C5  UNL d   1      -1.989   2.488   1.412  0.00  0.00     0.003 A 
ATOM      7  C6  UNL d   1      -1.404   1.241   1.184  0.00  0.00    -0.001 A 
ENDROOT
TORSDOF 0
ENDMDL
