MODEL 1
REMARK minimizedAffinity -3.91554284
REMARK minimizedRMSD -1
REMARK  0 active torsions:
REMARK  status: ('A' for Active; 'I' for Inactive)
ROOT
ATOM      1  C   UNL d   1       0.035   3.228  -0.460  0.00  0.00     0.078 C 
ATOM      2  C1  UNL d   1       0.001   1.891   0.219  0.00  0.00    -0.077 A 
ATOM      3  C2  UNL d   1       0.677   0.791  -0.321  0.00  0.00    -0.001 A 
ATOM      4  C3  UNL d   1       0.629  -0.450   0.317  0.00  0.00     0.003 A 
ATOM      5  C4  UNL d   1      -0.095  -0.602   1.498  0.00  0.00    -0.005 A 
ATOM      6  C5  UNL d   1      -0.773   0.487   2.041  0.00  0.00     0.003 A 
ATOM      7  C6  UNL d   1      -0.726   1.728   1.405  0.00  0.00    -0.001 A 
ENDROOT
TORSDOF 0
ENDMDL
