MODEL 1
REMARK minimizedAffinity 0.576917887
REMARK minimizedRMSD -1
REMARK  0 active torsions:
REMARK  status: ('A' for Active; 'I' for Inactive)
ROOT
ATOM      1  C   UNL d   1       3.122   2.716  -0.294  0.00  0.00     0.124 A 
ATOM      2  C1  UNL d   1       2.425   2.820   0.902  0.00  0.00     0.062 A 
ATOM      3  C2  UNL d   1       1.520   1.830   1.272  0.00  0.00     0.162 A 
ATOM      4  C3  UNL d   1       1.307   0.726   0.447  0.00  0.00    -0.034 A 
ATOM      5  C4  UNL d   1       2.011   0.629  -0.755  0.00  0.00     0.162 A 
ATOM      6  C5  UNL d   1       2.915   1.621  -1.121  0.00  0.00     0.062 A 
ATOM      7  F   UNL d   1       3.588   1.519  -2.276  0.00  0.00    -0.097 F 
ATOM      8  F1  UNL d   1       1.831  -0.419  -1.572  0.00  0.00    -0.096 F 
ATOM      9  I   UNL d   1      -0.046  -0.756   0.997  0.00  0.00    -0.060 I 
ATOM     10  F2  UNL d   1       0.860   1.956   2.433  0.00  0.00    -0.096 F 
ATOM     11  F3  UNL d   1       2.623   3.878   1.702  0.00  0.00    -0.097 F 
ATOM     12  F4  UNL d   1       3.992   3.671  -0.649  0.00  0.00    -0.092 F 
ENDROOT
TORSDOF 0
ENDMDL
