MODEL 1
REMARK minimizedAffinity 0.0684594065
REMARK minimizedRMSD -1
REMARK  0 active torsions:
REMARK  status: ('A' for Active; 'I' for Inactive)
ROOT
ATOM      1  C   UNL d   1      -2.570  -1.177  -0.229  0.00  0.00     0.124 A 
ATOM      2  C1  UNL d   1      -1.811  -1.189   0.932  0.00  0.00     0.062 A 
ATOM      3  C2  UNL d   1      -0.502  -0.718   0.918  0.00  0.00     0.162 A 
ATOM      4  C3  UNL d   1       0.057  -0.229  -0.263  0.00  0.00    -0.034 A 
ATOM      5  C4  UNL d   1      -0.712  -0.220  -1.428  0.00  0.00     0.162 A 
ATOM      6  C5  UNL d   1      -2.021  -0.692  -1.408  0.00  0.00     0.062 A 
ATOM      7  F   UNL d   1      -2.753  -0.680  -2.531  0.00  0.00    -0.097 F 
ATOM      8  F1  UNL d   1      -0.206   0.243  -2.580  0.00  0.00    -0.096 F 
ATOM      9  I   UNL d   1       2.015   0.477  -0.289  0.00  0.00    -0.060 I 
ATOM     10  F2  UNL d   1       0.209  -0.742   2.055  0.00  0.00    -0.096 F 
ATOM     11  F3  UNL d   1      -2.340  -1.657   2.072  0.00  0.00    -0.097 F 
ATOM     12  F4  UNL d   1      -3.830  -1.632  -0.213  0.00  0.00    -0.092 F 
ENDROOT
TORSDOF 0
ENDMDL
