MODEL 1
REMARK minimizedAffinity 3.25946665
REMARK minimizedRMSD -1
REMARK  0 active torsions:
REMARK  status: ('A' for Active; 'I' for Inactive)
ROOT
ATOM      1  C   UNL d   1      -1.754  -0.324  -0.459  0.00  0.00     0.124 A 
ATOM      2  C1  UNL d   1      -0.834  -0.042   0.541  0.00  0.00     0.062 A 
ATOM      3  C2  UNL d   1       0.508   0.145   0.225  0.00  0.00     0.162 A 
ATOM      4  C3  UNL d   1       0.939   0.053  -1.099  0.00  0.00    -0.034 A 
ATOM      5  C4  UNL d   1       0.008  -0.232  -2.099  0.00  0.00     0.162 A 
ATOM      6  C5  UNL d   1      -1.332  -0.418  -1.778  0.00  0.00     0.062 A 
ATOM      7  F   UNL d   1      -2.220  -0.690  -2.746  0.00  0.00    -0.097 F 
ATOM      8  F1  UNL d   1       0.388  -0.328  -3.382  0.00  0.00    -0.096 F 
ATOM      9  I   UNL d   1       2.946   0.332  -1.575  0.00  0.00    -0.060 I 
ATOM     10  F2  UNL d   1       1.375   0.416   1.212  0.00  0.00    -0.096 F 
ATOM     11  F3  UNL d   1      -1.239   0.049   1.816  0.00  0.00    -0.097 F 
ATOM     12  F4  UNL d   1      -3.045  -0.504  -0.152  0.00  0.00    -0.092 F 
ENDROOT
TORSDOF 0
ENDMDL
