MODEL 1
REMARK minimizedAffinity -0.713128686
REMARK minimizedRMSD -1
REMARK  0 active torsions:
REMARK  status: ('A' for Active; 'I' for Inactive)
ROOT
ATOM      1  C   UNL d   1      -2.395  -1.405   0.817  0.00  0.00     0.124 A 
ATOM      2  C1  UNL d   1      -1.189  -1.637   1.465  0.00  0.00     0.062 A 
ATOM      3  C2  UNL d   1       0.008  -1.235   0.880  0.00  0.00     0.162 A 
ATOM      4  C3  UNL d   1       0.006  -0.597  -0.360  0.00  0.00    -0.034 A 
ATOM      5  C4  UNL d   1      -1.210  -0.368  -1.006  0.00  0.00     0.162 A 
ATOM      6  C5  UNL d   1      -2.404  -0.771  -0.417  0.00  0.00     0.062 A 
ATOM      7  F   UNL d   1      -3.568  -0.546  -1.044  0.00  0.00    -0.097 F 
ATOM      8  F1  UNL d   1      -1.248   0.244  -2.199  0.00  0.00    -0.096 F 
ATOM      9  I   UNL d   1       1.795   0.005  -1.238  0.00  0.00    -0.060 I 
ATOM     10  F2  UNL d   1       1.158  -1.472   1.528  0.00  0.00    -0.096 F 
ATOM     11  F3  UNL d   1      -1.177  -2.250   2.657  0.00  0.00    -0.097 F 
ATOM     12  F4  UNL d   1      -3.545  -1.793   1.382  0.00  0.00    -0.092 F 
ENDROOT
TORSDOF 0
ENDMDL
