MODEL 1
REMARK minimizedAffinity -0.945929945
REMARK minimizedRMSD -1
REMARK  0 active torsions:
REMARK  status: ('A' for Active; 'I' for Inactive)
ROOT
ATOM      1  C   UNL d   1       0.256  -0.951   0.994  0.00  0.00     0.124 A 
ATOM      2  C1  UNL d   1       1.500  -0.780   1.583  0.00  0.00     0.062 A 
ATOM      3  C2  UNL d   1       2.055   0.492   1.689  0.00  0.00     0.162 A 
ATOM      4  C3  UNL d   1       1.366   1.604   1.204  0.00  0.00    -0.034 A 
ATOM      5  C4  UNL d   1       0.115   1.423   0.611  0.00  0.00     0.162 A 
ATOM      6  C5  UNL d   1      -0.436   0.150   0.508  0.00  0.00     0.062 A 
ATOM      7  F   UNL d   1      -1.638  -0.014  -0.062  0.00  0.00    -0.097 F 
ATOM      8  F1  UNL d   1      -0.575   2.470   0.134  0.00  0.00    -0.096 F 
ATOM      9  I   UNL d   1       2.193   3.507   1.359  0.00  0.00    -0.060 I 
ATOM     10  F2  UNL d   1       3.260   0.629   2.263  0.00  0.00    -0.096 F 
ATOM     11  F3  UNL d   1       2.170  -1.842   2.052  0.00  0.00    -0.097 F 
ATOM     12  F4  UNL d   1      -0.276  -2.176   0.893  0.00  0.00    -0.092 F 
ENDROOT
TORSDOF 0
ENDMDL
