MODEL 1
REMARK minimizedAffinity 2.408602
REMARK minimizedRMSD -1
REMARK  0 active torsions:
REMARK  status: ('A' for Active; 'I' for Inactive)
ROOT
ATOM      1  C   UNL d   1       2.148   2.965   1.123  0.00  0.00     0.124 A 
ATOM      2  C1  UNL d   1       3.068   3.305   0.141  0.00  0.00     0.062 A 
ATOM      3  C2  UNL d   1       3.276   2.461  -0.946  0.00  0.00     0.162 A 
ATOM      4  C3  UNL d   1       2.561   1.269  -1.058  0.00  0.00    -0.034 A 
ATOM      5  C4  UNL d   1       1.638   0.933  -0.066  0.00  0.00     0.162 A 
ATOM      6  C5  UNL d   1       1.434   1.779   1.018  0.00  0.00     0.062 A 
ATOM      7  F   UNL d   1       0.544   1.449   1.966  0.00  0.00    -0.097 F 
ATOM      8  F1  UNL d   1       0.934  -0.206  -0.143  0.00  0.00    -0.096 F 
ATOM      9  I   UNL d   1       2.870   0.004  -2.682  0.00  0.00    -0.060 I 
ATOM     10  F2  UNL d   1       4.172   2.816  -1.880  0.00  0.00    -0.096 F 
ATOM     11  F3  UNL d   1       3.759   4.450   0.240  0.00  0.00    -0.097 F 
ATOM     12  F4  UNL d   1       1.950   3.778   2.168  0.00  0.00    -0.092 F 
ENDROOT
TORSDOF 0
ENDMDL
