MODEL 1
REMARK minimizedAffinity -1.15307415
REMARK minimizedRMSD -1
REMARK  0 active torsions:
REMARK  status: ('A' for Active; 'I' for Inactive)
ROOT
ATOM      1  C   UNL d   1       2.936   3.432   1.117  0.00  0.00     0.124 A 
ATOM      2  C1  UNL d   1       2.399   2.204   1.478  0.00  0.00     0.062 A 
ATOM      3  C2  UNL d   1       2.460   1.127   0.598  0.00  0.00     0.162 A 
ATOM      4  C3  UNL d   1       3.062   1.273  -0.652  0.00  0.00    -0.034 A 
ATOM      5  C4  UNL d   1       3.599   2.512  -1.008  0.00  0.00     0.162 A 
ATOM      6  C5  UNL d   1       3.535   3.585  -0.125  0.00  0.00     0.062 A 
ATOM      7  F   UNL d   1       4.055   4.770  -0.476  0.00  0.00    -0.097 F 
ATOM      8  F1  UNL d   1       4.185   2.687  -2.202  0.00  0.00    -0.096 F 
ATOM      9  I   UNL d   1       3.156  -0.334  -1.970  0.00  0.00    -0.060 I 
ATOM     10  F2  UNL d   1       1.933  -0.048   0.973  0.00  0.00    -0.096 F 
ATOM     11  F3  UNL d   1       1.818   2.054   2.677  0.00  0.00    -0.097 F 
ATOM     12  F4  UNL d   1       2.875   4.466   1.965  0.00  0.00    -0.092 F 
ENDROOT
TORSDOF 0
ENDMDL
