MODEL 1
REMARK minimizedAffinity 2.10590672
REMARK minimizedRMSD -1
REMARK  0 active torsions:
REMARK  status: ('A' for Active; 'I' for Inactive)
ROOT
ATOM      1  C   UNL d   1      -0.370  -1.249   0.816  0.00  0.00     0.124 A 
ATOM      2  C1  UNL d   1       0.754  -1.108   1.618  0.00  0.00     0.062 A 
ATOM      3  C2  UNL d   1       1.618  -0.033   1.429  0.00  0.00     0.162 A 
ATOM      4  C3  UNL d   1       1.361   0.910   0.435  0.00  0.00    -0.034 A 
ATOM      5  C4  UNL d   1       0.229   0.761  -0.369  0.00  0.00     0.162 A 
ATOM      6  C5  UNL d   1      -0.631  -0.315  -0.177  0.00  0.00     0.062 A 
ATOM      7  F   UNL d   1      -1.716  -0.449  -0.953  0.00  0.00    -0.097 F 
ATOM      8  F1  UNL d   1      -0.048   1.650  -1.335  0.00  0.00    -0.096 F 
ATOM      9  I   UNL d   1       2.651   2.519   0.150  0.00  0.00    -0.060 I 
ATOM     10  F2  UNL d   1       2.696   0.078   2.219  0.00  0.00    -0.096 F 
ATOM     11  F3  UNL d   1       1.009  -2.010   2.577  0.00  0.00    -0.097 F 
ATOM     12  F4  UNL d   1      -1.199  -2.285   0.999  0.00  0.00    -0.092 F 
ENDROOT
TORSDOF 0
ENDMDL
