MODEL 1
REMARK minimizedAffinity -2.81448531
REMARK minimizedRMSD -1
REMARK  0 active torsions:
REMARK  status: ('A' for Active; 'I' for Inactive)
ROOT
ATOM      1  C   UNL d   1      -1.362  -0.876   0.825  0.00  0.00     0.124 A 
ATOM      2  C1  UNL d   1      -0.005  -0.629   0.670  0.00  0.00     0.062 A 
ATOM      3  C2  UNL d   1       0.518  -0.361  -0.591  0.00  0.00     0.162 A 
ATOM      4  C3  UNL d   1      -0.316  -0.339  -1.709  0.00  0.00    -0.034 A 
ATOM      5  C4  UNL d   1      -1.680  -0.590  -1.545  0.00  0.00     0.162 A 
ATOM      6  C5  UNL d   1      -2.198  -0.857  -0.282  0.00  0.00     0.062 A 
ATOM      7  F   UNL d   1      -3.509  -1.096  -0.134  0.00  0.00    -0.097 F 
ATOM      8  F1  UNL d   1      -2.510  -0.576  -2.598  0.00  0.00    -0.096 F 
ATOM      9  I   UNL d   1       0.462   0.061  -3.597  0.00  0.00    -0.060 I 
ATOM     10  F2  UNL d   1       1.833  -0.126  -0.711  0.00  0.00    -0.096 F 
ATOM     11  F3  UNL d   1       0.805  -0.648   1.739  0.00  0.00    -0.097 F 
ATOM     12  F4  UNL d   1      -1.862  -1.134   2.040  0.00  0.00    -0.092 F 
ENDROOT
TORSDOF 0
ENDMDL
