MODEL 1
REMARK minimizedAffinity -4.65955019
REMARK minimizedRMSD -1
REMARK  0 active torsions:
REMARK  status: ('A' for Active; 'I' for Inactive)
ROOT
ATOM      1  C   UNL d   1       2.082  -0.902  -2.725  0.00  0.00     0.124 A 
ATOM      2  C1  UNL d   1       1.887  -0.904  -4.099  0.00  0.00     0.062 A 
ATOM      3  C2  UNL d   1       0.916  -0.086  -4.669  0.00  0.00     0.162 A 
ATOM      4  C3  UNL d   1       0.133   0.743  -3.865  0.00  0.00    -0.034 A 
ATOM      5  C4  UNL d   1       0.335   0.739  -2.484  0.00  0.00     0.162 A 
ATOM      6  C5  UNL d   1       1.307  -0.081  -1.919  0.00  0.00     0.062 A 
ATOM      7  F   UNL d   1       1.494  -0.077  -0.591  0.00  0.00    -0.097 F 
ATOM      8  F1  UNL d   1      -0.400   1.524  -1.682  0.00  0.00    -0.096 F 
ATOM      9  I   UNL d   1      -1.319   1.968  -4.714  0.00  0.00    -0.060 I 
ATOM     10  F2  UNL d   1       0.749  -0.109  -6.000  0.00  0.00    -0.096 F 
ATOM     11  F3  UNL d   1       2.634  -1.698  -4.880  0.00  0.00    -0.097 F 
ATOM     12  F4  UNL d   1       3.016  -1.691  -2.178  0.00  0.00    -0.092 F 
ENDROOT
TORSDOF 0
ENDMDL
