MODEL 1
REMARK minimizedAffinity -1.97086334
REMARK minimizedRMSD -1
REMARK  0 active torsions:
REMARK  status: ('A' for Active; 'I' for Inactive)
ROOT
ATOM      1  C   UNL d   1      -1.840  -0.724   0.103  0.00  0.00     0.124 A 
ATOM      2  C1  UNL d   1      -0.729  -0.994   0.890  0.00  0.00     0.062 A 
ATOM      3  C2  UNL d   1       0.549  -0.713   0.416  0.00  0.00     0.162 A 
ATOM      4  C3  UNL d   1       0.724  -0.158  -0.852  0.00  0.00    -0.034 A 
ATOM      5  C4  UNL d   1      -0.398   0.110  -1.638  0.00  0.00     0.162 A 
ATOM      6  C5  UNL d   1      -1.674  -0.173  -1.160  0.00  0.00     0.062 A 
ATOM      7  F   UNL d   1      -2.746   0.089  -1.922  0.00  0.00    -0.097 F 
ATOM      8  F1  UNL d   1      -0.267   0.643  -2.862  0.00  0.00    -0.096 F 
ATOM      9  I   UNL d   1       2.634   0.263  -1.564  0.00  0.00    -0.060 I 
ATOM     10  F2  UNL d   1       1.605  -0.984   1.198  0.00  0.00    -0.096 F 
ATOM     11  F3  UNL d   1      -0.887  -1.527   2.109  0.00  0.00    -0.097 F 
ATOM     12  F4  UNL d   1      -3.069  -0.996   0.561  0.00  0.00    -0.092 F 
ENDROOT
TORSDOF 0
ENDMDL
