MODEL 1
REMARK minimizedAffinity -3.68409085
REMARK minimizedRMSD -1
REMARK  0 active torsions:
REMARK  status: ('A' for Active; 'I' for Inactive)
ROOT
ATOM      1  C   UNL d   1       0.464   1.192   1.029  0.00  0.00     0.124 A 
ATOM      2  C1  UNL d   1      -0.452   0.648   0.139  0.00  0.00     0.062 A 
ATOM      3  C2  UNL d   1      -0.024   0.147  -1.087  0.00  0.00     0.162 A 
ATOM      4  C3  UNL d   1       1.328   0.186  -1.430  0.00  0.00    -0.034 A 
ATOM      5  C4  UNL d   1       2.243   0.735  -0.530  0.00  0.00     0.162 A 
ATOM      6  C5  UNL d   1       1.810   1.235   0.694  0.00  0.00     0.062 A 
ATOM      7  F   UNL d   1       2.696   1.759   1.553  0.00  0.00    -0.097 F 
ATOM      8  F1  UNL d   1       3.550   0.788  -0.828  0.00  0.00    -0.096 F 
ATOM      9  I   UNL d   1       1.972  -0.562  -3.262  0.00  0.00    -0.060 I 
ATOM     10  F2  UNL d   1      -0.931  -0.372  -1.928  0.00  0.00    -0.096 F 
ATOM     11  F3  UNL d   1      -1.753   0.607   0.460  0.00  0.00    -0.097 F 
ATOM     12  F4  UNL d   1       0.049   1.674   2.208  0.00  0.00    -0.092 F 
ENDROOT
TORSDOF 0
ENDMDL
