MODEL 1
REMARK minimizedAffinity -1.10305691
REMARK minimizedRMSD -1
REMARK  0 active torsions:
REMARK  status: ('A' for Active; 'I' for Inactive)
ROOT
ATOM      1  C   UNL d   1      -2.422  -1.981  -0.150  0.00  0.00     0.124 A 
ATOM      2  C1  UNL d   1      -1.888  -1.847   1.124  0.00  0.00     0.062 A 
ATOM      3  C2  UNL d   1      -0.788  -1.023   1.339  0.00  0.00     0.162 A 
ATOM      4  C3  UNL d   1      -0.213  -0.324   0.277  0.00  0.00    -0.034 A 
ATOM      5  C4  UNL d   1      -0.755  -0.465  -1.002  0.00  0.00     0.162 A 
ATOM      6  C5  UNL d   1      -1.855  -1.290  -1.212  0.00  0.00     0.062 A 
ATOM      7  F   UNL d   1      -2.369  -1.418  -2.444  0.00  0.00    -0.097 F 
ATOM      8  F1  UNL d   1      -0.227   0.192  -2.046  0.00  0.00    -0.096 F 
ATOM      9  I   UNL d   1       1.432   0.909   0.594  0.00  0.00    -0.060 I 
ATOM     10  F2  UNL d   1      -0.293  -0.912   2.581  0.00  0.00    -0.096 F 
ATOM     11  F3  UNL d   1      -2.434  -2.514   2.151  0.00  0.00    -0.097 F 
ATOM     12  F4  UNL d   1      -3.480  -2.776  -0.355  0.00  0.00    -0.092 F 
ENDROOT
TORSDOF 0
ENDMDL
