MODEL 1
REMARK minimizedAffinity 3.71743155
REMARK minimizedRMSD -1
REMARK  0 active torsions:
REMARK  status: ('A' for Active; 'I' for Inactive)
ROOT
ATOM      1  C   UNL d   1      -2.495  -1.222  -0.817  0.00  0.00     0.124 A 
ATOM      2  C1  UNL d   1      -2.217  -1.000   0.525  0.00  0.00     0.062 A 
ATOM      3  C2  UNL d   1      -1.018  -0.402   0.902  0.00  0.00     0.162 A 
ATOM      4  C3  UNL d   1      -0.087  -0.020  -0.064  0.00  0.00    -0.034 A 
ATOM      5  C4  UNL d   1      -0.373  -0.247  -1.412  0.00  0.00     0.162 A 
ATOM      6  C5  UNL d   1      -1.573  -0.845  -1.784  0.00  0.00     0.062 A 
ATOM      7  F   UNL d   1      -1.839  -1.059  -3.081  0.00  0.00    -0.097 F 
ATOM      8  F1  UNL d   1       0.500   0.107  -2.367  0.00  0.00    -0.096 F 
ATOM      9  I   UNL d   1       1.707   0.874   0.496  0.00  0.00    -0.060 I 
ATOM     10  F2  UNL d   1      -0.776  -0.200   2.206  0.00  0.00    -0.096 F 
ATOM     11  F3  UNL d   1      -3.106  -1.363   1.461  0.00  0.00    -0.097 F 
ATOM     12  F4  UNL d   1      -3.649  -1.798  -1.177  0.00  0.00    -0.092 F 
ENDROOT
TORSDOF 0
ENDMDL
