MODEL 1
REMARK minimizedAffinity 2.13311911
REMARK minimizedRMSD -1
REMARK  0 active torsions:
REMARK  status: ('A' for Active; 'I' for Inactive)
ROOT
ATOM      1  C   UNL d   1      -1.233  -0.970   1.049  0.00  0.00     0.124 A 
ATOM      2  C1  UNL d   1      -1.607  -0.152  -0.008  0.00  0.00     0.062 A 
ATOM      3  C2  UNL d   1      -0.748   0.036  -1.087  0.00  0.00     0.162 A 
ATOM      4  C3  UNL d   1       0.494  -0.598  -1.116  0.00  0.00    -0.034 A 
ATOM      5  C4  UNL d   1       0.864  -1.419  -0.049  0.00  0.00     0.162 A 
ATOM      6  C5  UNL d   1       0.002  -1.603   1.027  0.00  0.00     0.062 A 
ATOM      7  F   UNL d   1       0.366  -2.394   2.047  0.00  0.00    -0.097 F 
ATOM      8  F1  UNL d   1       2.051  -2.044  -0.045  0.00  0.00    -0.096 F 
ATOM      9  I   UNL d   1       1.781  -0.321  -2.728  0.00  0.00    -0.060 I 
ATOM     10  F2  UNL d   1      -1.136   0.832  -2.094  0.00  0.00    -0.096 F 
ATOM     11  F3  UNL d   1      -2.799   0.462   0.011  0.00  0.00    -0.097 F 
ATOM     12  F4  UNL d   1      -2.060  -1.148   2.086  0.00  0.00    -0.092 F 
ENDROOT
TORSDOF 0
ENDMDL
