MODEL 1
REMARK minimizedAffinity -3.86847997
REMARK minimizedRMSD -1
REMARK  0 active torsions:
REMARK  status: ('A' for Active; 'I' for Inactive)
ROOT
ATOM      1  C   UNL d   1      -2.342  -0.453  -0.748  0.00  0.00     0.124 A 
ATOM      2  C1  UNL d   1      -1.049  -0.209  -1.189  0.00  0.00     0.062 A 
ATOM      3  C2  UNL d   1       0.040  -0.604  -0.417  0.00  0.00     0.162 A 
ATOM      4  C3  UNL d   1      -0.159  -1.248   0.804  0.00  0.00    -0.034 A 
ATOM      5  C4  UNL d   1      -1.462  -1.489   1.241  0.00  0.00     0.162 A 
ATOM      6  C5  UNL d   1      -2.547  -1.092   0.467  0.00  0.00     0.062 A 
ATOM      7  F   UNL d   1      -3.796  -1.328   0.894  0.00  0.00    -0.097 F 
ATOM      8  F1  UNL d   1      -1.690  -2.105   2.410  0.00  0.00    -0.096 F 
ATOM      9  I   UNL d   1       1.467  -1.840   1.961  0.00  0.00    -0.060 I 
ATOM     10  F2  UNL d   1       1.279  -0.355  -0.869  0.00  0.00    -0.096 F 
ATOM     11  F3  UNL d   1      -0.847   0.409  -2.362  0.00  0.00    -0.097 F 
ATOM     12  F4  UNL d   1      -3.388  -0.071  -1.492  0.00  0.00    -0.092 F 
ENDROOT
TORSDOF 0
ENDMDL
