MODEL 1
REMARK minimizedAffinity -2.66315508
REMARK minimizedRMSD -1
REMARK  0 active torsions:
REMARK  status: ('A' for Active; 'I' for Inactive)
ROOT
ATOM      1  C   UNL d   1      -1.933  -0.885  -0.138  0.00  0.00     0.124 A 
ATOM      2  C1  UNL d   1      -0.885  -1.002   0.765  0.00  0.00     0.062 A 
ATOM      3  C2  UNL d   1       0.422  -0.754   0.356  0.00  0.00     0.162 A 
ATOM      4  C3  UNL d   1       0.690  -0.386  -0.962  0.00  0.00    -0.034 A 
ATOM      5  C4  UNL d   1      -0.369  -0.271  -1.865  0.00  0.00     0.162 A 
ATOM      6  C5  UNL d   1      -1.674  -0.520  -1.451  0.00  0.00     0.062 A 
ATOM      7  F   UNL d   1      -2.685  -0.406  -2.325  0.00  0.00    -0.097 F 
ATOM      8  F1  UNL d   1      -0.148   0.081  -3.140  0.00  0.00    -0.096 F 
ATOM      9  I   UNL d   1       2.643  -0.015  -1.577  0.00  0.00    -0.060 I 
ATOM     10  F2  UNL d   1       1.415  -0.875   1.250  0.00  0.00    -0.096 F 
ATOM     11  F3  UNL d   1      -1.132  -1.355   2.035  0.00  0.00    -0.097 F 
ATOM     12  F4  UNL d   1      -3.189  -1.124   0.258  0.00  0.00    -0.092 F 
ENDROOT
TORSDOF 0
ENDMDL
