MODEL 1
REMARK minimizedAffinity -3.09237313
REMARK minimizedRMSD -1
REMARK  0 active torsions:
REMARK  status: ('A' for Active; 'I' for Inactive)
ROOT
ATOM      1  C   UNL d   1      -1.839  -0.957   0.927  0.00  0.00     0.124 A 
ATOM      2  C1  UNL d   1      -1.877   0.378   0.551  0.00  0.00     0.062 A 
ATOM      3  C2  UNL d   1      -0.693   1.083   0.352  0.00  0.00     0.162 A 
ATOM      4  C3  UNL d   1       0.539   0.452   0.526  0.00  0.00    -0.034 A 
ATOM      5  C4  UNL d   1       0.569  -0.891   0.905  0.00  0.00     0.162 A 
ATOM      6  C5  UNL d   1      -0.617  -1.591   1.103  0.00  0.00     0.062 A 
ATOM      7  F   UNL d   1      -0.579  -2.881   1.466  0.00  0.00    -0.097 F 
ATOM      8  F1  UNL d   1       1.736  -1.528   1.081  0.00  0.00    -0.096 F 
ATOM      9  I   UNL d   1       2.311   1.502   0.228  0.00  0.00    -0.060 I 
ATOM     10  F2  UNL d   1      -0.759   2.373  -0.011  0.00  0.00    -0.096 F 
ATOM     11  F3  UNL d   1      -3.056   0.993   0.382  0.00  0.00    -0.097 F 
ATOM     12  F4  UNL d   1      -2.980  -1.633   1.119  0.00  0.00    -0.092 F 
ENDROOT
TORSDOF 0
ENDMDL
