MODEL 1
REMARK minimizedAffinity 6.48622704
REMARK minimizedRMSD -1
REMARK  0 active torsions:
REMARK  status: ('A' for Active; 'I' for Inactive)
ROOT
ATOM      1  C1  BNZ d   1       5.294   3.763   4.133  0.00  0.00     0.000 A 
ATOM      2  C2  BNZ d   1       4.552   3.782   2.982  0.00  0.00     0.000 A 
ATOM      3  C3  BNZ d   1       4.518   4.895   2.190  0.00  0.00     0.000 A 
ATOM      4  C4  BNZ d   1       5.191   6.000   2.570  0.00  0.00     0.000 A 
ATOM      5  C5  BNZ d   1       5.936   6.000   3.732  0.00  0.00     0.000 A 
ATOM      6  C6  BNZ d   1       6.000   4.864   4.507  0.00  0.00     0.000 A 
ENDROOT
TORSDOF 0
ENDMDL
