MODEL 1
REMARK minimizedAffinity 8.00794125
REMARK minimizedRMSD -1
REMARK  0 active torsions:
REMARK  status: ('A' for Active; 'I' for Inactive)
ROOT
ATOM      1  C1  BNZ d   1      -0.776   2.582   3.411  0.00  0.00     0.000 A 
ATOM      2  C2  BNZ d   1      -0.475   1.713   2.396  0.00  0.00     0.000 A 
ATOM      3  C3  BNZ d   1       0.411   0.690   2.590  0.00  0.00     0.000 A 
ATOM      4  C4  BNZ d   1       1.025   0.562   3.784  0.00  0.00     0.000 A 
ATOM      5  C5  BNZ d   1       0.740   1.436   4.814  0.00  0.00     0.000 A 
ATOM      6  C6  BNZ d   1      -0.182   2.441   4.627  0.00  0.00     0.000 A 
ENDROOT
TORSDOF 0
ENDMDL
