MODEL 1
REMARK minimizedAffinity 2.54232264
REMARK minimizedRMSD -1
REMARK  0 active torsions:
REMARK  status: ('A' for Active; 'I' for Inactive)
ROOT
ATOM      1  C1  BNZ d   1       0.884   0.309  -4.132  0.00  0.00     0.000 A 
ATOM      2  C2  BNZ d   1       0.013  -0.029  -3.131  0.00  0.00     0.000 A 
ATOM      3  C3  BNZ d   1      -0.345  -1.332  -2.924  0.00  0.00     0.000 A 
ATOM      4  C4  BNZ d   1       0.138  -2.289  -3.742  0.00  0.00     0.000 A 
ATOM      5  C5  BNZ d   1       1.010  -1.964  -4.761  0.00  0.00     0.000 A 
ATOM      6  C6  BNZ d   1       1.398  -0.656  -4.942  0.00  0.00     0.000 A 
ENDROOT
TORSDOF 0
ENDMDL
