MODEL 1
REMARK minimizedAffinity 3.67200255
REMARK minimizedRMSD -1
REMARK  0 active torsions:
REMARK  status: ('A' for Active; 'I' for Inactive)
ROOT
ATOM      1  C1  BNZ d   1      -1.539  -3.463  -4.807  0.00  0.00     0.000 A 
ATOM      2  C2  BNZ d   1      -1.271  -3.663  -3.479  0.00  0.00     0.000 A 
ATOM      3  C3  BNZ d   1      -1.196  -4.927  -2.963  0.00  0.00     0.000 A 
ATOM      4  C4  BNZ d   1      -1.427  -5.986  -3.765  0.00  0.00     0.000 A 
ATOM      5  C5  BNZ d   1      -1.708  -5.800  -5.104  0.00  0.00     0.000 A 
ATOM      6  C6  BNZ d   1      -1.744  -4.528  -5.629  0.00  0.00     0.000 A 
ENDROOT
TORSDOF 0
ENDMDL
