MODEL 1
REMARK minimizedAffinity 1.02850747
REMARK minimizedRMSD -1
REMARK  0 active torsions:
REMARK  status: ('A' for Active; 'I' for Inactive)
ROOT
ATOM      1  C1  BNZ d   1      -2.299  -4.791  -5.505  0.00  0.00     0.000 A 
ATOM      2  C2  BNZ d   1      -1.976  -5.963  -4.874  0.00  0.00     0.000 A 
ATOM      3  C3  BNZ d   1      -1.742  -5.991  -3.528  0.00  0.00     0.000 A 
ATOM      4  C4  BNZ d   1      -1.793  -4.843  -2.822  0.00  0.00     0.000 A 
ATOM      5  C5  BNZ d   1      -2.109  -3.652  -3.445  0.00  0.00     0.000 A 
ATOM      6  C6  BNZ d   1      -2.381  -3.634  -4.793  0.00  0.00     0.000 A 
ENDROOT
TORSDOF 0
ENDMDL
