MODEL 1
REMARK minimizedAffinity 7.63033676
REMARK minimizedRMSD -1
REMARK  0 active torsions:
REMARK  status: ('A' for Active; 'I' for Inactive)
ROOT
ATOM      1  C1  BNZ d   1       1.596  -0.455  -4.143  0.00  0.00     0.000 A 
ATOM      2  C2  BNZ d   1       1.206  -0.573  -2.836  0.00  0.00     0.000 A 
ATOM      3  C3  BNZ d   1      -0.013  -1.101  -2.513  0.00  0.00     0.000 A 
ATOM      4  C4  BNZ d   1      -0.856  -1.473  -3.498  0.00  0.00     0.000 A 
ATOM      5  C5  BNZ d   1      -0.481  -1.353  -4.821  0.00  0.00     0.000 A 
ATOM      6  C6  BNZ d   1       0.762  -0.857  -5.141  0.00  0.00     0.000 A 
ENDROOT
TORSDOF 0
ENDMDL
