MODEL 1
REMARK minimizedAffinity 10.1112165
REMARK minimizedRMSD -1
REMARK  0 active torsions:
REMARK  status: ('A' for Active; 'I' for Inactive)
ROOT
ATOM      1  C1  BNZ d   1       2.742   1.001   2.561  0.00  0.00     0.000 A 
ATOM      2  C2  BNZ d   1       3.496   2.061   2.133  0.00  0.00     0.000 A 
ATOM      3  C3  BNZ d   1       4.780   2.229   2.572  0.00  0.00     0.000 A 
ATOM      4  C4  BNZ d   1       5.293   1.361   3.468  0.00  0.00     0.000 A 
ATOM      5  C5  BNZ d   1       4.542   0.293   3.916  0.00  0.00     0.000 A 
ATOM      6  C6  BNZ d   1       3.264   0.105   3.442  0.00  0.00     0.000 A 
ENDROOT
TORSDOF 0
ENDMDL
