MODEL 1
REMARK minimizedAffinity 4.68544006
REMARK minimizedRMSD -1
REMARK  0 active torsions:
REMARK  status: ('A' for Active; 'I' for Inactive)
ROOT
ATOM      1  C1  BNZ d   1       1.096  -2.118  -1.684  0.00  0.00     0.000 A 
ATOM      2  C2  BNZ d   1       2.113  -1.872  -2.568  0.00  0.00     0.000 A 
ATOM      3  C3  BNZ d   1       1.883  -1.179  -3.723  0.00  0.00     0.000 A 
ATOM      4  C4  BNZ d   1       0.631  -0.768  -4.012  0.00  0.00     0.000 A 
ATOM      5  C5  BNZ d   1      -0.406  -1.016  -3.136  0.00  0.00     0.000 A 
ATOM      6  C6  BNZ d   1      -0.163  -1.680  -1.955  0.00  0.00     0.000 A 
ENDROOT
TORSDOF 0
ENDMDL
