MODEL 1
REMARK minimizedAffinity 7.01904202
REMARK minimizedRMSD -1
REMARK  0 active torsions:
REMARK  status: ('A' for Active; 'I' for Inactive)
ROOT
ATOM      1  C1  BNZ d   1      -1.630  -2.045  -3.967  0.00  0.00     0.000 A 
ATOM      2  C2  BNZ d   1      -0.788  -1.197  -4.635  0.00  0.00     0.000 A 
ATOM      3  C3  BNZ d   1       0.351  -0.730  -4.041  0.00  0.00     0.000 A 
ATOM      4  C4  BNZ d   1       0.626  -1.079  -2.768  0.00  0.00     0.000 A 
ATOM      5  C5  BNZ d   1      -0.218  -1.926  -2.078  0.00  0.00     0.000 A 
ATOM      6  C6  BNZ d   1      -1.344  -2.426  -2.692  0.00  0.00     0.000 A 
ENDROOT
TORSDOF 0
ENDMDL
