MODEL 1
REMARK minimizedAffinity 12.5732698
REMARK minimizedRMSD -1
REMARK  0 active torsions:
REMARK  status: ('A' for Active; 'I' for Inactive)
ROOT
ATOM      1  C   UNL d   1      -3.884   2.436   1.488  0.00  0.00     0.077 C 
ATOM      2  C1  UNL d   1      -4.453   3.675   0.864  0.00  0.00    -0.074 A 
ATOM      3  C2  UNL d   1      -5.487   4.383   1.486  0.00  0.00    -0.005 A 
ATOM      4  C3  UNL d   1      -6.000   5.539   0.898  0.00  0.00     0.006 A 
ATOM      5  C4  UNL d   1      -5.485   5.999  -0.314  0.00  0.00    -0.005 A 
ATOM      6  C5  UNL d   1      -4.450   5.306  -0.950  0.00  0.00    -0.074 A 
ATOM      7  C6  UNL d   1      -3.878   5.792  -2.248  0.00  0.00     0.077 C 
ATOM      8  C7  UNL d   1      -3.935   4.148  -0.350  0.00  0.00    -0.001 A 
ENDROOT
TORSDOF 0
ENDMDL
