MODEL 1
REMARK minimizedAffinity 19.679081
REMARK minimizedRMSD -1
REMARK  0 active torsions:
REMARK  status: ('A' for Active; 'I' for Inactive)
ROOT
ATOM      1  C   UNL d   1      -3.527   1.579  -4.442  0.00  0.00     0.077 C 
ATOM      2  C1  UNL d   1      -2.034   1.718  -4.433  0.00  0.00    -0.074 A 
ATOM      3  C2  UNL d   1      -1.426   2.963  -4.624  0.00  0.00    -0.005 A 
ATOM      4  C3  UNL d   1      -0.037   3.079  -4.604  0.00  0.00     0.006 A 
ATOM      5  C4  UNL d   1       0.759   1.951  -4.394  0.00  0.00    -0.005 A 
ATOM      6  C5  UNL d   1       0.170   0.698  -4.201  0.00  0.00    -0.074 A 
ATOM      7  C6  UNL d   1       1.010  -0.522  -3.965  0.00  0.00     0.077 C 
ATOM      8  C7  UNL d   1      -1.228   0.592  -4.215  0.00  0.00    -0.001 A 
ENDROOT
TORSDOF 0
ENDMDL
