MODEL 1
REMARK minimizedAffinity 14.3824406
REMARK minimizedRMSD -1
REMARK  0 active torsions:
REMARK  status: ('A' for Active; 'I' for Inactive)
ROOT
ATOM      1  C   UNL d   1       2.787   2.259   0.836  0.00  0.00     0.077 C 
ATOM      2  C1  UNL d   1       2.392   1.526  -0.412  0.00  0.00    -0.074 A 
ATOM      3  C2  UNL d   1       2.988   1.826  -1.641  0.00  0.00    -0.005 A 
ATOM      4  C3  UNL d   1       2.617   1.130  -2.791  0.00  0.00     0.006 A 
ATOM      5  C4  UNL d   1       1.647   0.128  -2.724  0.00  0.00    -0.005 A 
ATOM      6  C5  UNL d   1       1.041  -0.186  -1.503  0.00  0.00    -0.074 A 
ATOM      7  C6  UNL d   1       0.005  -1.267  -1.412  0.00  0.00     0.077 C 
ATOM      8  C7  UNL d   1       1.424   0.513  -0.351  0.00  0.00    -0.001 A 
ENDROOT
TORSDOF 0
ENDMDL
