MODEL 1
REMARK minimizedAffinity 14.9414692
REMARK minimizedRMSD -1
REMARK  0 active torsions:
REMARK  status: ('A' for Active; 'I' for Inactive)
ROOT
ATOM      1  C   UNL d   1      -0.253  -4.357  -0.518  0.00  0.00     0.077 C 
ATOM      2  C1  UNL d   1      -1.011  -3.142  -0.072  0.00  0.00    -0.074 A 
ATOM      3  C2  UNL d   1      -1.375  -2.146  -0.985  0.00  0.00    -0.005 A 
ATOM      4  C3  UNL d   1      -2.088  -1.026  -0.557  0.00  0.00     0.006 A 
ATOM      5  C4  UNL d   1      -2.443  -0.890   0.785  0.00  0.00    -0.005 A 
ATOM      6  C5  UNL d   1      -2.089  -1.876   1.712  0.00  0.00    -0.074 A 
ATOM      7  C6  UNL d   1      -2.471  -1.750   3.157  0.00  0.00     0.077 C 
ATOM      8  C7  UNL d   1      -1.379  -3.002   1.273  0.00  0.00    -0.001 A 
ENDROOT
TORSDOF 0
ENDMDL
