MODEL 1
REMARK minimizedAffinity 16.8344116
REMARK minimizedRMSD -1
REMARK  0 active torsions:
REMARK  status: ('A' for Active; 'I' for Inactive)
ROOT
ATOM      1  C   UNL d   1      -1.607  -1.462  -0.355  0.00  0.00     0.077 C 
ATOM      2  C1  UNL d   1      -0.591  -1.054  -1.379  0.00  0.00    -0.074 A 
ATOM      3  C2  UNL d   1      -0.637  -1.564  -2.681  0.00  0.00    -0.005 A 
ATOM      4  C3  UNL d   1       0.310  -1.167  -3.625  0.00  0.00     0.006 A 
ATOM      5  C4  UNL d   1       1.311  -0.258  -3.279  0.00  0.00    -0.005 A 
ATOM      6  C5  UNL d   1       1.372   0.263  -1.982  0.00  0.00    -0.074 A 
ATOM      7  C6  UNL d   1       2.435   1.248  -1.596  0.00  0.00     0.077 C 
ATOM      8  C7  UNL d   1       0.413  -0.135  -1.041  0.00  0.00    -0.001 A 
ENDROOT
TORSDOF 0
ENDMDL
