MODEL 1
REMARK minimizedAffinity 6.42088366
REMARK minimizedRMSD -1
REMARK  0 active torsions:
REMARK  status: ('A' for Active; 'I' for Inactive)
ROOT
ATOM      1  C   UNL d   1       2.584   0.306  -1.801  0.00  0.00     0.077 C 
ATOM      2  C1  UNL d   1       1.273  -0.297  -2.211  0.00  0.00    -0.074 A 
ATOM      3  C2  UNL d   1       1.010  -0.601  -3.551  0.00  0.00    -0.005 A 
ATOM      4  C3  UNL d   1      -0.210  -1.170  -3.916  0.00  0.00     0.006 A 
ATOM      5  C4  UNL d   1      -1.178  -1.439  -2.947  0.00  0.00    -0.005 A 
ATOM      6  C5  UNL d   1      -0.932  -1.142  -1.603  0.00  0.00    -0.074 A 
ATOM      7  C6  UNL d   1      -1.957  -1.435  -0.548  0.00  0.00     0.077 C 
ATOM      8  C7  UNL d   1       0.299  -0.578  -1.243  0.00  0.00    -0.001 A 
ENDROOT
TORSDOF 0
ENDMDL
