MODEL 1
REMARK minimizedAffinity 16.5785351
REMARK minimizedRMSD -1
REMARK  0 active torsions:
REMARK  status: ('A' for Active; 'I' for Inactive)
ROOT
ATOM      1  C   UNL d   1      -3.245   1.829  -5.013  0.00  0.00     0.077 C 
ATOM      2  C1  UNL d   1      -3.527   3.281  -4.767  0.00  0.00    -0.074 A 
ATOM      3  C2  UNL d   1      -2.742   4.026  -3.882  0.00  0.00    -0.005 A 
ATOM      4  C3  UNL d   1      -3.010   5.378  -3.670  0.00  0.00     0.006 A 
ATOM      5  C4  UNL d   1      -4.065   5.998  -4.341  0.00  0.00    -0.005 A 
ATOM      6  C5  UNL d   1      -4.861   5.270  -5.230  0.00  0.00    -0.074 A 
ATOM      7  C6  UNL d   1      -5.993   5.923  -5.966  0.00  0.00     0.077 C 
ATOM      8  C7  UNL d   1      -4.581   3.913  -5.443  0.00  0.00    -0.001 A 
ENDROOT
TORSDOF 0
ENDMDL
