MODEL 1
REMARK minimizedAffinity 16.6336994
REMARK minimizedRMSD -1
REMARK  0 active torsions:
REMARK  status: ('A' for Active; 'I' for Inactive)
ROOT
ATOM      1  C   UNL d   1       2.121  -0.064  -1.512  0.00  0.00     0.077 C 
ATOM      2  C1  UNL d   1       2.743   0.647  -0.347  0.00  0.00    -0.074 A 
ATOM      3  C2  UNL d   1       2.702   2.042  -0.251  0.00  0.00    -0.005 A 
ATOM      4  C3  UNL d   1       3.277   2.688   0.843  0.00  0.00     0.006 A 
ATOM      5  C4  UNL d   1       3.897   1.948   1.851  0.00  0.00    -0.005 A 
ATOM      6  C5  UNL d   1       3.947   0.553   1.772  0.00  0.00    -0.074 A 
ATOM      7  C6  UNL d   1       4.601  -0.258   2.851  0.00  0.00     0.077 C 
ATOM      8  C7  UNL d   1       3.361  -0.090   0.673  0.00  0.00    -0.001 A 
ENDROOT
TORSDOF 0
ENDMDL
