MODEL 1
REMARK minimizedAffinity 17.214426
REMARK minimizedRMSD -1
REMARK  0 active torsions:
REMARK  status: ('A' for Active; 'I' for Inactive)
ROOT
ATOM      1  C   UNL d   1       6.000   2.257  -2.760  0.00  0.00     0.077 C 
ATOM      2  C1  UNL d   1       5.240   2.846  -1.609  0.00  0.00    -0.074 A 
ATOM      3  C2  UNL d   1       4.131   2.187  -1.068  0.00  0.00    -0.005 A 
ATOM      4  C3  UNL d   1       3.440   2.743   0.009  0.00  0.00     0.006 A 
ATOM      5  C4  UNL d   1       3.849   3.961   0.553  0.00  0.00    -0.005 A 
ATOM      6  C5  UNL d   1       4.956   4.633   0.026  0.00  0.00    -0.074 A 
ATOM      7  C6  UNL d   1       5.415   5.938   0.606  0.00  0.00     0.077 C 
ATOM      8  C7  UNL d   1       5.650   4.065  -1.052  0.00  0.00    -0.001 A 
ENDROOT
TORSDOF 0
ENDMDL
