MODEL 1
REMARK minimizedAffinity 3.69323492
REMARK minimizedRMSD -1
REMARK  0 active torsions:
REMARK  status: ('A' for Active; 'I' for Inactive)
ROOT
ATOM      1  C   UNL d   1      -4.544   5.973  -2.733  0.00  0.00     0.077 C 
ATOM      2  C1  UNL d   1      -4.792   5.439  -1.353  0.00  0.00    -0.074 A 
ATOM      3  C2  UNL d   1      -5.774   6.000  -0.531  0.00  0.00    -0.005 A 
ATOM      4  C3  UNL d   1      -5.999   5.486   0.746  0.00  0.00     0.006 A 
ATOM      5  C4  UNL d   1      -5.246   4.407   1.213  0.00  0.00    -0.005 A 
ATOM      6  C5  UNL d   1      -4.261   3.833   0.404  0.00  0.00    -0.074 A 
ATOM      7  C6  UNL d   1      -3.449   2.667   0.886  0.00  0.00     0.077 C 
ATOM      8  C7  UNL d   1      -4.045   4.351  -0.881  0.00  0.00    -0.001 A 
ENDROOT
TORSDOF 0
ENDMDL
