MODEL 1
REMARK minimizedAffinity 16.1976223
REMARK minimizedRMSD -1
REMARK  0 active torsions:
REMARK  status: ('A' for Active; 'I' for Inactive)
ROOT
ATOM      1  C   UNL d   1      -1.390  -2.477  -0.721  0.00  0.00     0.077 C 
ATOM      2  C1  UNL d   1      -0.454  -1.744  -1.636  0.00  0.00    -0.074 A 
ATOM      3  C2  UNL d   1      -0.524  -1.915  -3.022  0.00  0.00    -0.005 A 
ATOM      4  C3  UNL d   1       0.347  -1.219  -3.861  0.00  0.00     0.006 A 
ATOM      5  C4  UNL d   1       1.294  -0.348  -3.323  0.00  0.00    -0.005 A 
ATOM      6  C5  UNL d   1       1.378  -0.163  -1.939  0.00  0.00    -0.074 A 
ATOM      7  C6  UNL d   1       2.384   0.777  -1.345  0.00  0.00     0.077 C 
ATOM      8  C7  UNL d   1       0.495  -0.861  -1.103  0.00  0.00    -0.001 A 
ENDROOT
TORSDOF 0
ENDMDL
