MODEL 1
REMARK minimizedAffinity 15.125865
REMARK minimizedRMSD -1
REMARK  0 active torsions:
REMARK  status: ('A' for Active; 'I' for Inactive)
ROOT
ATOM      1  C   UNL d   1      -0.411  -1.835  -3.013  0.00  0.00     0.077 C 
ATOM      2  C1  UNL d   1      -1.183  -0.653  -3.520  0.00  0.00    -0.074 A 
ATOM      3  C2  UNL d   1      -2.581  -0.635  -3.475  0.00  0.00    -0.005 A 
ATOM      4  C3  UNL d   1      -3.286   0.475  -3.941  0.00  0.00     0.006 A 
ATOM      5  C4  UNL d   1      -2.601   1.577  -4.455  0.00  0.00    -0.005 A 
ATOM      6  C5  UNL d   1      -1.203   1.577  -4.506  0.00  0.00    -0.074 A 
ATOM      7  C6  UNL d   1      -0.451   2.757  -5.047  0.00  0.00     0.077 C 
ATOM      8  C7  UNL d   1      -0.502   0.461  -4.030  0.00  0.00    -0.001 A 
ENDROOT
TORSDOF 0
ENDMDL
