MODEL 1
REMARK minimizedAffinity 12.2128372
REMARK minimizedRMSD -1
REMARK  0 active torsions:
REMARK  status: ('A' for Active; 'I' for Inactive)
ROOT
ATOM      1  C   UNL d   1      -0.184  -4.669   0.051  0.00  0.00     0.077 C 
ATOM      2  C1  UNL d   1      -0.906  -3.435   0.507  0.00  0.00    -0.074 A 
ATOM      3  C2  UNL d   1      -1.029  -2.324  -0.332  0.00  0.00    -0.005 A 
ATOM      4  C3  UNL d   1      -1.711  -1.187   0.102  0.00  0.00     0.006 A 
ATOM      5  C4  UNL d   1      -2.275  -1.151   1.377  0.00  0.00    -0.005 A 
ATOM      6  C5  UNL d   1      -2.163  -2.253   2.230  0.00  0.00    -0.074 A 
ATOM      7  C6  UNL d   1      -2.772  -2.234   3.601  0.00  0.00     0.077 C 
ATOM      8  C7  UNL d   1      -1.482  -3.394   1.784  0.00  0.00    -0.001 A 
ENDROOT
TORSDOF 0
ENDMDL
