MODEL 1
REMARK minimizedAffinity 2.34035254
REMARK minimizedRMSD -1
REMARK  0 active torsions:
REMARK  status: ('A' for Active; 'I' for Inactive)
ROOT
ATOM      1  C   UNL d   1      -1.870   2.727  -4.838  0.00  0.00     0.077 C 
ATOM      2  C1  UNL d   1      -3.302   3.092  -5.098  0.00  0.00    -0.074 A 
ATOM      3  C2  UNL d   1      -4.156   2.215  -5.774  0.00  0.00    -0.005 A 
ATOM      4  C3  UNL d   1      -5.487   2.564  -6.000  0.00  0.00     0.006 A 
ATOM      5  C4  UNL d   1      -5.977   3.791  -5.552  0.00  0.00    -0.005 A 
ATOM      6  C5  UNL d   1      -5.139   4.681  -4.874  0.00  0.00    -0.074 A 
ATOM      7  C6  UNL d   1      -5.652   6.000  -4.378  0.00  0.00     0.077 C 
ATOM      8  C7  UNL d   1      -3.804   4.320  -4.645  0.00  0.00    -0.001 A 
ENDROOT
TORSDOF 0
ENDMDL
