MODEL 1
REMARK minimizedAffinity 11.1371326
REMARK minimizedRMSD -1
REMARK  0 active torsions:
REMARK  status: ('A' for Active; 'I' for Inactive)
ROOT
ATOM      1  C   UNL d   1      -1.893   2.599  -4.081  0.00  0.00     0.077 C 
ATOM      2  C1  UNL d   1      -3.193   2.931  -4.751  0.00  0.00    -0.074 A 
ATOM      3  C2  UNL d   1      -3.948   1.939  -5.386  0.00  0.00    -0.005 A 
ATOM      4  C3  UNL d   1      -5.160   2.261  -5.997  0.00  0.00     0.006 A 
ATOM      5  C4  UNL d   1      -5.628   3.575  -5.979  0.00  0.00    -0.005 A 
ATOM      6  C5  UNL d   1      -4.888   4.580  -5.348  0.00  0.00    -0.074 A 
ATOM      7  C6  UNL d   1      -5.382   5.995  -5.310  0.00  0.00     0.077 C 
ATOM      8  C7  UNL d   1      -3.674   4.247  -4.730  0.00  0.00    -0.001 A 
ENDROOT
TORSDOF 0
ENDMDL
