MODEL 1
REMARK minimizedAffinity 13.1423874
REMARK minimizedRMSD -1
REMARK  0 active torsions:
REMARK  status: ('A' for Active; 'I' for Inactive)
ROOT
ATOM      1  C   UNL d   1      -2.578   5.285  -3.237  0.00  0.00     0.077 C 
ATOM      2  C1  UNL d   1      -3.750   4.986  -4.123  0.00  0.00    -0.074 A 
ATOM      3  C2  UNL d   1      -4.658   5.989  -4.477  0.00  0.00    -0.005 A 
ATOM      4  C3  UNL d   1      -5.738   5.698  -5.310  0.00  0.00     0.006 A 
ATOM      5  C4  UNL d   1      -5.922   4.403  -5.796  0.00  0.00    -0.005 A 
ATOM      6  C5  UNL d   1      -5.024   3.387  -5.454  0.00  0.00    -0.074 A 
ATOM      7  C6  UNL d   1      -5.201   1.992  -5.976  0.00  0.00     0.077 C 
ATOM      8  C7  UNL d   1      -3.937   3.689  -4.622  0.00  0.00    -0.001 A 
ENDROOT
TORSDOF 0
ENDMDL
