MODEL 1
REMARK minimizedAffinity 12.074892
REMARK minimizedRMSD -1
REMARK  0 active torsions:
REMARK  status: ('A' for Active; 'I' for Inactive)
ROOT
ATOM      1  C   UNL d   1      -0.281  -3.679   0.685  0.00  0.00     0.077 C 
ATOM      2  C1  UNL d   1      -0.935  -2.624  -0.157  0.00  0.00    -0.074 A 
ATOM      3  C2  UNL d   1      -2.131  -2.022   0.248  0.00  0.00    -0.005 A 
ATOM      4  C3  UNL d   1      -2.723  -1.036  -0.541  0.00  0.00     0.006 A 
ATOM      5  C4  UNL d   1      -2.127  -0.642  -1.739  0.00  0.00    -0.005 A 
ATOM      6  C5  UNL d   1      -0.931  -1.233  -2.160  0.00  0.00    -0.074 A 
ATOM      7  C6  UNL d   1      -0.272  -0.814  -3.440  0.00  0.00     0.077 C 
ATOM      8  C7  UNL d   1      -0.338  -2.218  -1.358  0.00  0.00    -0.001 A 
ENDROOT
TORSDOF 0
ENDMDL
