MODEL 1
REMARK minimizedAffinity -4.61519861
REMARK minimizedRMSD -1
REMARK  1 active torsions:
REMARK  status: ('A' for Active; 'I' for Inactive)
REMARK    1  A    between atoms: C1_2  and  C2_3 
ROOT
ATOM      1  C2  UNL d   1       0.075   0.072  -1.512  0.00  0.00    -0.076 A 
ATOM      2  C3  UNL d   1      -0.415   1.026  -2.421  0.00  0.00     0.004 A 
ATOM      3  C4  UNL d   1       0.131   1.146  -3.698  0.00  0.00    -0.003 A 
ATOM      4  C5  UNL d   1       1.175   0.314  -4.087  0.00  0.00     0.000 A 
ATOM      5  C6  UNL d   1       1.661  -0.650  -3.204  0.00  0.00     0.000 A 
ATOM      6  C7  UNL d   1       1.111  -0.795  -1.919  0.00  0.00    -0.073 A 
ATOM      7  C8  UNL d   1       1.679  -1.847  -1.006  0.00  0.00     0.078 C 
ENDROOT
BRANCH   1   8
ATOM      8  C1  UNL d   1      -0.538   0.006  -0.131  0.00  0.00     0.053 C 
ATOM      9  C   UNL d   1       0.228   0.836   0.887  0.00  0.00     0.018 C 
ENDBRANCH   1   8
TORSDOF 1
ENDMDL
