MODEL 1
REMARK minimizedAffinity -3.78831697
REMARK minimizedRMSD -1
REMARK  1 active torsions:
REMARK  status: ('A' for Active; 'I' for Inactive)
REMARK    1  A    between atoms: C1_2  and  C2_3 
ROOT
ATOM      1  C2  UNL d   1      -0.629  -0.058   1.163  0.00  0.00    -0.076 A 
ATOM      2  C3  UNL d   1       0.760   0.117   1.294  0.00  0.00     0.004 A 
ATOM      3  C4  UNL d   1       1.640  -0.381   0.335  0.00  0.00    -0.003 A 
ATOM      4  C5  UNL d   1       1.145  -1.062  -0.772  0.00  0.00     0.000 A 
ATOM      5  C6  UNL d   1      -0.230  -1.230  -0.927  0.00  0.00     0.000 A 
ATOM      6  C7  UNL d   1      -1.132  -0.720   0.023  0.00  0.00    -0.073 A 
ATOM      7  C8  UNL d   1      -2.605  -0.936  -0.192  0.00  0.00     0.078 C 
ENDROOT
BRANCH   1   8
ATOM      8  C1  UNL d   1      -1.533   0.480   2.249  0.00  0.00     0.053 C 
ATOM      9  C   UNL d   1      -0.880   1.596   3.051  0.00  0.00     0.018 C 
ENDBRANCH   1   8
TORSDOF 1
ENDMDL
