MODEL 1
REMARK minimizedAffinity -3.36514711
REMARK minimizedRMSD -1
REMARK  1 active torsions:
REMARK  status: ('A' for Active; 'I' for Inactive)
REMARK    1  A    between atoms: C1_2  and  C2_3 
ROOT
ATOM      1  C2  UNL d   1      -0.202   0.215   0.195  0.00  0.00    -0.076 A 
ATOM      2  C3  UNL d   1      -1.536   0.635   0.337  0.00  0.00     0.004 A 
ATOM      3  C4  UNL d   1      -2.014   1.105   1.558  0.00  0.00    -0.003 A 
ATOM      4  C5  UNL d   1      -1.166   1.164   2.659  0.00  0.00     0.000 A 
ATOM      5  C6  UNL d   1       0.165   0.768   2.532  0.00  0.00     0.000 A 
ATOM      6  C7  UNL d   1       0.668   0.307   1.303  0.00  0.00    -0.073 A 
ATOM      7  C8  UNL d   1       2.110  -0.113   1.225  0.00  0.00     0.078 C 
ENDROOT
BRANCH   1   8
ATOM      8  C1  UNL d   1       0.254  -0.311  -1.147  0.00  0.00     0.053 C 
ATOM      9  C   UNL d   1       0.609   0.803  -2.120  0.00  0.00     0.018 C 
ENDBRANCH   1   8
TORSDOF 1
ENDMDL
