MODEL 1
REMARK minimizedAffinity -5.1404109
REMARK minimizedRMSD -1
REMARK  1 active torsions:
REMARK  status: ('A' for Active; 'I' for Inactive)
REMARK    1  A    between atoms: C1_2  and  C2_3 
ROOT
ATOM      1  C2  UNL d   1       0.465   0.093   0.907  0.00  0.00    -0.076 A 
ATOM      2  C3  UNL d   1      -0.893   0.422   0.755  0.00  0.00     0.004 A 
ATOM      3  C4  UNL d   1      -1.642   0.895   1.831  0.00  0.00    -0.003 A 
ATOM      4  C5  UNL d   1      -1.044   1.048   3.077  0.00  0.00     0.000 A 
ATOM      5  C6  UNL d   1       0.306   0.743   3.242  0.00  0.00     0.000 A 
ATOM      6  C7  UNL d   1       1.080   0.281   2.163  0.00  0.00    -0.073 A 
ATOM      7  C8  UNL d   1       2.530  -0.038   2.399  0.00  0.00     0.078 C 
ENDROOT
BRANCH   1   8
ATOM      8  C1  UNL d   1       1.219  -0.441  -0.290  0.00  0.00     0.053 C 
ATOM      9  C   UNL d   1       0.431  -0.306  -1.583  0.00  0.00     0.018 C 
ENDBRANCH   1   8
TORSDOF 1
ENDMDL
