MODEL 1
REMARK minimizedAffinity -4.97966719
REMARK minimizedRMSD -1
REMARK  1 active torsions:
REMARK  status: ('A' for Active; 'I' for Inactive)
REMARK    1  A    between atoms: C1_2  and  C2_3 
ROOT
ATOM      1  C2  UNL d   1       0.119  -0.351   0.514  0.00  0.00    -0.076 A 
ATOM      2  C3  UNL d   1      -1.155   0.218   0.685  0.00  0.00     0.004 A 
ATOM      3  C4  UNL d   1      -1.570   0.683   1.932  0.00  0.00    -0.003 A 
ATOM      4  C5  UNL d   1      -0.719   0.587   3.027  0.00  0.00     0.000 A 
ATOM      5  C6  UNL d   1       0.555   0.041   2.871  0.00  0.00     0.000 A 
ATOM      6  C7  UNL d   1       0.996  -0.418   1.618  0.00  0.00    -0.073 A 
ATOM      7  C8  UNL d   1       2.377  -1.003   1.509  0.00  0.00     0.078 C 
ENDROOT
BRANCH   1   8
ATOM      8  C1  UNL d   1       0.505  -0.863  -0.856  0.00  0.00     0.053 C 
ATOM      9  C   UNL d   1       0.767   0.261  -1.846  0.00  0.00     0.018 C 
ENDBRANCH   1   8
TORSDOF 1
ENDMDL
