MODEL 1
REMARK minimizedAffinity -0.108567864
REMARK minimizedRMSD -1
REMARK  1 active torsions:
REMARK  status: ('A' for Active; 'I' for Inactive)
REMARK    1  A    between atoms: C1_2  and  C2_3 
ROOT
ATOM      1  C2  UNL d   1      -0.170  -0.056   0.142  0.00  0.00    -0.076 A 
ATOM      2  C3  UNL d   1      -1.424   0.404  -0.298  0.00  0.00     0.004 A 
ATOM      3  C4  UNL d   1      -2.402   0.802   0.612  0.00  0.00    -0.003 A 
ATOM      4  C5  UNL d   1      -2.141   0.749   1.977  0.00  0.00     0.000 A 
ATOM      5  C6  UNL d   1      -0.897   0.312   2.431  0.00  0.00     0.000 A 
ATOM      6  C7  UNL d   1       0.105  -0.078   1.526  0.00  0.00    -0.073 A 
ATOM      7  C8  UNL d   1       1.427  -0.546   2.071  0.00  0.00     0.078 C 
ENDROOT
BRANCH   1   8
ATOM      8  C1  UNL d   1       0.841  -0.501  -0.890  0.00  0.00     0.053 C 
ATOM      9  C   UNL d   1       0.557   0.074  -2.269  0.00  0.00     0.018 C 
ENDBRANCH   1   8
TORSDOF 1
ENDMDL
