MODEL 1
REMARK minimizedAffinity 11.2132511
REMARK minimizedRMSD -1
REMARK  0 active torsions:
REMARK  status: ('A' for Active; 'I' for Inactive)
ROOT
ATOM      1  C1  DEN d   1       3.748   4.682   0.643  0.00  0.00     0.130 A 
ATOM      2  C2  DEN d   1       3.570   6.000   1.246  0.00  0.00    -0.031 A 
ATOM      3  C3  DEN d   1       4.083   5.942   2.630  0.00  0.00     0.027 A 
ATOM      4  C4  DEN d   1       5.134   3.951   3.888  0.00  0.00     0.027 A 
ATOM      5  C5  DEN d   1       5.485   2.622   3.794  0.00  0.00    -0.003 A 
ATOM      6  C6  DEN d   1       5.253   1.884   2.664  0.00  0.00     0.001 A 
ATOM      7  C7  DEN d   1       4.693   2.482   1.566  0.00  0.00     0.017 A 
ATOM      8  C8  DEN d   1       4.330   3.819   1.656  0.00  0.00    -0.094 A 
ATOM      9  C9  DEN d   1       4.584   4.552   2.803  0.00  0.00    -0.072 A 
ENDROOT
TORSDOF 0
ENDMDL
