MODEL 1
REMARK minimizedAffinity 9.40136147
REMARK minimizedRMSD -1
REMARK  0 active torsions:
REMARK  status: ('A' for Active; 'I' for Inactive)
ROOT
ATOM      1  C1  DEN d   1      -1.738  -4.507  -5.522  0.00  0.00     0.130 A 
ATOM      2  C2  DEN d   1      -2.127  -5.805  -4.977  0.00  0.00    -0.031 A 
ATOM      3  C3  DEN d   1      -2.034  -5.728  -3.505  0.00  0.00     0.027 A 
ATOM      4  C4  DEN d   1      -1.334  -3.735  -2.025  0.00  0.00     0.027 A 
ATOM      5  C5  DEN d   1      -0.905  -2.426  -2.034  0.00  0.00    -0.003 A 
ATOM      6  C6  DEN d   1      -0.693  -1.735  -3.198  0.00  0.00     0.001 A 
ATOM      7  C7  DEN d   1      -0.953  -2.337  -4.401  0.00  0.00     0.017 A 
ATOM      8  C8  DEN d   1      -1.378  -3.658  -4.400  0.00  0.00    -0.094 A 
ATOM      9  C9  DEN d   1      -1.599  -4.336  -3.213  0.00  0.00    -0.072 A 
ENDROOT
TORSDOF 0
ENDMDL
