MODEL 1
REMARK minimizedAffinity 16.1312885
REMARK minimizedRMSD -1
REMARK  0 active torsions:
REMARK  status: ('A' for Active; 'I' for Inactive)
ROOT
ATOM      1  C1  DEN d   1       1.880  -3.994  -5.986  0.00  0.00     0.130 A 
ATOM      2  C2  DEN d   1       3.008  -3.271  -5.405  0.00  0.00    -0.031 A 
ATOM      3  C3  DEN d   1       2.469  -2.193  -4.552  0.00  0.00     0.027 A 
ATOM      4  C4  DEN d   1       0.010  -1.579  -4.073  0.00  0.00     0.027 A 
ATOM      5  C5  DEN d   1      -1.301  -1.899  -4.349  0.00  0.00    -0.003 A 
ATOM      6  C6  DEN d   1      -1.641  -2.909  -5.209  0.00  0.00     0.001 A 
ATOM      7  C7  DEN d   1      -0.657  -3.666  -5.790  0.00  0.00     0.017 A 
ATOM      8  C8  DEN d   1       0.667  -3.344  -5.522  0.00  0.00    -0.094 A 
ATOM      9  C9  DEN d   1       0.990  -2.327  -4.640  0.00  0.00    -0.072 A 
ENDROOT
TORSDOF 0
ENDMDL
