MODEL 1
REMARK minimizedAffinity 10.823823
REMARK minimizedRMSD -1
REMARK  0 active torsions:
REMARK  status: ('A' for Active; 'I' for Inactive)
ROOT
ATOM      1  C1  DEN d   1       0.135  -1.208   3.366  0.00  0.00     0.130 A 
ATOM      2  C2  DEN d   1       1.461  -0.609   3.243  0.00  0.00    -0.031 A 
ATOM      3  C3  DEN d   1       1.307   0.713   2.602  0.00  0.00     0.027 A 
ATOM      4  C4  DEN d   1      -0.844   1.885   1.797  0.00  0.00     0.027 A 
ATOM      5  C5  DEN d   1      -2.211   1.764   1.678  0.00  0.00    -0.003 A 
ATOM      6  C6  DEN d   1      -2.883   0.639   2.078  0.00  0.00     0.001 A 
ATOM      7  C7  DEN d   1      -2.193  -0.392   2.659  0.00  0.00     0.017 A 
ATOM      8  C8  DEN d   1      -0.814  -0.280   2.776  0.00  0.00    -0.094 A 
ATOM      9  C9  DEN d   1      -0.155   0.870   2.376  0.00  0.00    -0.072 A 
ENDROOT
TORSDOF 0
ENDMDL
