MODEL 1
REMARK minimizedAffinity 24.155489
REMARK minimizedRMSD -1
REMARK  0 active torsions:
REMARK  status: ('A' for Active; 'I' for Inactive)
ROOT
ATOM      1  C1  DEN d   1      -5.955   3.874   0.442  0.00  0.00     0.130 A 
ATOM      2  C2  DEN d   1      -5.990   5.097  -0.355  0.00  0.00    -0.031 A 
ATOM      3  C3  DEN d   1      -5.996   4.712  -1.781  0.00  0.00     0.027 A 
ATOM      4  C4  DEN d   1      -5.961   2.354  -2.825  0.00  0.00     0.027 A 
ATOM      5  C5  DEN d   1      -5.918   1.005  -2.550  0.00  0.00    -0.003 A 
ATOM      6  C6  DEN d   1      -5.851   0.523  -1.270  0.00  0.00     0.001 A 
ATOM      7  C7  DEN d   1      -5.870   1.395  -0.214  0.00  0.00     0.017 A 
ATOM      8  C8  DEN d   1      -5.905   2.757  -0.484  0.00  0.00    -0.094 A 
ATOM      9  C9  DEN d   1      -5.986   3.225  -1.784  0.00  0.00    -0.072 A 
ENDROOT
TORSDOF 0
ENDMDL
