MODEL 1
REMARK minimizedAffinity 18.2499409
REMARK minimizedRMSD -1
REMARK  0 active torsions:
REMARK  status: ('A' for Active; 'I' for Inactive)
ROOT
ATOM      1  C1  DEN d   1       0.456  -0.097  -4.341  0.00  0.00     0.130 A 
ATOM      2  C2  DEN d   1      -0.415  -1.144  -3.815  0.00  0.00    -0.031 A 
ATOM      3  C3  DEN d   1       0.406  -2.047  -2.983  0.00  0.00     0.027 A 
ATOM      4  C4  DEN d   1       2.928  -1.923  -2.459  0.00  0.00     0.027 A 
ATOM      5  C5  DEN d   1       4.089  -1.219  -2.689  0.00  0.00    -0.003 A 
ATOM      6  C6  DEN d   1       4.128  -0.121  -3.506  0.00  0.00     0.001 A 
ATOM      7  C7  DEN d   1       2.973   0.333  -4.088  0.00  0.00     0.017 A 
ATOM      8  C8  DEN d   1       1.800  -0.376  -3.866  0.00  0.00    -0.094 A 
ATOM      9  C9  DEN d   1       1.780  -1.477  -3.027  0.00  0.00    -0.072 A 
ENDROOT
TORSDOF 0
ENDMDL
