MODEL 1
REMARK minimizedAffinity 9.40398598
REMARK minimizedRMSD -1
REMARK  0 active torsions:
REMARK  status: ('A' for Active; 'I' for Inactive)
ROOT
ATOM      1  C1  DEN d   1       2.832  -1.559   3.959  0.00  0.00     0.130 A 
ATOM      2  C2  DEN d   1       1.554  -2.264   3.890  0.00  0.00    -0.031 A 
ATOM      3  C3  DEN d   1       1.764  -3.638   4.388  0.00  0.00     0.027 A 
ATOM      4  C4  DEN d   1       3.930  -4.736   5.259  0.00  0.00     0.027 A 
ATOM      5  C5  DEN d   1       5.272  -4.537   5.497  0.00  0.00    -0.003 A 
ATOM      6  C6  DEN d   1       5.897  -3.353   5.209  0.00  0.00     0.001 A 
ATOM      7  C7  DEN d   1       5.169  -2.306   4.709  0.00  0.00     0.017 A 
ATOM      8  C8  DEN d   1       3.817  -2.501   4.460  0.00  0.00    -0.094 A 
ATOM      9  C9  DEN d   1       3.201  -3.701   4.769  0.00  0.00    -0.072 A 
ENDROOT
TORSDOF 0
ENDMDL
