MODEL 1
REMARK minimizedAffinity 6.65958643
REMARK minimizedRMSD -1
REMARK  0 active torsions:
REMARK  status: ('A' for Active; 'I' for Inactive)
ROOT
ATOM      1  C1  DEN d   1       1.863  -1.715   3.153  0.00  0.00     0.130 A 
ATOM      2  C2  DEN d   1       0.704  -2.600   3.075  0.00  0.00    -0.031 A 
ATOM      3  C3  DEN d   1       0.919  -3.718   4.016  0.00  0.00     0.027 A 
ATOM      4  C4  DEN d   1       2.920  -4.159   5.581  0.00  0.00     0.027 A 
ATOM      5  C5  DEN d   1       4.150  -3.692   5.990  0.00  0.00    -0.003 A 
ATOM      6  C6  DEN d   1       4.714  -2.561   5.462  0.00  0.00     0.001 A 
ATOM      7  C7  DEN d   1       4.027  -1.834   4.526  0.00  0.00     0.017 A 
ATOM      8  C8  DEN d   1       2.790  -2.302   4.104  0.00  0.00    -0.094 A 
ATOM      9  C9  DEN d   1       2.231  -3.441   4.659  0.00  0.00    -0.072 A 
ENDROOT
TORSDOF 0
ENDMDL
