MODEL 1
REMARK minimizedAffinity 10.8283949
REMARK minimizedRMSD -1
REMARK  0 active torsions:
REMARK  status: ('A' for Active; 'I' for Inactive)
ROOT
ATOM      1  C1  DEN d   1       3.899  -4.083   5.218  0.00  0.00     0.130 A 
ATOM      2  C2  DEN d   1       5.046  -3.631   6.000  0.00  0.00    -0.031 A 
ATOM      3  C3  DEN d   1       5.075  -2.155   5.956  0.00  0.00     0.027 A 
ATOM      4  C4  DEN d   1       3.461  -0.535   4.763  0.00  0.00     0.027 A 
ATOM      5  C5  DEN d   1       2.343  -0.451   3.964  0.00  0.00    -0.003 A 
ATOM      6  C6  DEN d   1       1.689  -1.563   3.502  0.00  0.00     0.001 A 
ATOM      7  C7  DEN d   1       2.123  -2.808   3.874  0.00  0.00     0.017 A 
ATOM      8  C8  DEN d   1       3.255  -2.901   4.673  0.00  0.00    -0.094 A 
ATOM      9  C9  DEN d   1       3.894  -1.765   5.140  0.00  0.00    -0.072 A 
ENDROOT
TORSDOF 0
ENDMDL
