MODEL 1
REMARK minimizedAffinity 17.4590721
REMARK minimizedRMSD -1
REMARK  0 active torsions:
REMARK  status: ('A' for Active; 'I' for Inactive)
ROOT
ATOM      1  C1  DEN d   1       2.042  -4.110   4.364  0.00  0.00     0.130 A 
ATOM      2  C2  DEN d   1       1.811  -2.708   4.026  0.00  0.00    -0.031 A 
ATOM      3  C3  DEN d   1       3.059  -1.963   4.291  0.00  0.00     0.027 A 
ATOM      4  C4  DEN d   1       5.314  -2.840   5.184  0.00  0.00     0.027 A 
ATOM      5  C5  DEN d   1       5.989  -3.957   5.624  0.00  0.00    -0.003 A 
ATOM      6  C6  DEN d   1       5.390  -5.187   5.708  0.00  0.00     0.001 A 
ATOM      7  C7  DEN d   1       4.091  -5.338   5.302  0.00  0.00     0.017 A 
ATOM      8  C8  DEN d   1       3.401  -4.215   4.863  0.00  0.00    -0.094 A 
ATOM      9  C9  DEN d   1       4.028  -2.983   4.775  0.00  0.00    -0.072 A 
ENDROOT
TORSDOF 0
ENDMDL
