MODEL 1
REMARK minimizedAffinity 17.8171978
REMARK minimizedRMSD -1
REMARK  0 active torsions:
REMARK  status: ('A' for Active; 'I' for Inactive)
ROOT
ATOM      1  O1  BZF d   1      -2.609   2.049  -2.164  0.00  0.00    -0.204 OA
ATOM      2  C2  BZF d   1      -3.106   0.844  -2.620  0.00  0.00     0.174 A 
ATOM      3  C3  BZF d   1      -4.433   0.757  -2.392  0.00  0.00    -0.012 A 
ATOM      4  C3A BZF d   1      -4.803   2.023  -1.837  0.00  0.00    -0.107 A 
ATOM      5  C4  BZF d   1      -5.989   2.553  -1.418  0.00  0.00     0.055 A 
ATOM      6  C5  BZF d   1      -5.998   3.791  -0.858  0.00  0.00    -0.016 A 
ATOM      7  C6  BZF d   1      -4.840   4.524  -0.697  0.00  0.00     0.022 A 
ATOM      8  C7  BZF d   1      -3.640   4.042  -1.102  0.00  0.00     0.029 A 
ATOM      9  C7A BZF d   1      -3.633   2.805  -1.699  0.00  0.00     0.058 A 
ENDROOT
TORSDOF 0
ENDMDL
