MODEL 1
REMARK minimizedAffinity 19.9013138
REMARK minimizedRMSD -1
REMARK  0 active torsions:
REMARK  status: ('A' for Active; 'I' for Inactive)
ROOT
ATOM      1  O1  BZF d   1       5.539  -1.766   1.124  0.00  0.00    -0.204 OA
ATOM      2  C2  BZF d   1       5.998  -2.617   2.111  0.00  0.00     0.174 A 
ATOM      3  C3  BZF d   1       5.024  -2.882   3.005  0.00  0.00    -0.012 A 
ATOM      4  C3A BZF d   1       3.858  -2.225   2.497  0.00  0.00    -0.107 A 
ATOM      5  C4  BZF d   1       2.567  -2.133   2.934  0.00  0.00     0.055 A 
ATOM      6  C5  BZF d   1       1.692  -1.354   2.246  0.00  0.00    -0.016 A 
ATOM      7  C6  BZF d   1       2.073  -0.650   1.123  0.00  0.00     0.022 A 
ATOM      8  C7  BZF d   1       3.341  -0.715   0.649  0.00  0.00     0.029 A 
ATOM      9  C7A BZF d   1       4.220  -1.527   1.322  0.00  0.00     0.058 A 
ENDROOT
TORSDOF 0
ENDMDL
