MODEL 1
REMARK minimizedAffinity 1.83207786
REMARK minimizedRMSD -1
REMARK  0 active torsions:
REMARK  status: ('A' for Active; 'I' for Inactive)
ROOT
ATOM      1  O1  BZF d   1       4.899   5.995  -1.967  0.00  0.00    -0.204 OA
ATOM      2  C2  BZF d   1       3.656   5.599  -1.513  0.00  0.00     0.174 A 
ATOM      3  C3  BZF d   1       2.893   5.157  -2.533  0.00  0.00    -0.012 A 
ATOM      4  C3A BZF d   1       3.742   5.199  -3.684  0.00  0.00    -0.107 A 
ATOM      5  C4  BZF d   1       3.561   4.868  -4.997  0.00  0.00     0.055 A 
ATOM      6  C5  BZF d   1       4.568   5.097  -5.880  0.00  0.00    -0.016 A 
ATOM      7  C6  BZF d   1       5.765   5.660  -5.487  0.00  0.00     0.022 A 
ATOM      8  C7  BZF d   1       5.992   6.000  -4.195  0.00  0.00     0.029 A 
ATOM      9  C7A BZF d   1       4.989   5.739  -3.294  0.00  0.00     0.058 A 
ENDROOT
TORSDOF 0
ENDMDL
