MODEL 1
REMARK minimizedAffinity 9.3708725
REMARK minimizedRMSD -1
REMARK  0 active torsions:
REMARK  status: ('A' for Active; 'I' for Inactive)
ROOT
ATOM      1  O1  BZF d   1       1.851   0.529   2.812  0.00  0.00    -0.204 OA
ATOM      2  C2  BZF d   1       2.237   0.452   1.487  0.00  0.00     0.174 A 
ATOM      3  C3  BZF d   1       2.241  -0.828   1.063  0.00  0.00    -0.012 A 
ATOM      4  C3A BZF d   1       1.744  -1.591   2.166  0.00  0.00    -0.107 A 
ATOM      5  C4  BZF d   1       1.501  -2.922   2.353  0.00  0.00     0.055 A 
ATOM      6  C5  BZF d   1       1.085  -3.353   3.573  0.00  0.00    -0.016 A 
ATOM      7  C6  BZF d   1       0.907  -2.482   4.628  0.00  0.00     0.022 A 
ATOM      8  C7  BZF d   1       1.131  -1.152   4.490  0.00  0.00     0.029 A 
ATOM      9  C7A BZF d   1       1.519  -0.710   3.249  0.00  0.00     0.058 A 
ENDROOT
TORSDOF 0
ENDMDL
