MODEL 1
REMARK minimizedAffinity 3.17125869
REMARK minimizedRMSD -1
REMARK  0 active torsions:
REMARK  status: ('A' for Active; 'I' for Inactive)
ROOT
ATOM      1  O1  BZF d   1       5.115   4.003  -5.585  0.00  0.00    -0.204 OA
ATOM      2  C2  BZF d   1       5.951   5.030  -5.980  0.00  0.00     0.174 A 
ATOM      3  C3  BZF d   1       6.000   5.995  -5.040  0.00  0.00    -0.012 A 
ATOM      4  C3A BZF d   1       5.213   5.501  -3.952  0.00  0.00    -0.107 A 
ATOM      5  C4  BZF d   1       4.895   6.000  -2.721  0.00  0.00     0.055 A 
ATOM      6  C5  BZF d   1       4.044   5.300  -1.925  0.00  0.00    -0.016 A 
ATOM      7  C6  BZF d   1       3.491   4.103  -2.329  0.00  0.00     0.022 A 
ATOM      8  C7  BZF d   1       3.781   3.566  -3.539  0.00  0.00     0.029 A 
ATOM      9  C7A BZF d   1       4.665   4.254  -4.332  0.00  0.00     0.058 A 
ENDROOT
TORSDOF 0
ENDMDL
