MODEL 1
REMARK minimizedAffinity 12.5167952
REMARK minimizedRMSD -1
REMARK  0 active torsions:
REMARK  status: ('A' for Active; 'I' for Inactive)
ROOT
ATOM      1  O1  BZF d   1       0.879  -1.457   4.147  0.00  0.00    -0.204 OA
ATOM      2  C2  BZF d   1       0.958  -2.815   3.906  0.00  0.00     0.174 A 
ATOM      3  C3  BZF d   1       1.553  -3.055   2.719  0.00  0.00    -0.012 A 
ATOM      4  C3A BZF d   1       1.948  -1.771   2.228  0.00  0.00    -0.107 A 
ATOM      5  C4  BZF d   1       2.598  -1.355   1.102  0.00  0.00     0.055 A 
ATOM      6  C5  BZF d   1       2.763  -0.023   0.888  0.00  0.00    -0.016 A 
ATOM      7  C6  BZF d   1       2.287   0.919   1.775  0.00  0.00     0.022 A 
ATOM      8  C7  BZF d   1       1.640   0.555   2.909  0.00  0.00     0.029 A 
ATOM      9  C7A BZF d   1       1.500  -0.791   3.145  0.00  0.00     0.058 A 
ENDROOT
TORSDOF 0
ENDMDL
