MODEL 1
REMARK minimizedAffinity 11.8503113
REMARK minimizedRMSD -1
REMARK  0 active torsions:
REMARK  status: ('A' for Active; 'I' for Inactive)
ROOT
ATOM      1  O1  BZF d   1       3.605  -0.078  -0.356  0.00  0.00    -0.204 OA
ATOM      2  C2  BZF d   1       3.770   1.244  -0.720  0.00  0.00     0.174 A 
ATOM      3  C3  BZF d   1       3.034   2.053   0.070  0.00  0.00    -0.012 A 
ATOM      4  C3A BZF d   1       2.440   1.189   1.044  0.00  0.00    -0.107 A 
ATOM      5  C4  BZF d   1       1.613   1.404   2.109  0.00  0.00     0.055 A 
ATOM      6  C5  BZF d   1       1.155   0.337   2.815  0.00  0.00    -0.016 A 
ATOM      7  C6  BZF d   1       1.499  -0.956   2.481  0.00  0.00     0.022 A 
ATOM      8  C7  BZF d   1       2.320  -1.219   1.436  0.00  0.00     0.029 A 
ATOM      9  C7A BZF d   1       2.811  -0.141   0.740  0.00  0.00     0.058 A 
ENDROOT
TORSDOF 0
ENDMDL
