MODEL 1
REMARK minimizedAffinity -2.60291362
REMARK minimizedRMSD -1
REMARK  0 active torsions:
REMARK  status: ('A' for Active; 'I' for Inactive)
ROOT
ATOM      1  C1  BNZ d   1       0.946  -0.784   0.080  0.00  0.00     0.000 A 
ATOM      2  C2  BNZ d   1      -0.414  -0.943   0.050  0.00  0.00     0.000 A 
ATOM      3  C3  BNZ d   1      -1.247   0.085   0.397  0.00  0.00     0.000 A 
ATOM      4  C4  BNZ d   1      -0.719   1.254   0.811  0.00  0.00     0.000 A 
ATOM      5  C5  BNZ d   1       0.651   1.426   0.856  0.00  0.00     0.000 A 
ATOM      6  C6  BNZ d   1       1.485   0.403   0.469  0.00  0.00     0.000 A 
ENDROOT
TORSDOF 0
ENDMDL
