MODEL 1
REMARK minimizedAffinity 1.34143829
REMARK minimizedRMSD -1
REMARK  0 active torsions:
REMARK  status: ('A' for Active; 'I' for Inactive)
ROOT
ATOM      1  C1  BNZ d   1      -2.072   0.889  -0.125  0.00  0.00     0.000 A 
ATOM      2  C2  BNZ d   1      -1.931   2.177   0.318  0.00  0.00     0.000 A 
ATOM      3  C3  BNZ d   1      -1.068   2.476   1.335  0.00  0.00     0.000 A 
ATOM      4  C4  BNZ d   1      -0.378   1.484   1.933  0.00  0.00     0.000 A 
ATOM      5  C5  BNZ d   1      -0.517   0.179   1.503  0.00  0.00     0.000 A 
ATOM      6  C6  BNZ d   1      -1.357  -0.113   0.454  0.00  0.00     0.000 A 
ENDROOT
TORSDOF 0
ENDMDL
