MODEL 1
REMARK minimizedAffinity -3.05583978
REMARK minimizedRMSD -1
REMARK  0 active torsions:
REMARK  status: ('A' for Active; 'I' for Inactive)
ROOT
ATOM      1  C1  BNZ d   1       0.745  -0.301   0.622  0.00  0.00     0.000 A 
ATOM      2  C2  BNZ d   1       1.195   0.961   0.906  0.00  0.00     0.000 A 
ATOM      3  C3  BNZ d   1       0.328   2.016   0.972  0.00  0.00     0.000 A 
ATOM      4  C4  BNZ d   1      -0.980   1.815   0.714  0.00  0.00     0.000 A 
ATOM      5  C5  BNZ d   1      -1.448   0.550   0.418  0.00  0.00     0.000 A 
ATOM      6  C6  BNZ d   1      -0.579  -0.516   0.391  0.00  0.00     0.000 A 
ENDROOT
TORSDOF 0
ENDMDL
