MODEL 1
REMARK minimizedAffinity -4.9092927
REMARK minimizedRMSD -1
REMARK  0 active torsions:
REMARK  status: ('A' for Active; 'I' for Inactive)
ROOT
ATOM      1  C1  BNZ d   1       0.355   2.950   0.088  0.00  0.00     0.000 A 
ATOM      2  C2  BNZ d   1       1.715   3.052   0.212  0.00  0.00     0.000 A 
ATOM      3  C3  BNZ d   1       2.510   1.944   0.124  0.00  0.00     0.000 A 
ATOM      4  C4  BNZ d   1       1.943   0.732  -0.046  0.00  0.00     0.000 A 
ATOM      5  C5  BNZ d   1       0.572   0.612  -0.163  0.00  0.00     0.000 A 
ATOM      6  C6  BNZ d   1      -0.222   1.735  -0.114  0.00  0.00     0.000 A 
ENDROOT
TORSDOF 0
ENDMDL
