MODEL 1
REMARK minimizedAffinity -5.0290308
REMARK minimizedRMSD -1
REMARK  0 active torsions:
REMARK  status: ('A' for Active; 'I' for Inactive)
ROOT
ATOM      1  C1  BNZ d   1      -0.233   0.610  -0.017  0.00  0.00     0.000 A 
ATOM      2  C2  BNZ d   1       0.981   1.075  -0.447  0.00  0.00     0.000 A 
ATOM      3  C3  BNZ d   1       1.424   2.316  -0.085  0.00  0.00     0.000 A 
ATOM      4  C4  BNZ d   1       0.637   3.106   0.673  0.00  0.00     0.000 A 
ATOM      5  C5  BNZ d   1      -0.594   2.656   1.108  0.00  0.00     0.000 A 
ATOM      6  C6  BNZ d   1      -1.020   1.391   0.773  0.00  0.00     0.000 A 
ENDROOT
TORSDOF 0
ENDMDL
