MODEL 1
REMARK minimizedAffinity -3.70749927
REMARK minimizedRMSD -1
REMARK  0 active torsions:
REMARK  status: ('A' for Active; 'I' for Inactive)
ROOT
ATOM      1  C1  BNZ d   1      -1.078  -3.876  -1.095  0.00  0.00     0.000 A 
ATOM      2  C2  BNZ d   1      -0.748  -3.184   0.040  0.00  0.00     0.000 A 
ATOM      3  C3  BNZ d   1       0.005  -2.045  -0.029  0.00  0.00     0.000 A 
ATOM      4  C4  BNZ d   1       0.458  -1.622  -1.227  0.00  0.00     0.000 A 
ATOM      5  C5  BNZ d   1       0.141  -2.313  -2.379  0.00  0.00     0.000 A 
ATOM      6  C6  BNZ d   1      -0.649  -3.438  -2.309  0.00  0.00     0.000 A 
ENDROOT
TORSDOF 0
ENDMDL
