MODEL 1
REMARK minimizedAffinity -1.54716682
REMARK minimizedRMSD -1
REMARK  0 active torsions:
REMARK  status: ('A' for Active; 'I' for Inactive)
ROOT
ATOM      1  C1  BNZ d   1      -0.942   1.143   0.239  0.00  0.00     0.000 A 
ATOM      2  C2  BNZ d   1       0.141   0.546   0.828  0.00  0.00     0.000 A 
ATOM      3  C3  BNZ d   1       0.592  -0.669   0.394  0.00  0.00     0.000 A 
ATOM      4  C4  BNZ d   1      -0.062  -1.303  -0.601  0.00  0.00     0.000 A 
ATOM      5  C5  BNZ d   1      -1.161  -0.718  -1.199  0.00  0.00     0.000 A 
ATOM      6  C6  BNZ d   1      -1.589   0.522  -0.785  0.00  0.00     0.000 A 
ENDROOT
TORSDOF 0
ENDMDL
