MODEL 1
REMARK minimizedAffinity -4.95926619
REMARK minimizedRMSD -1
REMARK  0 active torsions:
REMARK  status: ('A' for Active; 'I' for Inactive)
ROOT
ATOM      1  C1  BNZ d   1       1.669   3.282   0.284  0.00  0.00     0.000 A 
ATOM      2  C2  BNZ d   1       0.375   3.110  -0.129  0.00  0.00     0.000 A 
ATOM      3  C3  BNZ d   1      -0.082   1.877  -0.504  0.00  0.00     0.000 A 
ATOM      4  C4  BNZ d   1       0.765   0.828  -0.504  0.00  0.00     0.000 A 
ATOM      5  C5  BNZ d   1       2.075   0.988  -0.099  0.00  0.00     0.000 A 
ATOM      6  C6  BNZ d   1       2.521   2.222   0.315  0.00  0.00     0.000 A 
ENDROOT
TORSDOF 0
ENDMDL
