MODEL 1
REMARK minimizedAffinity -4.17856979
REMARK minimizedRMSD -1
REMARK  0 active torsions:
REMARK  status: ('A' for Active; 'I' for Inactive)
ROOT
ATOM      1  C1  BNZ d   1       1.149  -0.810   0.589  0.00  0.00     0.000 A 
ATOM      2  C2  BNZ d   1      -0.215  -0.876   0.681  0.00  0.00     0.000 A 
ATOM      3  C3  BNZ d   1      -0.970   0.263   0.721  0.00  0.00     0.000 A 
ATOM      4  C4  BNZ d   1      -0.358   1.464   0.710  0.00  0.00     0.000 A 
ATOM      5  C5  BNZ d   1       1.017   1.547   0.627  0.00  0.00     0.000 A 
ATOM      6  C6  BNZ d   1       1.772   0.399   0.547  0.00  0.00     0.000 A 
ENDROOT
TORSDOF 0
ENDMDL
