MODEL 1
REMARK minimizedAffinity -3.44482946
REMARK minimizedRMSD -1
REMARK  0 active torsions:
REMARK  status: ('A' for Active; 'I' for Inactive)
ROOT
ATOM      1  C1  BNZ d   1       0.310  -1.303   1.234  0.00  0.00     0.000 A 
ATOM      2  C2  BNZ d   1      -0.968  -0.818   1.320  0.00  0.00     0.000 A 
ATOM      3  C3  BNZ d   1      -1.272   0.435   0.867  0.00  0.00     0.000 A 
ATOM      4  C4  BNZ d   1      -0.293   1.216   0.366  0.00  0.00     0.000 A 
ATOM      5  C5  BNZ d   1       1.002   0.745   0.281  0.00  0.00     0.000 A 
ATOM      6  C6  BNZ d   1       1.297  -0.532   0.702  0.00  0.00     0.000 A 
ENDROOT
TORSDOF 0
ENDMDL
