MODEL 1
REMARK minimizedAffinity -5.00280428
REMARK minimizedRMSD -1
REMARK  0 active torsions:
REMARK  status: ('A' for Active; 'I' for Inactive)
ROOT
ATOM      1  C1  BNZ d   1       0.571   0.121   0.401  0.00  0.00     0.000 A 
ATOM      2  C2  BNZ d   1       1.764   0.722   0.700  0.00  0.00     0.000 A 
ATOM      3  C3  BNZ d   1       1.811   2.040   1.063  0.00  0.00     0.000 A 
ATOM      4  C4  BNZ d   1       0.673   2.763   1.086  0.00  0.00     0.000 A 
ATOM      5  C5  BNZ d   1      -0.536   2.173   0.777  0.00  0.00     0.000 A 
ATOM      6  C6  BNZ d   1      -0.585   0.837   0.451  0.00  0.00     0.000 A 
ENDROOT
TORSDOF 0
ENDMDL
