MODEL 1
REMARK minimizedAffinity 0.544388354
REMARK minimizedRMSD -1
REMARK  0 active torsions:
REMARK  status: ('A' for Active; 'I' for Inactive)
ROOT
ATOM      1  C1  BNZ d   1      -1.591  -3.331  -1.922  0.00  0.00     0.000 A 
ATOM      2  C2  BNZ d   1      -0.914  -3.677  -3.061  0.00  0.00     0.000 A 
ATOM      3  C3  BNZ d   1       0.415  -3.390  -3.200  0.00  0.00     0.000 A 
ATOM      4  C4  BNZ d   1       1.055  -2.723  -2.218  0.00  0.00     0.000 A 
ATOM      5  C5  BNZ d   1       0.384  -2.358  -1.068  0.00  0.00     0.000 A 
ATOM      6  C6  BNZ d   1      -0.944  -2.683  -0.915  0.00  0.00     0.000 A 
ENDROOT
TORSDOF 0
ENDMDL
