MODEL 1
REMARK minimizedAffinity -3.68366432
REMARK minimizedRMSD -1
REMARK  0 active torsions:
REMARK  status: ('A' for Active; 'I' for Inactive)
ROOT
ATOM      1  C1  BNZ d   1      -0.787   2.348   0.893  0.00  0.00     0.000 A 
ATOM      2  C2  BNZ d   1      -1.387   1.160   0.574  0.00  0.00     0.000 A 
ATOM      3  C3  BNZ d   1      -0.643   0.084   0.176  0.00  0.00     0.000 A 
ATOM      4  C4  BNZ d   1       0.694   0.210   0.059  0.00  0.00     0.000 A 
ATOM      5  C5  BNZ d   1       1.314   1.405   0.367  0.00  0.00     0.000 A 
ATOM      6  C6  BNZ d   1       0.565   2.474   0.805  0.00  0.00     0.000 A 
ENDROOT
TORSDOF 0
ENDMDL
