MODEL 1
REMARK minimizedAffinity -5.11196804
REMARK minimizedRMSD -1
REMARK  0 active torsions:
REMARK  status: ('A' for Active; 'I' for Inactive)
ROOT
ATOM      1  C1  BNZ d   1       1.294   2.380   0.079  0.00  0.00     0.000 A 
ATOM      2  C2  BNZ d   1       2.049   1.237   0.100  0.00  0.00     0.000 A 
ATOM      3  C3  BNZ d   1       1.462   0.013   0.259  0.00  0.00     0.000 A 
ATOM      4  C4  BNZ d   1       0.127  -0.064   0.438  0.00  0.00     0.000 A 
ATOM      5  C5  BNZ d   1      -0.646   1.080   0.428  0.00  0.00     0.000 A 
ATOM      6  C6  BNZ d   1      -0.057   2.307   0.229  0.00  0.00     0.000 A 
ENDROOT
TORSDOF 0
ENDMDL
