MODEL 1
REMARK minimizedAffinity 10.5703707
REMARK minimizedRMSD -1
REMARK  1 active torsions:
REMARK  status: ('A' for Active; 'I' for Inactive)
REMARK    1  A    between atoms: N_2  and  C1_3 
ROOT
ATOM      1  C1  UNL d   1       0.448  -5.210  -4.021  0.00  0.00     0.143 A 
ATOM      2  C2  UNL d   1      -0.647  -4.400  -3.700  0.00  0.00    -0.057 A 
ATOM      3  C3  UNL d   1      -1.809  -4.407  -4.482  0.00  0.00     0.033 A 
ATOM      4  C4  UNL d   1      -1.885  -5.206  -5.618  0.00  0.00    -0.042 A 
ATOM      5  C5  UNL d   1      -0.800  -6.000  -5.970  0.00  0.00     0.033 A 
ATOM      6  C6  UNL d   1       0.355  -5.993  -5.182  0.00  0.00    -0.057 A 
ENDROOT
BRANCH   1   7
ATOM      7  N   UNL d   1       1.668  -5.174  -3.341  0.00  0.00    -0.732 N 
ATOM      8  C   UNL d   1       1.884  -5.999  -2.171  0.00  0.00     0.284 C 
ATOM      9  H3  UNL d   1       2.464  -5.132  -3.972  0.00  0.00     0.395 HD
ENDBRANCH   1   7
TORSDOF 1
ENDMDL
