MODEL 1
REMARK minimizedAffinity 13.8938313
REMARK minimizedRMSD -1
REMARK  1 active torsions:
REMARK  status: ('A' for Active; 'I' for Inactive)
REMARK    1  A    between atoms: N_2  and  C1_3 
ROOT
ATOM      1  C1  UNL d   1       3.957  -1.527  -0.441  0.00  0.00     0.143 A 
ATOM      2  C2  UNL d   1       3.719  -2.738   0.217  0.00  0.00    -0.057 A 
ATOM      3  C3  UNL d   1       4.615  -3.810   0.112  0.00  0.00     0.033 A 
ATOM      4  C4  UNL d   1       5.753  -3.698  -0.680  0.00  0.00    -0.042 A 
ATOM      5  C5  UNL d   1       5.997  -2.511  -1.363  0.00  0.00     0.033 A 
ATOM      6  C6  UNL d   1       5.102  -1.443  -1.249  0.00  0.00    -0.057 A 
ENDROOT
BRANCH   1   7
ATOM      7  N   UNL d   1       3.056  -0.459  -0.455  0.00  0.00    -0.732 N 
ATOM      8  C   UNL d   1       1.853  -0.521  -1.257  0.00  0.00     0.284 C 
ATOM      9  H3  UNL d   1       2.920  -0.054   0.468  0.00  0.00     0.395 HD
ENDBRANCH   1   7
TORSDOF 1
ENDMDL
