MODEL 1
REMARK minimizedAffinity 7.98240137
REMARK minimizedRMSD -1
REMARK  1 active torsions:
REMARK  status: ('A' for Active; 'I' for Inactive)
REMARK    1  A    between atoms: N_2  and  C1_3 
ROOT
ATOM      1  C1  UNL d   1       0.011  -0.993  -1.624  0.00  0.00     0.143 A 
ATOM      2  C2  UNL d   1       0.929  -0.116  -1.038  0.00  0.00    -0.057 A 
ATOM      3  C3  UNL d   1       2.031  -0.593  -0.318  0.00  0.00     0.033 A 
ATOM      4  C4  UNL d   1       2.219  -1.960  -0.146  0.00  0.00    -0.042 A 
ATOM      5  C5  UNL d   1       1.305  -2.850  -0.699  0.00  0.00     0.033 A 
ATOM      6  C6  UNL d   1       0.210  -2.368  -1.423  0.00  0.00    -0.057 A 
ENDROOT
BRANCH   1   7
ATOM      7  N   UNL d   1      -1.158  -0.580  -2.268  0.00  0.00    -0.732 N 
ATOM      8  C   UNL d   1      -2.187   0.131  -1.542  0.00  0.00     0.284 C 
ATOM      9  H3  UNL d   1      -0.979  -0.215  -3.201  0.00  0.00     0.395 HD
ENDBRANCH   1   7
TORSDOF 1
ENDMDL
