MODEL 1
REMARK minimizedAffinity 13.4801512
REMARK minimizedRMSD -1
REMARK  1 active torsions:
REMARK  status: ('A' for Active; 'I' for Inactive)
REMARK    1  A    between atoms: N_2  and  C1_3 
ROOT
ATOM      1  C1  UNL d   1       2.760   0.455   4.007  0.00  0.00     0.143 A 
ATOM      2  C2  UNL d   1       3.001  -0.828   3.503  0.00  0.00    -0.057 A 
ATOM      3  C3  UNL d   1       2.113  -1.883   3.748  0.00  0.00     0.033 A 
ATOM      4  C4  UNL d   1       0.981  -1.679   4.530  0.00  0.00    -0.042 A 
ATOM      5  C5  UNL d   1       0.735  -0.419   5.062  0.00  0.00     0.033 A 
ATOM      6  C6  UNL d   1       1.621   0.632   4.807  0.00  0.00    -0.057 A 
ENDROOT
BRANCH   1   7
ATOM      7  N   UNL d   1       3.654   1.520   3.880  0.00  0.00    -0.732 N 
ATOM      8  C   UNL d   1       3.991   2.340   5.024  0.00  0.00     0.284 C 
ATOM      9  H3  UNL d   1       4.447   1.294   3.283  0.00  0.00     0.395 HD
ENDBRANCH   1   7
TORSDOF 1
ENDMDL
