MODEL 1
REMARK minimizedAffinity 7.82770777
REMARK minimizedRMSD -1
REMARK  1 active torsions:
REMARK  status: ('A' for Active; 'I' for Inactive)
REMARK    1  A    between atoms: N_2  and  C1_3 
ROOT
ATOM      1  C1  UNL d   1       1.882   4.410   1.486  0.00  0.00     0.143 A 
ATOM      2  C2  UNL d   1       1.090   3.262   1.383  0.00  0.00    -0.057 A 
ATOM      3  C3  UNL d   1       0.014   3.199   0.489  0.00  0.00     0.033 A 
ATOM      4  C4  UNL d   1      -0.307   4.299  -0.300  0.00  0.00    -0.042 A 
ATOM      5  C5  UNL d   1       0.451   5.460  -0.196  0.00  0.00     0.033 A 
ATOM      6  C6  UNL d   1       1.528   5.514   0.693  0.00  0.00    -0.057 A 
ENDROOT
BRANCH   1   7
ATOM      7  N   UNL d   1       2.904   4.569   2.425  0.00  0.00    -0.732 N 
ATOM      8  C   UNL d   1       3.251   3.491   3.326  0.00  0.00     0.284 C 
ATOM      9  H3  UNL d   1       3.706   5.069   2.046  0.00  0.00     0.395 HD
ENDBRANCH   1   7
TORSDOF 1
ENDMDL
