MODEL 1
REMARK minimizedAffinity 6.03868628
REMARK minimizedRMSD -1
REMARK  1 active torsions:
REMARK  status: ('A' for Active; 'I' for Inactive)
REMARK    1  A    between atoms: N_2  and  C1_3 
ROOT
ATOM      1  C1  UNL d   1       0.529   3.320   0.316  0.00  0.00     0.143 A 
ATOM      2  C2  UNL d   1      -0.793   3.776   0.273  0.00  0.00    -0.057 A 
ATOM      3  C3  UNL d   1      -1.094   5.099  -0.075  0.00  0.00     0.033 A 
ATOM      4  C4  UNL d   1      -0.072   5.999  -0.359  0.00  0.00    -0.042 A 
ATOM      5  C5  UNL d   1       1.250   5.575  -0.298  0.00  0.00     0.033 A 
ATOM      6  C6  UNL d   1       1.544   4.251   0.043  0.00  0.00    -0.057 A 
ENDROOT
BRANCH   1   7
ATOM      7  N   UNL d   1       0.898   2.045   0.750  0.00  0.00    -0.732 N 
ATOM      8  C   UNL d   1       0.756   0.899  -0.123  0.00  0.00     0.284 C 
ATOM      9  H3  UNL d   1       1.761   2.053   1.288  0.00  0.00     0.395 HD
ENDBRANCH   1   7
TORSDOF 1
ENDMDL
