MODEL 1
REMARK minimizedAffinity 15.3921595
REMARK minimizedRMSD -1
REMARK  1 active torsions:
REMARK  status: ('A' for Active; 'I' for Inactive)
REMARK    1  A    between atoms: N_2  and  C1_3 
ROOT
ATOM      1  C1  UNL d   1       3.602  -2.489   5.281  0.00  0.00     0.143 A 
ATOM      2  C2  UNL d   1       2.962  -1.281   5.578  0.00  0.00    -0.057 A 
ATOM      3  C3  UNL d   1       1.937  -0.783   4.765  0.00  0.00     0.033 A 
ATOM      4  C4  UNL d   1       1.553  -1.473   3.619  0.00  0.00    -0.042 A 
ATOM      5  C5  UNL d   1       2.193  -2.662   3.290  0.00  0.00     0.033 A 
ATOM      6  C6  UNL d   1       3.211  -3.158   4.111  0.00  0.00    -0.057 A 
ENDROOT
BRANCH   1   7
ATOM      7  N   UNL d   1       4.694  -2.986   5.996  0.00  0.00    -0.732 N 
ATOM      8  C   UNL d   1       4.993  -4.402   5.995  0.00  0.00     0.284 C 
ATOM      9  H3  UNL d   1       5.514  -2.389   5.919  0.00  0.00     0.395 HD
ENDBRANCH   1   7
TORSDOF 1
ENDMDL
