MODEL 1
REMARK minimizedAffinity 10.594676
REMARK minimizedRMSD -1
REMARK  1 active torsions:
REMARK  status: ('A' for Active; 'I' for Inactive)
REMARK    1  A    between atoms: N_2  and  C1_3 
ROOT
ATOM      1  C1  UNL d   1       2.015   4.534   1.143  0.00  0.00     0.143 A 
ATOM      2  C2  UNL d   1       1.254   3.363   1.236  0.00  0.00    -0.057 A 
ATOM      3  C3  UNL d   1       0.029   3.239   0.570  0.00  0.00     0.033 A 
ATOM      4  C4  UNL d   1      -0.473   4.298  -0.179  0.00  0.00    -0.042 A 
ATOM      5  C5  UNL d   1       0.254   5.480  -0.265  0.00  0.00     0.033 A 
ATOM      6  C6  UNL d   1       1.480   5.596   0.397  0.00  0.00    -0.057 A 
ENDROOT
BRANCH   1   7
ATOM      7  N   UNL d   1       3.193   4.755   1.861  0.00  0.00    -0.732 N 
ATOM      8  C   UNL d   1       3.401   5.998   2.572  0.00  0.00     0.284 C 
ATOM      9  H3  UNL d   1       3.498   3.928   2.370  0.00  0.00     0.395 HD
ENDBRANCH   1   7
TORSDOF 1
ENDMDL
