MODEL 1
REMARK minimizedAffinity 7.65909433
REMARK minimizedRMSD -1
REMARK  1 active torsions:
REMARK  status: ('A' for Active; 'I' for Inactive)
REMARK    1  A    between atoms: N_2  and  C1_3 
ROOT
ATOM      1  C1  UNL d   1       1.708   5.120   0.912  0.00  0.00     0.143 A 
ATOM      2  C2  UNL d   1       0.870   5.451  -0.158  0.00  0.00    -0.057 A 
ATOM      3  C3  UNL d   1      -0.230   4.652  -0.494  0.00  0.00     0.033 A 
ATOM      4  C4  UNL d   1      -0.494   3.487   0.218  0.00  0.00    -0.042 A 
ATOM      5  C5  UNL d   1       0.341   3.124   1.270  0.00  0.00     0.033 A 
ATOM      6  C6  UNL d   1       1.433   3.930   1.605  0.00  0.00    -0.057 A 
ENDROOT
BRANCH   1   7
ATOM      7  N   UNL d   1       2.873   5.820   1.234  0.00  0.00    -0.732 N 
ATOM      8  C   UNL d   1       3.279   5.981   2.614  0.00  0.00     0.284 C 
ATOM      9  H3  UNL d   1       3.639   5.614   0.596  0.00  0.00     0.395 HD
ENDBRANCH   1   7
TORSDOF 1
ENDMDL
