MODEL 1
REMARK minimizedAffinity 0.308634669
REMARK minimizedRMSD -1
REMARK  1 active torsions:
REMARK  status: ('A' for Active; 'I' for Inactive)
REMARK    1  A    between atoms: C1_2  and  C2_3 
ROOT
ATOM      1  C2  UNL d   1      -1.147   5.994  -4.479  0.00  0.00    -0.077 A 
ATOM      2  C3  UNL d   1      -0.985   5.999  -3.086  0.00  0.00     0.002 A 
ATOM      3  C4  UNL d   1      -2.099   5.997  -2.245  0.00  0.00     0.002 A 
ATOM      4  C5  UNL d   1      -3.383   5.986  -2.786  0.00  0.00    -0.004 A 
ATOM      5  C6  UNL d   1      -3.555   5.983  -4.170  0.00  0.00     0.002 A 
ATOM      6  C7  UNL d   1      -2.442   5.986  -5.012  0.00  0.00     0.002 A 
ENDROOT
BRANCH   1   7
ATOM      7  C1  UNL d   1       0.053   5.946  -5.387  0.00  0.00     0.055 C 
ATOM      8  C   UNL d   1       1.351   5.999  -4.593  0.00  0.00     0.019 C 
ENDBRANCH   1   7
TORSDOF 1
ENDMDL
