MODEL 1
REMARK minimizedAffinity -2.84814191
REMARK minimizedRMSD -1
REMARK  1 active torsions:
REMARK  status: ('A' for Active; 'I' for Inactive)
REMARK    1  A    between atoms: C1_2  and  C2_3 
ROOT
ATOM      1  C2  UNL d   1      -0.823  -1.890  -4.652  0.00  0.00    -0.077 A 
ATOM      2  C3  UNL d   1      -0.092  -2.798  -3.873  0.00  0.00     0.002 A 
ATOM      3  C4  UNL d   1       1.302  -2.728  -3.829  0.00  0.00     0.002 A 
ATOM      4  C5  UNL d   1       1.976  -1.750  -4.558  0.00  0.00    -0.004 A 
ATOM      5  C6  UNL d   1       1.258  -0.844  -5.337  0.00  0.00     0.002 A 
ATOM      6  C7  UNL d   1      -0.135  -0.913  -5.384  0.00  0.00     0.002 A 
ENDROOT
BRANCH   1   7
ATOM      7  C1  UNL d   1      -2.328  -1.932  -4.662  0.00  0.00     0.055 C 
ATOM      8  C   UNL d   1      -2.887  -2.107  -3.257  0.00  0.00     0.019 C 
ENDBRANCH   1   7
TORSDOF 1
ENDMDL
