MODEL 1
REMARK minimizedAffinity -1.67760825
REMARK minimizedRMSD -1
REMARK  1 active torsions:
REMARK  status: ('A' for Active; 'I' for Inactive)
REMARK    1  A    between atoms: C1_2  and  C2_3 
ROOT
ATOM      1  C2  UNL d   1      -1.556   5.957  -3.590  0.00  0.00    -0.077 A 
ATOM      2  C3  UNL d   1      -1.936   5.961  -2.241  0.00  0.00     0.002 A 
ATOM      3  C4  UNL d   1      -3.287   5.984  -1.887  0.00  0.00     0.002 A 
ATOM      4  C5  UNL d   1      -4.267   6.000  -2.877  0.00  0.00    -0.004 A 
ATOM      5  C6  UNL d   1      -3.899   5.999  -4.222  0.00  0.00     0.002 A 
ATOM      6  C7  UNL d   1      -2.550   5.976  -4.577  0.00  0.00     0.002 A 
ENDROOT
BRANCH   1   7
ATOM      7  C1  UNL d   1      -0.101   5.882  -3.973  0.00  0.00     0.055 C 
ATOM      8  C   UNL d   1       0.076   5.921  -5.484  0.00  0.00     0.019 C 
ENDBRANCH   1   7
TORSDOF 1
ENDMDL
