MODEL 1
REMARK minimizedAffinity 2.9132421
REMARK minimizedRMSD -1
REMARK  1 active torsions:
REMARK  status: ('A' for Active; 'I' for Inactive)
REMARK    1  A    between atoms: C1_2  and  C2_3 
ROOT
ATOM      1  C2  UNL d   1      -1.146  -1.226  -4.439  0.00  0.00    -0.077 A 
ATOM      2  C3  UNL d   1      -0.270  -1.842  -3.534  0.00  0.00     0.002 A 
ATOM      3  C4  UNL d   1       1.097  -1.910  -3.810  0.00  0.00     0.002 A 
ATOM      4  C5  UNL d   1       1.600  -1.361  -4.987  0.00  0.00    -0.004 A 
ATOM      5  C6  UNL d   1       0.737  -0.749  -5.895  0.00  0.00     0.002 A 
ATOM      6  C7  UNL d   1      -0.630  -0.681  -5.622  0.00  0.00     0.002 A 
ENDROOT
BRANCH   1   7
ATOM      7  C1  UNL d   1      -2.614  -1.108  -4.121  0.00  0.00     0.055 C 
ATOM      8  C   UNL d   1      -2.852  -1.063  -2.619  0.00  0.00     0.019 C 
ENDBRANCH   1   7
TORSDOF 1
ENDMDL
