MODEL 1
REMARK minimizedAffinity -2.32285643
REMARK minimizedRMSD -1
REMARK  1 active torsions:
REMARK  status: ('A' for Active; 'I' for Inactive)
REMARK    1  A    between atoms: C1_2  and  C2_3 
ROOT
ATOM      1  C2  UNL d   1       1.558   5.993  -4.976  0.00  0.00    -0.077 A 
ATOM      2  C3  UNL d   1       1.416   5.996  -3.581  0.00  0.00     0.002 A 
ATOM      3  C4  UNL d   1       0.146   5.999  -3.001  0.00  0.00     0.002 A 
ATOM      4  C5  UNL d   1      -0.990   5.995  -3.807  0.00  0.00    -0.004 A 
ATOM      5  C6  UNL d   1      -0.859   5.995  -5.195  0.00  0.00     0.002 A 
ATOM      6  C7  UNL d   1       0.409   5.993  -5.777  0.00  0.00     0.002 A 
ENDROOT
BRANCH   1   7
ATOM      7  C1  UNL d   1       2.927   5.940  -5.604  0.00  0.00     0.055 C 
ATOM      8  C   UNL d   1       4.016   5.819  -4.548  0.00  0.00     0.019 C 
ENDBRANCH   1   7
TORSDOF 1
ENDMDL
