MODEL 1
REMARK minimizedAffinity -1.04788482
REMARK minimizedRMSD -1
REMARK  1 active torsions:
REMARK  status: ('A' for Active; 'I' for Inactive)
REMARK    1  A    between atoms: C1_2  and  C2_3 
ROOT
ATOM      1  C2  UNL d   1       4.403   4.130  -4.452  0.00  0.00    -0.077 A 
ATOM      2  C3  UNL d   1       4.979   5.084  -5.302  0.00  0.00     0.002 A 
ATOM      3  C4  UNL d   1       4.176   5.995  -5.989  0.00  0.00     0.002 A 
ATOM      4  C5  UNL d   1       2.792   5.965  -5.830  0.00  0.00    -0.004 A 
ATOM      5  C6  UNL d   1       2.209   5.019  -4.988  0.00  0.00     0.002 A 
ATOM      6  C7  UNL d   1       3.010   4.107  -4.301  0.00  0.00     0.002 A 
ENDROOT
BRANCH   1   7
ATOM      7  C1  UNL d   1       5.271   3.178  -3.672  0.00  0.00     0.055 C 
ATOM      8  C   UNL d   1       5.063   1.741  -4.125  0.00  0.00     0.019 C 
ENDBRANCH   1   7
TORSDOF 1
ENDMDL
