MODEL 1
REMARK minimizedAffinity -0.282900989
REMARK minimizedRMSD -1
REMARK  1 active torsions:
REMARK  status: ('A' for Active; 'I' for Inactive)
REMARK    1  A    between atoms: C1_2  and  C2_3 
ROOT
ATOM      1  C2  UNL d   1      -0.599   5.924  -3.658  0.00  0.00    -0.077 A 
ATOM      2  C3  UNL d   1      -0.486   5.924  -2.261  0.00  0.00     0.002 A 
ATOM      3  C4  UNL d   1      -1.629   5.963  -1.460  0.00  0.00     0.002 A 
ATOM      4  C5  UNL d   1      -2.892   5.997  -2.047  0.00  0.00    -0.004 A 
ATOM      5  C6  UNL d   1      -3.015   5.999  -3.436  0.00  0.00     0.002 A 
ATOM      6  C7  UNL d   1      -1.873   5.962  -4.238  0.00  0.00     0.002 A 
ENDROOT
BRANCH   1   7
ATOM      7  C1  UNL d   1       0.631   5.833  -4.523  0.00  0.00     0.055 C 
ATOM      8  C   UNL d   1       0.284   5.992  -5.997  0.00  0.00     0.019 C 
ENDBRANCH   1   7
TORSDOF 1
ENDMDL
