MODEL 1
REMARK minimizedAffinity -1.26737797
REMARK minimizedRMSD -1
REMARK  1 active torsions:
REMARK  status: ('A' for Active; 'I' for Inactive)
REMARK    1  A    between atoms: C1_2  and  C2_3 
ROOT
ATOM      1  C2  UNL d   1       0.297   5.987  -3.650  0.00  0.00    -0.077 A 
ATOM      2  C3  UNL d   1      -0.062   5.986  -5.005  0.00  0.00     0.002 A 
ATOM      3  C4  UNL d   1       0.922   5.989  -5.996  0.00  0.00     0.002 A 
ATOM      4  C5  UNL d   1       2.269   5.989  -5.642  0.00  0.00    -0.004 A 
ATOM      5  C6  UNL d   1       2.636   5.992  -4.297  0.00  0.00     0.002 A 
ATOM      6  C7  UNL d   1       1.655   5.990  -3.305  0.00  0.00     0.002 A 
ENDROOT
BRANCH   1   7
ATOM      7  C1  UNL d   1      -0.762   5.934  -2.580  0.00  0.00     0.055 C 
ATOM      8  C   UNL d   1      -2.137   5.669  -3.175  0.00  0.00     0.019 C 
ENDBRANCH   1   7
TORSDOF 1
ENDMDL
