MODEL 1
REMARK minimizedAffinity 3.28421092
REMARK minimizedRMSD -1
REMARK  1 active torsions:
REMARK  status: ('A' for Active; 'I' for Inactive)
REMARK    1  A    between atoms: C1_2  and  C2_3 
ROOT
ATOM      1  C2  UNL d   1       3.406   5.771  -4.478  0.00  0.00    -0.077 A 
ATOM      2  C3  UNL d   1       2.530   5.829  -3.385  0.00  0.00     0.002 A 
ATOM      3  C4  UNL d   1       1.154   5.945  -3.588  0.00  0.00     0.002 A 
ATOM      4  C5  UNL d   1       0.641   5.999  -4.883  0.00  0.00    -0.004 A 
ATOM      5  C6  UNL d   1       1.504   5.945  -5.976  0.00  0.00     0.002 A 
ATOM      6  C7  UNL d   1       2.881   5.830  -5.775  0.00  0.00     0.002 A 
ENDROOT
BRANCH   1   7
ATOM      7  C1  UNL d   1       4.887   5.597  -4.262  0.00  0.00     0.055 C 
ATOM      8  C   UNL d   1       5.457   4.523  -5.176  0.00  0.00     0.019 C 
ENDBRANCH   1   7
TORSDOF 1
ENDMDL
