MODEL 1
REMARK minimizedAffinity -2.91192341
REMARK minimizedRMSD -1
REMARK  1 active torsions:
REMARK  status: ('A' for Active; 'I' for Inactive)
REMARK    1  A    between atoms: C1_2  and  C2_3 
ROOT
ATOM      1  C2  UNL d   1       3.058   5.643  -4.927  0.00  0.00    -0.077 A 
ATOM      2  C3  UNL d   1       3.910   6.000  -5.982  0.00  0.00     0.002 A 
ATOM      3  C4  UNL d   1       5.256   5.629  -5.959  0.00  0.00     0.002 A 
ATOM      4  C5  UNL d   1       5.761   4.896  -4.887  0.00  0.00    -0.004 A 
ATOM      5  C6  UNL d   1       4.922   4.538  -3.832  0.00  0.00     0.002 A 
ATOM      6  C7  UNL d   1       3.577   4.909  -3.853  0.00  0.00     0.002 A 
ENDROOT
BRANCH   1   7
ATOM      7  C1  UNL d   1       1.595   5.999  -4.973  0.00  0.00     0.055 C 
ATOM      8  C   UNL d   1       0.736   4.774  -5.250  0.00  0.00     0.019 C 
ENDBRANCH   1   7
TORSDOF 1
ENDMDL
