MODEL 1
REMARK minimizedAffinity 1.00090384
REMARK minimizedRMSD -1
REMARK  1 active torsions:
REMARK  status: ('A' for Active; 'I' for Inactive)
REMARK    1  A    between atoms: C1_2  and  C2_3 
ROOT
ATOM      1  C2  UNL d   1       3.756   5.359  -5.072  0.00  0.00    -0.077 A 
ATOM      2  C3  UNL d   1       4.989   6.000  -4.882  0.00  0.00     0.002 A 
ATOM      3  C4  UNL d   1       5.998   5.384  -4.139  0.00  0.00     0.002 A 
ATOM      4  C5  UNL d   1       5.787   4.124  -3.584  0.00  0.00    -0.004 A 
ATOM      5  C6  UNL d   1       4.564   3.479  -3.766  0.00  0.00     0.002 A 
ATOM      6  C7  UNL d   1       3.553   4.093  -4.507  0.00  0.00     0.002 A 
ENDROOT
BRANCH   1   7
ATOM      7  C1  UNL d   1       2.684   5.999  -5.915  0.00  0.00     0.055 C 
ATOM      8  C   UNL d   1       1.314   5.412  -5.608  0.00  0.00     0.019 C 
ENDBRANCH   1   7
TORSDOF 1
ENDMDL
