MODEL 1
REMARK minimizedAffinity -1.60097718
REMARK minimizedRMSD -1
REMARK  1 active torsions:
REMARK  status: ('A' for Active; 'I' for Inactive)
REMARK    1  A    between atoms: C1_2  and  C2_3 
ROOT
ATOM      1  C2  UNL d   1      -0.869   5.960  -4.726  0.00  0.00    -0.077 A 
ATOM      2  C3  UNL d   1      -2.226   5.991  -5.077  0.00  0.00     0.002 A 
ATOM      3  C4  UNL d   1      -3.211   6.000  -4.089  0.00  0.00     0.002 A 
ATOM      4  C5  UNL d   1      -2.851   5.982  -2.743  0.00  0.00    -0.004 A 
ATOM      5  C6  UNL d   1      -1.504   5.948  -2.383  0.00  0.00     0.002 A 
ATOM      6  C7  UNL d   1      -0.518   5.938  -3.370  0.00  0.00     0.002 A 
ENDROOT
BRANCH   1   7
ATOM      7  C1  UNL d   1       0.197   6.000  -5.790  0.00  0.00     0.055 C 
ATOM      8  C   UNL d   1       1.575   5.731  -5.204  0.00  0.00     0.019 C 
ENDBRANCH   1   7
TORSDOF 1
ENDMDL
