MODEL 1
REMARK minimizedAffinity -1.56994319
REMARK minimizedRMSD -1
REMARK  1 active torsions:
REMARK  status: ('A' for Active; 'I' for Inactive)
REMARK    1  A    between atoms: C1_2  and  C2_3 
ROOT
ATOM      1  C2  UNL d   1      -1.873   5.679  -3.803  0.00  0.00    -0.077 A 
ATOM      2  C3  UNL d   1      -0.767   5.050  -3.214  0.00  0.00     0.002 A 
ATOM      3  C4  UNL d   1      -0.784   4.711  -1.860  0.00  0.00     0.002 A 
ATOM      4  C5  UNL d   1      -1.906   4.994  -1.084  0.00  0.00    -0.004 A 
ATOM      5  C6  UNL d   1      -3.011   5.622  -1.659  0.00  0.00     0.002 A 
ATOM      6  C7  UNL d   1      -2.995   5.962  -3.013  0.00  0.00     0.002 A 
ENDROOT
BRANCH   1   7
ATOM      7  C1  UNL d   1      -1.875   6.000  -5.274  0.00  0.00     0.055 C 
ATOM      8  C   UNL d   1      -0.735   5.297  -5.996  0.00  0.00     0.019 C 
ENDBRANCH   1   7
TORSDOF 1
ENDMDL
