MODEL 1
REMARK minimizedAffinity 0.742729068
REMARK minimizedRMSD -1
REMARK  1 active torsions:
REMARK  status: ('A' for Active; 'I' for Inactive)
REMARK    1  A    between atoms: C1_2  and  C2_3 
ROOT
ATOM      1  C2  UNL d   1       0.885   0.528   0.538  0.00  0.00    -0.077 A 
ATOM      2  C3  UNL d   1       1.797   1.015   1.485  0.00  0.00     0.002 A 
ATOM      3  C4  UNL d   1       2.547   2.162   1.219  0.00  0.00     0.002 A 
ATOM      4  C5  UNL d   1       2.389   2.835   0.009  0.00  0.00    -0.004 A 
ATOM      5  C6  UNL d   1       1.486   2.358  -0.940  0.00  0.00     0.002 A 
ATOM      6  C7  UNL d   1       0.736   1.210  -0.677  0.00  0.00     0.002 A 
ENDROOT
BRANCH   1   7
ATOM      7  C1  UNL d   1       0.040  -0.681   0.843  0.00  0.00     0.055 C 
ATOM      8  C   UNL d   1      -1.071  -0.345   1.827  0.00  0.00     0.019 C 
ENDBRANCH   1   7
TORSDOF 1
ENDMDL
