MODEL 1
REMARK minimizedAffinity -3.46483922
REMARK minimizedRMSD -1
REMARK  1 active torsions:
REMARK  status: ('A' for Active; 'I' for Inactive)
REMARK    1  A    between atoms: C3_4  and  O_7 
ROOT
ATOM      1  C   UNL d   1       2.566  -1.171  -1.600  0.00  0.00    -0.033 A 
ATOM      2  C1  UNL d   1       3.253  -0.698  -2.720  0.00  0.00     0.039 A 
ATOM      3  C2  UNL d   1       3.806   0.584  -2.712  0.00  0.00    -0.080 A 
ATOM      4  C3  UNL d   1       3.667   1.381  -1.579  0.00  0.00     0.150 A 
ATOM      5  C4  UNL d   1       2.987   0.914  -0.458  0.00  0.00    -0.007 A 
ATOM      6  C5  UNL d   1       2.435  -0.365  -0.469  0.00  0.00     0.039 A 
ENDROOT
BRANCH   4   7
ATOM      7  O   UNL d   1       4.185   2.641  -1.526  0.00  0.00    -0.526 OA
ATOM      8  H5  UNL d   1       4.602   2.838  -2.381  0.00  0.00     0.418 HD
ENDBRANCH   4   7
TORSDOF 1
ENDMDL
