MODEL 1
REMARK minimizedAffinity -1.04313183
REMARK minimizedRMSD -1
REMARK  1 active torsions:
REMARK  status: ('A' for Active; 'I' for Inactive)
REMARK    1  A    between atoms: C3_4  and  O_7 
ROOT
ATOM      1  C   UNL d   1       2.119  -0.497   0.587  0.00  0.00    -0.033 A 
ATOM      2  C1  UNL d   1       2.011   0.820   1.039  0.00  0.00     0.039 A 
ATOM      3  C2  UNL d   1       1.341   1.098   2.232  0.00  0.00    -0.080 A 
ATOM      4  C3  UNL d   1       0.785   0.052   2.963  0.00  0.00     0.150 A 
ATOM      5  C4  UNL d   1       0.892  -1.262   2.522  0.00  0.00    -0.007 A 
ATOM      6  C5  UNL d   1       1.561  -1.538   1.330  0.00  0.00     0.039 A 
ENDROOT
BRANCH   4   7
ATOM      7  O   UNL d   1       0.118   0.275   4.131  0.00  0.00    -0.526 OA
ATOM      8  H5  UNL d   1       0.099   1.232   4.297  0.00  0.00     0.418 HD
ENDBRANCH   4   7
TORSDOF 1
ENDMDL
