MODEL 1
REMARK minimizedAffinity 1.09405935
REMARK minimizedRMSD -1
REMARK  1 active torsions:
REMARK  status: ('A' for Active; 'I' for Inactive)
REMARK    1  A    between atoms: C3_4  and  O_7 
ROOT
ATOM      1  C   UNL d   1       5.690   2.753  -0.756  0.00  0.00    -0.033 A 
ATOM      2  C1  UNL d   1       4.494   2.950  -0.062  0.00  0.00     0.039 A 
ATOM      3  C2  UNL d   1       3.605   1.888   0.114  0.00  0.00    -0.080 A 
ATOM      4  C3  UNL d   1       3.922   0.637  -0.407  0.00  0.00     0.150 A 
ATOM      5  C4  UNL d   1       5.113   0.433  -1.096  0.00  0.00    -0.007 A 
ATOM      6  C5  UNL d   1       6.000   1.495  -1.272  0.00  0.00     0.039 A 
ENDROOT
BRANCH   4   7
ATOM      7  O   UNL d   1       3.083  -0.428  -0.264  0.00  0.00    -0.526 OA
ATOM      8  H5  UNL d   1       2.287  -0.132   0.208  0.00  0.00     0.418 HD
ENDBRANCH   4   7
TORSDOF 1
ENDMDL
