MODEL 1
REMARK minimizedAffinity -1.7699672
REMARK minimizedRMSD -1
REMARK  1 active torsions:
REMARK  status: ('A' for Active; 'I' for Inactive)
REMARK    1  A    between atoms: C3_4  and  O_7 
ROOT
ATOM      1  C   UNL d   1      -5.929   1.644  -3.272  0.00  0.00    -0.033 A 
ATOM      2  C1  UNL d   1      -4.833   2.271  -2.675  0.00  0.00     0.039 A 
ATOM      3  C2  UNL d   1      -3.537   1.835  -2.959  0.00  0.00    -0.080 A 
ATOM      4  C3  UNL d   1      -3.351   0.773  -3.840  0.00  0.00     0.150 A 
ATOM      5  C4  UNL d   1      -4.438   0.146  -4.441  0.00  0.00    -0.007 A 
ATOM      6  C5  UNL d   1      -5.731   0.583  -4.155  0.00  0.00     0.039 A 
ENDROOT
BRANCH   4   7
ATOM      7  O   UNL d   1      -2.106   0.309  -4.144  0.00  0.00    -0.526 OA
ATOM      8  H5  UNL d   1      -1.455   0.819  -3.634  0.00  0.00     0.418 HD
ENDBRANCH   4   7
TORSDOF 1
ENDMDL
