MODEL 1
REMARK minimizedAffinity 3.36847234
REMARK minimizedRMSD -1
REMARK  1 active torsions:
REMARK  status: ('A' for Active; 'I' for Inactive)
REMARK    1  A    between atoms: C3_4  and  O_7 
ROOT
ATOM      1  C   UNL d   1      -5.040   1.806  -4.014  0.00  0.00    -0.033 A 
ATOM      2  C1  UNL d   1      -3.961   2.301  -3.279  0.00  0.00     0.039 A 
ATOM      3  C2  UNL d   1      -2.748   1.609  -3.263  0.00  0.00    -0.080 A 
ATOM      4  C3  UNL d   1      -2.627   0.426  -3.987  0.00  0.00     0.150 A 
ATOM      5  C4  UNL d   1      -3.697  -0.071  -4.725  0.00  0.00    -0.007 A 
ATOM      6  C5  UNL d   1      -4.907   0.621  -4.738  0.00  0.00     0.039 A 
ENDROOT
BRANCH   4   7
ATOM      7  O   UNL d   1      -1.465  -0.287  -3.999  0.00  0.00    -0.526 OA
ATOM      8  H5  UNL d   1      -0.824   0.161  -3.422  0.00  0.00     0.418 HD
ENDBRANCH   4   7
TORSDOF 1
ENDMDL
