MODEL 1
REMARK minimizedAffinity -3.08363676
REMARK minimizedRMSD -1
REMARK  1 active torsions:
REMARK  status: ('A' for Active; 'I' for Inactive)
REMARK    1  A    between atoms: C3_4  and  O_7 
ROOT
ATOM      1  C   UNL d   1      -5.992   0.726  -3.703  0.00  0.00    -0.033 A 
ATOM      2  C1  UNL d   1      -4.885   0.481  -4.518  0.00  0.00     0.039 A 
ATOM      3  C2  UNL d   1      -3.781   1.335  -4.476  0.00  0.00    -0.080 A 
ATOM      4  C3  UNL d   1      -3.797   2.429  -3.615  0.00  0.00     0.150 A 
ATOM      5  C4  UNL d   1      -4.894   2.677  -2.797  0.00  0.00    -0.007 A 
ATOM      6  C5  UNL d   1      -5.996   1.824  -2.841  0.00  0.00     0.039 A 
ENDROOT
BRANCH   4   7
ATOM      7  O   UNL d   1      -2.745   3.293  -3.542  0.00  0.00    -0.526 OA
ATOM      8  H5  UNL d   1      -2.071   3.013  -4.184  0.00  0.00     0.418 HD
ENDBRANCH   4   7
TORSDOF 1
ENDMDL
