MODEL 1
REMARK minimizedAffinity 5.87963581
REMARK minimizedRMSD -1
REMARK  1 active torsions:
REMARK  status: ('A' for Active; 'I' for Inactive)
REMARK    1  A    between atoms: C3_4  and  O_7 
ROOT
ATOM      1  C   UNL d   1      -3.423  -4.538  -5.358  0.00  0.00    -0.033 A 
ATOM      2  C1  UNL d   1      -2.436  -4.036  -4.507  0.00  0.00     0.039 A 
ATOM      3  C2  UNL d   1      -2.332  -4.513  -3.199  0.00  0.00    -0.080 A 
ATOM      4  C3  UNL d   1      -3.218  -5.491  -2.755  0.00  0.00     0.150 A 
ATOM      5  C4  UNL d   1      -4.201  -5.998  -3.599  0.00  0.00    -0.007 A 
ATOM      6  C5  UNL d   1      -4.304  -5.520  -4.905  0.00  0.00     0.039 A 
ENDROOT
BRANCH   4   7
ATOM      7  O   UNL d   1      -3.159  -5.983  -1.485  0.00  0.00    -0.526 OA
ATOM      8  H5  UNL d   1      -2.450  -5.519  -1.009  0.00  0.00     0.418 HD
ENDBRANCH   4   7
TORSDOF 1
ENDMDL
