MODEL 1
REMARK minimizedAffinity -1.01365924
REMARK minimizedRMSD -1
REMARK  1 active torsions:
REMARK  status: ('A' for Active; 'I' for Inactive)
REMARK    1  A    between atoms: C3_4  and  O_7 
ROOT
ATOM      1  C   UNL d   1      -5.252   1.093  -4.120  0.00  0.00    -0.033 A 
ATOM      2  C1  UNL d   1      -5.997   1.835  -3.202  0.00  0.00     0.039 A 
ATOM      3  C2  UNL d   1      -5.995   1.484  -1.851  0.00  0.00    -0.080 A 
ATOM      4  C3  UNL d   1      -5.244   0.389  -1.431  0.00  0.00     0.150 A 
ATOM      5  C4  UNL d   1      -4.496  -0.353  -2.339  0.00  0.00    -0.007 A 
ATOM      6  C5  UNL d   1      -4.500  -0.001  -3.688  0.00  0.00     0.039 A 
ENDROOT
BRANCH   4   7
ATOM      7  O   UNL d   1      -5.215   0.005  -0.123  0.00  0.00    -0.526 OA
ATOM      8  H5  UNL d   1      -5.801   0.592   0.383  0.00  0.00     0.418 HD
ENDBRANCH   4   7
TORSDOF 1
ENDMDL
