MODEL 1
REMARK minimizedAffinity 0.471251547
REMARK minimizedRMSD -1
REMARK  1 active torsions:
REMARK  status: ('A' for Active; 'I' for Inactive)
REMARK    1  A    between atoms: C3_4  and  O_7 
ROOT
ATOM      1  C   UNL d   1       0.391  -2.839  -0.980  0.00  0.00    -0.033 A 
ATOM      2  C1  UNL d   1       1.694  -2.345  -0.896  0.00  0.00     0.039 A 
ATOM      3  C2  UNL d   1       1.915  -0.974  -0.751  0.00  0.00    -0.080 A 
ATOM      4  C3  UNL d   1       0.826  -0.109  -0.691  0.00  0.00     0.150 A 
ATOM      5  C4  UNL d   1      -0.475  -0.595  -0.770  0.00  0.00    -0.007 A 
ATOM      6  C5  UNL d   1      -0.694  -1.964  -0.915  0.00  0.00     0.039 A 
ENDROOT
BRANCH   4   7
ATOM      7  O   UNL d   1       0.991   1.237  -0.555  0.00  0.00    -0.526 OA
ATOM      8  H5  UNL d   1       1.944   1.431  -0.543  0.00  0.00     0.418 HD
ENDBRANCH   4   7
TORSDOF 1
ENDMDL
