MODEL 1
REMARK minimizedAffinity 0.922419429
REMARK minimizedRMSD -1
REMARK  1 active torsions:
REMARK  status: ('A' for Active; 'I' for Inactive)
REMARK    1  A    between atoms: C1_2  and  C2_3 
ROOT
ATOM      1  C2  UNL d   1      -1.386   5.966  -3.333  0.00  0.00    -0.077 A 
ATOM      2  C3  UNL d   1      -0.067   5.976  -2.860  0.00  0.00     0.002 A 
ATOM      3  C4  UNL d   1       1.005   5.990  -3.755  0.00  0.00     0.002 A 
ATOM      4  C5  UNL d   1       0.768   6.000  -5.128  0.00  0.00    -0.004 A 
ATOM      5  C6  UNL d   1      -0.541   5.988  -5.608  0.00  0.00     0.002 A 
ATOM      6  C7  UNL d   1      -1.613   5.972  -4.715  0.00  0.00     0.002 A 
ENDROOT
BRANCH   1   7
ATOM      7  C1  UNL d   1      -2.544   6.000  -2.369  0.00  0.00     0.055 C 
ATOM      8  C   UNL d   1      -3.876   5.952  -3.102  0.00  0.00     0.019 C 
ENDBRANCH   1   7
TORSDOF 1
ENDMDL
