MODEL 1
REMARK minimizedAffinity 4.88741398
REMARK minimizedRMSD -1
REMARK  1 active torsions:
REMARK  status: ('A' for Active; 'I' for Inactive)
REMARK    1  A    between atoms: C1_2  and  C2_3 
ROOT
ATOM      1  C2  UNL d   1      -3.291  -2.087  -2.580  0.00  0.00    -0.077 A 
ATOM      2  C3  UNL d   1      -3.902  -3.328  -2.808  0.00  0.00     0.002 A 
ATOM      3  C4  UNL d   1      -4.686  -3.922  -1.816  0.00  0.00     0.002 A 
ATOM      4  C5  UNL d   1      -4.868  -3.281  -0.593  0.00  0.00    -0.004 A 
ATOM      5  C6  UNL d   1      -4.262  -2.047  -0.356  0.00  0.00     0.002 A 
ATOM      6  C7  UNL d   1      -3.478  -1.453  -1.345  0.00  0.00     0.002 A 
ENDROOT
BRANCH   1   7
ATOM      7  C1  UNL d   1      -2.486  -1.422  -3.666  0.00  0.00     0.055 C 
ATOM      8  C   UNL d   1      -2.426  -2.285  -4.918  0.00  0.00     0.019 C 
ENDBRANCH   1   7
TORSDOF 1
ENDMDL
