MODEL 1
REMARK minimizedAffinity -2.16603279
REMARK minimizedRMSD -1
REMARK  1 active torsions:
REMARK  status: ('A' for Active; 'I' for Inactive)
REMARK    1  A    between atoms: C1_2  and  C2_3 
ROOT
ATOM      1  C2  UNL d   1      -0.112   5.964  -4.931  0.00  0.00    -0.077 A 
ATOM      2  C3  UNL d   1       0.072   5.999  -3.542  0.00  0.00     0.002 A 
ATOM      3  C4  UNL d   1      -1.028   5.976  -2.682  0.00  0.00     0.002 A 
ATOM      4  C5  UNL d   1      -2.319   5.913  -3.202  0.00  0.00    -0.004 A 
ATOM      5  C6  UNL d   1      -2.513   5.879  -4.582  0.00  0.00     0.002 A 
ATOM      6  C7  UNL d   1      -1.415   5.904  -5.443  0.00  0.00     0.002 A 
ENDROOT
BRANCH   1   7
ATOM      7  C1  UNL d   1       1.074   5.939  -5.859  0.00  0.00     0.055 C 
ATOM      8  C   UNL d   1       2.383   5.999  -5.085  0.00  0.00     0.019 C 
ENDBRANCH   1   7
TORSDOF 1
ENDMDL
