MODEL 1
REMARK minimizedAffinity -1.17471552
REMARK minimizedRMSD -1
REMARK  1 active torsions:
REMARK  status: ('A' for Active; 'I' for Inactive)
REMARK    1  A    between atoms: C1_2  and  C2_3 
ROOT
ATOM      1  C2  UNL d   1      -1.039   5.998  -4.818  0.00  0.00    -0.077 A 
ATOM      2  C3  UNL d   1      -0.536   5.998  -3.510  0.00  0.00     0.002 A 
ATOM      3  C4  UNL d   1      -1.406   5.998  -2.418  0.00  0.00     0.002 A 
ATOM      4  C5  UNL d   1      -2.784   5.993  -2.624  0.00  0.00    -0.004 A 
ATOM      5  C6  UNL d   1      -3.295   5.995  -3.921  0.00  0.00     0.002 A 
ATOM      6  C7  UNL d   1      -2.426   5.997  -5.014  0.00  0.00     0.002 A 
ENDROOT
BRANCH   1   7
ATOM      7  C1  UNL d   1      -0.102   5.949  -5.997  0.00  0.00     0.055 C 
ATOM      8  C   UNL d   1       1.352   5.960  -5.548  0.00  0.00     0.019 C 
ENDBRANCH   1   7
TORSDOF 1
ENDMDL
