MODEL 1
REMARK minimizedAffinity 1.26192033
REMARK minimizedRMSD -1
REMARK  1 active torsions:
REMARK  status: ('A' for Active; 'I' for Inactive)
REMARK    1  A    between atoms: C1_2  and  C2_3 
ROOT
ATOM      1  C2  UNL d   1      -0.898   5.998  -3.146  0.00  0.00    -0.077 A 
ATOM      2  C3  UNL d   1      -1.118   5.999  -1.761  0.00  0.00     0.002 A 
ATOM      3  C4  UNL d   1      -2.418   5.998  -1.252  0.00  0.00     0.002 A 
ATOM      4  C5  UNL d   1      -3.508   5.992  -2.120  0.00  0.00    -0.004 A 
ATOM      5  C6  UNL d   1      -3.300   5.993  -3.498  0.00  0.00     0.002 A 
ATOM      6  C7  UNL d   1      -2.001   5.995  -4.009  0.00  0.00     0.002 A 
ENDROOT
BRANCH   1   7
ATOM      7  C1  UNL d   1       0.503   5.950  -3.697  0.00  0.00     0.055 C 
ATOM      8  C   UNL d   1       0.501   5.993  -5.218  0.00  0.00     0.019 C 
ENDBRANCH   1   7
TORSDOF 1
ENDMDL
