MODEL 1
REMARK minimizedAffinity -2.58818698
REMARK minimizedRMSD -1
REMARK  1 active torsions:
REMARK  status: ('A' for Active; 'I' for Inactive)
REMARK    1  A    between atoms: C1_2  and  C2_3 
ROOT
ATOM      1  C2  UNL d   1       3.199   5.515  -4.259  0.00  0.00    -0.077 A 
ATOM      2  C3  UNL d   1       3.678   5.941  -5.506  0.00  0.00     0.002 A 
ATOM      3  C4  UNL d   1       4.891   5.456  -6.000  0.00  0.00     0.002 A 
ATOM      4  C5  UNL d   1       5.632   4.541  -5.256  0.00  0.00    -0.004 A 
ATOM      5  C6  UNL d   1       5.165   4.113  -4.013  0.00  0.00     0.002 A 
ATOM      6  C7  UNL d   1       3.954   4.597  -3.518  0.00  0.00     0.002 A 
ENDROOT
BRANCH   1   7
ATOM      7  C1  UNL d   1       1.868   5.999  -3.747  0.00  0.00     0.055 C 
ATOM      8  C   UNL d   1       0.814   5.985  -4.845  0.00  0.00     0.019 C 
ENDBRANCH   1   7
TORSDOF 1
ENDMDL
