MODEL 1
REMARK minimizedAffinity 2.95632052
REMARK minimizedRMSD -1
REMARK  1 active torsions:
REMARK  status: ('A' for Active; 'I' for Inactive)
REMARK    1  A    between atoms: C1_2  and  C2_3 
ROOT
ATOM      1  C2  UNL d   1      -3.073  -1.473  -3.150  0.00  0.00    -0.077 A 
ATOM      2  C3  UNL d   1      -2.659  -0.974  -1.907  0.00  0.00     0.002 A 
ATOM      3  C4  UNL d   1      -3.300  -1.378  -0.735  0.00  0.00     0.002 A 
ATOM      4  C5  UNL d   1      -4.355  -2.286  -0.793  0.00  0.00    -0.004 A 
ATOM      5  C6  UNL d   1      -4.776  -2.787  -2.024  0.00  0.00     0.002 A 
ATOM      6  C7  UNL d   1      -4.137  -2.383  -3.198  0.00  0.00     0.002 A 
ENDROOT
BRANCH   1   7
ATOM      7  C1  UNL d   1      -2.352  -1.076  -4.412  0.00  0.00     0.055 C 
ATOM      8  C   UNL d   1      -0.958  -1.686  -4.467  0.00  0.00     0.019 C 
ENDBRANCH   1   7
TORSDOF 1
ENDMDL
