MODEL 1
REMARK minimizedAffinity 1.95792925
REMARK minimizedRMSD -1
REMARK  1 active torsions:
REMARK  status: ('A' for Active; 'I' for Inactive)
REMARK    1  A    between atoms: C1_2  and  C2_3 
ROOT
ATOM      1  C2  UNL d   1      -0.378   5.952  -3.858  0.00  0.00    -0.077 A 
ATOM      2  C3  UNL d   1      -1.195   5.954  -4.997  0.00  0.00     0.002 A 
ATOM      3  C4  UNL d   1      -2.586   5.973  -4.868  0.00  0.00     0.002 A 
ATOM      4  C5  UNL d   1      -3.170   5.995  -3.604  0.00  0.00    -0.004 A 
ATOM      5  C6  UNL d   1      -2.365   5.992  -2.465  0.00  0.00     0.002 A 
ATOM      6  C7  UNL d   1      -0.975   5.972  -2.592  0.00  0.00     0.002 A 
ENDROOT
BRANCH   1   7
ATOM      7  C1  UNL d   1       1.122   5.981  -3.995  0.00  0.00     0.055 C 
ATOM      8  C   UNL d   1       1.563   5.477  -5.361  0.00  0.00     0.019 C 
ENDBRANCH   1   7
TORSDOF 1
ENDMDL
