MODEL 1
REMARK minimizedAffinity 5.09827805
REMARK minimizedRMSD -1
REMARK  1 active torsions:
REMARK  status: ('A' for Active; 'I' for Inactive)
REMARK    1  A    between atoms: C1_2  and  C2_3 
ROOT
ATOM      1  C2  UNL d   1       5.163   5.025   1.661  0.00  0.00    -0.081 A 
ATOM      2  C3  UNL d   1       4.529   5.975   2.472  0.00  0.00     0.006 A 
ATOM      3  C4  UNL d   1       4.628   5.896   3.863  0.00  0.00     0.002 A 
ATOM      4  C5  UNL d   1       5.367   4.873   4.466  0.00  0.00    -0.080 A 
ATOM      5  C6  UNL d   1       5.506   4.796   5.957  0.00  0.00     0.076 C 
ATOM      6  C7  UNL d   1       5.986   3.915   3.657  0.00  0.00     0.002 A 
ATOM      7  C8  UNL d   1       5.887   3.992   2.265  0.00  0.00     0.006 A 
ENDROOT
BRANCH   1   8
ATOM      8  C1  UNL d   1       5.113   5.144   0.159  0.00  0.00     0.054 C 
ATOM      9  C   UNL d   1       3.867   5.890  -0.296  0.00  0.00     0.018 C 
ENDBRANCH   1   8
TORSDOF 1
ENDMDL
