MODEL 1
REMARK minimizedAffinity 10.4187326
REMARK minimizedRMSD -1
REMARK  1 active torsions:
REMARK  status: ('A' for Active; 'I' for Inactive)
REMARK    1  A    between atoms: C1_2  and  C2_3 
ROOT
ATOM      1  C2  UNL d   1      -2.132  -0.960  -0.003  0.00  0.00    -0.081 A 
ATOM      2  C3  UNL d   1      -2.638  -1.269   1.265  0.00  0.00     0.006 A 
ATOM      3  C4  UNL d   1      -2.397  -0.421   2.349  0.00  0.00     0.002 A 
ATOM      4  C5  UNL d   1      -1.654   0.752   2.181  0.00  0.00    -0.080 A 
ATOM      5  C6  UNL d   1      -1.415   1.687   3.330  0.00  0.00     0.076 C 
ATOM      6  C7  UNL d   1      -1.134   1.052   0.917  0.00  0.00     0.002 A 
ATOM      7  C8  UNL d   1      -1.373   0.204  -0.166  0.00  0.00     0.006 A 
ENDROOT
BRANCH   1   8
ATOM      8  C1  UNL d   1      -2.444  -1.839  -1.188  0.00  0.00     0.054 C 
ATOM      9  C   UNL d   1      -1.192  -2.534  -1.706  0.00  0.00     0.018 C 
ENDBRANCH   1   8
TORSDOF 1
ENDMDL
