MODEL 1
REMARK minimizedAffinity 14.1503592
REMARK minimizedRMSD -1
REMARK  1 active torsions:
REMARK  status: ('A' for Active; 'I' for Inactive)
REMARK    1  A    between atoms: C1_2  and  C2_3 
ROOT
ATOM      1  C2  UNL d   1      -0.818   1.027   1.515  0.00  0.00    -0.081 A 
ATOM      2  C3  UNL d   1      -1.477   0.787   0.303  0.00  0.00     0.006 A 
ATOM      3  C4  UNL d   1      -0.748   0.599  -0.873  0.00  0.00     0.002 A 
ATOM      4  C5  UNL d   1       0.651   0.639  -0.856  0.00  0.00    -0.080 A 
ATOM      5  C6  UNL d   1       1.446   0.408  -2.107  0.00  0.00     0.076 C 
ATOM      6  C7  UNL d   1       1.308   0.896   0.351  0.00  0.00     0.002 A 
ATOM      7  C8  UNL d   1       0.580   1.085   1.528  0.00  0.00     0.006 A 
ENDROOT
BRANCH   1   8
ATOM      8  C1  UNL d   1      -1.599   1.166   2.797  0.00  0.00     0.054 C 
ATOM      9  C   UNL d   1      -2.575   0.013   2.978  0.00  0.00     0.018 C 
ENDBRANCH   1   8
TORSDOF 1
ENDMDL
