MODEL 1
REMARK minimizedAffinity 10.9075489
REMARK minimizedRMSD -1
REMARK  1 active torsions:
REMARK  status: ('A' for Active; 'I' for Inactive)
REMARK    1  A    between atoms: C1_2  and  C2_3 
ROOT
ATOM      1  C2  UNL d   1      -1.625   1.611   3.479  0.00  0.00    -0.081 A 
ATOM      2  C3  UNL d   1      -2.377   0.496   3.870  0.00  0.00     0.006 A 
ATOM      3  C4  UNL d   1      -2.797  -0.442   2.924  0.00  0.00     0.002 A 
ATOM      4  C5  UNL d   1      -2.466  -0.285   1.574  0.00  0.00    -0.080 A 
ATOM      5  C6  UNL d   1      -2.885  -1.300   0.552  0.00  0.00     0.076 C 
ATOM      6  C7  UNL d   1      -1.730   0.838   1.181  0.00  0.00     0.002 A 
ATOM      7  C8  UNL d   1      -1.310   1.776   2.126  0.00  0.00     0.006 A 
ENDROOT
BRANCH   1   8
ATOM      8  C1  UNL d   1      -1.116   2.590   4.506  0.00  0.00     0.054 C 
ATOM      9  C   UNL d   1      -1.708   3.975   4.292  0.00  0.00     0.018 C 
ENDBRANCH   1   8
TORSDOF 1
ENDMDL
