MODEL 1
REMARK minimizedAffinity 14.72964
REMARK minimizedRMSD -1
REMARK  1 active torsions:
REMARK  status: ('A' for Active; 'I' for Inactive)
REMARK    1  A    between atoms: C1_2  and  C2_3 
ROOT
ATOM      1  C2  UNL d   1       1.798  -2.267  -2.272  0.00  0.00    -0.081 A 
ATOM      2  C3  UNL d   1       1.159  -3.130  -3.170  0.00  0.00     0.006 A 
ATOM      3  C4  UNL d   1       0.615  -2.638  -4.359  0.00  0.00     0.002 A 
ATOM      4  C5  UNL d   1       0.708  -1.278  -4.673  0.00  0.00    -0.080 A 
ATOM      5  C6  UNL d   1       0.154  -0.742  -5.960  0.00  0.00     0.076 C 
ATOM      6  C7  UNL d   1       1.331  -0.413  -3.768  0.00  0.00     0.002 A 
ATOM      7  C8  UNL d   1       1.875  -0.904  -2.579  0.00  0.00     0.006 A 
ENDROOT
BRANCH   1   8
ATOM      8  C1  UNL d   1       2.443  -2.804  -1.020  0.00  0.00     0.054 C 
ATOM      9  C   UNL d   1       1.563  -3.849  -0.349  0.00  0.00     0.018 C 
ENDBRANCH   1   8
TORSDOF 1
ENDMDL
