MODEL 1
REMARK minimizedAffinity 9.6733408
REMARK minimizedRMSD -1
REMARK  1 active torsions:
REMARK  status: ('A' for Active; 'I' for Inactive)
REMARK    1  A    between atoms: C1_2  and  C2_3 
ROOT
ATOM      1  C2  UNL d   1       4.247   4.569  -0.010  0.00  0.00    -0.081 A 
ATOM      2  C3  UNL d   1       4.950   3.644   0.772  0.00  0.00     0.006 A 
ATOM      3  C4  UNL d   1       5.178   3.891   2.128  0.00  0.00     0.002 A 
ATOM      4  C5  UNL d   1       4.700   5.062   2.726  0.00  0.00    -0.080 A 
ATOM      5  C6  UNL d   1       4.912   5.325   4.187  0.00  0.00     0.076 C 
ATOM      6  C7  UNL d   1       4.013   5.994   1.941  0.00  0.00     0.002 A 
ATOM      7  C8  UNL d   1       3.786   5.748   0.585  0.00  0.00     0.006 A 
ENDROOT
BRANCH   1   8
ATOM      8  C1  UNL d   1       3.944   4.275  -1.457  0.00  0.00     0.054 C 
ATOM      9  C   UNL d   1       2.599   4.857  -1.869  0.00  0.00     0.018 C 
ENDBRANCH   1   8
TORSDOF 1
ENDMDL
