MODEL 1
REMARK minimizedAffinity 7.51481819
REMARK minimizedRMSD -1
REMARK  1 active torsions:
REMARK  status: ('A' for Active; 'I' for Inactive)
REMARK    1  A    between atoms: C1_2  and  C2_3 
ROOT
ATOM      1  C2  UNL d   1       1.259  -0.162  -2.388  0.00  0.00    -0.081 A 
ATOM      2  C3  UNL d   1       2.234   0.472  -1.608  0.00  0.00     0.006 A 
ATOM      3  C4  UNL d   1       2.618   1.786  -1.885  0.00  0.00     0.002 A 
ATOM      4  C5  UNL d   1       2.028   2.491  -2.940  0.00  0.00    -0.080 A 
ATOM      5  C6  UNL d   1       2.410   3.912  -3.229  0.00  0.00     0.076 C 
ATOM      6  C7  UNL d   1       1.067   1.852  -3.730  0.00  0.00     0.002 A 
ATOM      7  C8  UNL d   1       0.683   0.538  -3.454  0.00  0.00     0.006 A 
ENDROOT
BRANCH   1   8
ATOM      8  C1  UNL d   1       0.796  -1.556  -2.051  0.00  0.00     0.054 C 
ATOM      9  C   UNL d   1       1.857  -2.318  -1.269  0.00  0.00     0.018 C 
ENDBRANCH   1   8
TORSDOF 1
ENDMDL
