MODEL 1
REMARK minimizedAffinity 9.20597458
REMARK minimizedRMSD -1
REMARK  1 active torsions:
REMARK  status: ('A' for Active; 'I' for Inactive)
REMARK    1  A    between atoms: C1_2  and  C2_3 
ROOT
ATOM      1  C2  UNL d   1       4.095   4.268  -0.687  0.00  0.00    -0.081 A 
ATOM      2  C3  UNL d   1       4.612   3.300   0.183  0.00  0.00     0.006 A 
ATOM      3  C4  UNL d   1       5.238   3.679   1.373  0.00  0.00     0.002 A 
ATOM      4  C5  UNL d   1       5.351   5.031   1.716  0.00  0.00    -0.080 A 
ATOM      5  C6  UNL d   1       5.994   5.450   3.005  0.00  0.00     0.076 C 
ATOM      6  C7  UNL d   1       4.850   5.999   0.839  0.00  0.00     0.002 A 
ATOM      7  C8  UNL d   1       4.224   5.620  -0.351  0.00  0.00     0.006 A 
ENDROOT
BRANCH   1   8
ATOM      8  C1  UNL d   1       3.361   3.860  -1.939  0.00  0.00     0.054 C 
ATOM      9  C   UNL d   1       2.684   5.054  -2.597  0.00  0.00     0.018 C 
ENDBRANCH   1   8
TORSDOF 1
ENDMDL
