MODEL 1
REMARK minimizedAffinity 8.4132452
REMARK minimizedRMSD -1
REMARK  1 active torsions:
REMARK  status: ('A' for Active; 'I' for Inactive)
REMARK    1  A    between atoms: C1_2  and  C2_3 
ROOT
ATOM      1  C2  UNL d   1       1.990   1.767  -2.458  0.00  0.00    -0.081 A 
ATOM      2  C3  UNL d   1       2.710   0.573  -2.588  0.00  0.00     0.006 A 
ATOM      3  C4  UNL d   1       2.061  -0.660  -2.482  0.00  0.00     0.002 A 
ATOM      4  C5  UNL d   1       0.683  -0.719  -2.253  0.00  0.00    -0.080 A 
ATOM      5  C6  UNL d   1      -0.030  -2.036  -2.167  0.00  0.00     0.076 C 
ATOM      6  C7  UNL d   1      -0.034   0.473  -2.105  0.00  0.00     0.002 A 
ATOM      7  C8  UNL d   1       0.614   1.706  -2.210  0.00  0.00     0.006 A 
ENDROOT
BRANCH   1   8
ATOM      8  C1  UNL d   1       2.674   3.098  -2.636  0.00  0.00     0.054 C 
ATOM      9  C   UNL d   1       1.811   4.062  -3.438  0.00  0.00     0.018 C 
ENDBRANCH   1   8
TORSDOF 1
ENDMDL
