MODEL 1
REMARK minimizedAffinity 0.959259033
REMARK minimizedRMSD -1
REMARK  0 active torsions:
REMARK  status: ('A' for Active; 'I' for Inactive)
ROOT
ATOM      1  C1  BNZ d   1       3.262   1.965   6.000  0.00  0.00     0.000 A 
ATOM      2  C2  BNZ d   1       2.821   3.262   5.999  0.00  0.00     0.000 A 
ATOM      3  C3  BNZ d   1       3.020   4.068   4.913  0.00  0.00     0.000 A 
ATOM      4  C4  BNZ d   1       3.693   3.590   3.847  0.00  0.00     0.000 A 
ATOM      5  C5  BNZ d   1       4.152   2.288   3.836  0.00  0.00     0.000 A 
ATOM      6  C6  BNZ d   1       3.916   1.467   4.915  0.00  0.00     0.000 A 
ENDROOT
TORSDOF 0
ENDMDL
