MODEL 1
REMARK minimizedAffinity 1.07831669
REMARK minimizedRMSD -1
REMARK  0 active torsions:
REMARK  status: ('A' for Active; 'I' for Inactive)
ROOT
ATOM      1  C1  BNZ d   1       2.315   3.146   6.000  0.00  0.00     0.000 A 
ATOM      2  C2  BNZ d   1       3.276   2.171   5.994  0.00  0.00     0.000 A 
ATOM      3  C3  BNZ d   1       4.603   2.496   5.998  0.00  0.00     0.000 A 
ATOM      4  C4  BNZ d   1       4.968   3.794   5.966  0.00  0.00     0.000 A 
ATOM      5  C5  BNZ d   1       4.011   4.789   5.962  0.00  0.00     0.000 A 
ATOM      6  C6  BNZ d   1       2.675   4.458   5.998  0.00  0.00     0.000 A 
ENDROOT
TORSDOF 0
ENDMDL
