MODEL 1
REMARK minimizedAffinity -0.948962212
REMARK minimizedRMSD -1
REMARK  0 active torsions:
REMARK  status: ('A' for Active; 'I' for Inactive)
ROOT
ATOM      1  C1  BNZ d   1       4.132   3.014   5.971  0.00  0.00     0.000 A 
ATOM      2  C2  BNZ d   1       3.959   4.373   5.965  0.00  0.00     0.000 A 
ATOM      3  C3  BNZ d   1       2.706   4.919   5.999  0.00  0.00     0.000 A 
ATOM      4  C4  BNZ d   1       1.629   4.108   5.998  0.00  0.00     0.000 A 
ATOM      5  C5  BNZ d   1       1.787   2.737   5.994  0.00  0.00     0.000 A 
ATOM      6  C6  BNZ d   1       3.049   2.190   5.999  0.00  0.00     0.000 A 
ENDROOT
TORSDOF 0
ENDMDL
