MODEL 1
REMARK minimizedAffinity -0.455845296
REMARK minimizedRMSD -1
REMARK  0 active torsions:
REMARK  status: ('A' for Active; 'I' for Inactive)
ROOT
ATOM      1  C1  BNZ d   1       1.395   4.160   5.999  0.00  0.00     0.000 A 
ATOM      2  C2  BNZ d   1       1.904   2.889   5.998  0.00  0.00     0.000 A 
ATOM      3  C3  BNZ d   1       3.254   2.675   5.996  0.00  0.00     0.000 A 
ATOM      4  C4  BNZ d   1       4.092   3.731   5.956  0.00  0.00     0.000 A 
ATOM      5  C5  BNZ d   1       3.594   5.019   5.947  0.00  0.00     0.000 A 
ATOM      6  C6  BNZ d   1       2.235   5.230   5.988  0.00  0.00     0.000 A 
ENDROOT
TORSDOF 0
ENDMDL
