MODEL 1
REMARK minimizedAffinity -2.31956124
REMARK minimizedRMSD -1
REMARK  0 active torsions:
REMARK  status: ('A' for Active; 'I' for Inactive)
ROOT
ATOM      1  C1  BNZ d   1       3.227   4.589   5.990  0.00  0.00     0.000 A 
ATOM      2  C2  BNZ d   1       4.500   4.085   5.955  0.00  0.00     0.000 A 
ATOM      3  C3  BNZ d   1       4.718   2.736   5.917  0.00  0.00     0.000 A 
ATOM      4  C4  BNZ d   1       3.666   1.893   5.955  0.00  0.00     0.000 A 
ATOM      5  C5  BNZ d   1       2.377   2.386   6.000  0.00  0.00     0.000 A 
ATOM      6  C6  BNZ d   1       2.160   3.744   5.998  0.00  0.00     0.000 A 
ENDROOT
TORSDOF 0
ENDMDL
