MODEL 1
REMARK minimizedAffinity -3.39170289
REMARK minimizedRMSD -1
REMARK  0 active torsions:
REMARK  status: ('A' for Active; 'I' for Inactive)
ROOT
ATOM      1  C1  BNZ d   1       4.126   1.887   5.630  0.00  0.00     0.000 A 
ATOM      2  C2  BNZ d   1       5.190   2.742   5.523  0.00  0.00     0.000 A 
ATOM      3  C3  BNZ d   1       5.023   4.090   5.677  0.00  0.00     0.000 A 
ATOM      4  C4  BNZ d   1       3.788   4.584   5.898  0.00  0.00     0.000 A 
ATOM      5  C5  BNZ d   1       2.704   3.736   6.000  0.00  0.00     0.000 A 
ATOM      6  C6  BNZ d   1       2.881   2.377   5.883  0.00  0.00     0.000 A 
ENDROOT
TORSDOF 0
ENDMDL
