MODEL 1
REMARK minimizedAffinity -1.21398604
REMARK minimizedRMSD -1
REMARK  0 active torsions:
REMARK  status: ('A' for Active; 'I' for Inactive)
ROOT
ATOM      1  C1  BNZ d   1       3.355   3.516   5.941  0.00  0.00     0.000 A 
ATOM      2  C2  BNZ d   1       3.729   2.198   5.933  0.00  0.00     0.000 A 
ATOM      3  C3  BNZ d   1       5.048   1.845   5.982  0.00  0.00     0.000 A 
ATOM      4  C4  BNZ d   1       5.993   2.807   5.997  0.00  0.00     0.000 A 
ATOM      5  C5  BNZ d   1       5.632   4.140   5.996  0.00  0.00     0.000 A 
ATOM      6  C6  BNZ d   1       4.302   4.492   5.986  0.00  0.00     0.000 A 
ENDROOT
TORSDOF 0
ENDMDL
