MODEL 1
REMARK minimizedAffinity -2.25902438
REMARK minimizedRMSD -1
REMARK  0 active torsions:
REMARK  status: ('A' for Active; 'I' for Inactive)
ROOT
ATOM      1  C1  BNZ d   1       2.192   2.862   6.000  0.00  0.00     0.000 A 
ATOM      2  C2  BNZ d   1       2.765   1.618   6.000  0.00  0.00     0.000 A 
ATOM      3  C3  BNZ d   1       3.742   1.298   5.099  0.00  0.00     0.000 A 
ATOM      4  C4  BNZ d   1       4.116   2.207   4.175  0.00  0.00     0.000 A 
ATOM      5  C5  BNZ d   1       3.541   3.462   4.156  0.00  0.00     0.000 A 
ATOM      6  C6  BNZ d   1       2.586   3.794   5.089  0.00  0.00     0.000 A 
ENDROOT
TORSDOF 0
ENDMDL
