MODEL 1
REMARK minimizedAffinity 2.26650167
REMARK minimizedRMSD -1
REMARK  0 active torsions:
REMARK  status: ('A' for Active; 'I' for Inactive)
ROOT
ATOM      1  C1  BNZ d   1      -4.663  -0.278  -0.999  0.00  0.00     0.000 A 
ATOM      2  C2  BNZ d   1      -5.623   0.096  -0.096  0.00  0.00     0.000 A 
ATOM      3  C3  BNZ d   1      -5.284   0.750   1.055  0.00  0.00     0.000 A 
ATOM      4  C4  BNZ d   1      -3.985   0.994   1.322  0.00  0.00     0.000 A 
ATOM      5  C5  BNZ d   1      -3.005   0.615   0.426  0.00  0.00     0.000 A 
ATOM      6  C6  BNZ d   1      -3.352  -0.008  -0.750  0.00  0.00     0.000 A 
ENDROOT
TORSDOF 0
ENDMDL
