MODEL 1
REMARK minimizedAffinity 6.53321505
REMARK minimizedRMSD -1
REMARK  0 active torsions:
REMARK  status: ('A' for Active; 'I' for Inactive)
ROOT
ATOM      1  C1  BNZ d   1       0.279   4.495   5.984  0.00  0.00     0.000 A 
ATOM      2  C2  BNZ d   1       0.734   3.204   5.979  0.00  0.00     0.000 A 
ATOM      3  C3  BNZ d   1       2.074   2.934   5.999  0.00  0.00     0.000 A 
ATOM      4  C4  BNZ d   1       2.956   3.955   5.983  0.00  0.00     0.000 A 
ATOM      5  C5  BNZ d   1       2.512   5.262   5.978  0.00  0.00     0.000 A 
ATOM      6  C6  BNZ d   1       1.163   5.530   5.998  0.00  0.00     0.000 A 
ENDROOT
TORSDOF 0
ENDMDL
