MODEL 1
REMARK minimizedAffinity 2.31692529
REMARK minimizedRMSD -1
REMARK  2 active torsions:
REMARK  status: ('A' for Active; 'I' for Inactive)
REMARK    1  A    between atoms: C1_2  and  C2_3 
REMARK    2  A    between atoms: C2_3  and  C3_4 
ROOT
ATOM      1  C3  UNL d   1      -0.551  -0.737   2.946  0.00  0.00    -0.075 A 
ATOM      2  C4  UNL d   1      -1.890  -0.322   2.989  0.00  0.00     0.002 A 
ATOM      3  C5  UNL d   1      -2.483   0.271   1.874  0.00  0.00     0.002 A 
ATOM      4  C6  UNL d   1      -1.745   0.465   0.709  0.00  0.00    -0.004 A 
ATOM      5  C7  UNL d   1      -0.410   0.072   0.661  0.00  0.00     0.002 A 
ATOM      6  C8  UNL d   1       0.186  -0.526   1.773  0.00  0.00     0.002 A 
ENDROOT
BRANCH   1   7
ATOM      7  C2  UNL d   1       0.089  -1.407   4.139  0.00  0.00     0.056 C 
BRANCH   7   8
ATOM      8  C1  UNL d   1       1.621  -1.419   4.100  0.00  0.00     0.007 C 
ATOM      9  C   UNL d   1       2.250  -1.918   5.394  0.00  0.00     0.009 C 
ENDBRANCH   7   8
ENDBRANCH   1   7
TORSDOF 2
ENDMDL
