MODEL 1
REMARK minimizedAffinity 6.11739302
REMARK minimizedRMSD -1
REMARK  2 active torsions:
REMARK  status: ('A' for Active; 'I' for Inactive)
REMARK    1  A    between atoms: C1_2  and  C2_3 
REMARK    2  A    between atoms: C2_3  and  C3_4 
ROOT
ATOM      1  C3  UNL d   1      -0.113  -0.343   1.210  0.00  0.00    -0.075 A 
ATOM      2  C4  UNL d   1       0.478  -0.761   2.412  0.00  0.00     0.002 A 
ATOM      3  C5  UNL d   1      -0.266  -0.801   3.591  0.00  0.00     0.002 A 
ATOM      4  C6  UNL d   1      -1.605  -0.414   3.587  0.00  0.00    -0.004 A 
ATOM      5  C7  UNL d   1      -2.198   0.018   2.402  0.00  0.00     0.002 A 
ATOM      6  C8  UNL d   1      -1.456   0.055   1.220  0.00  0.00     0.002 A 
ENDROOT
BRANCH   1   7
ATOM      7  C2  UNL d   1       0.679  -0.326  -0.075  0.00  0.00     0.056 C 
BRANCH   7   8
ATOM      8  C1  UNL d   1       2.063   0.318   0.054  0.00  0.00     0.007 C 
ATOM      9  C   UNL d   1       2.891   0.224  -1.221  0.00  0.00     0.009 C 
ENDBRANCH   7   8
ENDBRANCH   1   7
TORSDOF 2
ENDMDL
