MODEL 1
REMARK minimizedAffinity 5.14126778
REMARK minimizedRMSD -1
REMARK  2 active torsions:
REMARK  status: ('A' for Active; 'I' for Inactive)
REMARK    1  A    between atoms: C1_2  and  C2_3 
REMARK    2  A    between atoms: C2_3  and  C3_4 
ROOT
ATOM      1  C3  UNL d   1       1.816   1.269  -0.770  0.00  0.00    -0.075 A 
ATOM      2  C4  UNL d   1       0.835   0.570  -0.050  0.00  0.00     0.002 A 
ATOM      3  C5  UNL d   1      -0.218  -0.058  -0.715  0.00  0.00     0.002 A 
ATOM      4  C6  UNL d   1      -0.311   0.011  -2.103  0.00  0.00    -0.004 A 
ATOM      5  C7  UNL d   1       0.648   0.717  -2.827  0.00  0.00     0.002 A 
ATOM      6  C8  UNL d   1       1.706   1.343  -2.165  0.00  0.00     0.002 A 
ENDROOT
BRANCH   1   7
ATOM      7  C2  UNL d   1       2.974   1.927  -0.060  0.00  0.00     0.056 C 
BRANCH   7   8
ATOM      8  C1  UNL d   1       2.736   3.400   0.290  0.00  0.00     0.007 C 
ATOM      9  C   UNL d   1       3.121   4.353  -0.833  0.00  0.00     0.009 C 
ENDBRANCH   7   8
ENDBRANCH   1   7
TORSDOF 2
ENDMDL
