MODEL 1
REMARK minimizedAffinity 3.20166063
REMARK minimizedRMSD -1
REMARK  2 active torsions:
REMARK  status: ('A' for Active; 'I' for Inactive)
REMARK    1  A    between atoms: C1_2  and  C2_3 
REMARK    2  A    between atoms: C2_3  and  C3_4 
ROOT
ATOM      1  C3  UNL d   1       0.175  -0.339   1.890  0.00  0.00    -0.075 A 
ATOM      2  C4  UNL d   1       0.389  -0.374   0.504  0.00  0.00     0.002 A 
ATOM      3  C5  UNL d   1      -0.635  -0.034  -0.380  0.00  0.00     0.002 A 
ATOM      4  C6  UNL d   1      -1.886   0.336   0.108  0.00  0.00    -0.004 A 
ATOM      5  C7  UNL d   1      -2.115   0.359   1.482  0.00  0.00     0.002 A 
ATOM      6  C8  UNL d   1      -1.091   0.023   2.369  0.00  0.00     0.002 A 
ENDROOT
BRANCH   1   7
ATOM      7  C2  UNL d   1       1.288  -0.678   2.852  0.00  0.00     0.056 C 
BRANCH   7   8
ATOM      8  C1  UNL d   1       0.816  -1.384   4.128  0.00  0.00     0.007 C 
ATOM      9  C   UNL d   1       1.592  -0.965   5.369  0.00  0.00     0.009 C 
ENDBRANCH   7   8
ENDBRANCH   1   7
TORSDOF 2
ENDMDL
