MODEL 1
REMARK minimizedAffinity -0.232807279
REMARK minimizedRMSD -1
REMARK  2 active torsions:
REMARK  status: ('A' for Active; 'I' for Inactive)
REMARK    1  A    between atoms: C1_2  and  C2_3 
REMARK    2  A    between atoms: C2_3  and  C3_4 
ROOT
ATOM      1  C3  UNL d   1       3.770   5.238   2.494  0.00  0.00    -0.075 A 
ATOM      2  C4  UNL d   1       4.669   6.000   3.255  0.00  0.00     0.002 A 
ATOM      3  C5  UNL d   1       5.563   5.378   4.127  0.00  0.00     0.002 A 
ATOM      4  C6  UNL d   1       5.563   3.991   4.256  0.00  0.00    -0.004 A 
ATOM      5  C7  UNL d   1       4.663   3.226   3.518  0.00  0.00     0.002 A 
ATOM      6  C8  UNL d   1       3.771   3.845   2.641  0.00  0.00     0.002 A 
ENDROOT
BRANCH   1   7
ATOM      7  C2  UNL d   1       2.820   5.904   1.526  0.00  0.00     0.056 C 
BRANCH   7   8
ATOM      8  C1  UNL d   1       1.341   5.714   1.876  0.00  0.00     0.007 C 
ATOM      9  C   UNL d   1       0.406   5.999   0.707  0.00  0.00     0.009 C 
ENDBRANCH   7   8
ENDBRANCH   1   7
TORSDOF 2
ENDMDL
