MODEL 1
REMARK minimizedAffinity 5.2385273
REMARK minimizedRMSD -1
REMARK  2 active torsions:
REMARK  status: ('A' for Active; 'I' for Inactive)
REMARK    1  A    between atoms: C1_2  and  C2_3 
REMARK    2  A    between atoms: C2_3  and  C3_4 
ROOT
ATOM      1  C3  UNL d   1      -1.833  -0.228   1.920  0.00  0.00    -0.075 A 
ATOM      2  C4  UNL d   1      -2.728  -0.506   0.877  0.00  0.00     0.002 A 
ATOM      3  C5  UNL d   1      -2.262  -0.705  -0.423  0.00  0.00     0.002 A 
ATOM      4  C6  UNL d   1      -0.899  -0.618  -0.698  0.00  0.00    -0.004 A 
ATOM      5  C7  UNL d   1      -0.002  -0.326   0.327  0.00  0.00     0.002 A 
ATOM      6  C8  UNL d   1      -0.465  -0.131   1.630  0.00  0.00     0.002 A 
ENDROOT
BRANCH   1   7
ATOM      7  C2  UNL d   1      -2.328  -0.042   3.334  0.00  0.00     0.056 C 
BRANCH   7   8
ATOM      8  C1  UNL d   1      -2.530  -1.352   4.102  0.00  0.00     0.007 C 
ATOM      9  C   UNL d   1      -1.310  -1.766   4.915  0.00  0.00     0.009 C 
ENDBRANCH   7   8
ENDBRANCH   1   7
TORSDOF 2
ENDMDL
