MODEL 1
REMARK minimizedAffinity -3.84235096
REMARK minimizedRMSD -1
REMARK  1 active torsions:
REMARK  status: ('A' for Active; 'I' for Inactive)
REMARK    1  A    between atoms: C1_2  and  C2_3 
ROOT
ATOM      1  C2  UNL d   1       1.261   0.994   0.286  0.00  0.00    -0.073 A 
ATOM      2  C3  UNL d   1       1.309   1.632   1.531  0.00  0.00    -0.002 A 
ATOM      3  C4  UNL d   1       2.310   2.565   1.806  0.00  0.00     0.004 A 
ATOM      4  C5  UNL d   1       3.266   2.875   0.839  0.00  0.00    -0.004 A 
ATOM      5  C6  UNL d   1       3.227   2.257  -0.415  0.00  0.00    -0.075 A 
ATOM      6  C7  UNL d   1       4.249   2.578  -1.466  0.00  0.00     0.076 C 
ATOM      7  C8  UNL d   1       2.221   1.319  -0.683  0.00  0.00     0.001 A 
ENDROOT
BRANCH   1   8
ATOM      8  C1  UNL d   1       0.178  -0.010  -0.018  0.00  0.00     0.053 C 
ATOM      9  C   UNL d   1      -0.432   0.209  -1.394  0.00  0.00     0.018 C 
ENDBRANCH   1   8
TORSDOF 1
ENDMDL
