MODEL 1
REMARK minimizedAffinity -3.44740772
REMARK minimizedRMSD -1
REMARK  1 active torsions:
REMARK  status: ('A' for Active; 'I' for Inactive)
REMARK    1  A    between atoms: C1_2  and  C2_3 
ROOT
ATOM      1  C2  UNL d   1      -0.834  -1.715   0.027  0.00  0.00    -0.073 A 
ATOM      2  C3  UNL d   1      -1.707  -1.227  -0.953  0.00  0.00    -0.002 A 
ATOM      3  C4  UNL d   1      -1.485   0.021  -1.537  0.00  0.00     0.004 A 
ATOM      4  C5  UNL d   1      -0.386   0.790  -1.153  0.00  0.00    -0.004 A 
ATOM      5  C6  UNL d   1       0.504   0.314  -0.185  0.00  0.00    -0.075 A 
ATOM      6  C7  UNL d   1       1.690   1.130   0.240  0.00  0.00     0.076 C 
ATOM      7  C8  UNL d   1       0.273  -0.939   0.399  0.00  0.00     0.001 A 
ENDROOT
BRANCH   1   8
ATOM      8  C1  UNL d   1      -1.067  -3.064   0.655  0.00  0.00     0.053 C 
ATOM      9  C   UNL d   1      -2.467  -3.588   0.380  0.00  0.00     0.018 C 
ENDBRANCH   1   8
TORSDOF 1
ENDMDL
