MODEL 1
REMARK minimizedAffinity -0.536678612
REMARK minimizedRMSD -1
REMARK  1 active torsions:
REMARK  status: ('A' for Active; 'I' for Inactive)
REMARK    1  A    between atoms: C1_2  and  C2_3 
ROOT
ATOM      1  C2  UNL d   1       0.967   0.951   0.339  0.00  0.00    -0.073 A 
ATOM      2  C3  UNL d   1       1.079   1.196   1.713  0.00  0.00    -0.002 A 
ATOM      3  C4  UNL d   1       2.106   2.004   2.203  0.00  0.00     0.004 A 
ATOM      4  C5  UNL d   1       3.026   2.580   1.326  0.00  0.00    -0.004 A 
ATOM      5  C6  UNL d   1       2.923   2.356  -0.050  0.00  0.00    -0.075 A 
ATOM      6  C7  UNL d   1       3.906   2.966  -1.006  0.00  0.00     0.076 C 
ATOM      7  C8  UNL d   1       1.891   1.542  -0.535  0.00  0.00     0.001 A 
ENDROOT
BRANCH   1   8
ATOM      8  C1  UNL d   1      -0.144   0.085  -0.195  0.00  0.00     0.053 C 
ATOM      9  C   UNL d   1      -0.974   0.806  -1.245  0.00  0.00     0.018 C 
ENDBRANCH   1   8
TORSDOF 1
ENDMDL
