MODEL 1
REMARK minimizedAffinity -3.57290864
REMARK minimizedRMSD -1
REMARK  1 active torsions:
REMARK  status: ('A' for Active; 'I' for Inactive)
REMARK    1  A    between atoms: C1_2  and  C2_3 
ROOT
ATOM      1  C2  UNL d   1      -1.734  -1.510  -0.085  0.00  0.00    -0.073 A 
ATOM      2  C3  UNL d   1      -2.523  -0.839  -1.027  0.00  0.00    -0.002 A 
ATOM      3  C4  UNL d   1      -2.076   0.352  -1.600  0.00  0.00     0.004 A 
ATOM      4  C5  UNL d   1      -0.835   0.880  -1.244  0.00  0.00    -0.004 A 
ATOM      5  C6  UNL d   1      -0.027   0.218  -0.314  0.00  0.00    -0.075 A 
ATOM      6  C7  UNL d   1       1.310   0.774   0.082  0.00  0.00     0.076 C 
ATOM      7  C8  UNL d   1      -0.484  -0.976   0.260  0.00  0.00     0.001 A 
ENDROOT
BRANCH   1   8
ATOM      8  C1  UNL d   1      -2.210  -2.799   0.532  0.00  0.00     0.053 C 
ATOM      9  C   UNL d   1      -1.274  -3.287   1.626  0.00  0.00     0.018 C 
ENDBRANCH   1   8
TORSDOF 1
ENDMDL
