MODEL 1
REMARK minimizedAffinity -3.99709392
REMARK minimizedRMSD -1
REMARK  1 active torsions:
REMARK  status: ('A' for Active; 'I' for Inactive)
REMARK    1  A    between atoms: C1_2  and  C2_3 
ROOT
ATOM      1  C2  UNL d   1      -0.001   0.577  -0.240  0.00  0.00    -0.073 A 
ATOM      2  C3  UNL d   1       0.669  -0.640  -0.074  0.00  0.00    -0.002 A 
ATOM      3  C4  UNL d   1       1.862  -0.695   0.647  0.00  0.00     0.004 A 
ATOM      4  C5  UNL d   1       2.394   0.463   1.214  0.00  0.00    -0.004 A 
ATOM      5  C6  UNL d   1       1.733   1.687   1.069  0.00  0.00    -0.075 A 
ATOM      6  C7  UNL d   1       2.293   2.942   1.671  0.00  0.00     0.076 C 
ATOM      7  C8  UNL d   1       0.537   1.735   0.342  0.00  0.00     0.001 A 
ENDROOT
BRANCH   1   8
ATOM      8  C1  UNL d   1      -1.293   0.641  -1.012  0.00  0.00     0.053 C 
ATOM      9  C   UNL d   1      -1.856  -0.743  -1.297  0.00  0.00     0.018 C 
ENDBRANCH   1   8
TORSDOF 1
ENDMDL
