MODEL 1
REMARK minimizedAffinity -4.0784502
REMARK minimizedRMSD -1
REMARK  1 active torsions:
REMARK  status: ('A' for Active; 'I' for Inactive)
REMARK    1  A    between atoms: C1_2  and  C2_3 
ROOT
ATOM      1  C2  UNL d   1       0.469   0.395  -0.679  0.00  0.00    -0.073 A 
ATOM      2  C3  UNL d   1      -0.272   1.577  -0.572  0.00  0.00    -0.002 A 
ATOM      3  C4  UNL d   1      -1.508   1.694  -1.210  0.00  0.00     0.004 A 
ATOM      4  C5  UNL d   1      -2.018   0.630  -1.953  0.00  0.00    -0.004 A 
ATOM      5  C6  UNL d   1      -1.298  -0.564  -2.062  0.00  0.00    -0.075 A 
ATOM      6  C7  UNL d   1      -1.831  -1.717  -2.860  0.00  0.00     0.076 C 
ATOM      7  C8  UNL d   1      -0.056  -0.673  -1.421  0.00  0.00     0.001 A 
ENDROOT
BRANCH   1   8
ATOM      8  C1  UNL d   1       1.801   0.261   0.013  0.00  0.00     0.053 C 
ATOM      9  C   UNL d   1       2.420   1.615   0.324  0.00  0.00     0.018 C 
ENDBRANCH   1   8
TORSDOF 1
ENDMDL
