MODEL 1
REMARK minimizedAffinity -1.92586696
REMARK minimizedRMSD -1
REMARK  1 active torsions:
REMARK  status: ('A' for Active; 'I' for Inactive)
REMARK    1  A    between atoms: C1_2  and  C2_3 
ROOT
ATOM      1  C2  UNL d   1       0.029   0.301  -0.342  0.00  0.00    -0.073 A 
ATOM      2  C3  UNL d   1       0.340  -0.918   0.270  0.00  0.00    -0.002 A 
ATOM      3  C4  UNL d   1       1.586  -1.108   0.870  0.00  0.00     0.004 A 
ATOM      4  C5  UNL d   1       2.529  -0.080   0.870  0.00  0.00    -0.004 A 
ATOM      5  C6  UNL d   1       2.232   1.149   0.273  0.00  0.00    -0.075 A 
ATOM      6  C7  UNL d   1       3.237   2.264   0.262  0.00  0.00     0.076 C 
ATOM      7  C8  UNL d   1       0.980   1.331  -0.329  0.00  0.00     0.001 A 
ENDROOT
BRANCH   1   8
ATOM      8  C1  UNL d   1      -1.317   0.513  -0.985  0.00  0.00     0.053 C 
ATOM      9  C   UNL d   1      -2.089  -0.788  -1.133  0.00  0.00     0.018 C 
ENDBRANCH   1   8
TORSDOF 1
ENDMDL
