MODEL 1
REMARK minimizedAffinity -3.50962949
REMARK minimizedRMSD -1
REMARK  1 active torsions:
REMARK  status: ('A' for Active; 'I' for Inactive)
REMARK    1  A    between atoms: C1_2  and  C2_3 
ROOT
ATOM      1  C2  UNL d   1       1.056   1.205   0.255  0.00  0.00    -0.073 A 
ATOM      2  C3  UNL d   1      -0.278   1.437   0.608  0.00  0.00    -0.002 A 
ATOM      3  C4  UNL d   1      -1.314   0.923  -0.174  0.00  0.00     0.004 A 
ATOM      4  C5  UNL d   1      -1.026   0.169  -1.311  0.00  0.00    -0.004 A 
ATOM      5  C6  UNL d   1       0.300  -0.083  -1.674  0.00  0.00    -0.075 A 
ATOM      6  C7  UNL d   1       0.626  -0.891  -2.896  0.00  0.00     0.076 C 
ATOM      7  C8  UNL d   1       1.335   0.438  -0.885  0.00  0.00     0.001 A 
ENDROOT
BRANCH   1   8
ATOM      8  C1  UNL d   1       2.178   1.752   1.100  0.00  0.00     0.053 C 
ATOM      9  C   UNL d   1       2.811   2.987   0.478  0.00  0.00     0.018 C 
ENDBRANCH   1   8
TORSDOF 1
ENDMDL
