MODEL 1
REMARK minimizedAffinity -3.06262183
REMARK minimizedRMSD -1
REMARK  1 active torsions:
REMARK  status: ('A' for Active; 'I' for Inactive)
REMARK    1  A    between atoms: C1_2  and  C2_3 
ROOT
ATOM      1  C2  UNL d   1      -0.219  -0.521  -0.341  0.00  0.00    -0.073 A 
ATOM      2  C3  UNL d   1      -0.906   0.221  -1.309  0.00  0.00    -0.002 A 
ATOM      3  C4  UNL d   1      -2.131  -0.228  -1.803  0.00  0.00     0.004 A 
ATOM      4  C5  UNL d   1      -2.686  -1.417  -1.329  0.00  0.00    -0.004 A 
ATOM      5  C6  UNL d   1      -2.021  -2.166  -0.353  0.00  0.00    -0.075 A 
ATOM      6  C7  UNL d   1      -2.603  -3.449   0.165  0.00  0.00     0.076 C 
ATOM      7  C8  UNL d   1      -0.789  -1.710   0.136  0.00  0.00     0.001 A 
ENDROOT
BRANCH   1   8
ATOM      8  C1  UNL d   1       1.101  -0.037   0.200  0.00  0.00     0.053 C 
ATOM      9  C   UNL d   1       0.960   1.269   0.965  0.00  0.00     0.018 C 
ENDBRANCH   1   8
TORSDOF 1
ENDMDL
