MODEL 1
REMARK minimizedAffinity -2.23857737
REMARK minimizedRMSD -1
REMARK  1 active torsions:
REMARK  status: ('A' for Active; 'I' for Inactive)
REMARK    1  A    between atoms: C1_2  and  C2_3 
ROOT
ATOM      1  C2  UNL d   1      -1.589  -1.357  -0.287  0.00  0.00    -0.073 A 
ATOM      2  C3  UNL d   1      -2.378  -0.515  -1.078  0.00  0.00    -0.002 A 
ATOM      3  C4  UNL d   1      -1.901   0.739  -1.465  0.00  0.00     0.004 A 
ATOM      4  C5  UNL d   1      -0.631   1.160  -1.070  0.00  0.00    -0.004 A 
ATOM      5  C6  UNL d   1       0.176   0.327  -0.289  0.00  0.00    -0.075 A 
ATOM      6  C7  UNL d   1       1.544   0.765   0.145  0.00  0.00     0.076 C 
ATOM      7  C8  UNL d   1      -0.310  -0.930   0.097  0.00  0.00     0.001 A 
ENDROOT
BRANCH   1   8
ATOM      8  C1  UNL d   1      -2.096  -2.715   0.127  0.00  0.00     0.053 C 
ATOM      9  C   UNL d   1      -1.279  -3.306   1.265  0.00  0.00     0.018 C 
ENDBRANCH   1   8
TORSDOF 1
ENDMDL
