MODEL 1
REMARK minimizedAffinity -1.87642455
REMARK minimizedRMSD -1
REMARK  1 active torsions:
REMARK  status: ('A' for Active; 'I' for Inactive)
REMARK    1  A    between atoms: C1_2  and  C2_3 
ROOT
ATOM      1  C2  UNL d   1      -0.383   0.582  -0.424  0.00  0.00    -0.073 A 
ATOM      2  C3  UNL d   1       0.482  -0.385  -0.947  0.00  0.00    -0.002 A 
ATOM      3  C4  UNL d   1       1.854  -0.309  -0.705  0.00  0.00     0.004 A 
ATOM      4  C5  UNL d   1       2.374   0.730   0.068  0.00  0.00    -0.004 A 
ATOM      5  C6  UNL d   1       1.524   1.700   0.609  0.00  0.00    -0.075 A 
ATOM      6  C7  UNL d   1       2.067   2.825   1.440  0.00  0.00     0.076 C 
ATOM      7  C8  UNL d   1       0.147   1.617   0.359  0.00  0.00     0.001 A 
ENDROOT
BRANCH   1   8
ATOM      8  C1  UNL d   1      -1.866   0.500  -0.677  0.00  0.00     0.053 C 
ATOM      9  C   UNL d   1      -2.300  -0.903  -1.072  0.00  0.00     0.018 C 
ENDBRANCH   1   8
TORSDOF 1
ENDMDL
