MODEL 1
REMARK minimizedAffinity -0.893136084
REMARK minimizedRMSD -1
REMARK  1 active torsions:
REMARK  status: ('A' for Active; 'I' for Inactive)
REMARK    1  A    between atoms: C1_2  and  C2_3 
ROOT
ATOM      1  C2  UNL d   1      -1.415  -1.915   0.360  0.00  0.00    -0.073 A 
ATOM      2  C3  UNL d   1      -2.228  -2.041  -0.772  0.00  0.00    -0.002 A 
ATOM      3  C4  UNL d   1      -2.137  -1.113  -1.811  0.00  0.00     0.004 A 
ATOM      4  C5  UNL d   1      -1.229  -0.057  -1.732  0.00  0.00    -0.004 A 
ATOM      5  C6  UNL d   1      -0.400   0.078  -0.614  0.00  0.00    -0.075 A 
ATOM      6  C7  UNL d   1       0.580   1.210  -0.512  0.00  0.00     0.076 C 
ATOM      7  C8  UNL d   1      -0.499  -0.855   0.427  0.00  0.00     0.001 A 
ENDROOT
BRANCH   1   8
ATOM      8  C1  UNL d   1      -1.505  -2.918   1.482  0.00  0.00     0.053 C 
ATOM      9  C   UNL d   1      -1.966  -4.281   0.992  0.00  0.00     0.018 C 
ENDBRANCH   1   8
TORSDOF 1
ENDMDL
