MODEL 1
REMARK minimizedAffinity 17.5812054
REMARK minimizedRMSD -1
REMARK  0 active torsions:
REMARK  status: ('A' for Active; 'I' for Inactive)
ROOT
ATOM      1  C2' OXE d   1      -5.995   0.842  -2.388  0.00  0.00     0.078 C 
ATOM      2  C1' OXE d   1      -5.671  -0.388  -4.890  0.00  0.00     0.078 C 
ATOM      3  C1  OXE d   1      -5.594   1.117  -4.831  0.00  0.00    -0.078 A 
ATOM      4  C2  OXE d   1      -5.800   1.713  -3.610  0.00  0.00    -0.078 A 
ATOM      5  C3  OXE d   1      -5.686   3.095  -3.490  0.00  0.00     0.003 A 
ATOM      6  C4  OXE d   1      -5.516   3.894  -4.628  0.00  0.00    -0.002 A 
ATOM      7  C5  OXE d   1      -5.344   3.309  -5.887  0.00  0.00    -0.002 A 
ATOM      8  C6  OXE d   1      -5.338   1.923  -5.999  0.00  0.00     0.003 A 
ENDROOT
TORSDOF 0
ENDMDL
