MODEL 1
REMARK minimizedAffinity 14.3231497
REMARK minimizedRMSD -1
REMARK  0 active torsions:
REMARK  status: ('A' for Active; 'I' for Inactive)
ROOT
ATOM      1  C2' OXE d   1      -5.176   4.851   1.727  0.00  0.00     0.078 C 
ATOM      2  C1' OXE d   1      -5.174   2.382   3.063  0.00  0.00     0.078 C 
ATOM      3  C1  OXE d   1      -5.457   3.621   3.875  0.00  0.00    -0.078 A 
ATOM      4  C2  OXE d   1      -5.410   4.829   3.222  0.00  0.00    -0.078 A 
ATOM      5  C3  OXE d   1      -5.718   5.998   3.912  0.00  0.00     0.003 A 
ATOM      6  C4  OXE d   1      -5.924   5.971   5.297  0.00  0.00    -0.002 A 
ATOM      7  C5  OXE d   1      -5.937   4.755   5.989  0.00  0.00    -0.002 A 
ATOM      8  C6  OXE d   1      -5.748   3.569   5.287  0.00  0.00     0.003 A 
ENDROOT
TORSDOF 0
ENDMDL
