MODEL 1
REMARK minimizedAffinity 9.6890173
REMARK minimizedRMSD -1
REMARK  0 active torsions:
REMARK  status: ('A' for Active; 'I' for Inactive)
ROOT
ATOM      1  C2' OXE d   1      -4.222   2.979  -1.152  0.00  0.00     0.078 C 
ATOM      2  C1' OXE d   1      -4.206   0.206  -0.715  0.00  0.00     0.078 C 
ATOM      3  C1  OXE d   1      -4.829   0.714  -1.991  0.00  0.00    -0.078 A 
ATOM      4  C2  OXE d   1      -4.874   2.075  -2.175  0.00  0.00    -0.078 A 
ATOM      5  C3  OXE d   1      -5.389   2.593  -3.360  0.00  0.00     0.003 A 
ATOM      6  C4  OXE d   1      -6.000   1.751  -4.296  0.00  0.00    -0.002 A 
ATOM      7  C5  OXE d   1      -6.000   0.364  -4.110  0.00  0.00    -0.002 A 
ATOM      8  C6  OXE d   1      -5.382  -0.172  -2.985  0.00  0.00     0.003 A 
ENDROOT
TORSDOF 0
ENDMDL
