MODEL 1
REMARK minimizedAffinity 5.55181646
REMARK minimizedRMSD -1
REMARK  0 active torsions:
REMARK  status: ('A' for Active; 'I' for Inactive)
ROOT
ATOM      1  C2' OXE d   1       1.665   4.381   0.771  0.00  0.00     0.078 C 
ATOM      2  C1' OXE d   1       3.634   3.086   2.297  0.00  0.00     0.078 C 
ATOM      3  C1  OXE d   1       3.004   2.317   1.162  0.00  0.00    -0.078 A 
ATOM      4  C2  OXE d   1       2.008   2.943   0.451  0.00  0.00    -0.078 A 
ATOM      5  C3  OXE d   1       1.432   2.299  -0.641  0.00  0.00     0.003 A 
ATOM      6  C4  OXE d   1       1.748   0.965  -0.925  0.00  0.00    -0.002 A 
ATOM      7  C5  OXE d   1       2.731   0.296  -0.187  0.00  0.00    -0.002 A 
ATOM      8  C6  OXE d   1       3.397   0.970   0.830  0.00  0.00     0.003 A 
ENDROOT
TORSDOF 0
ENDMDL
