MODEL 1
REMARK minimizedAffinity 6.49357843
REMARK minimizedRMSD -1
REMARK  0 active torsions:
REMARK  status: ('A' for Active; 'I' for Inactive)
ROOT
ATOM      1  C2' OXE d   1       0.208  -0.403   1.606  0.00  0.00     0.078 C 
ATOM      2  C1' OXE d   1      -0.274   0.277  -1.075  0.00  0.00     0.078 C 
ATOM      3  C1  OXE d   1       1.146   0.355  -0.574  0.00  0.00    -0.078 A 
ATOM      4  C2  OXE d   1       1.366   0.065   0.752  0.00  0.00    -0.078 A 
ATOM      5  C3  OXE d   1       2.665   0.068   1.252  0.00  0.00     0.003 A 
ATOM      6  C4  OXE d   1       3.729   0.512   0.458  0.00  0.00    -0.002 A 
ATOM      7  C5  OXE d   1       3.521   0.850  -0.884  0.00  0.00    -0.002 A 
ATOM      8  C6  OXE d   1       2.246   0.737  -1.425  0.00  0.00     0.003 A 
ENDROOT
TORSDOF 0
ENDMDL
