MODEL 1
REMARK minimizedAffinity 3.31848311
REMARK minimizedRMSD -1
REMARK  0 active torsions:
REMARK  status: ('A' for Active; 'I' for Inactive)
ROOT
ATOM      1  C2' OXE d   1       2.027  -2.771  -0.965  0.00  0.00     0.078 C 
ATOM      2  C1' OXE d   1       2.852  -2.133   1.641  0.00  0.00     0.078 C 
ATOM      3  C1  OXE d   1       2.931  -1.051   0.594  0.00  0.00    -0.078 A 
ATOM      4  C2  OXE d   1       2.569  -1.385  -0.689  0.00  0.00    -0.078 A 
ATOM      5  C3  OXE d   1       2.571  -0.410  -1.682  0.00  0.00     0.003 A 
ATOM      6  C4  OXE d   1       3.084   0.867  -1.421  0.00  0.00    -0.002 A 
ATOM      7  C5  OXE d   1       3.495   1.216  -0.130  0.00  0.00    -0.002 A 
ATOM      8  C6  OXE d   1       3.385   0.284   0.896  0.00  0.00     0.003 A 
ENDROOT
TORSDOF 0
ENDMDL
