MODEL 1
REMARK minimizedAffinity 10.5953407
REMARK minimizedRMSD -1
REMARK  0 active torsions:
REMARK  status: ('A' for Active; 'I' for Inactive)
ROOT
ATOM      1  C   UNL d   1       0.420  -2.229  -1.878  0.00  0.00     0.020 A 
ATOM      2  C1  UNL d   1      -0.640  -2.293  -0.975  0.00  0.00     0.020 A 
ATOM      3  C2  UNL d   1      -1.941  -2.500  -1.439  0.00  0.00     0.034 A 
ATOM      4  C3  UNL d   1      -2.185  -2.645  -2.810  0.00  0.00     0.017 A 
ATOM      5  C4  UNL d   1      -1.120  -2.582  -3.715  0.00  0.00     0.017 A 
ATOM      6  C5  UNL d   1       0.181  -2.373  -3.246  0.00  0.00     0.034 A 
ATOM      7 Cl   UNL d   1      -1.342  -2.752  -5.421  0.00  0.00    -0.070 Cl
ATOM      8 Cl1  UNL d   1      -3.818  -2.900  -3.313  0.00  0.00    -0.070 Cl
ENDROOT
TORSDOF 0
ENDMDL
