MODEL 1
REMARK minimizedAffinity 17.934885
REMARK minimizedRMSD -1
REMARK  0 active torsions:
REMARK  status: ('A' for Active; 'I' for Inactive)
ROOT
ATOM      1  C   UNL d   1       3.088  -3.211  -3.518  0.00  0.00     0.020 A 
ATOM      2  C1  UNL d   1       3.206  -4.593  -3.380  0.00  0.00     0.020 A 
ATOM      3  C2  UNL d   1       2.114  -5.347  -2.946  0.00  0.00     0.034 A 
ATOM      4  C3  UNL d   1       0.899  -4.719  -2.647  0.00  0.00     0.017 A 
ATOM      5  C4  UNL d   1       0.782  -3.331  -2.786  0.00  0.00     0.017 A 
ATOM      6  C5  UNL d   1       1.879  -2.581  -3.221  0.00  0.00     0.034 A 
ATOM      7 Cl   UNL d   1      -0.685  -2.485  -2.438  0.00  0.00    -0.070 Cl
ATOM      8 Cl1  UNL d   1      -0.411  -5.713  -2.116  0.00  0.00    -0.070 Cl
ENDROOT
TORSDOF 0
ENDMDL
