MODEL 1
REMARK minimizedAffinity 15.272644
REMARK minimizedRMSD -1
REMARK  0 active torsions:
REMARK  status: ('A' for Active; 'I' for Inactive)
ROOT
ATOM      1  C   UNL d   1      -1.235  -1.970  -2.933  0.00  0.00     0.020 A 
ATOM      2  C1  UNL d   1       0.031  -2.551  -2.886  0.00  0.00     0.020 A 
ATOM      3  C2  UNL d   1       0.552  -2.991  -1.667  0.00  0.00     0.034 A 
ATOM      4  C3  UNL d   1      -0.193  -2.851  -0.491  0.00  0.00     0.017 A 
ATOM      5  C4  UNL d   1      -1.465  -2.267  -0.540  0.00  0.00     0.017 A 
ATOM      6  C5  UNL d   1      -1.981  -1.828  -1.763  0.00  0.00     0.034 A 
ATOM      7 Cl   UNL d   1      -2.444  -2.060   0.869  0.00  0.00    -0.070 Cl
ATOM      8 Cl1  UNL d   1       0.513  -3.417   0.980  0.00  0.00    -0.070 Cl
ENDROOT
TORSDOF 0
ENDMDL
