MODEL 1
REMARK minimizedAffinity 7.14159966
REMARK minimizedRMSD -1
REMARK  0 active torsions:
REMARK  status: ('A' for Active; 'I' for Inactive)
ROOT
ATOM      1  C   UNL d   1      -0.718  -1.710  -2.353  0.00  0.00     0.020 A 
ATOM      2  C1  UNL d   1       0.504  -2.372  -2.243  0.00  0.00     0.020 A 
ATOM      3  C2  UNL d   1       0.883  -2.939  -1.024  0.00  0.00     0.034 A 
ATOM      4  C3  UNL d   1       0.039  -2.845   0.089  0.00  0.00     0.017 A 
ATOM      5  C4  UNL d   1      -1.188  -2.180  -0.023  0.00  0.00     0.017 A 
ATOM      6  C5  UNL d   1      -1.562  -1.614  -1.246  0.00  0.00     0.034 A 
ATOM      7 Cl   UNL d   1      -2.282  -2.024   1.305  0.00  0.00    -0.070 Cl
ATOM      8 Cl1  UNL d   1       0.571  -3.570   1.564  0.00  0.00    -0.070 Cl
ENDROOT
TORSDOF 0
ENDMDL
