MODEL 1
REMARK minimizedAffinity 17.1230545
REMARK minimizedRMSD -1
REMARK  0 active torsions:
REMARK  status: ('A' for Active; 'I' for Inactive)
ROOT
ATOM      1  C   UNL d   1       0.029  -1.631  -0.553  0.00  0.00     0.020 A 
ATOM      2  C1  UNL d   1      -1.194  -1.207  -1.072  0.00  0.00     0.020 A 
ATOM      3  C2  UNL d   1      -1.654  -1.724  -2.285  0.00  0.00     0.034 A 
ATOM      4  C3  UNL d   1      -0.891  -2.667  -2.983  0.00  0.00     0.017 A 
ATOM      5  C4  UNL d   1       0.336  -3.091  -2.462  0.00  0.00     0.017 A 
ATOM      6  C5  UNL d   1       0.792  -2.571  -1.247  0.00  0.00     0.034 A 
ATOM      7 Cl   UNL d   1       1.333  -4.252  -3.266  0.00  0.00    -0.070 Cl
ATOM      8 Cl1  UNL d   1      -1.522  -3.263  -4.477  0.00  0.00    -0.070 Cl
ENDROOT
TORSDOF 0
ENDMDL
