MODEL 1
REMARK minimizedAffinity 14.591527
REMARK minimizedRMSD -1
REMARK  0 active torsions:
REMARK  status: ('A' for Active; 'I' for Inactive)
ROOT
ATOM      1  C   UNL d   1      -0.452  -2.265  -2.241  0.00  0.00     0.020 A 
ATOM      2  C1  UNL d   1      -0.632  -3.514  -1.648  0.00  0.00     0.020 A 
ATOM      3  C2  UNL d   1      -1.113  -3.604  -0.340  0.00  0.00     0.034 A 
ATOM      4  C3  UNL d   1      -1.416  -2.442   0.379  0.00  0.00     0.017 A 
ATOM      5  C4  UNL d   1      -1.235  -1.189  -0.216  0.00  0.00     0.017 A 
ATOM      6  C5  UNL d   1      -0.753  -1.105  -1.526  0.00  0.00     0.034 A 
ATOM      7 Cl   UNL d   1      -1.586   0.289   0.608  0.00  0.00    -0.070 Cl
ATOM      8 Cl1  UNL d   1      -2.007  -2.627   1.992  0.00  0.00    -0.070 Cl
ENDROOT
TORSDOF 0
ENDMDL
