MODEL 1
REMARK minimizedAffinity 13.3658714
REMARK minimizedRMSD -1
REMARK  0 active torsions:
REMARK  status: ('A' for Active; 'I' for Inactive)
ROOT
ATOM      1  C   UNL d   1       2.345   5.999  -3.760  0.00  0.00     0.020 A 
ATOM      2  C1  UNL d   1       1.138   5.846  -3.079  0.00  0.00     0.020 A 
ATOM      3  C2  UNL d   1       1.139   5.564  -1.711  0.00  0.00     0.034 A 
ATOM      4  C3  UNL d   1       2.349   5.435  -1.020  0.00  0.00     0.017 A 
ATOM      5  C4  UNL d   1       3.560   5.589  -1.705  0.00  0.00     0.017 A 
ATOM      6  C5  UNL d   1       3.553   5.871  -3.074  0.00  0.00     0.034 A 
ATOM      7 Cl   UNL d   1       5.093   5.444  -0.920  0.00  0.00    -0.070 Cl
ATOM      8 Cl1  UNL d   1       2.276   5.086   0.670  0.00  0.00    -0.070 Cl
ENDROOT
TORSDOF 0
ENDMDL
