MODEL 1
REMARK minimizedAffinity 10.4620457
REMARK minimizedRMSD -1
REMARK  0 active torsions:
REMARK  status: ('A' for Active; 'I' for Inactive)
ROOT
ATOM      1  C   UNL d   1       4.830   6.000  -1.336  0.00  0.00     0.020 A 
ATOM      2  C1  UNL d   1       5.998   5.613  -1.991  0.00  0.00     0.020 A 
ATOM      3  C2  UNL d   1       5.999   4.477  -2.803  0.00  0.00     0.034 A 
ATOM      4  C3  UNL d   1       4.830   3.724  -2.962  0.00  0.00     0.017 A 
ATOM      5  C4  UNL d   1       3.658   4.113  -2.303  0.00  0.00     0.017 A 
ATOM      6  C5  UNL d   1       3.663   5.252  -1.492  0.00  0.00     0.034 A 
ATOM      7 Cl   UNL d   1       2.177   3.235  -2.451  0.00  0.00    -0.070 Cl
ATOM      8 Cl1  UNL d   1       4.904   2.330  -3.981  0.00  0.00    -0.070 Cl
ENDROOT
TORSDOF 0
ENDMDL
