MODEL 1
REMARK minimizedAffinity 8.58489418
REMARK minimizedRMSD -1
REMARK  0 active torsions:
REMARK  status: ('A' for Active; 'I' for Inactive)
ROOT
ATOM      1  C   UNL d   1       5.887   5.632  -3.133  0.00  0.00     0.020 A 
ATOM      2  C1  UNL d   1       4.837   4.819  -3.556  0.00  0.00     0.020 A 
ATOM      3  C2  UNL d   1       3.896   4.357  -2.632  0.00  0.00     0.034 A 
ATOM      4  C3  UNL d   1       4.004   4.708  -1.282  0.00  0.00     0.017 A 
ATOM      5  C4  UNL d   1       5.059   5.525  -0.858  0.00  0.00     0.017 A 
ATOM      6  C5  UNL d   1       5.998   5.984  -1.787  0.00  0.00     0.034 A 
ATOM      7 Cl   UNL d   1       5.259   6.000   0.791  0.00  0.00    -0.070 Cl
ATOM      8 Cl1  UNL d   1       2.806   4.101  -0.195  0.00  0.00    -0.070 Cl
ENDROOT
TORSDOF 0
ENDMDL
