MODEL 1
REMARK minimizedAffinity 12.010128
REMARK minimizedRMSD -1
REMARK  0 active torsions:
REMARK  status: ('A' for Active; 'I' for Inactive)
ROOT
ATOM      1  C   UNL d   1      -0.469  -2.589   0.143  0.00  0.00     0.020 A 
ATOM      2  C1  UNL d   1      -1.707  -2.030  -0.173  0.00  0.00     0.020 A 
ATOM      3  C2  UNL d   1      -2.158  -2.033  -1.495  0.00  0.00     0.034 A 
ATOM      4  C3  UNL d   1      -1.370  -2.596  -2.506  0.00  0.00     0.017 A 
ATOM      5  C4  UNL d   1      -0.128  -3.157  -2.188  0.00  0.00     0.017 A 
ATOM      6  C5  UNL d   1       0.318  -3.151  -0.863  0.00  0.00     0.034 A 
ATOM      7 Cl   UNL d   1       0.899  -3.870  -3.381  0.00  0.00    -0.070 Cl
ATOM      8 Cl1  UNL d   1      -1.991  -2.565  -4.118  0.00  0.00    -0.070 Cl
ENDROOT
TORSDOF 0
ENDMDL
