MODEL 1
REMARK minimizedAffinity 12.4542904
REMARK minimizedRMSD -1
REMARK  0 active torsions:
REMARK  status: ('A' for Active; 'I' for Inactive)
ROOT
ATOM      1  C   UNL d   1       5.817  -4.929   4.991  0.00  0.00     0.020 A 
ATOM      2  C1  UNL d   1       5.999  -3.982   5.999  0.00  0.00     0.020 A 
ATOM      3  C2  UNL d   1       5.241  -2.809   6.000  0.00  0.00     0.034 A 
ATOM      4  C3  UNL d   1       4.297  -2.580   4.992  0.00  0.00     0.017 A 
ATOM      5  C4  UNL d   1       4.115  -3.532   3.982  0.00  0.00     0.017 A 
ATOM      6  C5  UNL d   1       4.877  -4.704   3.985  0.00  0.00     0.034 A 
ATOM      7 Cl   UNL d   1       2.969  -3.320   2.705  0.00  0.00    -0.070 Cl
ATOM      8 Cl1  UNL d   1       3.394  -1.109   5.056  0.00  0.00    -0.070 Cl
ENDROOT
TORSDOF 0
ENDMDL
