MODEL 1
REMARK minimizedAffinity 17.4771461
REMARK minimizedRMSD -1
REMARK  0 active torsions:
REMARK  status: ('A' for Active; 'I' for Inactive)
ROOT
ATOM      1  C   UNL d   1       5.997   5.498  -1.317  0.00  0.00     0.020 A 
ATOM      2  C1  UNL d   1       5.950   5.082   0.013  0.00  0.00     0.020 A 
ATOM      3  C2  UNL d   1       4.719   4.943   0.658  0.00  0.00     0.034 A 
ATOM      4  C3  UNL d   1       3.530   5.219  -0.027  0.00  0.00     0.017 A 
ATOM      5  C4  UNL d   1       3.578   5.636  -1.362  0.00  0.00     0.017 A 
ATOM      6  C5  UNL d   1       4.813   5.774  -2.003  0.00  0.00     0.034 A 
ATOM      7 Cl   UNL d   1       2.154   5.995  -2.273  0.00  0.00    -0.070 Cl
ATOM      8 Cl1  UNL d   1       2.044   5.024   0.832  0.00  0.00    -0.070 Cl
ENDROOT
TORSDOF 0
ENDMDL
