MODEL 1
REMARK minimizedAffinity 14.5299282
REMARK minimizedRMSD -1
REMARK  0 active torsions:
REMARK  status: ('A' for Active; 'I' for Inactive)
ROOT
ATOM      1  C   UNL d   1       4.112  -5.789   4.665  0.00  0.00     0.020 A 
ATOM      2  C1  UNL d   1       5.045  -5.687   5.696  0.00  0.00     0.020 A 
ATOM      3  C2  UNL d   1       5.616  -4.449   6.000  0.00  0.00     0.034 A 
ATOM      4  C3  UNL d   1       5.254  -3.309   5.273  0.00  0.00     0.017 A 
ATOM      5  C4  UNL d   1       4.317  -3.413   4.238  0.00  0.00     0.017 A 
ATOM      6  C5  UNL d   1       3.749  -4.655   3.938  0.00  0.00     0.034 A 
ATOM      7 Cl   UNL d   1       3.821  -2.051   3.297  0.00  0.00    -0.070 Cl
ATOM      8 Cl1  UNL d   1       5.999  -1.811   5.704  0.00  0.00    -0.070 Cl
ENDROOT
TORSDOF 0
ENDMDL
