MODEL 1
REMARK minimizedAffinity 17.71521
REMARK minimizedRMSD -1
REMARK  0 active torsions:
REMARK  status: ('A' for Active; 'I' for Inactive)
ROOT
ATOM      1  C   UNL d   1      -2.078  -0.527   5.232  0.00  0.00     0.020 A 
ATOM      2  C1  UNL d   1      -2.479   0.778   4.947  0.00  0.00     0.020 A 
ATOM      3  C2  UNL d   1      -2.901   1.113   3.659  0.00  0.00     0.034 A 
ATOM      4  C3  UNL d   1      -2.924   0.142   2.651  0.00  0.00     0.017 A 
ATOM      5  C4  UNL d   1      -2.522  -1.168   2.938  0.00  0.00     0.017 A 
ATOM      6  C5  UNL d   1      -2.100  -1.497   4.230  0.00  0.00     0.034 A 
ATOM      7 Cl   UNL d   1      -2.522  -2.420   1.747  0.00  0.00    -0.070 Cl
ATOM      8 Cl1  UNL d   1      -3.458   0.626   1.081  0.00  0.00    -0.070 Cl
ENDROOT
TORSDOF 0
ENDMDL
