MODEL 1
REMARK minimizedAffinity 16.2392063
REMARK minimizedRMSD -1
REMARK  0 active torsions:
REMARK  status: ('A' for Active; 'I' for Inactive)
ROOT
ATOM      1  C   UNL d   1      -1.641  -2.684  -0.024  0.00  0.00     0.020 A 
ATOM      2  C1  UNL d   1      -0.638  -2.030  -0.738  0.00  0.00     0.020 A 
ATOM      3  C2  UNL d   1      -0.640  -0.636  -0.829  0.00  0.00     0.034 A 
ATOM      4  C3  UNL d   1      -1.648   0.108  -0.205  0.00  0.00     0.017 A 
ATOM      5  C4  UNL d   1      -2.654  -0.549   0.512  0.00  0.00     0.017 A 
ATOM      6  C5  UNL d   1      -2.647  -1.945   0.599  0.00  0.00     0.034 A 
ATOM      7 Cl   UNL d   1      -3.931   0.301   1.309  0.00  0.00    -0.070 Cl
ATOM      8 Cl1  UNL d   1      -1.588   1.828  -0.358  0.00  0.00    -0.070 Cl
ENDROOT
TORSDOF 0
ENDMDL
