MODEL 1
REMARK minimizedAffinity 4.05395794
REMARK minimizedRMSD -1
REMARK  0 active torsions:
REMARK  status: ('A' for Active; 'I' for Inactive)
ROOT
ATOM      1  C   UNL d   1       5.861   4.865  -5.999  0.00  0.00     0.020 A 
ATOM      2  C1  UNL d   1       5.850   5.996  -5.184  0.00  0.00     0.020 A 
ATOM      3  C2  UNL d   1       5.884   5.856  -3.795  0.00  0.00     0.034 A 
ATOM      4  C3  UNL d   1       5.929   4.583  -3.217  0.00  0.00     0.017 A 
ATOM      5  C4  UNL d   1       5.940   3.448  -4.036  0.00  0.00     0.017 A 
ATOM      6  C5  UNL d   1       5.906   3.593  -5.426  0.00  0.00     0.034 A 
ATOM      7 Cl   UNL d   1       5.995   1.843  -3.396  0.00  0.00    -0.070 Cl
ATOM      8 Cl1  UNL d   1       5.970   4.484  -1.493  0.00  0.00    -0.070 Cl
ENDROOT
TORSDOF 0
ENDMDL
