MODEL 1
REMARK minimizedAffinity 7.49281979
REMARK minimizedRMSD -1
REMARK  0 active torsions:
REMARK  status: ('A' for Active; 'I' for Inactive)
ROOT
ATOM      1  C   UNL d   1       5.943   5.996  -3.018  0.00  0.00     0.020 A 
ATOM      2  C1  UNL d   1       5.864   5.594  -1.685  0.00  0.00     0.020 A 
ATOM      3  C2  UNL d   1       4.637   5.196  -1.148  0.00  0.00     0.034 A 
ATOM      4  C3  UNL d   1       3.486   5.199  -1.944  0.00  0.00     0.017 A 
ATOM      5  C4  UNL d   1       3.568   5.602  -3.282  0.00  0.00     0.017 A 
ATOM      6  C5  UNL d   1       4.798   6.000  -3.815  0.00  0.00     0.034 A 
ATOM      7 Cl   UNL d   1       2.191   5.632  -4.327  0.00  0.00    -0.070 Cl
ATOM      8 Cl1  UNL d   1       2.004   4.694  -1.215  0.00  0.00    -0.070 Cl
ENDROOT
TORSDOF 0
ENDMDL
