MODEL 1
REMARK minimizedAffinity -3.89180589
REMARK minimizedRMSD -1
REMARK  0 active torsions:
REMARK  status: ('A' for Active; 'I' for Inactive)
ROOT
ATOM      1  C   UNL d   1      -1.255   2.306   1.544  0.00  0.00     0.172 C 
ATOM      2  N   UNL d   1      -0.711   1.431   0.532  0.00  0.00    -0.070 N 
ATOM      3  C1  UNL d   1      -0.809   1.618  -0.821  0.00  0.00    -0.004 A 
ATOM      4  C2  UNL d   1      -0.164   0.569  -1.440  0.00  0.00    -0.047 A 
ATOM      5  C3  UNL d   1       0.338  -0.278  -0.424  0.00  0.00    -0.047 A 
ATOM      6  C4  UNL d   1      -0.015   0.279   0.787  0.00  0.00    -0.004 A 
ENDROOT
TORSDOF 0
ENDMDL
