MODEL 1
REMARK minimizedAffinity -3.92430902
REMARK minimizedRMSD -1
REMARK  0 active torsions:
REMARK  status: ('A' for Active; 'I' for Inactive)
ROOT
ATOM      1  C   UNL d   1       0.301  -0.845  -0.653  0.00  0.00     0.172 C 
ATOM      2  N   UNL d   1      -0.183   0.163   0.261  0.00  0.00    -0.070 N 
ATOM      3  C1  UNL d   1      -0.949   1.246  -0.079  0.00  0.00    -0.004 A 
ATOM      4  C2  UNL d   1      -1.200   1.962   1.072  0.00  0.00    -0.047 A 
ATOM      5  C3  UNL d   1      -0.563   1.286   2.139  0.00  0.00    -0.047 A 
ATOM      6  C4  UNL d   1       0.059   0.176   1.609  0.00  0.00    -0.004 A 
ENDROOT
TORSDOF 0
ENDMDL
