MODEL 1
REMARK minimizedAffinity -3.6586504
REMARK minimizedRMSD -1
REMARK  0 active torsions:
REMARK  status: ('A' for Active; 'I' for Inactive)
ROOT
ATOM      1  C   UNL d   1      -0.032  -0.541   0.317  0.00  0.00     0.172 C 
ATOM      2  N   UNL d   1      -0.550   0.781   0.580  0.00  0.00    -0.070 N 
ATOM      3  C1  UNL d   1      -1.054   1.218   1.776  0.00  0.00    -0.004 A 
ATOM      4  C2  UNL d   1      -1.442   2.531   1.617  0.00  0.00    -0.047 A 
ATOM      5  C3  UNL d   1      -1.163   2.895   0.278  0.00  0.00    -0.047 A 
ATOM      6  C4  UNL d   1      -0.612   1.794  -0.341  0.00  0.00    -0.004 A 
ENDROOT
TORSDOF 0
ENDMDL
