MODEL 1
REMARK minimizedAffinity -2.76674199
REMARK minimizedRMSD -1
REMARK  0 active torsions:
REMARK  status: ('A' for Active; 'I' for Inactive)
ROOT
ATOM      1  C   UNL d   1       3.500  -5.723   0.198  0.00  0.00     0.172 C 
ATOM      2  N   UNL d   1       2.236  -5.184  -0.248  0.00  0.00    -0.070 N 
ATOM      3  C1  UNL d   1       1.019  -5.799  -0.129  0.00  0.00    -0.004 A 
ATOM      4  C2  UNL d   1       0.068  -4.962  -0.672  0.00  0.00    -0.047 A 
ATOM      5  C3  UNL d   1       0.737  -3.804  -1.134  0.00  0.00    -0.047 A 
ATOM      6  C4  UNL d   1       2.079  -3.968  -0.858  0.00  0.00    -0.004 A 
ENDROOT
TORSDOF 0
ENDMDL
