MODEL 1
REMARK minimizedAffinity -0.14017868
REMARK minimizedRMSD -1
REMARK  0 active torsions:
REMARK  status: ('A' for Active; 'I' for Inactive)
ROOT
ATOM      1  C   UNL d   1       0.710   2.580   2.612  0.00  0.00     0.172 C 
ATOM      2  N   UNL d   1      -0.365   2.146   1.751  0.00  0.00    -0.070 N 
ATOM      3  C1  UNL d   1      -1.671   2.548   1.840  0.00  0.00    -0.004 A 
ATOM      4  C2  UNL d   1      -2.378   1.911   0.843  0.00  0.00    -0.047 A 
ATOM      5  C3  UNL d   1      -1.465   1.097   0.131  0.00  0.00    -0.047 A 
ATOM      6  C4  UNL d   1      -0.226   1.262   0.714  0.00  0.00    -0.004 A 
ENDROOT
TORSDOF 0
ENDMDL
