MODEL 1
REMARK minimizedAffinity -3.86224937
REMARK minimizedRMSD -1
REMARK  0 active torsions:
REMARK  status: ('A' for Active; 'I' for Inactive)
ROOT
ATOM      1  C   UNL d   1       0.344  -0.523  -0.540  0.00  0.00     0.172 C 
ATOM      2  N   UNL d   1      -0.204   0.531   0.281  0.00  0.00    -0.070 N 
ATOM      3  C1  UNL d   1      -1.109   1.473  -0.128  0.00  0.00    -0.004 A 
ATOM      4  C2  UNL d   1      -1.379   2.294   0.946  0.00  0.00    -0.047 A 
ATOM      5  C3  UNL d   1      -0.609   1.829   2.038  0.00  0.00    -0.047 A 
ATOM      6  C4  UNL d   1       0.109   0.736   1.599  0.00  0.00    -0.004 A 
ENDROOT
TORSDOF 0
ENDMDL
