MODEL 1
REMARK minimizedAffinity -2.96830869
REMARK minimizedRMSD -1
REMARK  0 active torsions:
REMARK  status: ('A' for Active; 'I' for Inactive)
ROOT
ATOM      1  C   UNL d   1       0.924  -0.144   1.245  0.00  0.00     0.172 C 
ATOM      2  N   UNL d   1       0.025   0.947   0.948  0.00  0.00    -0.070 N 
ATOM      3  C1  UNL d   1      -0.143   2.073   1.710  0.00  0.00    -0.004 A 
ATOM      4  C2  UNL d   1      -1.084   2.865   1.089  0.00  0.00    -0.047 A 
ATOM      5  C3  UNL d   1      -1.497   2.192  -0.085  0.00  0.00    -0.047 A 
ATOM      6  C4  UNL d   1      -0.795   1.007  -0.148  0.00  0.00    -0.004 A 
ENDROOT
TORSDOF 0
ENDMDL
