MODEL 1
REMARK minimizedAffinity -2.78859377
REMARK minimizedRMSD -1
REMARK  0 active torsions:
REMARK  status: ('A' for Active; 'I' for Inactive)
ROOT
ATOM      1  C   UNL d   1      -1.260   1.752   1.185  0.00  0.00     0.172 C 
ATOM      2  N   UNL d   1      -0.527   0.748   0.451  0.00  0.00    -0.070 N 
ATOM      3  C1  UNL d   1       0.213  -0.263   1.003  0.00  0.00    -0.004 A 
ATOM      4  C2  UNL d   1       0.752  -1.003  -0.027  0.00  0.00    -0.047 A 
ATOM      5  C3  UNL d   1       0.323  -0.415  -1.240  0.00  0.00    -0.047 A 
ATOM      6  C4  UNL d   1      -0.468   0.667  -0.915  0.00  0.00    -0.004 A 
ENDROOT
TORSDOF 0
ENDMDL
