MODEL 1
REMARK minimizedAffinity 4.6133666
REMARK minimizedRMSD -1
REMARK  0 active torsions:
REMARK  status: ('A' for Active; 'I' for Inactive)
ROOT
ATOM      1  C4' PXY d   1       1.855  -2.429   4.095  0.00  0.00     0.077 C 
ATOM      2  C1' PXY d   1       2.936   2.678   1.612  0.00  0.00     0.077 C 
ATOM      3  C1  PXY d   1       2.639   1.342   2.263  0.00  0.00    -0.082 A 
ATOM      4  C2  PXY d   1       3.589   0.721   2.945  0.00  0.00     0.003 A 
ATOM      5  C3  PXY d   1       3.348  -0.503   3.513  0.00  0.00     0.003 A 
ATOM      6  C4  PXY d   1       2.106  -1.074   3.429  0.00  0.00    -0.082 A 
ATOM      7  C5  PXY d   1       1.129  -0.442   2.744  0.00  0.00     0.003 A 
ATOM      8  C6  PXY d   1       1.406   0.781   2.140  0.00  0.00     0.003 A 
ENDROOT
TORSDOF 0
ENDMDL
