MODEL 1
REMARK minimizedAffinity 0.637647271
REMARK minimizedRMSD -1
REMARK  0 active torsions:
REMARK  status: ('A' for Active; 'I' for Inactive)
ROOT
ATOM      1  C4' PXY d   1       5.943   6.000   1.471  0.00  0.00     0.077 C 
ATOM      2  C1' PXY d   1       3.554   1.215   3.664  0.00  0.00     0.077 C 
ATOM      3  C1  PXY d   1       4.170   2.477   3.093  0.00  0.00    -0.082 A 
ATOM      4  C2  PXY d   1       5.007   2.392   2.072  0.00  0.00     0.003 A 
ATOM      5  C3  PXY d   1       5.599   3.520   1.564  0.00  0.00     0.003 A 
ATOM      6  C4  PXY d   1       5.290   4.753   2.073  0.00  0.00    -0.082 A 
ATOM      7  C5  PXY d   1       4.429   4.849   3.109  0.00  0.00     0.003 A 
ATOM      8  C6  PXY d   1       3.871   3.688   3.636  0.00  0.00     0.003 A 
ENDROOT
TORSDOF 0
ENDMDL
