MODEL 1
REMARK minimizedAffinity 12.5073242
REMARK minimizedRMSD -1
REMARK  0 active torsions:
REMARK  status: ('A' for Active; 'I' for Inactive)
ROOT
ATOM      1  C4' PXY d   1       5.641   4.069   4.883  0.00  0.00     0.077 C 
ATOM      2  C1' PXY d   1       5.603   0.131   0.651  0.00  0.00     0.077 C 
ATOM      3  C1  PXY d   1       5.611   1.154   1.769  0.00  0.00    -0.082 A 
ATOM      4  C2  PXY d   1       5.254   2.403   1.517  0.00  0.00     0.003 A 
ATOM      5  C3  PXY d   1       5.287   3.348   2.510  0.00  0.00     0.003 A 
ATOM      6  C4  PXY d   1       5.638   3.000   3.786  0.00  0.00    -0.082 A 
ATOM      7  C5  PXY d   1       5.994   1.726   4.054  0.00  0.00     0.003 A 
ATOM      8  C6  PXY d   1       5.993   0.790   3.024  0.00  0.00     0.003 A 
ENDROOT
TORSDOF 0
ENDMDL
