MODEL 1
REMARK minimizedAffinity 0.942286134
REMARK minimizedRMSD -1
REMARK  0 active torsions:
REMARK  status: ('A' for Active; 'I' for Inactive)
ROOT
ATOM      1  C4' PXY d   1       4.480   5.995  -0.740  0.00  0.00     0.077 C 
ATOM      2  C1' PXY d   1       5.297   3.024   4.151  0.00  0.00     0.077 C 
ATOM      3  C1  PXY d   1       5.081   3.792   2.862  0.00  0.00    -0.082 A 
ATOM      4  C2  PXY d   1       5.601   5.000   2.726  0.00  0.00     0.003 A 
ATOM      5  C3  PXY d   1       5.388   5.722   1.579  0.00  0.00     0.003 A 
ATOM      6  C4  PXY d   1       4.680   5.179   0.541  0.00  0.00    -0.082 A 
ATOM      7  C5  PXY d   1       4.155   3.942   0.668  0.00  0.00     0.003 A 
ATOM      8  C6  PXY d   1       4.348   3.243   1.856  0.00  0.00     0.003 A 
ENDROOT
TORSDOF 0
ENDMDL
