MODEL 1
REMARK minimizedAffinity 14.3251162
REMARK minimizedRMSD -1
REMARK  0 active torsions:
REMARK  status: ('A' for Active; 'I' for Inactive)
ROOT
ATOM      1  C4' PXY d   1       2.699  -2.971   4.528  0.00  0.00     0.077 C 
ATOM      2  C1' PXY d   1       0.233   1.300   1.512  0.00  0.00     0.077 C 
ATOM      3  C1  PXY d   1       0.888   0.188   2.308  0.00  0.00    -0.082 A 
ATOM      4  C2  PXY d   1       0.836  -1.056   1.861  0.00  0.00     0.003 A 
ATOM      5  C3  PXY d   1       1.395  -2.077   2.585  0.00  0.00     0.003 A 
ATOM      6  C4  PXY d   1       2.060  -1.816   3.752  0.00  0.00    -0.082 A 
ATOM      7  C5  PXY d   1       2.127  -0.548   4.210  0.00  0.00     0.003 A 
ATOM      8  C6  PXY d   1       1.517   0.470   3.482  0.00  0.00     0.003 A 
ENDROOT
TORSDOF 0
ENDMDL
