MODEL 1
REMARK minimizedAffinity 10.9653358
REMARK minimizedRMSD -1
REMARK  0 active torsions:
REMARK  status: ('A' for Active; 'I' for Inactive)
ROOT
ATOM      1  C4' PXY d   1      -0.879   2.733   2.178  0.00  0.00     0.077 C 
ATOM      2  C1' PXY d   1       1.409  -2.358   3.683  0.00  0.00     0.077 C 
ATOM      3  C1  PXY d   1       0.800  -1.029   3.281  0.00  0.00    -0.082 A 
ATOM      4  C2  PXY d   1       1.544   0.065   3.303  0.00  0.00     0.003 A 
ATOM      5  C3  PXY d   1       1.000   1.280   2.974  0.00  0.00     0.003 A 
ATOM      6  C4  PXY d   1      -0.304   1.368   2.567  0.00  0.00    -0.082 A 
ATOM      7  C5  PXY d   1      -1.067   0.255   2.531  0.00  0.00     0.003 A 
ATOM      8  C6  PXY d   1      -0.507  -0.962   2.909  0.00  0.00     0.003 A 
ENDROOT
TORSDOF 0
ENDMDL
