MODEL 1
REMARK minimizedAffinity 11.1460905
REMARK minimizedRMSD -1
REMARK  0 active torsions:
REMARK  status: ('A' for Active; 'I' for Inactive)
ROOT
ATOM      1  C4' PXY d   1       5.494  -3.779  -4.854  0.00  0.00     0.077 C 
ATOM      2  C1' PXY d   1       0.413  -1.074  -4.326  0.00  0.00     0.077 C 
ATOM      3  C1  PXY d   1       1.739  -1.795  -4.465  0.00  0.00    -0.082 A 
ATOM      4  C2  PXY d   1       2.848  -1.213  -4.037  0.00  0.00     0.003 A 
ATOM      5  C3  PXY d   1       4.060  -1.837  -4.183  0.00  0.00     0.003 A 
ATOM      6  C4  PXY d   1       4.132  -3.092  -4.726  0.00  0.00    -0.082 A 
ATOM      7  C5  PXY d   1       3.004  -3.697  -5.155  0.00  0.00     0.003 A 
ATOM      8  C6  PXY d   1       1.788  -3.029  -5.035  0.00  0.00     0.003 A 
ENDROOT
TORSDOF 0
ENDMDL
