MODEL 1
REMARK minimizedAffinity 12.790307
REMARK minimizedRMSD -1
REMARK  0 active torsions:
REMARK  status: ('A' for Active; 'I' for Inactive)
ROOT
ATOM      1  C4' PXY d   1      -3.308  -4.965  -5.856  0.00  0.00     0.077 C 
ATOM      2  C1' PXY d   1       2.456  -4.578  -5.655  0.00  0.00     0.077 C 
ATOM      3  C1  PXY d   1       0.946  -4.693  -5.710  0.00  0.00    -0.082 A 
ATOM      4  C2  PXY d   1       0.218  -3.620  -5.977  0.00  0.00     0.003 A 
ATOM      5  C3  PXY d   1      -1.151  -3.699  -6.000  0.00  0.00     0.003 A 
ATOM      6  C4  PXY d   1      -1.779  -4.899  -5.799  0.00  0.00    -0.082 A 
ATOM      7  C5  PXY d   1      -1.043  -6.000  -5.537  0.00  0.00     0.003 A 
ATOM      8  C6  PXY d   1       0.343  -5.890  -5.478  0.00  0.00     0.003 A 
ENDROOT
TORSDOF 0
ENDMDL
