MODEL 1
REMARK minimizedAffinity 21.0022488
REMARK minimizedRMSD -1
REMARK  0 active torsions:
REMARK  status: ('A' for Active; 'I' for Inactive)
ROOT
ATOM      1  C4' PXY d   1       1.205   1.144   2.170  0.00  0.00     0.077 C 
ATOM      2  C1' PXY d   1      -3.716  -1.873   2.479  0.00  0.00     0.077 C 
ATOM      3  C1  PXY d   1      -2.432  -1.072   2.394  0.00  0.00    -0.082 A 
ATOM      4  C2  PXY d   1      -1.279  -1.699   2.226  0.00  0.00     0.003 A 
ATOM      5  C3  PXY d   1      -0.106  -0.992   2.179  0.00  0.00     0.003 A 
ATOM      6  C4  PXY d   1      -0.117   0.375   2.252  0.00  0.00    -0.082 A 
ATOM      7  C5  PXY d   1      -1.290   1.023   2.413  0.00  0.00     0.003 A 
ATOM      8  C6  PXY d   1      -2.467   0.284   2.500  0.00  0.00     0.003 A 
ENDROOT
TORSDOF 0
ENDMDL
