MODEL 1
REMARK minimizedAffinity 16.7613125
REMARK minimizedRMSD -1
REMARK  0 active torsions:
REMARK  status: ('A' for Active; 'I' for Inactive)
ROOT
ATOM      1  C4' PXY d   1       0.374  -0.745  -5.391  0.00  0.00     0.077 C 
ATOM      2  C1' PXY d   1      -1.671  -6.000  -4.119  0.00  0.00     0.077 C 
ATOM      3  C1  PXY d   1      -1.126  -4.627  -4.461  0.00  0.00    -0.082 A 
ATOM      4  C2  PXY d   1      -1.209  -3.650  -3.572  0.00  0.00     0.003 A 
ATOM      5  C3  PXY d   1      -0.751  -2.394  -3.877  0.00  0.00     0.003 A 
ATOM      6  C4  PXY d   1      -0.154  -2.149  -5.085  0.00  0.00    -0.082 A 
ATOM      7  C5  PXY d   1      -0.056  -3.143  -5.993  0.00  0.00     0.003 A 
ATOM      8  C6  PXY d   1      -0.564  -4.400  -5.679  0.00  0.00     0.003 A 
ENDROOT
TORSDOF 0
ENDMDL
