MODEL 1
REMARK minimizedAffinity 18.8767185
REMARK minimizedRMSD -1
REMARK  1 active torsions:
REMARK  status: ('A' for Active; 'I' for Inactive)
REMARK    1  A    between atoms: N_2  and  C1_3 
ROOT
ATOM      1  C1  UNL d   1      -3.530   3.631  -5.393  0.00  0.00     0.143 A 
ATOM      2  C2  UNL d   1      -2.889   3.587  -4.151  0.00  0.00    -0.057 A 
ATOM      3  C3  UNL d   1      -2.544   2.368  -3.555  0.00  0.00     0.033 A 
ATOM      4  C4  UNL d   1      -2.861   1.167  -4.181  0.00  0.00    -0.042 A 
ATOM      5  C5  UNL d   1      -3.521   1.186  -5.404  0.00  0.00     0.033 A 
ATOM      6  C6  UNL d   1      -3.857   2.407  -5.997  0.00  0.00    -0.057 A 
ENDROOT
BRANCH   1   7
ATOM      7  N   UNL d   1      -3.987   4.808  -5.991  0.00  0.00    -0.732 N 
ATOM      8  C   UNL d   1      -3.165   5.999  -5.999  0.00  0.00     0.284 C 
ATOM      9  H3  UNL d   1      -4.477   4.635  -6.866  0.00  0.00     0.395 HD
ENDBRANCH   1   7
TORSDOF 1
ENDMDL
