MODEL 1
REMARK minimizedAffinity 9.02758408
REMARK minimizedRMSD -1
REMARK  1 active torsions:
REMARK  status: ('A' for Active; 'I' for Inactive)
REMARK    1  A    between atoms: N_2  and  C1_3 
ROOT
ATOM      1  C1  UNL d   1       2.995  -1.218  -0.417  0.00  0.00     0.143 A 
ATOM      2  C2  UNL d   1       2.200  -2.252   0.089  0.00  0.00    -0.057 A 
ATOM      3  C3  UNL d   1       0.980  -2.590  -0.511  0.00  0.00     0.033 A 
ATOM      4  C4  UNL d   1       0.519  -1.878  -1.613  0.00  0.00    -0.042 A 
ATOM      5  C5  UNL d   1       1.281  -0.830  -2.118  0.00  0.00     0.033 A 
ATOM      6  C6  UNL d   1       2.501  -0.502  -1.519  0.00  0.00    -0.057 A 
ENDROOT
BRANCH   1   7
ATOM      7  N   UNL d   1       4.169  -0.770   0.193  0.00  0.00    -0.732 N 
ATOM      8  C   UNL d   1       4.570   0.617   0.091  0.00  0.00     0.284 C 
ATOM      9  H3  UNL d   1       4.306  -1.175   1.116  0.00  0.00     0.395 HD
ENDBRANCH   1   7
TORSDOF 1
ENDMDL
