MODEL 1
REMARK minimizedAffinity 10.8696194
REMARK minimizedRMSD -1
REMARK  1 active torsions:
REMARK  status: ('A' for Active; 'I' for Inactive)
REMARK    1  A    between atoms: N_2  and  C1_3 
ROOT
ATOM      1  C1  UNL d   1       1.302   0.923   1.390  0.00  0.00     0.143 A 
ATOM      2  C2  UNL d   1       2.550   1.553   1.452  0.00  0.00    -0.057 A 
ATOM      3  C3  UNL d   1       3.535   1.308   0.487  0.00  0.00     0.033 A 
ATOM      4  C4  UNL d   1       3.300   0.404  -0.543  0.00  0.00    -0.042 A 
ATOM      5  C5  UNL d   1       2.076  -0.252  -0.610  0.00  0.00     0.033 A 
ATOM      6  C6  UNL d   1       1.094   0.001   0.352  0.00  0.00    -0.057 A 
ENDROOT
BRANCH   1   7
ATOM      7  N   UNL d   1       0.318   1.049   2.373  0.00  0.00    -0.732 N 
ATOM      8  C   UNL d   1       0.616   1.686   3.637  0.00  0.00     0.284 C 
ATOM      9  H3  UNL d   1      -0.589   1.299   1.984  0.00  0.00     0.395 HD
ENDBRANCH   1   7
TORSDOF 1
ENDMDL
