MODEL 1
REMARK minimizedAffinity 19.4604149
REMARK minimizedRMSD -1
REMARK  1 active torsions:
REMARK  status: ('A' for Active; 'I' for Inactive)
REMARK    1  A    between atoms: N_2  and  C1_3 
ROOT
ATOM      1  C1  UNL d   1      -0.908   1.703   3.807  0.00  0.00     0.143 A 
ATOM      2  C2  UNL d   1      -0.949   2.197   5.115  0.00  0.00    -0.057 A 
ATOM      3  C3  UNL d   1       0.117   1.999   6.000  0.00  0.00     0.033 A 
ATOM      4  C4  UNL d   1       1.236   1.275   5.600  0.00  0.00    -0.042 A 
ATOM      5  C5  UNL d   1       1.288   0.753   4.312  0.00  0.00     0.033 A 
ATOM      6  C6  UNL d   1       0.223   0.960   3.431  0.00  0.00    -0.057 A 
ENDROOT
BRANCH   1   7
ATOM      7  N   UNL d   1      -1.977   1.782   2.911  0.00  0.00    -0.732 N 
ATOM      8  C   UNL d   1      -3.314   1.415   3.325  0.00  0.00     0.284 C 
ATOM      9  H3  UNL d   1      -1.936   2.616   2.330  0.00  0.00     0.395 HD
ENDBRANCH   1   7
TORSDOF 1
ENDMDL
