MODEL 1
REMARK minimizedAffinity 11.1454973
REMARK minimizedRMSD -1
REMARK  1 active torsions:
REMARK  status: ('A' for Active; 'I' for Inactive)
REMARK    1  A    between atoms: N_2  and  C1_3 
ROOT
ATOM      1  C1  UNL d   1      -0.715   1.810   3.853  0.00  0.00     0.143 A 
ATOM      2  C2  UNL d   1      -0.680   2.233   5.186  0.00  0.00    -0.057 A 
ATOM      3  C3  UNL d   1       0.431   1.981   6.000  0.00  0.00     0.033 A 
ATOM      4  C4  UNL d   1       1.519   1.272   5.501  0.00  0.00    -0.042 A 
ATOM      5  C5  UNL d   1       1.496   0.819   4.187  0.00  0.00     0.033 A 
ATOM      6  C6  UNL d   1       0.386   1.080   3.377  0.00  0.00    -0.057 A 
ENDROOT
BRANCH   1   7
ATOM      7  N   UNL d   1      -1.830   1.944   3.023  0.00  0.00    -0.732 N 
ATOM      8  C   UNL d   1      -3.121   1.437   3.435  0.00  0.00     0.284 C 
ATOM      9  H3  UNL d   1      -1.867   2.853   2.566  0.00  0.00     0.395 HD
ENDBRANCH   1   7
TORSDOF 1
ENDMDL
