MODEL 1
REMARK minimizedAffinity 3.764117
REMARK minimizedRMSD -1
REMARK  1 active torsions:
REMARK  status: ('A' for Active; 'I' for Inactive)
REMARK    1  A    between atoms: N_2  and  C1_3 
ROOT
ATOM      1  C1  UNL d   1       0.413  -2.432  -1.692  0.00  0.00     0.143 A 
ATOM      2  C2  UNL d   1       0.495  -1.062  -1.965  0.00  0.00    -0.057 A 
ATOM      3  C3  UNL d   1       1.662  -0.336  -1.698  0.00  0.00     0.033 A 
ATOM      4  C4  UNL d   1       2.762  -0.964  -1.123  0.00  0.00    -0.042 A 
ATOM      5  C5  UNL d   1       2.695  -2.320  -0.820  0.00  0.00     0.033 A 
ATOM      6  C6  UNL d   1       1.529  -3.040  -1.096  0.00  0.00    -0.057 A 
ENDROOT
BRANCH   1   7
ATOM      7  N   UNL d   1      -0.752  -3.187  -1.844  0.00  0.00    -0.732 N 
ATOM      8  C   UNL d   1      -0.741  -4.412  -2.614  0.00  0.00     0.284 C 
ATOM      9  H3  UNL d   1      -1.294  -3.241  -0.985  0.00  0.00     0.395 HD
ENDBRANCH   1   7
TORSDOF 1
ENDMDL
