MODEL 1
REMARK minimizedAffinity 21.7515831
REMARK minimizedRMSD -1
REMARK  1 active torsions:
REMARK  status: ('A' for Active; 'I' for Inactive)
REMARK    1  A    between atoms: N_2  and  C1_3 
ROOT
ATOM      1  C1  UNL d   1       1.794  -4.020  -0.379  0.00  0.00     0.143 A 
ATOM      2  C2  UNL d   1       1.916  -5.400  -0.575  0.00  0.00    -0.057 A 
ATOM      3  C3  UNL d   1       3.167  -5.998  -0.767  0.00  0.00     0.033 A 
ATOM      4  C4  UNL d   1       4.320  -5.221  -0.796  0.00  0.00    -0.042 A 
ATOM      5  C5  UNL d   1       4.220  -3.844  -0.628  0.00  0.00     0.033 A 
ATOM      6  C6  UNL d   1       2.969  -3.253  -0.430  0.00  0.00    -0.057 A 
ENDROOT
BRANCH   1   7
ATOM      7  N   UNL d   1       0.571  -3.353  -0.281  0.00  0.00    -0.732 N 
ATOM      8  C   UNL d   1      -0.382  -3.397  -1.370  0.00  0.00     0.284 C 
ATOM      9  H3  UNL d   1       0.152  -3.443   0.642  0.00  0.00     0.395 HD
ENDBRANCH   1   7
TORSDOF 1
ENDMDL
