MODEL 1
REMARK minimizedAffinity 9.49010372
REMARK minimizedRMSD -1
REMARK  1 active torsions:
REMARK  status: ('A' for Active; 'I' for Inactive)
REMARK    1  A    between atoms: N_2  and  C1_3 
ROOT
ATOM      1  C1  UNL d   1      -0.154  -2.504  -1.956  0.00  0.00     0.143 A 
ATOM      2  C2  UNL d   1       0.393  -2.734  -0.690  0.00  0.00    -0.057 A 
ATOM      3  C3  UNL d   1       1.398  -1.908  -0.172  0.00  0.00     0.033 A 
ATOM      4  C4  UNL d   1       1.895  -0.851  -0.926  0.00  0.00    -0.042 A 
ATOM      5  C5  UNL d   1       1.383  -0.618  -2.198  0.00  0.00     0.033 A 
ATOM      6  C6  UNL d   1       0.375  -1.443  -2.707  0.00  0.00    -0.057 A 
ENDROOT
BRANCH   1   7
ATOM      7  N   UNL d   1      -1.086  -3.348  -2.566  0.00  0.00    -0.732 N 
ATOM      8  C   UNL d   1      -1.806  -4.334  -1.790  0.00  0.00     0.284 C 
ATOM      9  H3  UNL d   1      -1.656  -2.863  -3.255  0.00  0.00     0.395 HD
ENDBRANCH   1   7
TORSDOF 1
ENDMDL
