MODEL 1
REMARK minimizedAffinity 13.2908955
REMARK minimizedRMSD -1
REMARK  1 active torsions:
REMARK  status: ('A' for Active; 'I' for Inactive)
REMARK    1  A    between atoms: N_2  and  C1_3 
ROOT
ATOM      1  C1  UNL d   1       2.466   0.517  -2.062  0.00  0.00     0.143 A 
ATOM      2  C2  UNL d   1       2.984  -0.672  -1.538  0.00  0.00    -0.057 A 
ATOM      3  C3  UNL d   1       3.977  -0.659  -0.551  0.00  0.00     0.033 A 
ATOM      4  C4  UNL d   1       4.491   0.548  -0.090  0.00  0.00    -0.042 A 
ATOM      5  C5  UNL d   1       4.009   1.742  -0.614  0.00  0.00     0.033 A 
ATOM      6  C6  UNL d   1       3.013   1.723  -1.595  0.00  0.00    -0.057 A 
ENDROOT
BRANCH   1   7
ATOM      7  N   UNL d   1       1.548   0.570  -3.115  0.00  0.00    -0.732 N 
ATOM      8  C   UNL d   1       1.522  -0.470  -4.121  0.00  0.00     0.284 C 
ATOM      9  H3  UNL d   1       0.628   0.879  -2.812  0.00  0.00     0.395 HD
ENDBRANCH   1   7
TORSDOF 1
ENDMDL
