MODEL 1
REMARK minimizedAffinity 8.1536541
REMARK minimizedRMSD -1
REMARK  1 active torsions:
REMARK  status: ('A' for Active; 'I' for Inactive)
REMARK    1  A    between atoms: N_2  and  C1_3 
ROOT
ATOM      1  C1  UNL d   1       2.522  -0.663  -1.191  0.00  0.00     0.143 A 
ATOM      2  C2  UNL d   1       3.146  -1.836  -0.752  0.00  0.00    -0.057 A 
ATOM      3  C3  UNL d   1       2.468  -3.061  -0.749  0.00  0.00     0.033 A 
ATOM      4  C4  UNL d   1       1.141  -3.130  -1.160  0.00  0.00    -0.042 A 
ATOM      5  C5  UNL d   1       0.493  -1.972  -1.577  0.00  0.00     0.033 A 
ATOM      6  C6  UNL d   1       1.178  -0.753  -1.584  0.00  0.00    -0.057 A 
ENDROOT
BRANCH   1   7
ATOM      7  N   UNL d   1       3.111   0.602  -1.125  0.00  0.00    -0.732 N 
ATOM      8  C   UNL d   1       4.501   0.750  -0.750  0.00  0.00     0.284 C 
ATOM      9  H3  UNL d   1       2.821   1.206  -1.891  0.00  0.00     0.395 HD
ENDBRANCH   1   7
TORSDOF 1
ENDMDL
