MODEL 1
REMARK minimizedAffinity 9.87177944
REMARK minimizedRMSD -1
REMARK  1 active torsions:
REMARK  status: ('A' for Active; 'I' for Inactive)
REMARK    1  A    between atoms: N_2  and  C1_3 
ROOT
ATOM      1  C1  UNL d   1      -3.965  -0.743   4.902  0.00  0.00     0.143 A 
ATOM      2  C2  UNL d   1      -4.177  -0.381   3.568  0.00  0.00    -0.057 A 
ATOM      3  C3  UNL d   1      -3.996   0.938   3.135  0.00  0.00     0.033 A 
ATOM      4  C4  UNL d   1      -3.625   1.928   4.039  0.00  0.00    -0.042 A 
ATOM      5  C5  UNL d   1      -3.433   1.596   5.376  0.00  0.00     0.033 A 
ATOM      6  C6  UNL d   1      -3.609   0.275   5.800  0.00  0.00    -0.057 A 
ENDROOT
BRANCH   1   7
ATOM      7  N   UNL d   1      -4.224  -2.017   5.414  0.00  0.00    -0.732 N 
ATOM      8  C   UNL d   1      -5.510  -2.329   5.999  0.00  0.00     0.284 C 
ATOM      9  H3  UNL d   1      -3.845  -2.756   4.826  0.00  0.00     0.395 HD
ENDBRANCH   1   7
TORSDOF 1
ENDMDL
