MODEL 1
REMARK minimizedAffinity 13.9267054
REMARK minimizedRMSD -1
REMARK  1 active torsions:
REMARK  status: ('A' for Active; 'I' for Inactive)
REMARK    1  A    between atoms: N_2  and  C1_3 
ROOT
ATOM      1  C1  UNL d   1       3.238  -4.591  -0.712  0.00  0.00     0.143 A 
ATOM      2  C2  UNL d   1       4.153  -3.557  -0.487  0.00  0.00    -0.057 A 
ATOM      3  C3  UNL d   1       5.519  -3.728  -0.741  0.00  0.00     0.033 A 
ATOM      4  C4  UNL d   1       6.000  -4.950  -1.198  0.00  0.00    -0.042 A 
ATOM      5  C5  UNL d   1       5.112  -6.000  -1.405  0.00  0.00     0.033 A 
ATOM      6  C6  UNL d   1       3.748  -5.821  -1.156  0.00  0.00    -0.057 A 
ENDROOT
BRANCH   1   7
ATOM      7  N   UNL d   1       1.882  -4.515  -0.386  0.00  0.00    -0.732 N 
ATOM      8  C   UNL d   1       1.116  -3.325  -0.691  0.00  0.00     0.284 C 
ATOM      9  H3  UNL d   1       1.388  -5.385  -0.570  0.00  0.00     0.395 HD
ENDBRANCH   1   7
TORSDOF 1
ENDMDL
