MODEL 1
REMARK minimizedAffinity 10.4609365
REMARK minimizedRMSD -1
REMARK  1 active torsions:
REMARK  status: ('A' for Active; 'I' for Inactive)
REMARK    1  A    between atoms: N_2  and  C1_3 
ROOT
ATOM      1  C1  UNL d   1      -0.764   1.458   2.409  0.00  0.00     0.143 A 
ATOM      2  C2  UNL d   1      -0.958   1.425   3.794  0.00  0.00    -0.057 A 
ATOM      3  C3  UNL d   1      -2.242   1.337   4.346  0.00  0.00     0.033 A 
ATOM      4  C4  UNL d   1      -3.360   1.309   3.519  0.00  0.00    -0.042 A 
ATOM      5  C5  UNL d   1      -3.193   1.366   2.140  0.00  0.00     0.033 A 
ATOM      6  C6  UNL d   1      -1.908   1.447   1.595  0.00  0.00    -0.057 A 
ENDROOT
BRANCH   1   7
ATOM      7  N   UNL d   1       0.480   1.644   1.802  0.00  0.00    -0.732 N 
ATOM      8  C   UNL d   1       1.097   0.578   1.043  0.00  0.00     0.284 C 
ATOM      9  H3  UNL d   1       0.570   2.564   1.376  0.00  0.00     0.395 HD
ENDBRANCH   1   7
TORSDOF 1
ENDMDL
