MODEL 1
REMARK minimizedAffinity 14.575429
REMARK minimizedRMSD -1
REMARK  1 active torsions:
REMARK  status: ('A' for Active; 'I' for Inactive)
REMARK    1  A    between atoms: N_2  and  C1_3 
ROOT
ATOM      1  C1  UNL d   1       0.582  -2.375  -1.733  0.00  0.00     0.143 A 
ATOM      2  C2  UNL d   1       1.194  -1.544  -2.678  0.00  0.00    -0.057 A 
ATOM      3  C3  UNL d   1       1.692  -0.285  -2.323  0.00  0.00     0.033 A 
ATOM      4  C4  UNL d   1       1.561   0.180  -1.019  0.00  0.00    -0.042 A 
ATOM      5  C5  UNL d   1       0.934  -0.618  -0.068  0.00  0.00     0.033 A 
ATOM      6  C6  UNL d   1       0.444  -1.878  -0.427  0.00  0.00    -0.057 A 
ENDROOT
BRANCH   1   7
ATOM      7  N   UNL d   1      -0.021  -3.596  -2.044  0.00  0.00    -0.732 N 
ATOM      8  C   UNL d   1      -0.247  -3.976  -3.422  0.00  0.00     0.284 C 
ATOM      9  H3  UNL d   1       0.309  -4.355  -1.453  0.00  0.00     0.395 HD
ENDBRANCH   1   7
TORSDOF 1
ENDMDL
