MODEL 1
REMARK minimizedAffinity -4.08405876
REMARK minimizedRMSD -1
REMARK  0 active torsions:
REMARK  status: ('A' for Active; 'I' for Inactive)
ROOT
ATOM      1  C   UNL d   1       2.678  -1.038  -1.261  0.00  0.00     0.023 A 
ATOM      2  C1  UNL d   1       1.630  -1.910  -0.966  0.00  0.00     0.003 A 
ATOM      3  C2  UNL d   1       0.410  -1.408  -0.508  0.00  0.00     0.048 A 
ATOM      4  C3  UNL d   1       0.245  -0.032  -0.348  0.00  0.00     0.023 A 
ATOM      5  C4  UNL d   1       1.290   0.844  -0.643  0.00  0.00     0.048 A 
ATOM      6  C5  UNL d   1       2.509   0.337  -1.099  0.00  0.00     0.003 A 
ATOM      7  I   UNL d   1      -1.570   0.718   0.333  0.00  0.00    -0.146 I 
ENDROOT
TORSDOF 0
ENDMDL
