MODEL 1
REMARK minimizedAffinity -3.96076179
REMARK minimizedRMSD -1
REMARK  0 active torsions:
REMARK  status: ('A' for Active; 'I' for Inactive)
ROOT
ATOM      1  C   UNL d   1       1.979  -0.825  -1.674  0.00  0.00     0.023 A 
ATOM      2  C1  UNL d   1       1.152   0.271  -1.922  0.00  0.00     0.003 A 
ATOM      3  C2  UNL d   1       0.131   0.594  -1.026  0.00  0.00     0.048 A 
ATOM      4  C3  UNL d   1      -0.057  -0.182   0.117  0.00  0.00     0.023 A 
ATOM      5  C4  UNL d   1       0.769  -1.279   0.370  0.00  0.00     0.048 A 
ATOM      6  C5  UNL d   1       1.788  -1.598  -0.529  0.00  0.00     0.003 A 
ATOM      7  I   UNL d   1      -1.576   0.297   1.452  0.00  0.00    -0.146 I 
ENDROOT
TORSDOF 0
ENDMDL
