MODEL 1
REMARK minimizedAffinity -5.19909
REMARK minimizedRMSD -1
REMARK  0 active torsions:
REMARK  status: ('A' for Active; 'I' for Inactive)
ROOT
ATOM      1  C   UNL d   1       2.955  -0.475  -1.343  0.00  0.00     0.023 A 
ATOM      2  C1  UNL d   1       2.362   0.784  -1.427  0.00  0.00     0.003 A 
ATOM      3  C2  UNL d   1       1.096   1.000  -0.877  0.00  0.00     0.048 A 
ATOM      4  C3  UNL d   1       0.430  -0.049  -0.245  0.00  0.00     0.023 A 
ATOM      5  C4  UNL d   1       1.020  -1.312  -0.159  0.00  0.00     0.048 A 
ATOM      6  C5  UNL d   1       2.285  -1.522  -0.710  0.00  0.00     0.003 A 
ATOM      7  I   UNL d   1      -1.454   0.268   0.574  0.00  0.00    -0.146 I 
ENDROOT
TORSDOF 0
ENDMDL
