MODEL 1
REMARK minimizedAffinity -4.02966499
REMARK minimizedRMSD -1
REMARK  0 active torsions:
REMARK  status: ('A' for Active; 'I' for Inactive)
ROOT
ATOM      1  C   UNL d   1       1.444  -0.540  -1.773  0.00  0.00     0.023 A 
ATOM      2  C1  UNL d   1       0.757   0.635  -2.077  0.00  0.00     0.003 A 
ATOM      3  C2  UNL d   1       0.007   1.282  -1.093  0.00  0.00     0.048 A 
ATOM      4  C3  UNL d   1      -0.049   0.749   0.195  0.00  0.00     0.023 A 
ATOM      5  C4  UNL d   1       0.638  -0.426   0.504  0.00  0.00     0.048 A 
ATOM      6  C5  UNL d   1       1.385  -1.070  -0.484  0.00  0.00     0.003 A 
ATOM      7  I   UNL d   1      -1.164   1.711   1.662  0.00  0.00    -0.146 I 
ENDROOT
TORSDOF 0
ENDMDL
