MODEL 1
REMARK minimizedAffinity -2.86093116
REMARK minimizedRMSD -1
REMARK  0 active torsions:
REMARK  status: ('A' for Active; 'I' for Inactive)
ROOT
ATOM      1  C   UNL d   1      -1.161   0.639   0.116  0.00  0.00     0.023 A 
ATOM      2  C1  UNL d   1      -0.834  -0.714   0.218  0.00  0.00     0.003 A 
ATOM      3  C2  UNL d   1       0.339  -1.196  -0.366  0.00  0.00     0.048 A 
ATOM      4  C3  UNL d   1       1.181  -0.320  -1.051  0.00  0.00     0.023 A 
ATOM      5  C4  UNL d   1       0.858   1.034  -1.155  0.00  0.00     0.048 A 
ATOM      6  C5  UNL d   1      -0.316   1.511  -0.569  0.00  0.00     0.003 A 
ATOM      7  I   UNL d   1       2.927  -1.035  -1.922  0.00  0.00    -0.146 I 
ENDROOT
TORSDOF 0
ENDMDL
