MODEL 1
REMARK minimizedAffinity -4.31056213
REMARK minimizedRMSD -1
REMARK  0 active torsions:
REMARK  status: ('A' for Active; 'I' for Inactive)
ROOT
ATOM      1  C   UNL d   1       2.758  -0.874  -1.601  0.00  0.00     0.023 A 
ATOM      2  C1  UNL d   1       1.708  -1.786  -1.499  0.00  0.00     0.003 A 
ATOM      3  C2  UNL d   1       0.546  -1.441  -0.806  0.00  0.00     0.048 A 
ATOM      4  C3  UNL d   1       0.440  -0.182  -0.217  0.00  0.00     0.023 A 
ATOM      5  C4  UNL d   1       1.488   0.735  -0.317  0.00  0.00     0.048 A 
ATOM      6  C5  UNL d   1       2.648   0.385  -1.011  0.00  0.00     0.003 A 
ATOM      7  I   UNL d   1      -1.288   0.334   0.816  0.00  0.00    -0.146 I 
ENDROOT
TORSDOF 0
ENDMDL
