MODEL 1
REMARK minimizedAffinity -3.65399122
REMARK minimizedRMSD -1
REMARK  0 active torsions:
REMARK  status: ('A' for Active; 'I' for Inactive)
ROOT
ATOM      1  C   UNL d   1       2.896  -0.680  -1.359  0.00  0.00     0.023 A 
ATOM      2  C1  UNL d   1       2.849   0.422  -0.505  0.00  0.00     0.003 A 
ATOM      3  C2  UNL d   1       1.659   0.751   0.147  0.00  0.00     0.048 A 
ATOM      4  C3  UNL d   1       0.520  -0.027  -0.058  0.00  0.00     0.023 A 
ATOM      5  C4  UNL d   1       0.562  -1.131  -0.911  0.00  0.00     0.048 A 
ATOM      6  C5  UNL d   1       1.754  -1.456  -1.562  0.00  0.00     0.003 A 
ATOM      7  I   UNL d   1      -1.252   0.462   0.912  0.00  0.00    -0.146 I 
ENDROOT
TORSDOF 0
ENDMDL
