MODEL 1
REMARK minimizedAffinity -4.74714661
REMARK minimizedRMSD -1
REMARK  0 active torsions:
REMARK  status: ('A' for Active; 'I' for Inactive)
ROOT
ATOM      1  C   UNL d   1       3.064  -0.713  -1.417  0.00  0.00     0.023 A 
ATOM      2  C1  UNL d   1       2.053  -1.659  -1.247  0.00  0.00     0.003 A 
ATOM      3  C2  UNL d   1       0.801  -1.266  -0.768  0.00  0.00     0.048 A 
ATOM      4  C3  UNL d   1       0.567   0.074  -0.462  0.00  0.00     0.023 A 
ATOM      5  C4  UNL d   1       1.576   1.024  -0.632  0.00  0.00     0.048 A 
ATOM      6  C5  UNL d   1       2.826   0.627  -1.110  0.00  0.00     0.003 A 
ATOM      7  I   UNL d   1      -1.295   0.661   0.250  0.00  0.00    -0.146 I 
ENDROOT
TORSDOF 0
ENDMDL
