MODEL 1
REMARK minimizedAffinity -3.11281538
REMARK minimizedRMSD -1
REMARK  0 active torsions:
REMARK  status: ('A' for Active; 'I' for Inactive)
ROOT
ATOM      1  C   UNL d   1      -1.140   0.325   0.611  0.00  0.00     0.023 A 
ATOM      2  C1  UNL d   1      -0.328   1.332   0.090  0.00  0.00     0.003 A 
ATOM      3  C2  UNL d   1       0.903   1.011  -0.486  0.00  0.00     0.048 A 
ATOM      4  C3  UNL d   1       1.316  -0.320  -0.537  0.00  0.00     0.023 A 
ATOM      5  C4  UNL d   1       0.506  -1.332  -0.018  0.00  0.00     0.048 A 
ATOM      6  C5  UNL d   1      -0.724  -1.005   0.557  0.00  0.00     0.003 A 
ATOM      7  I   UNL d   1       3.147  -0.801  -1.394  0.00  0.00    -0.146 I 
ENDROOT
TORSDOF 0
ENDMDL
