MODEL 1
REMARK minimizedAffinity -2.82026768
REMARK minimizedRMSD -1
REMARK  0 active torsions:
REMARK  status: ('A' for Active; 'I' for Inactive)
ROOT
ATOM      1  C   UNL d   1      -1.412  -0.064   0.108  0.00  0.00     0.023 A 
ATOM      2  C1  UNL d   1      -0.854   0.938  -0.687  0.00  0.00     0.003 A 
ATOM      3  C2  UNL d   1       0.443   0.795  -1.184  0.00  0.00     0.048 A 
ATOM      4  C3  UNL d   1       1.176  -0.353  -0.883  0.00  0.00     0.023 A 
ATOM      5  C4  UNL d   1       0.622  -1.358  -0.089  0.00  0.00     0.048 A 
ATOM      6  C5  UNL d   1      -0.675  -1.210   0.407  0.00  0.00     0.003 A 
ATOM      7  I   UNL d   1       3.107  -0.568  -1.622  0.00  0.00    -0.146 I 
ENDROOT
TORSDOF 0
ENDMDL
