MODEL 1
REMARK minimizedAffinity -2.8723588
REMARK minimizedRMSD -1
REMARK  0 active torsions:
REMARK  status: ('A' for Active; 'I' for Inactive)
ROOT
ATOM      1  C   UNL d   1       2.246  -1.318  -1.504  0.00  0.00     0.023 A 
ATOM      2  C1  UNL d   1       1.918   0.038  -1.511  0.00  0.00     0.003 A 
ATOM      3  C2  UNL d   1       0.896   0.515  -0.688  0.00  0.00     0.048 A 
ATOM      4  C3  UNL d   1       0.206  -0.370   0.140  0.00  0.00     0.023 A 
ATOM      5  C4  UNL d   1       0.531  -1.727   0.150  0.00  0.00     0.048 A 
ATOM      6  C5  UNL d   1       1.553  -2.199  -0.675  0.00  0.00     0.003 A 
ATOM      7  I   UNL d   1      -1.317   0.337   1.366  0.00  0.00    -0.146 I 
ENDROOT
TORSDOF 0
ENDMDL
