MODEL 1
REMARK minimizedAffinity -3.13757849
REMARK minimizedRMSD -1
REMARK  0 active torsions:
REMARK  status: ('A' for Active; 'I' for Inactive)
ROOT
ATOM      1  C   UNL d   1       1.985  -1.150  -1.481  0.00  0.00     0.023 A 
ATOM      2  C1  UNL d   1       1.920   0.214  -1.195  0.00  0.00     0.003 A 
ATOM      3  C2  UNL d   1       0.935   0.702  -0.335  0.00  0.00     0.048 A 
ATOM      4  C3  UNL d   1       0.017  -0.179   0.237  0.00  0.00     0.023 A 
ATOM      5  C4  UNL d   1       0.079  -1.544  -0.046  0.00  0.00     0.048 A 
ATOM      6  C5  UNL d   1       1.065  -2.028  -0.907  0.00  0.00     0.003 A 
ATOM      7  I   UNL d   1      -1.451   0.545   1.517  0.00  0.00    -0.146 I 
ENDROOT
TORSDOF 0
ENDMDL
