MODEL 1
REMARK minimizedAffinity -3.30885935
REMARK minimizedRMSD -1
REMARK  0 active torsions:
REMARK  status: ('A' for Active; 'I' for Inactive)
ROOT
ATOM      1  C   UNL d   1       1.671  -0.803  -1.399  0.00  0.00     0.023 A 
ATOM      2  C1  UNL d   1       1.360  -1.633  -0.322  0.00  0.00     0.003 A 
ATOM      3  C2  UNL d   1       0.357  -1.264   0.577  0.00  0.00     0.048 A 
ATOM      4  C3  UNL d   1      -0.331  -0.065   0.393  0.00  0.00     0.023 A 
ATOM      5  C4  UNL d   1      -0.023   0.767  -0.684  0.00  0.00     0.048 A 
ATOM      6  C5  UNL d   1       0.981   0.395  -1.580  0.00  0.00     0.003 A 
ATOM      7  I   UNL d   1      -1.824   0.485   1.730  0.00  0.00    -0.146 I 
ENDROOT
TORSDOF 0
ENDMDL
