MODEL 1
REMARK minimizedAffinity -3.42694879
REMARK minimizedRMSD -1
REMARK  0 active torsions:
REMARK  status: ('A' for Active; 'I' for Inactive)
ROOT
ATOM      1  C   UNL d   1      -2.049   0.610   2.145  0.00  0.00     0.023 A 
ATOM      2  C1  UNL d   1      -2.232  -0.009   0.909  0.00  0.00     0.003 A 
ATOM      3  C2  UNL d   1      -1.165  -0.113   0.014  0.00  0.00     0.048 A 
ATOM      4  C3  UNL d   1       0.082   0.403   0.362  0.00  0.00     0.023 A 
ATOM      5  C4  UNL d   1       0.271   1.022   1.599  0.00  0.00     0.048 A 
ATOM      6  C5  UNL d   1      -0.799   1.125   2.490  0.00  0.00     0.003 A 
ATOM      7  I   UNL d   1       1.672   0.249  -0.968  0.00  0.00    -0.146 I 
ENDROOT
TORSDOF 0
ENDMDL
