MODEL 1
REMARK minimizedAffinity 8.63292694
REMARK minimizedRMSD -1
REMARK  1 active torsions:
REMARK  status: ('A' for Active; 'I' for Inactive)
REMARK    1  A    between atoms: C1_2  and  C2_3 
ROOT
ATOM      1  C2  UNL d   1       3.962  -5.155  -4.537  0.00  0.00    -0.073 A 
ATOM      2  C3  UNL d   1       4.704  -5.177  -3.351  0.00  0.00    -0.002 A 
ATOM      3  C4  UNL d   1       4.080  -5.451  -2.134  0.00  0.00     0.004 A 
ATOM      4  C5  UNL d   1       2.711  -5.713  -2.090  0.00  0.00    -0.004 A 
ATOM      5  C6  UNL d   1       1.954  -5.708  -3.266  0.00  0.00    -0.075 A 
ATOM      6  C7  UNL d   1       0.480  -5.985  -3.236  0.00  0.00     0.076 C 
ATOM      7  C8  UNL d   1       2.588  -5.428  -4.485  0.00  0.00     0.001 A 
ENDROOT
BRANCH   1   8
ATOM      8  C1  UNL d   1       4.633  -4.865  -5.855  0.00  0.00     0.053 C 
ATOM      9  C   UNL d   1       5.956  -5.601  -5.995  0.00  0.00     0.018 C 
ENDBRANCH   1   8
TORSDOF 1
ENDMDL
