MODEL 1
REMARK minimizedAffinity 3.01315784
REMARK minimizedRMSD -1
REMARK  1 active torsions:
REMARK  status: ('A' for Active; 'I' for Inactive)
REMARK    1  A    between atoms: C1_2  and  C2_3 
ROOT
ATOM      1  C2  UNL d   1       1.391   2.748   0.693  0.00  0.00    -0.073 A 
ATOM      2  C3  UNL d   1       2.322   1.859   1.243  0.00  0.00    -0.002 A 
ATOM      3  C4  UNL d   1       3.601   2.300   1.586  0.00  0.00     0.004 A 
ATOM      4  C5  UNL d   1       3.960   3.634   1.389  0.00  0.00    -0.004 A 
ATOM      5  C6  UNL d   1       3.040   4.540   0.851  0.00  0.00    -0.075 A 
ATOM      6  C7  UNL d   1       3.411   5.977   0.631  0.00  0.00     0.076 C 
ATOM      7  C8  UNL d   1       1.758   4.089   0.507  0.00  0.00     0.001 A 
ENDROOT
BRANCH   1   8
ATOM      8  C1  UNL d   1       0.007   2.278   0.328  0.00  0.00     0.053 C 
ATOM      9  C   UNL d   1      -0.931   2.282   1.525  0.00  0.00     0.018 C 
ENDBRANCH   1   8
TORSDOF 1
ENDMDL
