MODEL 1
REMARK minimizedAffinity 3.50399327
REMARK minimizedRMSD -1
REMARK  1 active torsions:
REMARK  status: ('A' for Active; 'I' for Inactive)
REMARK    1  A    between atoms: C1_2  and  C2_3 
ROOT
ATOM      1  C2  UNL d   1       3.332  -5.136  -3.281  0.00  0.00    -0.073 A 
ATOM      2  C3  UNL d   1       2.243  -5.659  -3.988  0.00  0.00    -0.002 A 
ATOM      3  C4  UNL d   1       2.368  -5.978  -5.340  0.00  0.00     0.004 A 
ATOM      4  C5  UNL d   1       3.583  -5.784  -5.998  0.00  0.00    -0.004 A 
ATOM      5  C6  UNL d   1       4.686  -5.274  -5.306  0.00  0.00    -0.075 A 
ATOM      6  C7  UNL d   1       5.999  -5.058  -6.000  0.00  0.00     0.076 C 
ATOM      7  C8  UNL d   1       4.552  -4.953  -3.949  0.00  0.00     0.001 A 
ENDROOT
BRANCH   1   8
ATOM      8  C1  UNL d   1       3.204  -4.795  -1.819  0.00  0.00     0.053 C 
ATOM      9  C   UNL d   1       2.782  -5.997  -0.989  0.00  0.00     0.018 C 
ENDBRANCH   1   8
TORSDOF 1
ENDMDL
