MODEL 1
REMARK minimizedAffinity -1.33350313
REMARK minimizedRMSD -1
REMARK  1 active torsions:
REMARK  status: ('A' for Active; 'I' for Inactive)
REMARK    1  A    between atoms: C1_2  and  C2_3 
ROOT
ATOM      1  C2  UNL d   1      -0.022   2.853   1.215  0.00  0.00    -0.073 A 
ATOM      2  C3  UNL d   1      -0.172   3.152   2.574  0.00  0.00    -0.002 A 
ATOM      3  C4  UNL d   1       0.901   2.994   3.453  0.00  0.00     0.004 A 
ATOM      4  C5  UNL d   1       2.134   2.544   2.982  0.00  0.00    -0.004 A 
ATOM      5  C6  UNL d   1       2.307   2.252   1.625  0.00  0.00    -0.075 A 
ATOM      6  C7  UNL d   1       3.627   1.765   1.103  0.00  0.00     0.076 C 
ATOM      7  C8  UNL d   1       1.224   2.410   0.749  0.00  0.00     0.001 A 
ENDROOT
BRANCH   1   8
ATOM      8  C1  UNL d   1      -1.175   3.028   0.261  0.00  0.00     0.053 C 
ATOM      9  C   UNL d   1      -2.491   2.566   0.867  0.00  0.00     0.018 C 
ENDBRANCH   1   8
TORSDOF 1
ENDMDL
