MODEL 1
REMARK minimizedAffinity 2.66069698
REMARK minimizedRMSD -1
REMARK  1 active torsions:
REMARK  status: ('A' for Active; 'I' for Inactive)
REMARK    1  A    between atoms: C1_2  and  C2_3 
ROOT
ATOM      1  C2  UNL d   1       1.610   2.438   1.597  0.00  0.00    -0.073 A 
ATOM      2  C3  UNL d   1       1.227   2.324   2.939  0.00  0.00    -0.002 A 
ATOM      3  C4  UNL d   1      -0.102   2.527   3.312  0.00  0.00     0.004 A 
ATOM      4  C5  UNL d   1      -1.062   2.838   2.349  0.00  0.00    -0.004 A 
ATOM      5  C6  UNL d   1      -0.702   2.944   1.002  0.00  0.00    -0.075 A 
ATOM      6  C7  UNL d   1      -1.722   3.280  -0.046  0.00  0.00     0.076 C 
ATOM      7  C8  UNL d   1       0.636   2.741   0.635  0.00  0.00     0.001 A 
ENDROOT
BRANCH   1   8
ATOM      8  C1  UNL d   1       3.043   2.213   1.189  0.00  0.00     0.053 C 
ATOM      9  C   UNL d   1       3.148   1.476  -0.137  0.00  0.00     0.018 C 
ENDBRANCH   1   8
TORSDOF 1
ENDMDL
