MODEL 1
REMARK minimizedAffinity 2.66961741
REMARK minimizedRMSD -1
REMARK  1 active torsions:
REMARK  status: ('A' for Active; 'I' for Inactive)
REMARK    1  A    between atoms: C1_2  and  C2_3 
ROOT
ATOM      1  C2  UNL d   1       5.090   5.104   3.761  0.00  0.00    -0.073 A 
ATOM      2  C3  UNL d   1       6.000   4.065   3.539  0.00  0.00    -0.002 A 
ATOM      3  C4  UNL d   1       5.870   3.241   2.420  0.00  0.00     0.004 A 
ATOM      4  C5  UNL d   1       4.835   3.452   1.509  0.00  0.00    -0.004 A 
ATOM      5  C6  UNL d   1       3.922   4.493   1.708  0.00  0.00    -0.075 A 
ATOM      6  C7  UNL d   1       2.801   4.732   0.739  0.00  0.00     0.076 C 
ATOM      7  C8  UNL d   1       4.058   5.314   2.836  0.00  0.00     0.001 A 
ENDROOT
BRANCH   1   8
ATOM      8  C1  UNL d   1       5.230   6.000   4.965  0.00  0.00     0.053 C 
ATOM      9  C   UNL d   1       4.128   5.760   5.985  0.00  0.00     0.018 C 
ENDBRANCH   1   8
TORSDOF 1
ENDMDL
