MODEL 1
REMARK minimizedAffinity -1.96067488
REMARK minimizedRMSD -1
REMARK  1 active torsions:
REMARK  status: ('A' for Active; 'I' for Inactive)
REMARK    1  A    between atoms: C1_2  and  C2_3 
ROOT
ATOM      1  C2  UNL d   1       1.373   2.816   1.484  0.00  0.00    -0.073 A 
ATOM      2  C3  UNL d   1       1.650   1.589   0.871  0.00  0.00    -0.002 A 
ATOM      3  C4  UNL d   1       2.967   1.223   0.589  0.00  0.00     0.004 A 
ATOM      4  C5  UNL d   1       4.019   2.076   0.923  0.00  0.00    -0.004 A 
ATOM      5  C6  UNL d   1       3.763   3.301   1.547  0.00  0.00    -0.075 A 
ATOM      6  C7  UNL d   1       4.884   4.231   1.910  0.00  0.00     0.076 C 
ATOM      7  C8  UNL d   1       2.438   3.662   1.824  0.00  0.00     0.001 A 
ENDROOT
BRANCH   1   8
ATOM      8  C1  UNL d   1      -0.047   3.212   1.797  0.00  0.00     0.053 C 
ATOM      9  C   UNL d   1      -0.267   3.414   3.287  0.00  0.00     0.018 C 
ENDBRANCH   1   8
TORSDOF 1
ENDMDL
