MODEL 1
REMARK minimizedAffinity 4.03336811
REMARK minimizedRMSD -1
REMARK  1 active torsions:
REMARK  status: ('A' for Active; 'I' for Inactive)
REMARK    1  A    between atoms: C1_2  and  C2_3 
ROOT
ATOM      1  C2  UNL d   1       3.302   1.638  -0.955  0.00  0.00    -0.073 A 
ATOM      2  C3  UNL d   1       4.187   1.466   0.116  0.00  0.00    -0.002 A 
ATOM      3  C4  UNL d   1       3.745   1.633   1.429  0.00  0.00     0.004 A 
ATOM      4  C5  UNL d   1       2.415   1.966   1.686  0.00  0.00    -0.004 A 
ATOM      5  C6  UNL d   1       1.513   2.131   0.630  0.00  0.00    -0.075 A 
ATOM      6  C7  UNL d   1       0.080   2.491   0.888  0.00  0.00     0.076 C 
ATOM      7  C8  UNL d   1       1.965   1.964  -0.687  0.00  0.00     0.001 A 
ENDROOT
BRANCH   1   8
ATOM      8  C1  UNL d   1       3.773   1.452  -2.374  0.00  0.00     0.053 C 
ATOM      9  C   UNL d   1       2.635   1.584  -3.374  0.00  0.00     0.018 C 
ENDBRANCH   1   8
TORSDOF 1
ENDMDL
