MODEL 1
REMARK minimizedAffinity 7.25015783
REMARK minimizedRMSD -1
REMARK  1 active torsions:
REMARK  status: ('A' for Active; 'I' for Inactive)
REMARK    1  A    between atoms: C1_2  and  C2_3 
ROOT
ATOM      1  C2  UNL d   1       3.708   2.155  -0.501  0.00  0.00    -0.073 A 
ATOM      2  C3  UNL d   1       4.324   2.000   0.746  0.00  0.00    -0.002 A 
ATOM      3  C4  UNL d   1       3.556   1.773   1.889  0.00  0.00     0.004 A 
ATOM      4  C5  UNL d   1       2.166   1.692   1.796  0.00  0.00    -0.004 A 
ATOM      5  C6  UNL d   1       1.533   1.833   0.557  0.00  0.00    -0.075 A 
ATOM      6  C7  UNL d   1       0.039   1.750   0.440  0.00  0.00     0.076 C 
ATOM      7  C8  UNL d   1       2.311   2.063  -0.586  0.00  0.00     0.001 A 
ENDROOT
BRANCH   1   8
ATOM      8  C1  UNL d   1       4.534   2.394  -1.738  0.00  0.00     0.053 C 
ATOM      9  C   UNL d   1       5.170   1.113  -2.255  0.00  0.00     0.018 C 
ENDBRANCH   1   8
TORSDOF 1
ENDMDL
