MODEL 1
REMARK minimizedAffinity 4.89948225
REMARK minimizedRMSD -1
REMARK  1 active torsions:
REMARK  status: ('A' for Active; 'I' for Inactive)
REMARK    1  A    between atoms: C1_2  and  C2_3 
ROOT
ATOM      1  C2  UNL d   1       4.022  -5.710  -2.780  0.00  0.00    -0.073 A 
ATOM      2  C3  UNL d   1       5.328  -5.686  -3.281  0.00  0.00    -0.002 A 
ATOM      3  C4  UNL d   1       5.558  -5.770  -4.655  0.00  0.00     0.004 A 
ATOM      4  C5  UNL d   1       4.485  -5.872  -5.541  0.00  0.00    -0.004 A 
ATOM      5  C6  UNL d   1       3.172  -5.886  -5.060  0.00  0.00    -0.075 A 
ATOM      6  C7  UNL d   1       2.007  -5.998  -6.000  0.00  0.00     0.076 C 
ATOM      7  C8  UNL d   1       2.950  -5.804  -3.679  0.00  0.00     0.001 A 
ENDROOT
BRANCH   1   8
ATOM      8  C1  UNL d   1       3.769  -5.613  -1.297  0.00  0.00     0.053 C 
ATOM      9  C   UNL d   1       2.293  -5.748  -0.961  0.00  0.00     0.018 C 
ENDBRANCH   1   8
TORSDOF 1
ENDMDL
