MODEL 1
REMARK minimizedAffinity 2.84916091
REMARK minimizedRMSD -1
REMARK  1 active torsions:
REMARK  status: ('A' for Active; 'I' for Inactive)
REMARK    1  A    between atoms: C1_2  and  C2_3 
ROOT
ATOM      1  C2  UNL d   1       1.824   1.830   0.950  0.00  0.00    -0.073 A 
ATOM      2  C3  UNL d   1       2.464   2.497   2.001  0.00  0.00    -0.002 A 
ATOM      3  C4  UNL d   1       3.824   2.796   1.922  0.00  0.00     0.004 A 
ATOM      4  C5  UNL d   1       4.557   2.439   0.790  0.00  0.00    -0.004 A 
ATOM      5  C6  UNL d   1       3.933   1.782  -0.276  0.00  0.00    -0.075 A 
ATOM      6  C7  UNL d   1       4.707   1.389  -1.499  0.00  0.00     0.076 C 
ATOM      7  C8  UNL d   1       2.567   1.483  -0.188  0.00  0.00     0.001 A 
ENDROOT
BRANCH   1   8
ATOM      8  C1  UNL d   1       0.353   1.511   1.028  0.00  0.00     0.053 C 
ATOM      9  C   UNL d   1      -0.509   2.694   0.619  0.00  0.00     0.018 C 
ENDBRANCH   1   8
TORSDOF 1
ENDMDL
