MODEL 1
REMARK minimizedAffinity 4.17176104
REMARK minimizedRMSD -1
REMARK  1 active torsions:
REMARK  status: ('A' for Active; 'I' for Inactive)
REMARK    1  A    between atoms: C1_2  and  C2_3 
ROOT
ATOM      1  C2  UNL d   1       4.183  -5.479  -4.577  0.00  0.00    -0.073 A 
ATOM      2  C3  UNL d   1       5.500  -5.061  -4.356  0.00  0.00    -0.002 A 
ATOM      3  C4  UNL d   1       5.977  -4.891  -3.056  0.00  0.00     0.004 A 
ATOM      4  C5  UNL d   1       5.146  -5.143  -1.965  0.00  0.00    -0.004 A 
ATOM      5  C6  UNL d   1       3.830  -5.573  -2.165  0.00  0.00    -0.075 A 
ATOM      6  C7  UNL d   1       2.922  -5.847  -1.002  0.00  0.00     0.076 C 
ATOM      7  C8  UNL d   1       3.357  -5.739  -3.474  0.00  0.00     0.001 A 
ENDROOT
BRANCH   1   8
ATOM      8  C1  UNL d   1       3.665  -5.670  -5.980  0.00  0.00     0.053 C 
ATOM      9  C   UNL d   1       2.181  -5.999  -5.999  0.00  0.00     0.018 C 
ENDBRANCH   1   8
TORSDOF 1
ENDMDL
