MODEL 1
REMARK minimizedAffinity 6.53206587
REMARK minimizedRMSD -1
REMARK  1 active torsions:
REMARK  status: ('A' for Active; 'I' for Inactive)
REMARK    1  A    between atoms: C3_4  and  O_7 
ROOT
ATOM      1  C   UNL d   1      -5.009   1.400   2.148  0.00  0.00    -0.033 A 
ATOM      2  C1  UNL d   1      -5.994   1.871   3.018  0.00  0.00     0.039 A 
ATOM      3  C2  UNL d   1      -5.656   2.250   4.318  0.00  0.00    -0.080 A 
ATOM      4  C3  UNL d   1      -4.331   2.153   4.735  0.00  0.00     0.150 A 
ATOM      5  C4  UNL d   1      -3.344   1.688   3.873  0.00  0.00    -0.007 A 
ATOM      6  C5  UNL d   1      -3.684   1.309   2.574  0.00  0.00     0.039 A 
ENDROOT
BRANCH   4   7
ATOM      7  O   UNL d   1      -3.953   2.506   5.997  0.00  0.00    -0.526 OA
ATOM      8  H5  UNL d   1      -4.745   2.782   6.489  0.00  0.00     0.418 HD
ENDBRANCH   4   7
TORSDOF 1
ENDMDL
