MODEL 1
REMARK minimizedAffinity 9.35145473
REMARK minimizedRMSD -1
REMARK  1 active torsions:
REMARK  status: ('A' for Active; 'I' for Inactive)
REMARK    1  A    between atoms: C3_4  and  O_7 
ROOT
ATOM      1  C   UNL d   1       6.000   0.813  -3.094  0.00  0.00    -0.033 A 
ATOM      2  C1  UNL d   1       5.933   1.586  -1.933  0.00  0.00     0.039 A 
ATOM      3  C2  UNL d   1       5.807   0.968  -0.688  0.00  0.00    -0.080 A 
ATOM      4  C3  UNL d   1       5.749  -0.421  -0.616  0.00  0.00     0.150 A 
ATOM      5  C4  UNL d   1       5.819  -1.197  -1.768  0.00  0.00    -0.007 A 
ATOM      6  C5  UNL d   1       5.944  -0.579  -3.012  0.00  0.00     0.039 A 
ENDROOT
BRANCH   4   7
ATOM      7  O   UNL d   1       5.621  -1.069   0.576  0.00  0.00    -0.526 OA
ATOM      8  H5  UNL d   1       5.556  -0.404   1.282  0.00  0.00     0.418 HD
ENDBRANCH   4   7
TORSDOF 1
ENDMDL
