MODEL 1
REMARK minimizedAffinity 13.1562386
REMARK minimizedRMSD -1
REMARK  1 active torsions:
REMARK  status: ('A' for Active; 'I' for Inactive)
REMARK    1  A    between atoms: C3_4  and  O_7 
ROOT
ATOM      1  C   UNL d   1      -3.618  -0.643  -1.210  0.00  0.00    -0.033 A 
ATOM      2  C1  UNL d   1      -3.505  -1.331  -0.000  0.00  0.00     0.039 A 
ATOM      3  C2  UNL d   1      -3.839  -0.698   1.198  0.00  0.00    -0.080 A 
ATOM      4  C3  UNL d   1      -4.285   0.621   1.174  0.00  0.00     0.150 A 
ATOM      5  C4  UNL d   1      -4.403   1.311  -0.028  0.00  0.00    -0.007 A 
ATOM      6  C5  UNL d   1      -4.068   0.677  -1.224  0.00  0.00     0.039 A 
ENDROOT
BRANCH   4   7
ATOM      7  O   UNL d   1      -4.618   1.282   2.319  0.00  0.00    -0.526 OA
ATOM      8  H5  UNL d   1      -4.459   0.690   3.073  0.00  0.00     0.418 HD
ENDBRANCH   4   7
TORSDOF 1
ENDMDL
