MODEL 1
REMARK minimizedAffinity 7.854568
REMARK minimizedRMSD -1
REMARK  1 active torsions:
REMARK  status: ('A' for Active; 'I' for Inactive)
REMARK    1  A    between atoms: C3_4  and  O_7 
ROOT
ATOM      1  C   UNL d   1      -1.432  -1.562   2.749  0.00  0.00    -0.033 A 
ATOM      2  C1  UNL d   1      -2.402  -1.771   1.766  0.00  0.00     0.039 A 
ATOM      3  C2  UNL d   1      -3.459  -0.870   1.623  0.00  0.00    -0.080 A 
ATOM      4  C3  UNL d   1      -3.534   0.235   2.468  0.00  0.00     0.150 A 
ATOM      5  C4  UNL d   1      -2.569   0.451   3.446  0.00  0.00    -0.007 A 
ATOM      6  C5  UNL d   1      -1.515  -0.451   3.588  0.00  0.00     0.039 A 
ENDROOT
BRANCH   4   7
ATOM      7  O   UNL d   1      -4.550   1.139   2.370  0.00  0.00    -0.526 OA
ATOM      8  H5  UNL d   1      -5.156   0.845   1.669  0.00  0.00     0.418 HD
ENDBRANCH   4   7
TORSDOF 1
ENDMDL
