MODEL 1
REMARK minimizedAffinity 6.83758068
REMARK minimizedRMSD -1
REMARK  1 active torsions:
REMARK  status: ('A' for Active; 'I' for Inactive)
REMARK    1  A    between atoms: C3_4  and  O_7 
ROOT
ATOM      1  C   UNL d   1       1.811  -0.432   2.678  0.00  0.00    -0.033 A 
ATOM      2  C1  UNL d   1       3.047  -0.791   2.139  0.00  0.00     0.039 A 
ATOM      3  C2  UNL d   1       3.137  -1.859   1.244  0.00  0.00    -0.080 A 
ATOM      4  C3  UNL d   1       1.984  -2.558   0.896  0.00  0.00     0.150 A 
ATOM      5  C4  UNL d   1       0.748  -2.203   1.427  0.00  0.00    -0.007 A 
ATOM      6  C5  UNL d   1       0.661  -1.137   2.321  0.00  0.00     0.039 A 
ENDROOT
BRANCH   4   7
ATOM      7  O   UNL d   1       2.023  -3.610   0.030  0.00  0.00    -0.526 OA
ATOM      8  H5  UNL d   1       2.946  -3.758  -0.233  0.00  0.00     0.418 HD
ENDBRANCH   4   7
TORSDOF 1
ENDMDL
