MODEL 1
REMARK minimizedAffinity 10.4240751
REMARK minimizedRMSD -1
REMARK  1 active torsions:
REMARK  status: ('A' for Active; 'I' for Inactive)
REMARK    1  A    between atoms: C3_4  and  O_7 
ROOT
ATOM      1  C   UNL d   1       5.454  -5.104   5.997  0.00  0.00    -0.033 A 
ATOM      2  C1  UNL d   1       5.022  -5.799   4.865  0.00  0.00     0.039 A 
ATOM      3  C2  UNL d   1       4.594  -5.099   3.735  0.00  0.00    -0.080 A 
ATOM      4  C3  UNL d   1       4.602  -3.707   3.749  0.00  0.00     0.150 A 
ATOM      5  C4  UNL d   1       5.035  -3.008   4.872  0.00  0.00    -0.007 A 
ATOM      6  C5  UNL d   1       5.461  -3.709   5.999  0.00  0.00     0.039 A 
ENDROOT
BRANCH   4   7
ATOM      7  O   UNL d   1       4.189  -2.981   2.672  0.00  0.00    -0.526 OA
ATOM      8  H5  UNL d   1       3.891  -3.597   1.982  0.00  0.00     0.418 HD
ENDBRANCH   4   7
TORSDOF 1
ENDMDL
