MODEL 1
REMARK minimizedAffinity 8.35905457
REMARK minimizedRMSD -1
REMARK  1 active torsions:
REMARK  status: ('A' for Active; 'I' for Inactive)
REMARK    1  A    between atoms: C3_4  and  O_7 
ROOT
ATOM      1  C   UNL d   1      -0.363  -1.090   2.195  0.00  0.00    -0.033 A 
ATOM      2  C1  UNL d   1      -0.895  -1.742   1.080  0.00  0.00     0.039 A 
ATOM      3  C2  UNL d   1      -0.050  -2.410   0.192  0.00  0.00    -0.080 A 
ATOM      4  C3  UNL d   1       1.321  -2.421   0.429  0.00  0.00     0.150 A 
ATOM      5  C4  UNL d   1       1.857  -1.777   1.540  0.00  0.00    -0.007 A 
ATOM      6  C5  UNL d   1       1.013  -1.109   2.426  0.00  0.00     0.039 A 
ENDROOT
BRANCH   4   7
ATOM      7  O   UNL d   1       2.186  -3.056  -0.412  0.00  0.00    -0.526 OA
ATOM      8  H5  UNL d   1       1.677  -3.431  -1.150  0.00  0.00     0.418 HD
ENDBRANCH   4   7
TORSDOF 1
ENDMDL
