MODEL 1
REMARK minimizedAffinity -3.76885223
REMARK minimizedRMSD -1
REMARK  0 active torsions:
REMARK  status: ('A' for Active; 'I' for Inactive)
ROOT
ATOM      1  C1  DEN d   1       0.316  -0.175  -0.407  0.00  0.00     0.130 A 
ATOM      2  C2  DEN d   1      -0.711  -1.073  -0.927  0.00  0.00    -0.031 A 
ATOM      3  C3  DEN d   1      -1.844  -1.069   0.021  0.00  0.00     0.027 A 
ATOM      4  C4  DEN d   1      -2.106   0.236   2.230  0.00  0.00     0.027 A 
ATOM      5  C5  DEN d   1      -1.493   1.118   3.092  0.00  0.00    -0.003 A 
ATOM      6  C6  DEN d   1      -0.231   1.601   2.867  0.00  0.00     0.001 A 
ATOM      7  C7  DEN d   1       0.442   1.239   1.730  0.00  0.00     0.017 A 
ATOM      8  C8  DEN d   1      -0.167   0.344   0.860  0.00  0.00    -0.094 A 
ATOM      9  C9  DEN d   1      -1.448  -0.123   1.098  0.00  0.00    -0.072 A 
ENDROOT
TORSDOF 0
ENDMDL
