MODEL 1
REMARK minimizedAffinity -0.0845790207
REMARK minimizedRMSD -1
REMARK  0 active torsions:
REMARK  status: ('A' for Active; 'I' for Inactive)
ROOT
ATOM      1  C1  DEN d   1       0.086   1.550   3.125  0.00  0.00     0.130 A 
ATOM      2  C2  DEN d   1      -1.060   2.235   2.532  0.00  0.00    -0.031 A 
ATOM      3  C3  DEN d   1      -1.234   1.727   1.156  0.00  0.00     0.027 A 
ATOM      4  C4  DEN d   1       0.149  -0.047  -0.105  0.00  0.00     0.027 A 
ATOM      5  C5  DEN d   1       1.227  -0.901  -0.019  0.00  0.00    -0.003 A 
ATOM      6  C6  DEN d   1       2.014  -0.972   1.100  0.00  0.00     0.001 A 
ATOM      7  C7  DEN d   1       1.707  -0.208   2.195  0.00  0.00     0.017 A 
ATOM      8  C8  DEN d   1       0.627   0.660   2.113  0.00  0.00    -0.094 A 
ATOM      9  C9  DEN d   1      -0.164   0.709   0.977  0.00  0.00    -0.072 A 
ENDROOT
TORSDOF 0
ENDMDL
