MODEL 1
REMARK minimizedAffinity 2.76308727
REMARK minimizedRMSD -1
REMARK  0 active torsions:
REMARK  status: ('A' for Active; 'I' for Inactive)
ROOT
ATOM      1  C1  DEN d   1       0.538   2.227   2.336  0.00  0.00     0.130 A 
ATOM      2  C2  DEN d   1      -0.547   2.793   1.538  0.00  0.00    -0.031 A 
ATOM      3  C3  DEN d   1      -0.753   1.922   0.364  0.00  0.00     0.027 A 
ATOM      4  C4  DEN d   1       0.492  -0.240  -0.290  0.00  0.00     0.027 A 
ATOM      5  C5  DEN d   1       1.498  -1.109   0.070  0.00  0.00    -0.003 A 
ATOM      6  C6  DEN d   1       2.271  -0.910   1.183  0.00  0.00     0.001 A 
ATOM      7  C7  DEN d   1       2.020   0.160   2.001  0.00  0.00     0.017 A 
ATOM      8  C8  DEN d   1       1.012   1.045   1.640  0.00  0.00    -0.094 A 
ATOM      9  C9  DEN d   1       0.234   0.819   0.518  0.00  0.00    -0.072 A 
ENDROOT
TORSDOF 0
ENDMDL
