MODEL 1
REMARK minimizedAffinity -2.23100758
REMARK minimizedRMSD -1
REMARK  0 active torsions:
REMARK  status: ('A' for Active; 'I' for Inactive)
ROOT
ATOM      1  C1  DEN d   1      -0.628   0.459  -5.978  0.00  0.00     0.130 A 
ATOM      2  C2  DEN d   1      -1.275  -0.737  -5.446  0.00  0.00    -0.031 A 
ATOM      3  C3  DEN d   1      -0.554  -1.140  -4.222  0.00  0.00     0.027 A 
ATOM      4  C4  DEN d   1       1.486  -0.031  -3.100  0.00  0.00     0.027 A 
ATOM      5  C5  DEN d   1       2.393   1.002  -3.191  0.00  0.00    -0.003 A 
ATOM      6  C6  DEN d   1       2.378   1.898  -4.226  0.00  0.00     0.001 A 
ATOM      7  C7  DEN d   1       1.409   1.806  -5.190  0.00  0.00     0.017 A 
ATOM      8  C8  DEN d   1       0.495   0.764  -5.109  0.00  0.00    -0.094 A 
ATOM      9  C9  DEN d   1       0.520  -0.125  -4.048  0.00  0.00    -0.072 A 
ENDROOT
TORSDOF 0
ENDMDL
