MODEL 1
REMARK minimizedAffinity -0.656618416
REMARK minimizedRMSD -1
REMARK  0 active torsions:
REMARK  status: ('A' for Active; 'I' for Inactive)
ROOT
ATOM      1  C1  DEN d   1      -1.237   0.475  -0.065  0.00  0.00     0.130 A 
ATOM      2  C2  DEN d   1       0.213   0.486  -0.238  0.00  0.00    -0.031 A 
ATOM      3  C3  DEN d   1       0.600  -0.761  -0.926  0.00  0.00     0.027 A 
ATOM      4  C4  DEN d   1      -0.897  -2.696  -1.743  0.00  0.00     0.027 A 
ATOM      5  C5  DEN d   1      -2.192  -3.162  -1.811  0.00  0.00    -0.003 A 
ATOM      6  C6  DEN d   1      -3.246  -2.469  -1.277  0.00  0.00     0.001 A 
ATOM      7  C7  DEN d   1      -3.030  -1.251  -0.690  0.00  0.00     0.017 A 
ATOM      8  C8  DEN d   1      -1.726  -0.778  -0.610  0.00  0.00    -0.094 A 
ATOM      9  C9  DEN d   1      -0.676  -1.487  -1.168  0.00  0.00    -0.072 A 
ENDROOT
TORSDOF 0
ENDMDL
