MODEL 1
REMARK minimizedAffinity -2.49802661
REMARK minimizedRMSD -1
REMARK  0 active torsions:
REMARK  status: ('A' for Active; 'I' for Inactive)
ROOT
ATOM      1  C1  DEN d   1       0.992  -0.380  -0.440  0.00  0.00     0.130 A 
ATOM      2  C2  DEN d   1       0.003  -1.246  -1.077  0.00  0.00    -0.031 A 
ATOM      3  C3  DEN d   1      -1.285  -1.058  -0.379  0.00  0.00     0.027 A 
ATOM      4  C4  DEN d   1      -1.842   0.484   1.612  0.00  0.00     0.027 A 
ATOM      5  C5  DEN d   1      -1.325   1.400   2.501  0.00  0.00    -0.003 A 
ATOM      6  C6  DEN d   1      -0.003   1.759   2.494  0.00  0.00     0.001 A 
ATOM      7  C7  DEN d   1       0.838   1.231   1.550  0.00  0.00     0.017 A 
ATOM      8  C8  DEN d   1       0.326   0.301   0.655  0.00  0.00    -0.094 A 
ATOM      9  C9  DEN d   1      -1.016  -0.039   0.671  0.00  0.00    -0.072 A 
ENDROOT
TORSDOF 0
ENDMDL
