MODEL 1
REMARK minimizedAffinity 3.87292862
REMARK minimizedRMSD -1
REMARK  0 active torsions:
REMARK  status: ('A' for Active; 'I' for Inactive)
ROOT
ATOM      1  C1  DEN d   1       0.205  -1.230  -0.645  0.00  0.00     0.130 A 
ATOM      2  C2  DEN d   1      -1.156  -0.779  -0.925  0.00  0.00    -0.031 A 
ATOM      3  C3  DEN d   1      -1.484   0.298   0.031  0.00  0.00     0.027 A 
ATOM      4  C4  DEN d   1      -0.025   1.309   1.901  0.00  0.00     0.027 A 
ATOM      5  C5  DEN d   1       1.199   1.244   2.529  0.00  0.00    -0.003 A 
ATOM      6  C6  DEN d   1       2.157   0.334   2.168  0.00  0.00     0.001 A 
ATOM      7  C7  DEN d   1       1.924  -0.518   1.121  0.00  0.00     0.017 A 
ATOM      8  C8  DEN d   1       0.689  -0.463   0.488  0.00  0.00    -0.094 A 
ATOM      9  C9  DEN d   1      -0.262   0.472   0.860  0.00  0.00    -0.072 A 
ENDROOT
TORSDOF 0
ENDMDL
