MODEL 1
REMARK minimizedAffinity -1.23980892
REMARK minimizedRMSD -1
REMARK  0 active torsions:
REMARK  status: ('A' for Active; 'I' for Inactive)
ROOT
ATOM      1  C1  DEN d   1      -0.552  -1.696  -1.347  0.00  0.00     0.130 A 
ATOM      2  C2  DEN d   1      -1.976  -1.999  -1.236  0.00  0.00    -0.031 A 
ATOM      3  C3  DEN d   1      -2.529  -1.194  -0.129  0.00  0.00     0.027 A 
ATOM      4  C4  DEN d   1      -1.326   0.487   1.414  0.00  0.00     0.027 A 
ATOM      5  C5  DEN d   1      -0.113   1.069   1.711  0.00  0.00    -0.003 A 
ATOM      6  C6  DEN d   1       1.035   0.748   1.037  0.00  0.00     0.001 A 
ATOM      7  C7  DEN d   1       0.987  -0.148   0.001  0.00  0.00     0.017 A 
ATOM      8  C8  DEN d   1      -0.230  -0.744  -0.299  0.00  0.00    -0.094 A 
ATOM      9  C9  DEN d   1      -1.383  -0.397   0.386  0.00  0.00    -0.072 A 
ENDROOT
TORSDOF 0
ENDMDL
