MODEL 1
REMARK minimizedAffinity -5.69095182
REMARK minimizedRMSD -1
REMARK  0 active torsions:
REMARK  status: ('A' for Active; 'I' for Inactive)
ROOT
ATOM      1  C1  DEN d   1      -0.819   1.216   2.214  0.00  0.00     0.130 A 
ATOM      2  C2  DEN d   1       0.605   1.441   2.447  0.00  0.00    -0.031 A 
ATOM      3  C3  DEN d   1       1.098   0.368   3.333  0.00  0.00     0.027 A 
ATOM      4  C4  DEN d   1      -0.196  -1.614   4.356  0.00  0.00     0.027 A 
ATOM      5  C5  DEN d   1      -1.430  -2.219   4.454  0.00  0.00    -0.003 A 
ATOM      6  C6  DEN d   1      -2.544  -1.707   3.844  0.00  0.00     0.001 A 
ATOM      7  C7  DEN d   1      -2.438  -0.580   3.072  0.00  0.00     0.017 A 
ATOM      8  C8  DEN d   1      -1.199   0.039   2.975  0.00  0.00    -0.094 A 
ATOM      9  C9  DEN d   1      -0.082  -0.501   3.589  0.00  0.00    -0.072 A 
ENDROOT
TORSDOF 0
ENDMDL
