MODEL 1
REMARK minimizedAffinity 5.37408876
REMARK minimizedRMSD -1
REMARK  0 active torsions:
REMARK  status: ('A' for Active; 'I' for Inactive)
ROOT
ATOM      1  C   UNL d   1       1.803  -3.034  -0.367  0.00  0.00     0.078 C 
ATOM      2  C1  UNL d   1       2.144  -1.577  -0.453  0.00  0.00    -0.077 A 
ATOM      3  C2  UNL d   1       3.284  -1.143  -1.141  0.00  0.00    -0.001 A 
ATOM      4  C3  UNL d   1       3.595   0.216  -1.205  0.00  0.00     0.003 A 
ATOM      5  C4  UNL d   1       2.772   1.152  -0.582  0.00  0.00    -0.005 A 
ATOM      6  C5  UNL d   1       1.637   0.730   0.106  0.00  0.00     0.003 A 
ATOM      7  C6  UNL d   1       1.324  -0.629   0.172  0.00  0.00    -0.001 A 
ENDROOT
TORSDOF 0
ENDMDL
