MODEL 1
REMARK minimizedAffinity -0.360344887
REMARK minimizedRMSD -1
REMARK  0 active torsions:
REMARK  status: ('A' for Active; 'I' for Inactive)
ROOT
ATOM      1  C   UNL d   1       4.498   3.250   3.522  0.00  0.00     0.078 C 
ATOM      2  C1  UNL d   1       3.540   2.286   4.155  0.00  0.00    -0.077 A 
ATOM      3  C2  UNL d   1       2.330   1.957   3.531  0.00  0.00    -0.001 A 
ATOM      4  C3  UNL d   1       1.443   1.065   4.137  0.00  0.00     0.003 A 
ATOM      5  C4  UNL d   1       1.755   0.497   5.370  0.00  0.00    -0.005 A 
ATOM      6  C5  UNL d   1       2.955   0.820   6.000  0.00  0.00     0.003 A 
ATOM      7  C6  UNL d   1       3.844   1.711   5.396  0.00  0.00    -0.001 A 
ENDROOT
TORSDOF 0
ENDMDL
