MODEL 1
REMARK minimizedAffinity 0.536997557
REMARK minimizedRMSD -1
REMARK  0 active torsions:
REMARK  status: ('A' for Active; 'I' for Inactive)
ROOT
ATOM      1  C   UNL d   1       0.132   0.359   5.981  0.00  0.00     0.078 C 
ATOM      2  C1  UNL d   1       1.190   1.169   5.295  0.00  0.00    -0.077 A 
ATOM      3  C2  UNL d   1       1.063   1.529   3.947  0.00  0.00    -0.001 A 
ATOM      4  C3  UNL d   1       2.061   2.275   3.319  0.00  0.00     0.003 A 
ATOM      5  C4  UNL d   1       3.194   2.667   4.029  0.00  0.00    -0.005 A 
ATOM      6  C5  UNL d   1       3.331   2.312   5.369  0.00  0.00     0.003 A 
ATOM      7  C6  UNL d   1       2.334   1.566   6.000  0.00  0.00    -0.001 A 
ENDROOT
TORSDOF 0
ENDMDL
