MODEL 1
REMARK minimizedAffinity 7.00546455
REMARK minimizedRMSD -1
REMARK  0 active torsions:
REMARK  status: ('A' for Active; 'I' for Inactive)
ROOT
ATOM      1  C   UNL d   1       3.029  -1.231  -1.459  0.00  0.00     0.078 C 
ATOM      2  C1  UNL d   1       3.465   0.165  -1.790  0.00  0.00    -0.077 A 
ATOM      3  C2  UNL d   1       4.182   0.438  -2.961  0.00  0.00    -0.001 A 
ATOM      4  C3  UNL d   1       4.590   1.741  -3.251  0.00  0.00     0.003 A 
ATOM      5  C4  UNL d   1       4.288   2.781  -2.374  0.00  0.00    -0.005 A 
ATOM      6  C5  UNL d   1       3.577   2.518  -1.205  0.00  0.00     0.003 A 
ATOM      7  C6  UNL d   1       3.168   1.216  -0.913  0.00  0.00    -0.001 A 
ENDROOT
TORSDOF 0
ENDMDL
