MODEL 1
REMARK minimizedAffinity 9.86381626
REMARK minimizedRMSD -1
REMARK  0 active torsions:
REMARK  status: ('A' for Active; 'I' for Inactive)
ROOT
ATOM      1  C   UNL d   1      -3.624   1.760   0.412  0.00  0.00     0.078 C 
ATOM      2  C1  UNL d   1      -3.059   1.029  -0.770  0.00  0.00    -0.077 A 
ATOM      3  C2  UNL d   1      -1.937   1.518  -1.450  0.00  0.00    -0.001 A 
ATOM      4  C3  UNL d   1      -1.427   0.833  -2.554  0.00  0.00     0.003 A 
ATOM      5  C4  UNL d   1      -2.034  -0.344  -2.988  0.00  0.00    -0.005 A 
ATOM      6  C5  UNL d   1      -3.152  -0.837  -2.319  0.00  0.00     0.003 A 
ATOM      7  C6  UNL d   1      -3.663  -0.153  -1.215  0.00  0.00    -0.001 A 
ENDROOT
TORSDOF 0
ENDMDL
