MODEL 1
REMARK minimizedAffinity 2.55867195
REMARK minimizedRMSD -1
REMARK  0 active torsions:
REMARK  status: ('A' for Active; 'I' for Inactive)
ROOT
ATOM      1  C   UNL d   1       5.127   3.968  -1.506  0.00  0.00     0.078 C 
ATOM      2  C1  UNL d   1       4.457   2.964  -0.615  0.00  0.00    -0.077 A 
ATOM      3  C2  UNL d   1       4.472   3.113   0.777  0.00  0.00    -0.001 A 
ATOM      4  C3  UNL d   1       3.853   2.166   1.595  0.00  0.00     0.003 A 
ATOM      5  C4  UNL d   1       3.215   1.063   1.029  0.00  0.00    -0.005 A 
ATOM      6  C5  UNL d   1       3.197   0.906  -0.355  0.00  0.00     0.003 A 
ATOM      7  C6  UNL d   1       3.815   1.852  -1.174  0.00  0.00    -0.001 A 
ENDROOT
TORSDOF 0
ENDMDL
