MODEL 1
REMARK minimizedAffinity 1.30293632
REMARK minimizedRMSD -1
REMARK  0 active torsions:
REMARK  status: ('A' for Active; 'I' for Inactive)
ROOT
ATOM      1  C   UNL d   1       4.846   2.638   2.081  0.00  0.00     0.078 C 
ATOM      2  C1  UNL d   1       4.432   2.050   0.765  0.00  0.00    -0.077 A 
ATOM      3  C2  UNL d   1       4.895   2.588  -0.442  0.00  0.00    -0.001 A 
ATOM      4  C3  UNL d   1       4.495   2.036  -1.660  0.00  0.00     0.003 A 
ATOM      5  C4  UNL d   1       3.628   0.945  -1.683  0.00  0.00    -0.005 A 
ATOM      6  C5  UNL d   1       3.160   0.405  -0.487  0.00  0.00     0.003 A 
ATOM      7  C6  UNL d   1       3.560   0.955   0.732  0.00  0.00    -0.001 A 
ENDROOT
TORSDOF 0
ENDMDL
