MODEL 1
REMARK minimizedAffinity 9.19293118
REMARK minimizedRMSD -1
REMARK  0 active torsions:
REMARK  status: ('A' for Active; 'I' for Inactive)
ROOT
ATOM      1  C   UNL d   1       4.666   2.072   2.303  0.00  0.00     0.078 C 
ATOM      2  C1  UNL d   1       4.152   1.660   0.956  0.00  0.00    -0.077 A 
ATOM      3  C2  UNL d   1       4.187   2.543  -0.131  0.00  0.00    -0.001 A 
ATOM      4  C3  UNL d   1       3.697   2.148  -1.377  0.00  0.00     0.003 A 
ATOM      5  C4  UNL d   1       3.166   0.871  -1.548  0.00  0.00    -0.005 A 
ATOM      6  C5  UNL d   1       3.125  -0.013  -0.472  0.00  0.00     0.003 A 
ATOM      7  C6  UNL d   1       3.615   0.379   0.775  0.00  0.00    -0.001 A 
ENDROOT
TORSDOF 0
ENDMDL
