MODEL 1
REMARK minimizedAffinity 4.46187115
REMARK minimizedRMSD -1
REMARK  3 active torsions:
REMARK  status: ('A' for Active; 'I' for Inactive)
REMARK    1  A    between atoms: C3'_2  and  C2'_3 
REMARK    2  A    between atoms: C2'_3  and  C1'_4 
REMARK    3  A    between atoms: C1'_4  and  C1_5 
ROOT
ATOM      1  C1  N4B d   1       4.935   3.509  -4.685  0.00  0.00    -0.075 A 
ATOM      2  C2  N4B d   1       3.734   4.248  -4.609  0.00  0.00     0.002 A 
ATOM      3  C3  N4B d   1       3.647   5.480  -5.210  0.00  0.00     0.002 A 
ATOM      4  C4  N4B d   1       4.749   5.999  -5.872  0.00  0.00    -0.004 A 
ATOM      5  C5  N4B d   1       5.897   5.268  -5.962  0.00  0.00     0.002 A 
ATOM      6  C6  N4B d   1       5.998   4.027  -5.367  0.00  0.00     0.002 A 
ENDROOT
BRANCH   1   7
ATOM      7  C1' N4B d   1       5.106   2.196  -3.971  0.00  0.00     0.057 C 
BRANCH   7   8
ATOM      8  C2' N4B d   1       5.983   2.405  -2.741  0.00  0.00     0.009 C 
BRANCH   8   9
ATOM      9  C3' N4B d   1       5.166   2.783  -1.517  0.00  0.00     0.004 C 
ATOM     10  C4' N4B d   1       5.985   2.826  -0.262  0.00  0.00     0.003 C 
ENDBRANCH   8   9
ENDBRANCH   7   8
ENDBRANCH   1   7
TORSDOF 3
ENDMDL
