MODEL 1
REMARK minimizedAffinity 2.56878185
REMARK minimizedRMSD -1
REMARK  3 active torsions:
REMARK  status: ('A' for Active; 'I' for Inactive)
REMARK    1  A    between atoms: C3'_2  and  C2'_3 
REMARK    2  A    between atoms: C2'_3  and  C1'_4 
REMARK    3  A    between atoms: C1'_4  and  C1_5 
ROOT
ATOM      1  C1  N4B d   1      -1.236   5.737  -3.540  0.00  0.00    -0.075 A 
ATOM      2  C2  N4B d   1       0.150   5.478  -3.449  0.00  0.00     0.002 A 
ATOM      3  C3  N4B d   1       0.880   5.241  -4.588  0.00  0.00     0.002 A 
ATOM      4  C4  N4B d   1       0.245   5.239  -5.822  0.00  0.00    -0.004 A 
ATOM      5  C5  N4B d   1      -1.088   5.515  -5.903  0.00  0.00     0.002 A 
ATOM      6  C6  N4B d   1      -1.833   5.759  -4.767  0.00  0.00     0.002 A 
ENDROOT
BRANCH   1   7
ATOM      7  C1' N4B d   1      -2.092   5.917  -2.316  0.00  0.00     0.057 C 
BRANCH   7   8
ATOM      8  C2' N4B d   1      -3.562   5.864  -2.721  0.00  0.00     0.009 C 
BRANCH   8   9
ATOM      9  C3' N4B d   1      -4.486   5.968  -1.520  0.00  0.00     0.004 C 
ATOM     10  C4' N4B d   1      -3.744   5.997  -0.217  0.00  0.00     0.003 C 
ENDBRANCH   8   9
ENDBRANCH   7   8
ENDBRANCH   1   7
TORSDOF 3
ENDMDL
