MODEL 1
REMARK minimizedAffinity 0.493791044
REMARK minimizedRMSD -1
REMARK  3 active torsions:
REMARK  status: ('A' for Active; 'I' for Inactive)
REMARK    1  A    between atoms: C3'_2  and  C2'_3 
REMARK    2  A    between atoms: C2'_3  and  C1'_4 
REMARK    3  A    between atoms: C1'_4  and  C1_5 
ROOT
ATOM      1  C1  N4B d   1      -1.428   5.969  -3.419  0.00  0.00    -0.075 A 
ATOM      2  C2  N4B d   1      -2.505   5.987  -4.333  0.00  0.00     0.002 A 
ATOM      3  C3  N4B d   1      -3.798   6.000  -3.870  0.00  0.00     0.002 A 
ATOM      4  C4  N4B d   1      -4.038   5.975  -2.504  0.00  0.00    -0.004 A 
ATOM      5  C5  N4B d   1      -2.992   5.982  -1.628  0.00  0.00     0.002 A 
ATOM      6  C6  N4B d   1      -1.688   5.974  -2.079  0.00  0.00     0.002 A 
ENDROOT
BRANCH   1   7
ATOM      7  C1' N4B d   1       0.001   5.868  -3.878  0.00  0.00     0.057 C 
BRANCH   7   8
ATOM      8  C2' N4B d   1       0.040   5.890  -5.403  0.00  0.00     0.009 C 
BRANCH   8   9
ATOM      9  C3' N4B d   1       1.093   4.947  -5.958  0.00  0.00     0.004 C 
ATOM     10  C4' N4B d   1       2.460   5.562  -6.000  0.00  0.00     0.003 C 
ENDBRANCH   8   9
ENDBRANCH   7   8
ENDBRANCH   1   7
TORSDOF 3
ENDMDL
