MODEL 1
REMARK minimizedAffinity -6.55201006
REMARK minimizedRMSD -1
REMARK  2 active torsions:
REMARK  status: ('A' for Active; 'I' for Inactive)
REMARK    1  A    between atoms: C2'_3  and  C1'_4 
REMARK    2  A    between atoms: C1'_4  and  C1_5 
ROOT
ATOM      1  C1  I4B d   1      -0.130   0.009   0.116  0.00  0.00    -0.075 A 
ATOM      2  C2  I4B d   1      -0.813   0.275   1.276  0.00  0.00     0.003 A 
ATOM      3  C3  I4B d   1      -0.490   1.417   2.049  0.00  0.00     0.002 A 
ATOM      4  C4  I4B d   1       0.550   2.232   1.652  0.00  0.00    -0.004 A 
ATOM      5  C5  I4B d   1       1.227   1.974   0.463  0.00  0.00     0.002 A 
ATOM      6  C6  I4B d   1       0.876   0.862  -0.316  0.00  0.00     0.003 A 
ENDROOT
BRANCH   1   7
ATOM      7  C1' I4B d   1      -0.476  -1.224  -0.658  0.00  0.00     0.060 C 
BRANCH   7   8
ATOM      8  C2' I4B d   1      -1.788  -0.973  -1.373  0.00  0.00    -0.013 C 
ATOM      9  C4' I4B d   1      -1.615  -1.037  -2.868  0.00  0.00     0.013 C 
ATOM     10  C3' I4B d   1      -2.777  -1.996  -0.898  0.00  0.00     0.013 C 
ENDBRANCH   7   8
ENDBRANCH   1   7
TORSDOF 2
ENDMDL
