MODEL 1
REMARK minimizedAffinity -4.57970524
REMARK minimizedRMSD -1
REMARK  2 active torsions:
REMARK  status: ('A' for Active; 'I' for Inactive)
REMARK    1  A    between atoms: C2'_3  and  C1'_4 
REMARK    2  A    between atoms: C1'_4  and  C1_5 
ROOT
ATOM      1  C1  I4B d   1      -0.142  -0.226   0.070  0.00  0.00    -0.075 A 
ATOM      2  C2  I4B d   1       1.078   0.344  -0.195  0.00  0.00     0.003 A 
ATOM      3  C3  I4B d   1       1.511   1.475   0.540  0.00  0.00     0.002 A 
ATOM      4  C4  I4B d   1       0.677   2.029   1.488  0.00  0.00    -0.004 A 
ATOM      5  C5  I4B d   1      -0.550   1.436   1.772  0.00  0.00     0.002 A 
ATOM      6  C6  I4B d   1      -0.958   0.294   1.067  0.00  0.00     0.003 A 
ENDROOT
BRANCH   1   7
ATOM      7  C1' I4B d   1      -0.582  -1.399  -0.747  0.00  0.00     0.060 C 
BRANCH   7   8
ATOM      8  C2' I4B d   1      -1.865  -1.017  -1.458  0.00  0.00    -0.013 C 
ATOM      9  C4' I4B d   1      -1.653  -0.913  -2.946  0.00  0.00     0.013 C 
ATOM     10  C3' I4B d   1      -2.901  -2.050  -1.129  0.00  0.00     0.013 C 
ENDBRANCH   7   8
ENDBRANCH   1   7
TORSDOF 2
ENDMDL
