MODEL 1
REMARK minimizedAffinity -3.26535916
REMARK minimizedRMSD -1
REMARK  2 active torsions:
REMARK  status: ('A' for Active; 'I' for Inactive)
REMARK    1  A    between atoms: C2'_3  and  C1'_4 
REMARK    2  A    between atoms: C1'_4  and  C1_5 
ROOT
ATOM      1  C1  I4B d   1       0.883   0.977   0.308  0.00  0.00    -0.075 A 
ATOM      2  C2  I4B d   1       0.995   2.112   1.072  0.00  0.00     0.003 A 
ATOM      3  C3  I4B d   1       2.260   2.716   1.270  0.00  0.00     0.002 A 
ATOM      4  C4  I4B d   1       3.386   2.127   0.732  0.00  0.00    -0.004 A 
ATOM      5  C5  I4B d   1       3.268   0.989  -0.061  0.00  0.00     0.002 A 
ATOM      6  C6  I4B d   1       2.007   0.417  -0.285  0.00  0.00     0.003 A 
ENDROOT
BRANCH   1   7
ATOM      7  C1' I4B d   1      -0.464   0.346   0.147  0.00  0.00     0.060 C 
BRANCH   7   8
ATOM      8  C2' I4B d   1      -0.583  -0.768   1.167  0.00  0.00    -0.013 C 
ATOM      9  C4' I4B d   1      -1.657  -0.469   2.179  0.00  0.00     0.013 C 
ATOM     10  C3' I4B d   1      -0.873  -2.041   0.430  0.00  0.00     0.013 C 
ENDBRANCH   7   8
ENDBRANCH   1   7
TORSDOF 2
ENDMDL
