MODEL 1
REMARK minimizedAffinity -1.2593143
REMARK minimizedRMSD -1
REMARK  2 active torsions:
REMARK  status: ('A' for Active; 'I' for Inactive)
REMARK    1  A    between atoms: C2'_3  and  C1'_4 
REMARK    2  A    between atoms: C1'_4  and  C1_5 
ROOT
ATOM      1  C1  I4B d   1      -0.148  -0.619  -0.131  0.00  0.00    -0.075 A 
ATOM      2  C2  I4B d   1      -0.734   0.222   0.782  0.00  0.00     0.003 A 
ATOM      3  C3  I4B d   1       0.048   1.180   1.472  0.00  0.00     0.002 A 
ATOM      4  C4  I4B d   1       1.410   1.228   1.257  0.00  0.00    -0.004 A 
ATOM      5  C5  I4B d   1       1.998   0.390   0.314  0.00  0.00     0.002 A 
ATOM      6  C6  I4B d   1       1.212  -0.532  -0.394  0.00  0.00     0.003 A 
ENDROOT
BRANCH   1   7
ATOM      7  C1' I4B d   1      -0.998  -1.641  -0.817  0.00  0.00     0.060 C 
BRANCH   7   8
ATOM      8  C2' I4B d   1      -1.771  -0.943  -1.917  0.00  0.00    -0.013 C 
ATOM      9  C4' I4B d   1      -1.194  -1.256  -3.272  0.00  0.00     0.013 C 
ATOM     10  C3' I4B d   1      -3.203  -1.379  -1.825  0.00  0.00     0.013 C 
ENDBRANCH   7   8
ENDBRANCH   1   7
TORSDOF 2
ENDMDL
