MODEL 1
REMARK minimizedAffinity -3.40420723
REMARK minimizedRMSD -1
REMARK  2 active torsions:
REMARK  status: ('A' for Active; 'I' for Inactive)
REMARK    1  A    between atoms: C2'_3  and  C1'_4 
REMARK    2  A    between atoms: C1'_4  and  C1_5 
ROOT
ATOM      1  C1  I4B d   1      -0.578  -1.042  -0.522  0.00  0.00    -0.075 A 
ATOM      2  C2  I4B d   1       0.740  -0.803  -0.820  0.00  0.00     0.003 A 
ATOM      3  C3  I4B d   1       1.462   0.191  -0.115  0.00  0.00     0.002 A 
ATOM      4  C4  I4B d   1       0.816   0.951   0.839  0.00  0.00    -0.004 A 
ATOM      5  C5  I4B d   1      -0.514   0.691   1.156  0.00  0.00     0.002 A 
ATOM      6  C6  I4B d   1      -1.213  -0.320   0.480  0.00  0.00     0.003 A 
ENDROOT
BRANCH   1   7
ATOM      7  C1' I4B d   1      -1.319  -2.077  -1.309  0.00  0.00     0.060 C 
BRANCH   7   8
ATOM      8  C2' I4B d   1      -2.211  -1.358  -2.301  0.00  0.00    -0.013 C 
ATOM      9  C4' I4B d   1      -1.673  -1.475  -3.703  0.00  0.00     0.013 C 
ATOM     10  C3' I4B d   1      -3.586  -1.947  -2.198  0.00  0.00     0.013 C 
ENDBRANCH   7   8
ENDBRANCH   1   7
TORSDOF 2
ENDMDL
