MODEL 1
REMARK minimizedAffinity -4.96647882
REMARK minimizedRMSD -1
REMARK  2 active torsions:
REMARK  status: ('A' for Active; 'I' for Inactive)
REMARK    1  A    between atoms: C2'_3  and  C1'_4 
REMARK    2  A    between atoms: C1'_4  and  C1_5 
ROOT
ATOM      1  C1  I4B d   1       0.565   0.626   0.653  0.00  0.00    -0.075 A 
ATOM      2  C2  I4B d   1       0.229   1.487   1.668  0.00  0.00     0.003 A 
ATOM      3  C3  I4B d   1       1.056   2.597   1.963  0.00  0.00     0.002 A 
ATOM      4  C4  I4B d   1       2.228   2.778   1.258  0.00  0.00    -0.004 A 
ATOM      5  C5  I4B d   1       2.555   1.917   0.214  0.00  0.00     0.002 A 
ATOM      6  C6  I4B d   1       1.712   0.841  -0.098  0.00  0.00     0.003 A 
ENDROOT
BRANCH   1   7
ATOM      7  C1' I4B d   1      -0.315  -0.555   0.389  0.00  0.00     0.060 C 
BRANCH   7   8
ATOM      8  C2' I4B d   1       0.064  -1.127  -0.962  0.00  0.00    -0.013 C 
ATOM      9  C4' I4B d   1       1.134  -2.179  -0.828  0.00  0.00     0.013 C 
ATOM     10  C3' I4B d   1      -1.175  -1.692  -1.589  0.00  0.00     0.013 C 
ENDBRANCH   7   8
ENDBRANCH   1   7
TORSDOF 2
ENDMDL
