MODEL 1
REMARK minimizedAffinity -4.12867785
REMARK minimizedRMSD -1
REMARK  2 active torsions:
REMARK  status: ('A' for Active; 'I' for Inactive)
REMARK    1  A    between atoms: C2'_3  and  C1'_4 
REMARK    2  A    between atoms: C1'_4  and  C1_5 
ROOT
ATOM      1  C1  I4B d   1       1.197   0.993  -0.397  0.00  0.00    -0.075 A 
ATOM      2  C2  I4B d   1       0.901   2.184   0.217  0.00  0.00     0.003 A 
ATOM      3  C3  I4B d   1       1.925   2.939   0.838  0.00  0.00     0.002 A 
ATOM      4  C4  I4B d   1       3.213   2.445   0.866  0.00  0.00    -0.004 A 
ATOM      5  C5  I4B d   1       3.515   1.248   0.223  0.00  0.00     0.002 A 
ATOM      6  C6  I4B d   1       2.503   0.523  -0.423  0.00  0.00     0.003 A 
ENDROOT
BRANCH   1   7
ATOM      7  C1' I4B d   1       0.085   0.205  -1.014  0.00  0.00     0.060 C 
BRANCH   7   8
ATOM      8  C2' I4B d   1      -0.351  -0.848  -0.016  0.00  0.00    -0.013 C 
ATOM      9  C4' I4B d   1      -0.609  -0.242   1.338  0.00  0.00     0.013 C 
ATOM     10  C3' I4B d   1      -1.583  -1.514  -0.554  0.00  0.00     0.013 C 
ENDBRANCH   7   8
ENDBRANCH   1   7
TORSDOF 2
ENDMDL
