MODEL 1
REMARK minimizedAffinity -4.71328688
REMARK minimizedRMSD -1
REMARK  2 active torsions:
REMARK  status: ('A' for Active; 'I' for Inactive)
REMARK    1  A    between atoms: C2'_3  and  C1'_4 
REMARK    2  A    between atoms: C1'_4  and  C1_5 
ROOT
ATOM      1  C1  I4B d   1      -0.735  -1.063  -1.465  0.00  0.00    -0.075 A 
ATOM      2  C2  I4B d   1      -1.585  -2.120  -1.254  0.00  0.00     0.003 A 
ATOM      3  C3  I4B d   1      -2.408  -2.595  -2.304  0.00  0.00     0.002 A 
ATOM      4  C4  I4B d   1      -2.385  -1.955  -3.527  0.00  0.00    -0.004 A 
ATOM      5  C5  I4B d   1      -1.506  -0.898  -3.746  0.00  0.00     0.002 A 
ATOM      6  C6  I4B d   1      -0.667  -0.457  -2.713  0.00  0.00     0.003 A 
ENDROOT
BRANCH   1   7
ATOM      7  C1' I4B d   1       0.095  -0.567  -0.324  0.00  0.00     0.060 C 
BRANCH   7   8
ATOM      8  C2' I4B d   1      -0.764  -0.592   0.924  0.00  0.00    -0.013 C 
ATOM      9  C4' I4B d   1      -0.043  -1.253   2.069  0.00  0.00     0.013 C 
ATOM     10  C3' I4B d   1      -1.132   0.822   1.260  0.00  0.00     0.013 C 
ENDBRANCH   7   8
ENDBRANCH   1   7
TORSDOF 2
ENDMDL
