MODEL 1
REMARK minimizedAffinity -3.70450711
REMARK minimizedRMSD -1
REMARK  2 active torsions:
REMARK  status: ('A' for Active; 'I' for Inactive)
REMARK    1  A    between atoms: C2'_3  and  C1'_4 
REMARK    2  A    between atoms: C1'_4  and  C1_5 
ROOT
ATOM      1  C1  I4B d   1      -0.070  -0.571  -0.235  0.00  0.00    -0.075 A 
ATOM      2  C2  I4B d   1      -0.708   0.110   0.771  0.00  0.00     0.003 A 
ATOM      3  C3  I4B d   1       0.006   1.034   1.572  0.00  0.00     0.002 A 
ATOM      4  C4  I4B d   1       1.359   1.208   1.366  0.00  0.00    -0.004 A 
ATOM      5  C5  I4B d   1       2.000   0.534   0.330  0.00  0.00     0.002 A 
ATOM      6  C6  I4B d   1       1.279  -0.352  -0.484  0.00  0.00     0.003 A 
ENDROOT
BRANCH   1   7
ATOM      7  C1' I4B d   1      -0.847  -1.564  -1.040  0.00  0.00     0.060 C 
BRANCH   7   8
ATOM      8  C2' I4B d   1      -1.634  -0.802  -2.087  0.00  0.00    -0.013 C 
ATOM      9  C4' I4B d   1      -0.799  -0.536  -3.311  0.00  0.00     0.013 C 
ATOM     10  C3' I4B d   1      -2.852  -1.608  -2.427  0.00  0.00     0.013 C 
ENDBRANCH   7   8
ENDBRANCH   1   7
TORSDOF 2
ENDMDL
