MODEL 1
REMARK minimizedAffinity -4.07547903
REMARK minimizedRMSD -1
REMARK  2 active torsions:
REMARK  status: ('A' for Active; 'I' for Inactive)
REMARK    1  A    between atoms: C2'_3  and  C1'_4 
REMARK    2  A    between atoms: C1'_4  and  C1_5 
ROOT
ATOM      1  C1  I4B d   1      -0.597  -1.425  -1.211  0.00  0.00    -0.075 A 
ATOM      2  C2  I4B d   1      -1.511  -2.404  -0.912  0.00  0.00     0.003 A 
ATOM      3  C3  I4B d   1      -2.499  -2.770  -1.858  0.00  0.00     0.002 A 
ATOM      4  C4  I4B d   1      -2.568  -2.100  -3.062  0.00  0.00    -0.004 A 
ATOM      5  C5  I4B d   1      -1.626  -1.123  -3.373  0.00  0.00     0.002 A 
ATOM      6  C6  I4B d   1      -0.626  -0.791  -2.447  0.00  0.00     0.003 A 
ENDROOT
BRANCH   1   7
ATOM      7  C1' I4B d   1       0.413  -1.041  -0.176  0.00  0.00     0.060 C 
BRANCH   7   8
ATOM      8  C2' I4B d   1      -0.134   0.146   0.591  0.00  0.00    -0.013 C 
ATOM      9  C4' I4B d   1      -0.704  -0.279   1.919  0.00  0.00     0.013 C 
ATOM     10  C3' I4B d   1       0.980   1.134   0.772  0.00  0.00     0.013 C 
ENDBRANCH   7   8
ENDBRANCH   1   7
TORSDOF 2
ENDMDL
