MODEL 1
REMARK minimizedAffinity 0.449413121
REMARK minimizedRMSD -1
REMARK  0 active torsions:
REMARK  status: ('A' for Active; 'I' for Inactive)
ROOT
ATOM      1  N1  IND d   1       0.170  -3.682  -0.460  0.00  0.00    -0.196 N 
ATOM      2  C2  IND d   1      -0.572  -2.605  -0.061  0.00  0.00     0.054 A 
ATOM      3  C3  IND d   1       0.229  -1.654   0.471  0.00  0.00    -0.031 A 
ATOM      4  C4  IND d   1       2.793  -1.611   0.692  0.00  0.00     0.051 A 
ATOM      5  C5  IND d   1       3.904  -2.383   0.501  0.00  0.00    -0.031 A 
ATOM      6  C6  IND d   1       3.826  -3.653  -0.034  0.00  0.00     0.015 A 
ATOM      7  C7  IND d   1       2.629  -4.195  -0.409  0.00  0.00    -0.016 A 
ATOM      8  C8  IND d   1       1.498  -3.416  -0.210  0.00  0.00    -0.047 A 
ATOM      9  C9  IND d   1       1.567  -2.144   0.372  0.00  0.00    -0.096 A 
ATOM     10  HN1 IND d   1      -0.141  -4.404  -0.809  0.00  0.00     0.298 HD
ENDROOT
TORSDOF 0
ENDMDL
