MODEL 1
REMARK minimizedAffinity -2.75979471
REMARK minimizedRMSD -1
REMARK  0 active torsions:
REMARK  status: ('A' for Active; 'I' for Inactive)
ROOT
ATOM      1  N1  IND d   1       1.881  -3.905  -0.344  0.00  0.00    -0.196 N 
ATOM      2  C2  IND d   1       3.186  -3.630  -0.644  0.00  0.00     0.054 A 
ATOM      3  C3  IND d   1       3.457  -2.326  -0.413  0.00  0.00    -0.031 A 
ATOM      4  C4  IND d   1       1.938  -0.485   0.551  0.00  0.00     0.051 A 
ATOM      5  C5  IND d   1       0.650  -0.246   0.942  0.00  0.00    -0.031 A 
ATOM      6  C6  IND d   1      -0.312  -1.236   0.927  0.00  0.00     0.015 A 
ATOM      7  C7  IND d   1      -0.018  -2.509   0.529  0.00  0.00    -0.016 A 
ATOM      8  C8  IND d   1       1.287  -2.753   0.124  0.00  0.00    -0.047 A 
ATOM      9  C9  IND d   1       2.257  -1.743   0.097  0.00  0.00    -0.096 A 
ATOM     10  HN1 IND d   1       1.496  -4.668  -0.434  0.00  0.00     0.298 HD
ENDROOT
TORSDOF 0
ENDMDL
