MODEL 1
REMARK minimizedAffinity -3.01164198
REMARK minimizedRMSD -1
REMARK  0 active torsions:
REMARK  status: ('A' for Active; 'I' for Inactive)
ROOT
ATOM      1  N1  IND d   1       3.074  -1.533   0.112  0.00  0.00    -0.196 N 
ATOM      2  C2  IND d   1       3.290  -0.209   0.375  0.00  0.00     0.054 A 
ATOM      3  C3  IND d   1       2.131   0.399   0.713  0.00  0.00    -0.031 A 
ATOM      4  C4  IND d   1      -0.221  -0.607   0.997  0.00  0.00     0.051 A 
ATOM      5  C5  IND d   1      -0.924  -1.768   0.831  0.00  0.00    -0.031 A 
ATOM      6  C6  IND d   1      -0.317  -2.934   0.411  0.00  0.00     0.015 A 
ATOM      7  C7  IND d   1       1.024  -2.985   0.151  0.00  0.00    -0.016 A 
ATOM      8  C8  IND d   1       1.739  -1.807   0.312  0.00  0.00    -0.047 A 
ATOM      9  C9  IND d   1       1.120  -0.610   0.696  0.00  0.00    -0.096 A 
ATOM     10  HN1 IND d   1       3.671  -2.099  -0.137  0.00  0.00     0.298 HD
ENDROOT
TORSDOF 0
ENDMDL
