MODEL 1
REMARK minimizedAffinity -1.88602328
REMARK minimizedRMSD -1
REMARK  0 active torsions:
REMARK  status: ('A' for Active; 'I' for Inactive)
ROOT
ATOM      1  N1  IND d   1       2.944  -4.347  -0.206  0.00  0.00    -0.196 N 
ATOM      2  C2  IND d   1       4.202  -3.813  -0.171  0.00  0.00     0.054 A 
ATOM      3  C3  IND d   1       4.146  -2.494   0.121  0.00  0.00    -0.031 A 
ATOM      4  C4  IND d   1       2.105  -1.028   0.679  0.00  0.00     0.051 A 
ATOM      5  C5  IND d   1       0.740  -1.060   0.739  0.00  0.00    -0.031 A 
ATOM      6  C6  IND d   1       0.025  -2.213   0.484  0.00  0.00     0.015 A 
ATOM      7  C7  IND d   1       0.653  -3.385   0.170  0.00  0.00    -0.016 A 
ATOM      8  C8  IND d   1       2.039  -3.355   0.102  0.00  0.00    -0.047 A 
ATOM      9  C9  IND d   1       2.767  -2.178   0.318  0.00  0.00    -0.096 A 
ATOM     10  HN1 IND d   1       2.751  -5.164  -0.389  0.00  0.00     0.298 HD
ENDROOT
TORSDOF 0
ENDMDL
