MODEL 1
REMARK minimizedAffinity -3.48978782
REMARK minimizedRMSD -1
REMARK  0 active torsions:
REMARK  status: ('A' for Active; 'I' for Inactive)
ROOT
ATOM      1  N1  IND d   1      -0.189  -1.311   1.176  0.00  0.00    -0.196 N 
ATOM      2  C2  IND d   1       0.191   0.002   1.168  0.00  0.00     0.054 A 
ATOM      3  C3  IND d   1       1.419   0.133   0.618  0.00  0.00    -0.031 A 
ATOM      4  C4  IND d   1       2.943  -1.660  -0.426  0.00  0.00     0.051 A 
ATOM      5  C5  IND d   1       3.043  -3.009  -0.620  0.00  0.00    -0.031 A 
ATOM      6  C6  IND d   1       2.049  -3.879  -0.219  0.00  0.00     0.015 A 
ATOM      7  C7  IND d   1       0.908  -3.428   0.383  0.00  0.00    -0.016 A 
ATOM      8  C8  IND d   1       0.807  -2.059   0.587  0.00  0.00    -0.047 A 
ATOM      9  C9  IND d   1       1.831  -1.176   0.221  0.00  0.00    -0.096 A 
ATOM     10  HN1 IND d   1      -0.926  -1.618   1.495  0.00  0.00     0.298 HD
ENDROOT
TORSDOF 0
ENDMDL
