MODEL 1
REMARK minimizedAffinity -0.275491148
REMARK minimizedRMSD -1
REMARK  0 active torsions:
REMARK  status: ('A' for Active; 'I' for Inactive)
ROOT
ATOM      1  N1  IND d   1       3.791  -2.525  -0.128  0.00  0.00    -0.196 N 
ATOM      2  C2  IND d   1       4.324  -1.280   0.053  0.00  0.00     0.054 A 
ATOM      3  C3  IND d   1       3.353  -0.393   0.367  0.00  0.00    -0.031 A 
ATOM      4  C4  IND d   1       0.835  -0.787   0.734  0.00  0.00     0.051 A 
ATOM      5  C5  IND d   1      -0.128  -1.752   0.646  0.00  0.00    -0.031 A 
ATOM      6  C6  IND d   1       0.172  -3.051   0.290  0.00  0.00     0.015 A 
ATOM      7  C7  IND d   1       1.454  -3.438   0.019  0.00  0.00    -0.016 A 
ATOM      8  C8  IND d   1       2.434  -2.459   0.102  0.00  0.00    -0.047 A 
ATOM      9  C9  IND d   1       2.129  -1.129   0.421  0.00  0.00    -0.096 A 
ATOM     10  HN1 IND d   1       4.229  -3.231  -0.349  0.00  0.00     0.298 HD
ENDROOT
TORSDOF 0
ENDMDL
