MODEL 1
REMARK minimizedAffinity -2.29083133
REMARK minimizedRMSD -1
REMARK  0 active torsions:
REMARK  status: ('A' for Active; 'I' for Inactive)
ROOT
ATOM      1  N1  IND d   1       3.764  -5.828   0.988  0.00  0.00    -0.196 N 
ATOM      2  C2  IND d   1       5.010  -5.993   0.450  0.00  0.00     0.054 A 
ATOM      3  C3  IND d   1       5.403  -4.864  -0.181  0.00  0.00    -0.031 A 
ATOM      4  C4  IND d   1       4.205  -2.593  -0.368  0.00  0.00     0.051 A 
ATOM      5  C5  IND d   1       3.027  -1.969  -0.068  0.00  0.00    -0.031 A 
ATOM      6  C6  IND d   1       2.015  -2.611   0.616  0.00  0.00     0.015 A 
ATOM      7  C7  IND d   1       2.149  -3.904   1.037  0.00  0.00    -0.016 A 
ATOM      8  C8  IND d   1       3.341  -4.543   0.728  0.00  0.00    -0.047 A 
ATOM      9  C9  IND d   1       4.355  -3.910  -0.003  0.00  0.00    -0.096 A 
ATOM     10  HN1 IND d   1       3.320  -6.426   1.417  0.00  0.00     0.298 HD
ENDROOT
TORSDOF 0
ENDMDL
