MODEL 1
REMARK minimizedAffinity 6.19792557
REMARK minimizedRMSD -1
REMARK  0 active torsions:
REMARK  status: ('A' for Active; 'I' for Inactive)
ROOT
ATOM      1  N1  IND d   1       1.214  -2.750  -0.599  0.00  0.00    -0.196 N 
ATOM      2  C2  IND d   1      -0.018  -3.330  -0.474  0.00  0.00     0.054 A 
ATOM      3  C3  IND d   1      -0.606  -2.941   0.680  0.00  0.00    -0.031 A 
ATOM      4  C4  IND d   1       0.229  -1.282   2.463  0.00  0.00     0.051 A 
ATOM      5  C5  IND d   1       1.314  -0.525   2.806  0.00  0.00    -0.031 A 
ATOM      6  C6  IND d   1       2.443  -0.467   2.014  0.00  0.00     0.015 A 
ATOM      7  C7  IND d   1       2.524  -1.160   0.839  0.00  0.00    -0.016 A 
ATOM      8  C8  IND d   1       1.427  -1.935   0.491  0.00  0.00    -0.047 A 
ATOM      9  C9  IND d   1       0.296  -2.030   1.311  0.00  0.00    -0.096 A 
ATOM     10  HN1 IND d   1       1.763  -2.875  -1.249  0.00  0.00     0.298 HD
ENDROOT
TORSDOF 0
ENDMDL
