MODEL 1
REMARK minimizedAffinity 1.26557243
REMARK minimizedRMSD -1
REMARK  0 active torsions:
REMARK  status: ('A' for Active; 'I' for Inactive)
ROOT
ATOM      1  N1  IND d   1       2.168  -2.278  -0.721  0.00  0.00    -0.196 N 
ATOM      2  C2  IND d   1       1.412  -3.180  -1.415  0.00  0.00     0.054 A 
ATOM      3  C3  IND d   1       0.122  -3.120  -1.015  0.00  0.00    -0.031 A 
ATOM      4  C4  IND d   1      -0.989  -1.546   0.692  0.00  0.00     0.051 A 
ATOM      5  C5  IND d   1      -0.700  -0.575   1.610  0.00  0.00    -0.031 A 
ATOM      6  C6  IND d   1       0.586  -0.111   1.799  0.00  0.00     0.015 A 
ATOM      7  C7  IND d   1       1.633  -0.595   1.067  0.00  0.00    -0.016 A 
ATOM      8  C8  IND d   1       1.344  -1.585   0.139  0.00  0.00    -0.047 A 
ATOM      9  C9  IND d   1       0.048  -2.090  -0.028  0.00  0.00    -0.096 A 
ATOM     10  HN1 IND d   1       3.015  -2.162  -0.806  0.00  0.00     0.298 HD
ENDROOT
TORSDOF 0
ENDMDL
