MODEL 1
REMARK minimizedAffinity 6.88640594
REMARK minimizedRMSD -1
REMARK  0 active torsions:
REMARK  status: ('A' for Active; 'I' for Inactive)
ROOT
ATOM      1  N1  IND d   1       2.514  -4.458  -0.432  0.00  0.00    -0.196 N 
ATOM      2  C2  IND d   1       3.764  -3.937  -0.245  0.00  0.00     0.054 A 
ATOM      3  C3  IND d   1       3.682  -2.656   0.178  0.00  0.00    -0.031 A 
ATOM      4  C4  IND d   1       1.599  -1.246   0.729  0.00  0.00     0.051 A 
ATOM      5  C5  IND d   1       0.234  -1.277   0.679  0.00  0.00    -0.031 A 
ATOM      6  C6  IND d   1      -0.455  -2.393   0.251  0.00  0.00     0.015 A 
ATOM      7  C7  IND d   1       0.198  -3.529  -0.134  0.00  0.00    -0.016 A 
ATOM      8  C8  IND d   1       1.585  -3.499  -0.093  0.00  0.00    -0.047 A 
ATOM      9  C9  IND d   1       2.291  -2.355   0.300  0.00  0.00    -0.096 A 
ATOM     10  HN1 IND d   1       2.337  -5.251  -0.714  0.00  0.00     0.298 HD
ENDROOT
TORSDOF 0
ENDMDL
