MODEL 1
REMARK minimizedAffinity 2.48859286
REMARK minimizedRMSD -1
REMARK  0 active torsions:
REMARK  status: ('A' for Active; 'I' for Inactive)
ROOT
ATOM      1  N1  IND d   1       3.900  -5.724   0.060  0.00  0.00    -0.196 N 
ATOM      2  C2  IND d   1       5.246  -5.497  -0.019  0.00  0.00     0.054 A 
ATOM      3  C3  IND d   1       5.499  -4.170  -0.032  0.00  0.00    -0.031 A 
ATOM      4  C4  IND d   1       3.866  -2.190   0.169  0.00  0.00     0.051 A 
ATOM      5  C5  IND d   1       2.532  -1.896   0.226  0.00  0.00    -0.031 A 
ATOM      6  C6  IND d   1       1.567  -2.882   0.233  0.00  0.00     0.015 A 
ATOM      7  C7  IND d   1       1.902  -4.206   0.196  0.00  0.00    -0.016 A 
ATOM      8  C8  IND d   1       3.254  -4.509   0.131  0.00  0.00    -0.047 A 
ATOM      9  C9  IND d   1       4.236  -3.511   0.080  0.00  0.00    -0.096 A 
ATOM     10  HN1 IND d   1       3.520  -6.495   0.065  0.00  0.00     0.298 HD
ENDROOT
TORSDOF 0
ENDMDL
