MODEL 1
REMARK minimizedAffinity 14.4250402
REMARK minimizedRMSD -1
REMARK  0 active torsions:
REMARK  status: ('A' for Active; 'I' for Inactive)
ROOT
ATOM      1  N1  IND d   1       3.429   0.632  -4.502  0.00  0.00    -0.196 N 
ATOM      2  C2  IND d   1       2.227   1.047  -4.003  0.00  0.00     0.054 A 
ATOM      3  C3  IND d   1       2.187   0.871  -2.663  0.00  0.00    -0.031 A 
ATOM      4  C4  IND d   1       4.019   0.012  -1.071  0.00  0.00     0.051 A 
ATOM      5  C5  IND d   1       5.277  -0.523  -1.066  0.00  0.00    -0.031 A 
ATOM      6  C6  IND d   1       5.999  -0.701  -2.228  0.00  0.00     0.015 A 
ATOM      7  C7  IND d   1       5.492  -0.339  -3.444  0.00  0.00    -0.016 A 
ATOM      8  C8  IND d   1       4.212   0.198  -3.455  0.00  0.00    -0.047 A 
ATOM      9  C9  IND d   1       3.458   0.342  -2.283  0.00  0.00    -0.096 A 
ATOM     10  HN1 IND d   1       3.659   0.640  -5.331  0.00  0.00     0.298 HD
ENDROOT
TORSDOF 0
ENDMDL
