MODEL 1
REMARK minimizedAffinity 1.02329195
REMARK minimizedRMSD -1
REMARK  0 active torsions:
REMARK  status: ('A' for Active; 'I' for Inactive)
ROOT
ATOM      1  N1  IND d   1       2.123  -2.556   0.407  0.00  0.00    -0.196 N 
ATOM      2  C2  IND d   1       1.548  -3.687  -0.102  0.00  0.00     0.054 A 
ATOM      3  C3  IND d   1       0.205  -3.639   0.046  0.00  0.00    -0.031 A 
ATOM      4  C4  IND d   1      -1.269  -1.757   1.001  0.00  0.00     0.051 A 
ATOM      5  C5  IND d   1      -1.196  -0.542   1.622  0.00  0.00    -0.031 A 
ATOM      6  C6  IND d   1       0.011   0.078   1.873  0.00  0.00     0.015 A 
ATOM      7  C7  IND d   1       1.195  -0.492   1.499  0.00  0.00    -0.016 A 
ATOM      8  C8  IND d   1       1.126  -1.729   0.875  0.00  0.00    -0.047 A 
ATOM      9  C9  IND d   1      -0.094  -2.382   0.656  0.00  0.00    -0.096 A 
ATOM     10  HN1 IND d   1       2.967  -2.389   0.430  0.00  0.00     0.298 HD
ENDROOT
TORSDOF 0
ENDMDL
