MODEL 1
REMARK minimizedAffinity -0.898774207
REMARK minimizedRMSD -1
REMARK  0 active torsions:
REMARK  status: ('A' for Active; 'I' for Inactive)
ROOT
ATOM      1  N1  IND d   1       2.626  -0.102   2.344  0.00  0.00    -0.196 N 
ATOM      2  C2  IND d   1       3.830  -0.391   1.764  0.00  0.00     0.054 A 
ATOM      3  C3  IND d   1       3.658  -1.229   0.717  0.00  0.00    -0.031 A 
ATOM      4  C4  IND d   1       1.480  -2.170  -0.285  0.00  0.00     0.051 A 
ATOM      5  C5  IND d   1       0.131  -2.217  -0.075  0.00  0.00    -0.031 A 
ATOM      6  C6  IND d   1      -0.469  -1.545   0.971  0.00  0.00     0.015 A 
ATOM      7  C7  IND d   1       0.261  -0.789   1.843  0.00  0.00    -0.016 A 
ATOM      8  C8  IND d   1       1.633  -0.745   1.638  0.00  0.00    -0.047 A 
ATOM      9  C9  IND d   1       2.252  -1.459   0.604  0.00  0.00    -0.096 A 
ATOM     10  HN1 IND d   1       2.509   0.398   3.034  0.00  0.00     0.298 HD
ENDROOT
TORSDOF 0
ENDMDL
