MODEL 1
REMARK minimizedAffinity -3.03951645
REMARK minimizedRMSD -1
REMARK  0 active torsions:
REMARK  status: ('A' for Active; 'I' for Inactive)
ROOT
ATOM      1  N1  IND d   1       2.680  -4.554   0.125  0.00  0.00    -0.196 N 
ATOM      2  C2  IND d   1       3.985  -4.170  -0.012  0.00  0.00     0.054 A 
ATOM      3  C3  IND d   1       4.079  -2.822  -0.043  0.00  0.00    -0.031 A 
ATOM      4  C4  IND d   1       2.231  -1.048   0.217  0.00  0.00     0.051 A 
ATOM      5  C5  IND d   1       0.875  -0.913   0.328  0.00  0.00    -0.031 A 
ATOM      6  C6  IND d   1       0.036  -2.007   0.381  0.00  0.00     0.015 A 
ATOM      7  C7  IND d   1       0.523  -3.282   0.336  0.00  0.00    -0.016 A 
ATOM      8  C8  IND d   1       1.898  -3.423   0.216  0.00  0.00    -0.047 A 
ATOM      9  C9  IND d   1       2.752  -2.317   0.119  0.00  0.00    -0.096 A 
ATOM     10  HN1 IND d   1       2.396  -5.365   0.149  0.00  0.00     0.298 HD
ENDROOT
TORSDOF 0
ENDMDL
