MODEL 1
REMARK minimizedAffinity 1.72087383
REMARK minimizedRMSD -1
REMARK  0 active torsions:
REMARK  status: ('A' for Active; 'I' for Inactive)
ROOT
ATOM      1  N1  IND d   1       0.711  -4.341   0.256  0.00  0.00    -0.196 N 
ATOM      2  C2  IND d   1      -0.115  -3.330   0.662  0.00  0.00     0.054 A 
ATOM      3  C3  IND d   1       0.601  -2.214   0.923  0.00  0.00    -0.031 A 
ATOM      4  C4  IND d   1       3.126  -1.790   0.654  0.00  0.00     0.051 A 
ATOM      5  C5  IND d   1       4.298  -2.424   0.348  0.00  0.00    -0.031 A 
ATOM      6  C6  IND d   1       4.334  -3.755  -0.014  0.00  0.00     0.015 A 
ATOM      7  C7  IND d   1       3.194  -4.502  -0.095  0.00  0.00    -0.016 A 
ATOM      8  C8  IND d   1       2.003  -3.865   0.222  0.00  0.00    -0.047 A 
ATOM      9  C9  IND d   1       1.964  -2.525   0.631  0.00  0.00    -0.096 A 
ATOM     10  HN1 IND d   1       0.465  -5.141   0.057  0.00  0.00     0.298 HD
ENDROOT
TORSDOF 0
ENDMDL
