MODEL 1
REMARK minimizedAffinity 4.27926397
REMARK minimizedRMSD -1
REMARK  0 active torsions:
REMARK  status: ('A' for Active; 'I' for Inactive)
ROOT
ATOM      1  N1  IND d   1       3.181  -6.000   0.398  0.00  0.00    -0.196 N 
ATOM      2  C2  IND d   1       4.543  -5.881   0.416  0.00  0.00     0.054 A 
ATOM      3  C3  IND d   1       4.902  -4.580   0.342  0.00  0.00    -0.031 A 
ATOM      4  C4  IND d   1       3.423  -2.474   0.286  0.00  0.00     0.051 A 
ATOM      5  C5  IND d   1       2.117  -2.077   0.214  0.00  0.00    -0.031 A 
ATOM      6  C6  IND d   1       1.078  -2.985   0.203  0.00  0.00     0.015 A 
ATOM      7  C7  IND d   1       1.307  -4.330   0.274  0.00  0.00    -0.016 A 
ATOM      8  C8  IND d   1       2.632  -4.738   0.340  0.00  0.00    -0.047 A 
ATOM      9  C9  IND d   1       3.692  -3.822   0.309  0.00  0.00    -0.096 A 
ATOM     10  HN1 IND d   1       2.741  -6.738   0.419  0.00  0.00     0.298 HD
ENDROOT
TORSDOF 0
ENDMDL
