MODEL 1
REMARK minimizedAffinity 0.281248003
REMARK minimizedRMSD -1
REMARK  2 active torsions:
REMARK  status: ('A' for Active; 'I' for Inactive)
REMARK    1  A    between atoms: C2'_3  and  C1'_4 
REMARK    2  A    between atoms: C1'_4  and  C1_5 
ROOT
ATOM      1  C1  I4B d   1       3.872  -2.966   4.195  0.00  0.00    -0.075 A 
ATOM      2  C2  I4B d   1       3.373  -3.994   4.955  0.00  0.00     0.003 A 
ATOM      3  C3  I4B d   1       1.997  -4.322   4.895  0.00  0.00     0.002 A 
ATOM      4  C4  I4B d   1       1.153  -3.568   4.106  0.00  0.00    -0.004 A 
ATOM      5  C5  I4B d   1       1.664  -2.541   3.319  0.00  0.00     0.002 A 
ATOM      6  C6  I4B d   1       3.035  -2.245   3.354  0.00  0.00     0.003 A 
ENDROOT
BRANCH   1   7
ATOM      7  C1' I4B d   1       5.325  -2.626   4.308  0.00  0.00     0.060 C 
BRANCH   7   8
ATOM      8  C2' I4B d   1       5.989  -2.973   2.991  0.00  0.00    -0.013 C 
ATOM      9  C4' I4B d   1       5.274  -4.105   2.302  0.00  0.00     0.013 C 
ATOM     10  C3' I4B d   1       6.000  -1.740   2.138  0.00  0.00     0.013 C 
ENDBRANCH   7   8
ENDBRANCH   1   7
TORSDOF 2
ENDMDL
