MODEL 1
REMARK minimizedAffinity 6.06631041
REMARK minimizedRMSD -1
REMARK  2 active torsions:
REMARK  status: ('A' for Active; 'I' for Inactive)
REMARK    1  A    between atoms: C2'_3  and  C1'_4 
REMARK    2  A    between atoms: C1'_4  and  C1_5 
ROOT
ATOM      1  C1  I4B d   1       3.402  -2.254   4.158  0.00  0.00    -0.075 A 
ATOM      2  C2  I4B d   1       4.471  -2.142   3.304  0.00  0.00     0.003 A 
ATOM      3  C3  I4B d   1       5.792  -2.295   3.792  0.00  0.00     0.002 A 
ATOM      4  C4  I4B d   1       5.999  -2.508   5.139  0.00  0.00    -0.004 A 
ATOM      5  C5  I4B d   1       4.913  -2.643   6.000  0.00  0.00     0.002 A 
ATOM      6  C6  I4B d   1       3.606  -2.528   5.504  0.00  0.00     0.003 A 
ENDROOT
BRANCH   1   7
ATOM      7  C1' I4B d   1       2.023  -2.054   3.616  0.00  0.00     0.060 C 
BRANCH   7   8
ATOM      8  C2' I4B d   1       2.107  -1.046   2.487  0.00  0.00    -0.013 C 
ATOM      9  C4' I4B d   1       0.881  -1.103   1.613  0.00  0.00     0.013 C 
ATOM     10  C3' I4B d   1       2.278   0.315   3.092  0.00  0.00     0.013 C 
ENDBRANCH   7   8
ENDBRANCH   1   7
TORSDOF 2
ENDMDL
