MODEL 1
REMARK minimizedAffinity 17.406868
REMARK minimizedRMSD -1
REMARK  2 active torsions:
REMARK  status: ('A' for Active; 'I' for Inactive)
REMARK    1  A    between atoms: C2'_3  and  C1'_4 
REMARK    2  A    between atoms: C1'_4  and  C1_5 
ROOT
ATOM      1  C1  I4B d   1       4.215  -0.035  -3.832  0.00  0.00    -0.075 A 
ATOM      2  C2  I4B d   1       3.746   1.135  -4.376  0.00  0.00     0.003 A 
ATOM      3  C3  I4B d   1       4.398   1.713  -5.493  0.00  0.00     0.002 A 
ATOM      4  C4  I4B d   1       5.537   1.119  -5.997  0.00  0.00    -0.004 A 
ATOM      5  C5  I4B d   1       5.998  -0.078  -5.458  0.00  0.00     0.002 A 
ATOM      6  C6  I4B d   1       5.326  -0.666  -4.376  0.00  0.00     0.003 A 
ENDROOT
BRANCH   1   7
ATOM      7  C1' I4B d   1       3.522  -0.600  -2.633  0.00  0.00     0.060 C 
BRANCH   7   8
ATOM      8  C2' I4B d   1       2.209  -1.199  -3.092  0.00  0.00    -0.013 C 
ATOM      9  C4' I4B d   1       2.430  -2.272  -4.126  0.00  0.00     0.013 C 
ATOM     10  C3' I4B d   1       1.503  -1.746  -1.887  0.00  0.00     0.013 C 
ENDBRANCH   7   8
ENDBRANCH   1   7
TORSDOF 2
ENDMDL
