MODEL 1
REMARK minimizedAffinity 6.95066404
REMARK minimizedRMSD -1
REMARK  2 active torsions:
REMARK  status: ('A' for Active; 'I' for Inactive)
REMARK    1  A    between atoms: C2'_3  and  C1'_4 
REMARK    2  A    between atoms: C1'_4  and  C1_5 
ROOT
ATOM      1  C1  I4B d   1       0.135   1.126  -0.307  0.00  0.00    -0.075 A 
ATOM      2  C2  I4B d   1       0.493   2.428  -0.056  0.00  0.00     0.003 A 
ATOM      3  C3  I4B d   1      -0.312   3.239   0.780  0.00  0.00     0.002 A 
ATOM      4  C4  I4B d   1      -1.484   2.728   1.299  0.00  0.00    -0.004 A 
ATOM      5  C5  I4B d   1      -1.833   1.402   1.063  0.00  0.00     0.002 A 
ATOM      6  C6  I4B d   1      -1.012   0.592   0.265  0.00  0.00     0.003 A 
ENDROOT
BRANCH   1   7
ATOM      7  C1' I4B d   1       0.991   0.307  -1.220  0.00  0.00     0.060 C 
BRANCH   7   8
ATOM      8  C2' I4B d   1       1.410  -0.942  -0.472  0.00  0.00    -0.013 C 
ATOM      9  C4' I4B d   1       2.023  -1.955  -1.403  0.00  0.00     0.013 C 
ATOM     10  C3' I4B d   1       2.377  -0.537   0.600  0.00  0.00     0.013 C 
ENDBRANCH   7   8
ENDBRANCH   1   7
TORSDOF 2
ENDMDL
