MODEL 1
REMARK minimizedAffinity 11.7734118
REMARK minimizedRMSD -1
REMARK  2 active torsions:
REMARK  status: ('A' for Active; 'I' for Inactive)
REMARK    1  A    between atoms: C2'_3  and  C1'_4 
REMARK    2  A    between atoms: C1'_4  and  C1_5 
ROOT
ATOM      1  C1  I4B d   1       1.380  -1.186   1.148  0.00  0.00    -0.075 A 
ATOM      2  C2  I4B d   1       1.384  -2.094   0.119  0.00  0.00     0.003 A 
ATOM      3  C3  I4B d   1       0.221  -2.290  -0.664  0.00  0.00     0.002 A 
ATOM      4  C4  I4B d   1      -0.932  -1.599  -0.353  0.00  0.00    -0.004 A 
ATOM      5  C5  I4B d   1      -0.929  -0.662   0.677  0.00  0.00     0.002 A 
ATOM      6  C6  I4B d   1       0.238  -0.445   1.425  0.00  0.00     0.003 A 
ENDROOT
BRANCH   1   7
ATOM      7  C1' I4B d   1       2.616  -1.028   1.976  0.00  0.00     0.060 C 
BRANCH   7   8
ATOM      8  C2' I4B d   1       2.762  -2.266   2.838  0.00  0.00    -0.013 C 
ATOM      9  C4' I4B d   1       4.185  -2.448   3.293  0.00  0.00     0.013 C 
ATOM     10  C3' I4B d   1       1.833  -2.128   4.007  0.00  0.00     0.013 C 
ENDBRANCH   7   8
ENDBRANCH   1   7
TORSDOF 2
ENDMDL
