MODEL 1
REMARK minimizedAffinity -3.52234054
REMARK minimizedRMSD -1
REMARK  0 active torsions:
REMARK  status: ('A' for Active; 'I' for Inactive)
ROOT
ATOM      1  C   UNL d   1      -4.816  -4.379  -6.000  0.00  0.00     0.172 C 
ATOM      2  N   UNL d   1      -3.541  -4.069  -5.397  0.00  0.00    -0.070 N 
ATOM      3  C1  UNL d   1      -2.439  -4.882  -5.398  0.00  0.00    -0.004 A 
ATOM      4  C2  UNL d   1      -1.431  -4.227  -4.724  0.00  0.00    -0.047 A 
ATOM      5  C3  UNL d   1      -1.946  -2.978  -4.303  0.00  0.00    -0.047 A 
ATOM      6  C4  UNL d   1      -3.254  -2.906  -4.733  0.00  0.00    -0.004 A 
ENDROOT
TORSDOF 0
ENDMDL
