MODEL 1
REMARK minimizedAffinity -3.25455451
REMARK minimizedRMSD -1
REMARK  0 active torsions:
REMARK  status: ('A' for Active; 'I' for Inactive)
ROOT
ATOM      1  C   UNL d   1      -4.850  -0.532  -5.595  0.00  0.00     0.172 C 
ATOM      2  N   UNL d   1      -3.988  -1.690  -5.594  0.00  0.00    -0.070 N 
ATOM      3  C1  UNL d   1      -2.632  -1.676  -5.784  0.00  0.00    -0.004 A 
ATOM      4  C2  UNL d   1      -2.182  -2.976  -5.711  0.00  0.00    -0.047 A 
ATOM      5  C3  UNL d   1      -3.306  -3.801  -5.470  0.00  0.00    -0.047 A 
ATOM      6  C4  UNL d   1      -4.411  -2.979  -5.402  0.00  0.00    -0.004 A 
ENDROOT
TORSDOF 0
ENDMDL
