MODEL 1
REMARK minimizedAffinity -2.21240139
REMARK minimizedRMSD -1
REMARK  0 active torsions:
REMARK  status: ('A' for Active; 'I' for Inactive)
ROOT
ATOM      1  C   UNL d   1      -2.248  -2.676  -4.858  0.00  0.00     0.172 C 
ATOM      2  N   UNL d   1      -3.554  -3.085  -5.317  0.00  0.00    -0.070 N 
ATOM      3  C1  UNL d   1      -3.938  -4.371  -5.591  0.00  0.00    -0.004 A 
ATOM      4  C2  UNL d   1      -5.254  -4.341  -6.000  0.00  0.00    -0.047 A 
ATOM      5  C3  UNL d   1      -5.675  -2.990  -5.972  0.00  0.00    -0.047 A 
ATOM      6  C4  UNL d   1      -4.603  -2.234  -5.546  0.00  0.00    -0.004 A 
ENDROOT
TORSDOF 0
ENDMDL
