MODEL 1
REMARK minimizedAffinity 1.69082129
REMARK minimizedRMSD -1
REMARK  0 active torsions:
REMARK  status: ('A' for Active; 'I' for Inactive)
ROOT
ATOM      1  C   UNL d   1      -0.285  -1.591  -0.363  0.00  0.00     0.172 C 
ATOM      2  N   UNL d   1       0.140  -0.212  -0.297  0.00  0.00    -0.070 N 
ATOM      3  C1  UNL d   1       0.504   0.457   0.841  0.00  0.00    -0.004 A 
ATOM      4  C2  UNL d   1       0.841   1.744   0.484  0.00  0.00    -0.047 A 
ATOM      5  C3  UNL d   1       0.672   1.853  -0.917  0.00  0.00    -0.047 A 
ATOM      6  C4  UNL d   1       0.237   0.627  -1.375  0.00  0.00    -0.004 A 
ENDROOT
TORSDOF 0
ENDMDL
