MODEL 1
REMARK minimizedAffinity -2.71350193
REMARK minimizedRMSD -1
REMARK  0 active torsions:
REMARK  status: ('A' for Active; 'I' for Inactive)
ROOT
ATOM      1  C   UNL d   1      -5.978   2.708  -5.913  0.00  0.00     0.172 C 
ATOM      2  N   UNL d   1      -5.090   3.842  -5.812  0.00  0.00    -0.070 N 
ATOM      3  C1  UNL d   1      -5.473   5.138  -5.587  0.00  0.00    -0.004 A 
ATOM      4  C2  UNL d   1      -4.335   5.915  -5.559  0.00  0.00    -0.047 A 
ATOM      5  C3  UNL d   1      -3.231   5.057  -5.775  0.00  0.00    -0.047 A 
ATOM      6  C4  UNL d   1      -3.727   3.779  -5.929  0.00  0.00    -0.004 A 
ENDROOT
TORSDOF 0
ENDMDL
