MODEL 1
REMARK minimizedAffinity -1.72757757
REMARK minimizedRMSD -1
REMARK  0 active torsions:
REMARK  status: ('A' for Active; 'I' for Inactive)
ROOT
ATOM      1  C   UNL d   1       1.502   1.483   1.490  0.00  0.00     0.172 C 
ATOM      2  N   UNL d   1       2.264   2.453   2.242  0.00  0.00    -0.070 N 
ATOM      3  C1  UNL d   1       3.523   2.263   2.745  0.00  0.00    -0.004 A 
ATOM      4  C2  UNL d   1       3.897   3.419   3.394  0.00  0.00    -0.047 A 
ATOM      5  C3  UNL d   1       2.825   4.336   3.278  0.00  0.00    -0.047 A 
ATOM      6  C4  UNL d   1       1.827   3.712   2.560  0.00  0.00    -0.004 A 
ENDROOT
TORSDOF 0
ENDMDL
