MODEL 1
REMARK minimizedAffinity 1.47614539
REMARK minimizedRMSD -1
REMARK  0 active torsions:
REMARK  status: ('A' for Active; 'I' for Inactive)
ROOT
ATOM      1  C   UNL d   1      -4.443  -3.449  -5.403  0.00  0.00     0.172 C 
ATOM      2  N   UNL d   1      -3.138  -3.321  -4.799  0.00  0.00    -0.070 N 
ATOM      3  C1  UNL d   1      -2.363  -4.355  -4.344  0.00  0.00    -0.004 A 
ATOM      4  C2  UNL d   1      -1.197  -3.819  -3.842  0.00  0.00    -0.047 A 
ATOM      5  C3  UNL d   1      -1.274  -2.415  -3.999  0.00  0.00    -0.047 A 
ATOM      6  C4  UNL d   1      -2.485  -2.134  -4.594  0.00  0.00    -0.004 A 
ENDROOT
TORSDOF 0
ENDMDL
