MODEL 1
REMARK minimizedAffinity 0.0991750285
REMARK minimizedRMSD -1
REMARK  0 active torsions:
REMARK  status: ('A' for Active; 'I' for Inactive)
ROOT
ATOM      1  C   UNL d   1      -2.311   4.340  -5.994  0.00  0.00     0.172 C 
ATOM      2  N   UNL d   1      -3.753   4.272  -5.990  0.00  0.00    -0.070 N 
ATOM      3  C1  UNL d   1      -4.604   5.345  -5.977  0.00  0.00    -0.004 A 
ATOM      4  C2  UNL d   1      -5.894   4.861  -5.979  0.00  0.00    -0.047 A 
ATOM      5  C3  UNL d   1      -5.817   3.448  -5.993  0.00  0.00    -0.047 A 
ATOM      6  C4  UNL d   1      -4.480   3.110  -6.000  0.00  0.00    -0.004 A 
ENDROOT
TORSDOF 0
ENDMDL
