MODEL 1
REMARK minimizedAffinity -2.18887782
REMARK minimizedRMSD -1
REMARK  0 active torsions:
REMARK  status: ('A' for Active; 'I' for Inactive)
ROOT
ATOM      1  C   UNL d   1      -5.626   2.631  -5.987  0.00  0.00     0.172 C 
ATOM      2  N   UNL d   1      -4.768   3.792  -5.990  0.00  0.00    -0.070 N 
ATOM      3  C1  UNL d   1      -5.188   5.095  -6.000  0.00  0.00    -0.004 A 
ATOM      4  C2  UNL d   1      -4.069   5.899  -5.999  0.00  0.00    -0.047 A 
ATOM      5  C3  UNL d   1      -2.937   5.050  -5.989  0.00  0.00    -0.047 A 
ATOM      6  C4  UNL d   1      -3.399   3.751  -5.984  0.00  0.00    -0.004 A 
ENDROOT
TORSDOF 0
ENDMDL
