MODEL 1
REMARK minimizedAffinity -1.02564275
REMARK minimizedRMSD -1
REMARK  0 active torsions:
REMARK  status: ('A' for Active; 'I' for Inactive)
ROOT
ATOM      1  C   UNL d   1      -5.254   2.385  -5.996  0.00  0.00     0.172 C 
ATOM      2  N   UNL d   1      -4.632   3.688  -5.997  0.00  0.00    -0.070 N 
ATOM      3  C1  UNL d   1      -3.284   3.928  -5.997  0.00  0.00    -0.004 A 
ATOM      4  C2  UNL d   1      -3.099   5.294  -5.999  0.00  0.00    -0.047 A 
ATOM      5  C3  UNL d   1      -4.380   5.895  -5.999  0.00  0.00    -0.047 A 
ATOM      6  C4  UNL d   1      -5.311   4.878  -5.998  0.00  0.00    -0.004 A 
ENDROOT
TORSDOF 0
ENDMDL
