MODEL 1
REMARK minimizedAffinity -1.83484995
REMARK minimizedRMSD -1
REMARK  0 active torsions:
REMARK  status: ('A' for Active; 'I' for Inactive)
ROOT
ATOM      1  C   UNL d   1      -1.541   4.146  -5.623  0.00  0.00     0.172 C 
ATOM      2  N   UNL d   1      -2.977   4.148  -5.776  0.00  0.00    -0.070 N 
ATOM      3  C1  UNL d   1      -3.773   3.037  -5.861  0.00  0.00    -0.004 A 
ATOM      4  C2  UNL d   1      -5.077   3.461  -6.000  0.00  0.00    -0.047 A 
ATOM      5  C3  UNL d   1      -5.064   4.876  -6.000  0.00  0.00    -0.047 A 
ATOM      6  C4  UNL d   1      -3.752   5.275  -5.860  0.00  0.00    -0.004 A 
ENDROOT
TORSDOF 0
ENDMDL
