MODEL 1
REMARK minimizedAffinity -2.33159709
REMARK minimizedRMSD -1
REMARK  0 active torsions:
REMARK  status: ('A' for Active; 'I' for Inactive)
ROOT
ATOM      1  C   UNL d   1      -1.882   4.160  -5.685  0.00  0.00     0.172 C 
ATOM      2  N   UNL d   1      -3.324   4.137  -5.762  0.00  0.00    -0.070 N 
ATOM      3  C1  UNL d   1      -4.114   3.028  -5.614  0.00  0.00    -0.004 A 
ATOM      4  C2  UNL d   1      -5.426   3.422  -5.757  0.00  0.00    -0.047 A 
ATOM      5  C3  UNL d   1      -5.425   4.816  -6.000  0.00  0.00    -0.047 A 
ATOM      6  C4  UNL d   1      -4.111   5.233  -5.998  0.00  0.00    -0.004 A 
ENDROOT
TORSDOF 0
ENDMDL
