MODEL 1
REMARK minimizedAffinity -2.27293253
REMARK minimizedRMSD -1
REMARK  0 active torsions:
REMARK  status: ('A' for Active; 'I' for Inactive)
ROOT
ATOM      1  C   UNL d   1      -5.734   5.898  -5.960  0.00  0.00     0.172 C 
ATOM      2  N   UNL d   1      -5.190   4.561  -5.976  0.00  0.00    -0.070 N 
ATOM      3  C1  UNL d   1      -3.858   4.241  -5.985  0.00  0.00    -0.004 A 
ATOM      4  C2  UNL d   1      -3.754   2.867  -5.999  0.00  0.00    -0.047 A 
ATOM      5  C3  UNL d   1      -5.069   2.343  -6.000  0.00  0.00    -0.047 A 
ATOM      6  C4  UNL d   1      -5.938   3.413  -5.985  0.00  0.00    -0.004 A 
ENDROOT
TORSDOF 0
ENDMDL
