MODEL 1
REMARK minimizedAffinity -2.10169888
REMARK minimizedRMSD -1
REMARK  0 active torsions:
REMARK  status: ('A' for Active; 'I' for Inactive)
ROOT
ATOM      1  C   UNL d   1      -2.765   5.847  -5.963  0.00  0.00     0.172 C 
ATOM      2  N   UNL d   1      -3.901   4.955  -5.967  0.00  0.00    -0.070 N 
ATOM      3  C1  UNL d   1      -3.841   3.587  -6.000  0.00  0.00    -0.004 A 
ATOM      4  C2  UNL d   1      -5.133   3.108  -5.991  0.00  0.00    -0.047 A 
ATOM      5  C3  UNL d   1      -5.999   4.227  -5.953  0.00  0.00    -0.047 A 
ATOM      6  C4  UNL d   1      -5.210   5.357  -5.939  0.00  0.00    -0.004 A 
ENDROOT
TORSDOF 0
ENDMDL
