MODEL 1
REMARK minimizedAffinity -2.90640998
REMARK minimizedRMSD -1
REMARK  0 active torsions:
REMARK  status: ('A' for Active; 'I' for Inactive)
ROOT
ATOM      1  C   UNL d   1      -4.938   2.357  -5.908  0.00  0.00     0.172 C 
ATOM      2  N   UNL d   1      -4.731   3.783  -5.816  0.00  0.00    -0.070 N 
ATOM      3  C1  UNL d   1      -5.691   4.742  -5.999  0.00  0.00    -0.004 A 
ATOM      4  C2  UNL d   1      -5.096   5.973  -5.826  0.00  0.00    -0.047 A 
ATOM      5  C3  UNL d   1      -3.731   5.746  -5.530  0.00  0.00    -0.047 A 
ATOM      6  C4  UNL d   1      -3.533   4.381  -5.530  0.00  0.00    -0.004 A 
ENDROOT
TORSDOF 0
ENDMDL
