MODEL 1
REMARK minimizedAffinity 7.16132593
REMARK minimizedRMSD -1
REMARK  0 active torsions:
REMARK  status: ('A' for Active; 'I' for Inactive)
ROOT
ATOM      1  N1  IND d   1       4.849   6.000   0.310  0.00  0.00    -0.196 N 
ATOM      2  C2  IND d   1       5.261   5.064  -0.597  0.00  0.00     0.054 A 
ATOM      3  C3  IND d   1       5.630   3.927   0.035  0.00  0.00    -0.031 A 
ATOM      4  C4  IND d   1       5.542   3.347   2.542  0.00  0.00     0.051 A 
ATOM      5  C5  IND d   1       5.273   3.894   3.765  0.00  0.00    -0.031 A 
ATOM      6  C6  IND d   1       4.837   5.196   3.902  0.00  0.00     0.015 A 
ATOM      7  C7  IND d   1       4.642   6.000   2.814  0.00  0.00    -0.016 A 
ATOM      8  C8  IND d   1       4.922   5.450   1.571  0.00  0.00    -0.047 A 
ATOM      9  C9  IND d   1       5.405   4.143   1.429  0.00  0.00    -0.096 A 
ATOM     10  HN1 IND d   1       4.588   6.798   0.124  0.00  0.00     0.298 HD
ENDROOT
TORSDOF 0
ENDMDL
