MODEL 1
REMARK minimizedAffinity 13.6604443
REMARK minimizedRMSD -1
REMARK  0 active torsions:
REMARK  status: ('A' for Active; 'I' for Inactive)
ROOT
ATOM      1  N1  IND d   1       1.898   5.768  -5.948  0.00  0.00    -0.196 N 
ATOM      2  C2  IND d   1       3.265   5.788  -5.920  0.00  0.00     0.054 A 
ATOM      3  C3  IND d   1       3.754   4.528  -5.895  0.00  0.00    -0.031 A 
ATOM      4  C4  IND d   1       2.497   2.284  -5.999  0.00  0.00     0.051 A 
ATOM      5  C5  IND d   1       1.238   1.753  -5.997  0.00  0.00    -0.031 A 
ATOM      6  C6  IND d   1       0.111   2.550  -5.982  0.00  0.00     0.015 A 
ATOM      7  C7  IND d   1       0.203   3.913  -5.979  0.00  0.00    -0.016 A 
ATOM      8  C8  IND d   1       1.480   4.455  -5.973  0.00  0.00    -0.047 A 
ATOM      9  C9  IND d   1       2.627   3.652  -5.946  0.00  0.00    -0.096 A 
ATOM     10  HN1 IND d   1       1.386   6.458  -5.951  0.00  0.00     0.298 HD
ENDROOT
TORSDOF 0
ENDMDL
