MODEL 1
REMARK minimizedAffinity 5.88369513
REMARK minimizedRMSD -1
REMARK  0 active torsions:
REMARK  status: ('A' for Active; 'I' for Inactive)
ROOT
ATOM      1  N1  IND d   1      -1.829   2.176  -5.695  0.00  0.00    -0.196 N 
ATOM      2  C2  IND d   1      -3.177   2.405  -5.716  0.00  0.00     0.054 A 
ATOM      3  C3  IND d   1      -3.429   3.733  -5.750  0.00  0.00    -0.031 A 
ATOM      4  C4  IND d   1      -1.781   5.707  -5.879  0.00  0.00     0.051 A 
ATOM      5  C5  IND d   1      -0.446   6.000  -5.848  0.00  0.00    -0.031 A 
ATOM      6  C6  IND d   1       0.515   5.013  -5.765  0.00  0.00     0.015 A 
ATOM      7  C7  IND d   1       0.176   3.690  -5.722  0.00  0.00    -0.016 A 
ATOM      8  C8  IND d   1      -1.178   3.389  -5.746  0.00  0.00    -0.047 A 
ATOM      9  C9  IND d   1      -2.160   4.388  -5.787  0.00  0.00    -0.096 A 
ATOM     10  HN1 IND d   1      -1.452   1.405  -5.655  0.00  0.00     0.298 HD
ENDROOT
TORSDOF 0
ENDMDL
