MODEL 1
REMARK minimizedAffinity 8.14881134
REMARK minimizedRMSD -1
REMARK  0 active torsions:
REMARK  status: ('A' for Active; 'I' for Inactive)
ROOT
ATOM      1  N1  IND d   1       2.714   0.560  -3.345  0.00  0.00    -0.196 N 
ATOM      2  C2  IND d   1       2.164   1.411  -4.263  0.00  0.00     0.054 A 
ATOM      3  C3  IND d   1       1.206   2.171  -3.685  0.00  0.00    -0.031 A 
ATOM      4  C4  IND d   1       0.450   2.256  -1.225  0.00  0.00     0.051 A 
ATOM      5  C5  IND d   1       0.635   1.641  -0.019  0.00  0.00    -0.031 A 
ATOM      6  C6  IND d   1       1.543   0.614   0.144  0.00  0.00     0.015 A 
ATOM      7  C7  IND d   1       2.311   0.171  -0.896  0.00  0.00    -0.016 A 
ATOM      8  C8  IND d   1       2.121   0.790  -2.123  0.00  0.00    -0.047 A 
ATOM      9  C9  IND d   1       1.170   1.803  -2.305  0.00  0.00    -0.096 A 
ATOM     10  HN1 IND d   1       3.328  -0.021  -3.505  0.00  0.00     0.298 HD
ENDROOT
TORSDOF 0
ENDMDL
