MODEL 1
REMARK minimizedAffinity 21.0776691
REMARK minimizedRMSD -1
REMARK  0 active torsions:
REMARK  status: ('A' for Active; 'I' for Inactive)
ROOT
ATOM      1  N1  IND d   1       4.199   6.000  -0.641  0.00  0.00    -0.196 N 
ATOM      2  C2  IND d   1       5.563   5.999  -0.740  0.00  0.00     0.054 A 
ATOM      3  C3  IND d   1       6.000   4.809  -1.209  0.00  0.00    -0.031 A 
ATOM      4  C4  IND d   1       4.648   2.757  -1.976  0.00  0.00     0.051 A 
ATOM      5  C5  IND d   1       3.373   2.270  -2.039  0.00  0.00    -0.031 A 
ATOM      6  C6  IND d   1       2.285   3.017  -1.635  0.00  0.00     0.015 A 
ATOM      7  C7  IND d   1       2.433   4.290  -1.160  0.00  0.00    -0.016 A 
ATOM      8  C8  IND d   1       3.727   4.785  -1.087  0.00  0.00    -0.047 A 
ATOM      9  C9  IND d   1       4.838   4.016  -1.456  0.00  0.00    -0.096 A 
ATOM     10  HN1 IND d   1       3.718   6.650  -0.350  0.00  0.00     0.298 HD
ENDROOT
TORSDOF 0
ENDMDL
