MODEL 1
REMARK minimizedAffinity 0.52863431
REMARK minimizedRMSD -1
REMARK  0 active torsions:
REMARK  status: ('A' for Active; 'I' for Inactive)
ROOT
ATOM      1  N1  IND d   1      -0.920   5.994  -5.998  0.00  0.00    -0.196 N 
ATOM      2  C2  IND d   1      -2.286   5.929  -5.996  0.00  0.00     0.054 A 
ATOM      3  C3  IND d   1      -2.695   4.640  -5.999  0.00  0.00    -0.031 A 
ATOM      4  C4  IND d   1      -1.298   2.480  -5.906  0.00  0.00     0.051 A 
ATOM      5  C5  IND d   1      -0.008   2.030  -5.931  0.00  0.00    -0.031 A 
ATOM      6  C6  IND d   1       1.066   2.895  -5.979  0.00  0.00     0.015 A 
ATOM      7  C7  IND d   1       0.889   4.250  -5.991  0.00  0.00    -0.016 A 
ATOM      8  C8  IND d   1      -0.420   4.711  -5.972  0.00  0.00    -0.047 A 
ATOM      9  C9  IND d   1      -1.514   3.836  -5.967  0.00  0.00    -0.096 A 
ATOM     10  HN1 IND d   1      -0.452   6.715  -6.013  0.00  0.00     0.298 HD
ENDROOT
TORSDOF 0
ENDMDL
