MODEL 1
REMARK minimizedAffinity 11.1095409
REMARK minimizedRMSD -1
REMARK  0 active torsions:
REMARK  status: ('A' for Active; 'I' for Inactive)
ROOT
ATOM      1  N1  IND d   1      -5.384  -3.824   0.782  0.00  0.00    -0.196 N 
ATOM      2  C2  IND d   1      -5.981  -5.053   0.810  0.00  0.00     0.054 A 
ATOM      3  C3  IND d   1      -5.220  -5.962   0.160  0.00  0.00    -0.031 A 
ATOM      4  C4  IND d   1      -2.909  -5.673  -0.938  0.00  0.00     0.051 A 
ATOM      5  C5  IND d   1      -1.976  -4.725  -1.250  0.00  0.00    -0.031 A 
ATOM      6  C6  IND d   1      -2.132  -3.402  -0.891  0.00  0.00     0.015 A 
ATOM      7  C7  IND d   1      -3.228  -2.978  -0.193  0.00  0.00    -0.016 A 
ATOM      8  C8  IND d   1      -4.181  -3.937   0.119  0.00  0.00    -0.047 A 
ATOM      9  C9  IND d   1      -4.048  -5.273  -0.280  0.00  0.00    -0.096 A 
ATOM     10  HN1 IND d   1      -5.705  -3.102   1.121  0.00  0.00     0.298 HD
ENDROOT
TORSDOF 0
ENDMDL
