MODEL 1
REMARK minimizedAffinity 0.411704659
REMARK minimizedRMSD -1
REMARK  0 active torsions:
REMARK  status: ('A' for Active; 'I' for Inactive)
ROOT
ATOM      1  N1  IND d   1       2.561   4.511  -3.777  0.00  0.00    -0.196 N 
ATOM      2  C2  IND d   1       2.636   3.550  -2.807  0.00  0.00     0.054 A 
ATOM      3  C3  IND d   1       1.530   2.772  -2.830  0.00  0.00    -0.031 A 
ATOM      4  C4  IND d   1      -0.479   2.831  -4.437  0.00  0.00     0.051 A 
ATOM      5  C5  IND d   1      -1.015   3.554  -5.466  0.00  0.00    -0.031 A 
ATOM      6  C6  IND d   1      -0.372   4.653  -5.997  0.00  0.00     0.015 A 
ATOM      7  C7  IND d   1       0.841   5.066  -5.524  0.00  0.00    -0.016 A 
ATOM      8  C8  IND d   1       1.385   4.338  -4.475  0.00  0.00    -0.047 A 
ATOM      9  C9  IND d   1       0.718   3.247  -3.904  0.00  0.00    -0.096 A 
ATOM     10  HN1 IND d   1       3.149   5.120  -3.927  0.00  0.00     0.298 HD
ENDROOT
TORSDOF 0
ENDMDL
