MODEL 1
REMARK minimizedAffinity 7.15830183
REMARK minimizedRMSD -1
REMARK  0 active torsions:
REMARK  status: ('A' for Active; 'I' for Inactive)
ROOT
ATOM      1  N1  IND d   1      -1.422   2.237  -4.795  0.00  0.00    -0.196 N 
ATOM      2  C2  IND d   1      -1.482   3.288  -5.668  0.00  0.00     0.054 A 
ATOM      3  C3  IND d   1      -0.237   3.696  -5.999  0.00  0.00    -0.031 A 
ATOM      4  C4  IND d   1       2.043   2.719  -5.309  0.00  0.00     0.051 A 
ATOM      5  C5  IND d   1       2.609   1.777  -4.496  0.00  0.00    -0.031 A 
ATOM      6  C6  IND d   1       1.845   0.922  -3.728  0.00  0.00     0.015 A 
ATOM      7  C7  IND d   1       0.480   0.969  -3.753  0.00  0.00    -0.016 A 
ATOM      8  C8  IND d   1      -0.098   1.928  -4.572  0.00  0.00    -0.047 A 
ATOM      9  C9  IND d   1       0.672   2.827  -5.321  0.00  0.00    -0.096 A 
ATOM     10  HN1 IND d   1      -2.098   1.837  -4.445  0.00  0.00     0.298 HD
ENDROOT
TORSDOF 0
ENDMDL
