MODEL 1
REMARK minimizedAffinity 8.51469326
REMARK minimizedRMSD -1
REMARK  0 active torsions:
REMARK  status: ('A' for Active; 'I' for Inactive)
ROOT
ATOM      1  N1  IND d   1      -0.723   2.157  -5.377  0.00  0.00    -0.196 N 
ATOM      2  C2  IND d   1      -2.071   2.336  -5.243  0.00  0.00     0.054 A 
ATOM      3  C3  IND d   1      -2.384   3.648  -5.346  0.00  0.00    -0.031 A 
ATOM      4  C4  IND d   1      -0.854   5.660  -5.837  0.00  0.00     0.051 A 
ATOM      5  C5  IND d   1       0.459   6.000  -6.000  0.00  0.00    -0.031 A 
ATOM      6  C6  IND d   1       1.466   5.057  -5.966  0.00  0.00     0.015 A 
ATOM      7  C7  IND d   1       1.195   3.731  -5.778  0.00  0.00    -0.016 A 
ATOM      8  C8  IND d   1      -0.138   3.383  -5.605  0.00  0.00    -0.047 A 
ATOM      9  C9  IND d   1      -1.160   4.341  -5.596  0.00  0.00    -0.096 A 
ATOM     10  HN1 IND d   1      -0.309   1.404  -5.328  0.00  0.00     0.298 HD
ENDROOT
TORSDOF 0
ENDMDL
