MODEL 1
REMARK minimizedAffinity 18.6923866
REMARK minimizedRMSD -1
REMARK  0 active torsions:
REMARK  status: ('A' for Active; 'I' for Inactive)
ROOT
ATOM      1  N1  IND d   1       4.931   3.624  -4.725  0.00  0.00    -0.196 N 
ATOM      2  C2  IND d   1       4.489   3.401  -5.999  0.00  0.00     0.054 A 
ATOM      3  C3  IND d   1       3.320   2.723  -5.979  0.00  0.00    -0.031 A 
ATOM      4  C4  IND d   1       1.901   1.968  -3.968  0.00  0.00     0.051 A 
ATOM      5  C5  IND d   1       1.912   1.913  -2.602  0.00  0.00    -0.031 A 
ATOM      6  C6  IND d   1       2.949   2.439  -1.860  0.00  0.00     0.015 A 
ATOM      7  C7  IND d   1       4.014   3.052  -2.457  0.00  0.00    -0.016 A 
ATOM      8  C8  IND d   1       4.010   3.103  -3.844  0.00  0.00    -0.047 A 
ATOM      9  C9  IND d   1       2.981   2.534  -4.604  0.00  0.00    -0.096 A 
ATOM     10  HN1 IND d   1       5.662   4.023  -4.511  0.00  0.00     0.298 HD
ENDROOT
TORSDOF 0
ENDMDL
