MODEL 1
REMARK minimizedAffinity 8.60202217
REMARK minimizedRMSD -1
REMARK  0 active torsions:
REMARK  status: ('A' for Active; 'I' for Inactive)
ROOT
ATOM      1  N1  IND d   1      -3.777  -2.683   4.828  0.00  0.00    -0.196 N 
ATOM      2  C2  IND d   1      -3.645  -3.683   5.750  0.00  0.00     0.054 A 
ATOM      3  C3  IND d   1      -2.574  -4.455   5.457  0.00  0.00    -0.031 A 
ATOM      4  C4  IND d   1      -0.841  -4.199   3.571  0.00  0.00     0.051 A 
ATOM      5  C5  IND d   1      -0.562  -3.457   2.457  0.00  0.00    -0.031 A 
ATOM      6  C6  IND d   1      -1.356  -2.396   2.070  0.00  0.00     0.015 A 
ATOM      7  C7  IND d   1      -2.455  -2.029   2.793  0.00  0.00    -0.016 A 
ATOM      8  C8  IND d   1      -2.745  -2.784   3.920  0.00  0.00    -0.047 A 
ATOM      9  C9  IND d   1      -1.968  -3.888   4.294  0.00  0.00    -0.096 A 
ATOM     10  HN1 IND d   1      -4.399  -2.090   4.816  0.00  0.00     0.298 HD
ENDROOT
TORSDOF 0
ENDMDL
