MODEL 1
REMARK minimizedAffinity 7.70921564
REMARK minimizedRMSD -1
REMARK  0 active torsions:
REMARK  status: ('A' for Active; 'I' for Inactive)
ROOT
ATOM      1  N1  IND d   1      -2.776   3.820  -5.533  0.00  0.00    -0.196 N 
ATOM      2  C2  IND d   1      -3.456   4.976  -5.799  0.00  0.00     0.054 A 
ATOM      3  C3  IND d   1      -2.590   5.998  -5.985  0.00  0.00    -0.031 A 
ATOM      4  C4  IND d   1      -0.016   5.978  -6.000  0.00  0.00     0.051 A 
ATOM      5  C5  IND d   1       1.057   5.163  -5.770  0.00  0.00    -0.031 A 
ATOM      6  C6  IND d   1       0.903   3.830  -5.446  0.00  0.00     0.015 A 
ATOM      7  C7  IND d   1      -0.334   3.258  -5.350  0.00  0.00    -0.016 A 
ATOM      8  C8  IND d   1      -1.425   4.085  -5.576  0.00  0.00    -0.047 A 
ATOM      9  C9  IND d   1      -1.277   5.448  -5.863  0.00  0.00    -0.096 A 
ATOM     10  HN1 IND d   1      -3.133   3.055  -5.368  0.00  0.00     0.298 HD
ENDROOT
TORSDOF 0
ENDMDL
