MODEL 1
REMARK minimizedAffinity 16.5168781
REMARK minimizedRMSD -1
REMARK  0 active torsions:
REMARK  status: ('A' for Active; 'I' for Inactive)
ROOT
ATOM      1  N1  IND d   1      -5.449  -5.979   0.014  0.00  0.00    -0.196 N 
ATOM      2  C2  IND d   1      -5.699  -5.142   1.065  0.00  0.00     0.054 A 
ATOM      3  C3  IND d   1      -4.789  -4.142   1.097  0.00  0.00    -0.031 A 
ATOM      4  C4  IND d   1      -2.866  -3.629  -0.535  0.00  0.00     0.051 A 
ATOM      5  C5  IND d   1      -2.219  -4.130  -1.629  0.00  0.00    -0.031 A 
ATOM      6  C6  IND d   1      -2.625  -5.295  -2.246  0.00  0.00     0.015 A 
ATOM      7  C7  IND d   1      -3.706  -6.000  -1.796  0.00  0.00    -0.016 A 
ATOM      8  C8  IND d   1      -4.361  -5.498  -0.681  0.00  0.00    -0.047 A 
ATOM      9  C9  IND d   1      -3.927  -4.338  -0.025  0.00  0.00    -0.096 A 
ATOM     10  HN1 IND d   1      -5.896  -6.687  -0.181  0.00  0.00     0.298 HD
ENDROOT
TORSDOF 0
ENDMDL
