MODEL 1
REMARK minimizedAffinity 9.80627537
REMARK minimizedRMSD -1
REMARK  0 active torsions:
REMARK  status: ('A' for Active; 'I' for Inactive)
ROOT
ATOM      1  N1  IND d   1       0.206   3.790  -5.690  0.00  0.00    -0.196 N 
ATOM      2  C2  IND d   1       0.894   4.968  -5.789  0.00  0.00     0.054 A 
ATOM      3  C3  IND d   1       0.037   6.000  -5.958  0.00  0.00    -0.031 A 
ATOM      4  C4  IND d   1      -2.537   5.998  -6.000  0.00  0.00     0.051 A 
ATOM      5  C5  IND d   1      -3.614   5.157  -5.985  0.00  0.00    -0.031 A 
ATOM      6  C6  IND d   1      -3.470   3.790  -5.865  0.00  0.00     0.015 A 
ATOM      7  C7  IND d   1      -2.238   3.212  -5.745  0.00  0.00    -0.016 A 
ATOM      8  C8  IND d   1      -1.142   4.062  -5.767  0.00  0.00    -0.047 A 
ATOM      9  C9  IND d   1      -1.280   5.446  -5.931  0.00  0.00    -0.096 A 
ATOM     10  HN1 IND d   1       0.557   3.011  -5.596  0.00  0.00     0.298 HD
ENDROOT
TORSDOF 0
ENDMDL
