MODEL 1
REMARK minimizedAffinity 1.20385468
REMARK minimizedRMSD -1
REMARK  0 active torsions:
REMARK  status: ('A' for Active; 'I' for Inactive)
ROOT
ATOM      1  N1  IND d   1      -1.490   4.520  -5.942  0.00  0.00    -0.196 N 
ATOM      2  C2  IND d   1      -1.296   3.207  -5.617  0.00  0.00     0.054 A 
ATOM      3  C3  IND d   1      -2.465   2.635  -5.251  0.00  0.00    -0.031 A 
ATOM      4  C4  IND d   1      -4.834   3.640  -5.209  0.00  0.00     0.051 A 
ATOM      5  C5  IND d   1      -5.509   4.815  -5.387  0.00  0.00    -0.031 A 
ATOM      6  C6  IND d   1      -4.866   5.975  -5.769  0.00  0.00     0.015 A 
ATOM      7  C7  IND d   1      -3.520   6.000  -6.000  0.00  0.00    -0.016 A 
ATOM      8  C8  IND d   1      -2.830   4.810  -5.814  0.00  0.00    -0.047 A 
ATOM      9  C9  IND d   1      -3.471   3.641  -5.385  0.00  0.00    -0.096 A 
ATOM     10  HN1 IND d   1      -0.877   5.073  -6.186  0.00  0.00     0.298 HD
ENDROOT
TORSDOF 0
ENDMDL
