MODEL 1
REMARK minimizedAffinity 9.11937332
REMARK minimizedRMSD -1
REMARK  0 active torsions:
REMARK  status: ('A' for Active; 'I' for Inactive)
ROOT
ATOM      1  N1  IND d   1      -3.487   4.348  -5.986  0.00  0.00    -0.196 N 
ATOM      2  C2  IND d   1      -3.569   2.984  -5.969  0.00  0.00     0.054 A 
ATOM      3  C3  IND d   1      -2.332   2.438  -5.967  0.00  0.00    -0.031 A 
ATOM      4  C4  IND d   1      -0.034   3.595  -5.885  0.00  0.00     0.051 A 
ATOM      5  C5  IND d   1       0.552   4.829  -5.924  0.00  0.00    -0.031 A 
ATOM      6  C6  IND d   1      -0.192   5.989  -5.984  0.00  0.00     0.015 A 
ATOM      7  C7  IND d   1      -1.558   5.959  -5.996  0.00  0.00    -0.016 A 
ATOM      8  C8  IND d   1      -2.157   4.707  -5.964  0.00  0.00    -0.047 A 
ATOM      9  C9  IND d   1      -1.406   3.525  -5.946  0.00  0.00    -0.096 A 
ATOM     10  HN1 IND d   1      -4.154   4.891  -6.007  0.00  0.00     0.298 HD
ENDROOT
TORSDOF 0
ENDMDL
