MODEL 1
REMARK minimizedAffinity 10.6637983
REMARK minimizedRMSD -1
REMARK  1 active torsions:
REMARK  status: ('A' for Active; 'I' for Inactive)
REMARK    1  A    between atoms: N_2  and  C1_3 
ROOT
ATOM      1  C1  UNL d   1      -1.539  -0.121   0.794  0.00  0.00     0.143 A 
ATOM      2  C2  UNL d   1      -1.059   0.843   1.687  0.00  0.00    -0.057 A 
ATOM      3  C3  UNL d   1      -0.465   0.477   2.901  0.00  0.00     0.033 A 
ATOM      4  C4  UNL d   1      -0.367  -0.864   3.257  0.00  0.00    -0.042 A 
ATOM      5  C5  UNL d   1      -0.859  -1.839   2.395  0.00  0.00     0.033 A 
ATOM      6  C6  UNL d   1      -1.446  -1.466   1.182  0.00  0.00    -0.057 A 
ENDROOT
BRANCH   1   7
ATOM      7  N   UNL d   1      -2.229   0.184  -0.383  0.00  0.00    -0.732 N 
ATOM      8  C   UNL d   1      -3.643  -0.100  -0.503  0.00  0.00     0.284 C 
ATOM      9  H3  UNL d   1      -1.949   1.080  -0.775  0.00  0.00     0.395 HD
ENDBRANCH   1   7
TORSDOF 1
ENDMDL
