MODEL 1
REMARK minimizedAffinity -0.210663661
REMARK minimizedRMSD -1
REMARK  1 active torsions:
REMARK  status: ('A' for Active; 'I' for Inactive)
REMARK    1  A    between atoms: N_2  and  C1_3 
ROOT
ATOM      1  C1  UNL d   1       2.989  -5.289   2.336  0.00  0.00     0.143 A 
ATOM      2  C2  UNL d   1       3.897  -4.515   1.606  0.00  0.00    -0.057 A 
ATOM      3  C3  UNL d   1       5.257  -4.487   1.937  0.00  0.00     0.033 A 
ATOM      4  C4  UNL d   1       5.730  -5.213   3.026  0.00  0.00    -0.042 A 
ATOM      5  C5  UNL d   1       4.841  -5.969   3.781  0.00  0.00     0.033 A 
ATOM      6  C6  UNL d   1       3.485  -5.998   3.442  0.00  0.00    -0.057 A 
ENDROOT
BRANCH   1   7
ATOM      7  N   UNL d   1       1.609  -5.282   2.118  0.00  0.00    -0.732 N 
ATOM      8  C   UNL d   1       0.717  -5.991   3.011  0.00  0.00     0.284 C 
ATOM      9  H3  UNL d   1       1.267  -4.369   1.828  0.00  0.00     0.395 HD
ENDBRANCH   1   7
TORSDOF 1
ENDMDL
