MODEL 1
REMARK minimizedAffinity 4.8674016
REMARK minimizedRMSD -1
REMARK  1 active torsions:
REMARK  status: ('A' for Active; 'I' for Inactive)
REMARK    1  A    between atoms: N_2  and  C1_3 
ROOT
ATOM      1  C1  UNL d   1      -3.916   0.277   3.975  0.00  0.00     0.143 A 
ATOM      2  C2  UNL d   1      -4.622   1.007   3.012  0.00  0.00    -0.057 A 
ATOM      3  C3  UNL d   1      -4.040   1.337   1.782  0.00  0.00     0.033 A 
ATOM      4  C4  UNL d   1      -2.729   0.967   1.504  0.00  0.00    -0.042 A 
ATOM      5  C5  UNL d   1      -2.000   0.263   2.456  0.00  0.00     0.033 A 
ATOM      6  C6  UNL d   1      -2.589  -0.070   3.680  0.00  0.00    -0.057 A 
ENDROOT
BRANCH   1   7
ATOM      7  N   UNL d   1      -4.405   0.004   5.255  0.00  0.00    -0.732 N 
ATOM      8  C   UNL d   1      -3.933  -1.148   5.993  0.00  0.00     0.284 C 
ATOM      9  H3  UNL d   1      -4.509   0.844   5.819  0.00  0.00     0.395 HD
ENDBRANCH   1   7
TORSDOF 1
ENDMDL
