MODEL 1
REMARK minimizedAffinity 7.01407766
REMARK minimizedRMSD -1
REMARK  1 active torsions:
REMARK  status: ('A' for Active; 'I' for Inactive)
REMARK    1  A    between atoms: N_2  and  C1_3 
ROOT
ATOM      1  C1  UNL d   1      -3.817   0.321   2.673  0.00  0.00     0.143 A 
ATOM      2  C2  UNL d   1      -4.481   0.360   3.903  0.00  0.00    -0.057 A 
ATOM      3  C3  UNL d   1      -5.445   1.338   4.178  0.00  0.00     0.033 A 
ATOM      4  C4  UNL d   1      -5.741   2.316   3.233  0.00  0.00    -0.042 A 
ATOM      5  C5  UNL d   1      -5.075   2.311   2.013  0.00  0.00     0.033 A 
ATOM      6  C6  UNL d   1      -4.119   1.328   1.742  0.00  0.00    -0.057 A 
ENDROOT
BRANCH   1   7
ATOM      7  N   UNL d   1      -2.779  -0.566   2.377  0.00  0.00    -0.732 N 
ATOM      8  C   UNL d   1      -1.473  -0.073   1.997  0.00  0.00     0.284 C 
ATOM      9  H3  UNL d   1      -2.755  -1.361   3.012  0.00  0.00     0.395 HD
ENDBRANCH   1   7
TORSDOF 1
ENDMDL
