MODEL 1
REMARK minimizedAffinity 2.84862804
REMARK minimizedRMSD -1
REMARK  1 active torsions:
REMARK  status: ('A' for Active; 'I' for Inactive)
REMARK    1  A    between atoms: N_2  and  C1_3 
ROOT
ATOM      1  C1  UNL d   1      -5.063  -0.549   0.802  0.00  0.00     0.143 A 
ATOM      2  C2  UNL d   1      -5.998   0.205   1.519  0.00  0.00    -0.057 A 
ATOM      3  C3  UNL d   1      -5.615   1.348   2.232  0.00  0.00     0.033 A 
ATOM      4  C4  UNL d   1      -4.281   1.741   2.263  0.00  0.00    -0.042 A 
ATOM      5  C5  UNL d   1      -3.331   0.993   1.577  0.00  0.00     0.033 A 
ATOM      6  C6  UNL d   1      -3.721  -0.144   0.862  0.00  0.00    -0.057 A 
ENDROOT
BRANCH   1   7
ATOM      7  N   UNL d   1      -5.365  -1.750   0.155  0.00  0.00    -0.732 N 
ATOM      8  C   UNL d   1      -4.656  -2.966   0.491  0.00  0.00     0.284 C 
ATOM      9  H3  UNL d   1      -6.365  -1.876   0.016  0.00  0.00     0.395 HD
ENDBRANCH   1   7
TORSDOF 1
ENDMDL
