MODEL 1
REMARK minimizedAffinity 0.833942592
REMARK minimizedRMSD -1
REMARK  1 active torsions:
REMARK  status: ('A' for Active; 'I' for Inactive)
REMARK    1  A    between atoms: N_2  and  C1_3 
ROOT
ATOM      1  C1  UNL d   1      -4.508  -2.846  -5.997  0.00  0.00     0.143 A 
ATOM      2  C2  UNL d   1      -4.994  -1.535  -5.966  0.00  0.00    -0.057 A 
ATOM      3  C3  UNL d   1      -4.123  -0.438  -5.978  0.00  0.00     0.033 A 
ATOM      4  C4  UNL d   1      -2.747  -0.635  -5.992  0.00  0.00    -0.042 A 
ATOM      5  C5  UNL d   1      -2.241  -1.930  -5.998  0.00  0.00     0.033 A 
ATOM      6  C6  UNL d   1      -3.115  -3.021  -5.993  0.00  0.00    -0.057 A 
ENDROOT
BRANCH   1   7
ATOM      7  N   UNL d   1      -5.319  -3.979  -5.888  0.00  0.00    -0.732 N 
ATOM      8  C   UNL d   1      -4.749  -5.305  -5.983  0.00  0.00     0.284 C 
ATOM      9  H3  UNL d   1      -6.026  -3.881  -5.163  0.00  0.00     0.395 HD
ENDBRANCH   1   7
TORSDOF 1
ENDMDL
