MODEL 1
REMARK minimizedAffinity 12.5651045
REMARK minimizedRMSD -1
REMARK  1 active torsions:
REMARK  status: ('A' for Active; 'I' for Inactive)
REMARK    1  A    between atoms: N_2  and  C1_3 
ROOT
ATOM      1  C1  UNL d   1      -2.395   0.146   1.143  0.00  0.00     0.143 A 
ATOM      2  C2  UNL d   1      -3.247  -0.880   0.721  0.00  0.00    -0.057 A 
ATOM      3  C3  UNL d   1      -4.633  -0.693   0.656  0.00  0.00     0.033 A 
ATOM      4  C4  UNL d   1      -5.195   0.520   1.040  0.00  0.00    -0.042 A 
ATOM      5  C5  UNL d   1      -4.370   1.546   1.486  0.00  0.00     0.033 A 
ATOM      6  C6  UNL d   1      -2.986   1.355   1.542  0.00  0.00    -0.057 A 
ENDROOT
BRANCH   1   7
ATOM      7  N   UNL d   1      -1.018  -0.010   1.323  0.00  0.00    -0.732 N 
ATOM      8  C   UNL d   1      -0.165   1.142   1.519  0.00  0.00     0.284 C 
ATOM      9  H3  UNL d   1      -0.792  -0.801   1.922  0.00  0.00     0.395 HD
ENDBRANCH   1   7
TORSDOF 1
ENDMDL
