MODEL 1
REMARK minimizedAffinity 3.78620291
REMARK minimizedRMSD -1
REMARK  1 active torsions:
REMARK  status: ('A' for Active; 'I' for Inactive)
REMARK    1  A    between atoms: N_2  and  C1_3 
ROOT
ATOM      1  C1  UNL d   1      -3.902  -2.533  -5.876  0.00  0.00     0.143 A 
ATOM      2  C2  UNL d   1      -3.187  -1.335  -5.760  0.00  0.00    -0.057 A 
ATOM      3  C3  UNL d   1      -1.788  -1.319  -5.791  0.00  0.00     0.033 A 
ATOM      4  C4  UNL d   1      -1.074  -2.507  -5.909  0.00  0.00    -0.042 A 
ATOM      5  C5  UNL d   1      -1.763  -3.712  -6.000  0.00  0.00     0.033 A 
ATOM      6  C6  UNL d   1      -3.161  -3.721  -5.976  0.00  0.00    -0.057 A 
ENDROOT
BRANCH   1   7
ATOM      7  N   UNL d   1      -5.290  -2.625  -5.754  0.00  0.00    -0.732 N 
ATOM      8  C   UNL d   1      -5.922  -2.557  -4.453  0.00  0.00     0.284 C 
ATOM      9  H3  UNL d   1      -5.779  -2.108  -6.481  0.00  0.00     0.395 HD
ENDBRANCH   1   7
TORSDOF 1
ENDMDL
