MODEL 1
REMARK minimizedAffinity 5.48559618
REMARK minimizedRMSD -1
REMARK  1 active torsions:
REMARK  status: ('A' for Active; 'I' for Inactive)
REMARK    1  A    between atoms: N_2  and  C1_3 
ROOT
ATOM      1  C1  UNL d   1       3.329  -5.788   2.736  0.00  0.00     0.143 A 
ATOM      2  C2  UNL d   1       2.289  -6.000   3.647  0.00  0.00    -0.057 A 
ATOM      3  C3  UNL d   1       0.966  -5.674   3.327  0.00  0.00     0.033 A 
ATOM      4  C4  UNL d   1       0.662  -5.102   2.096  0.00  0.00    -0.042 A 
ATOM      5  C5  UNL d   1       1.684  -4.860   1.184  0.00  0.00     0.033 A 
ATOM      6  C6  UNL d   1       3.002  -5.193   1.507  0.00  0.00    -0.057 A 
ENDROOT
BRANCH   1   7
ATOM      7  N   UNL d   1       4.678  -6.000   3.032  0.00  0.00    -0.732 N 
ATOM      8  C   UNL d   1       5.617  -4.898   3.022  0.00  0.00     0.284 C 
ATOM      9  H3  UNL d   1       4.809  -6.651   3.803  0.00  0.00     0.395 HD
ENDBRANCH   1   7
TORSDOF 1
ENDMDL
