MODEL 1
REMARK minimizedAffinity 0.198619589
REMARK minimizedRMSD -1
REMARK  1 active torsions:
REMARK  status: ('A' for Active; 'I' for Inactive)
REMARK    1  A    between atoms: N_2  and  C1_3 
ROOT
ATOM      1  C1  UNL d   1      -3.583  -3.148  -5.888  0.00  0.00     0.143 A 
ATOM      2  C2  UNL d   1      -2.392  -3.873  -5.999  0.00  0.00    -0.057 A 
ATOM      3  C3  UNL d   1      -1.147  -3.232  -5.980  0.00  0.00     0.033 A 
ATOM      4  C4  UNL d   1      -1.073  -1.847  -5.879  0.00  0.00    -0.042 A 
ATOM      5  C5  UNL d   1      -2.244  -1.103  -5.793  0.00  0.00     0.033 A 
ATOM      6  C6  UNL d   1      -3.484  -1.750  -5.805  0.00  0.00    -0.057 A 
ENDROOT
BRANCH   1   7
ATOM      7  N   UNL d   1      -4.854  -3.717  -5.999  0.00  0.00    -0.732 N 
ATOM      8  C   UNL d   1      -5.988  -3.127  -5.321  0.00  0.00     0.284 C 
ATOM      9  H3  UNL d   1      -5.054  -4.037  -6.944  0.00  0.00     0.395 HD
ENDBRANCH   1   7
TORSDOF 1
ENDMDL
