MODEL 1
REMARK minimizedAffinity -1.84735179
REMARK minimizedRMSD -1
REMARK  1 active torsions:
REMARK  status: ('A' for Active; 'I' for Inactive)
REMARK    1  A    between atoms: N_2  and  C1_3 
ROOT
ATOM      1  C1  UNL d   1      -4.288  -2.422  -5.908  0.00  0.00     0.143 A 
ATOM      2  C2  UNL d   1      -3.217  -3.319  -5.990  0.00  0.00    -0.057 A 
ATOM      3  C3  UNL d   1      -1.892  -2.868  -6.000  0.00  0.00     0.033 A 
ATOM      4  C4  UNL d   1      -1.614  -1.505  -5.958  0.00  0.00    -0.042 A 
ATOM      5  C5  UNL d   1      -2.663  -0.595  -5.903  0.00  0.00     0.033 A 
ATOM      6  C6  UNL d   1      -3.985  -1.052  -5.886  0.00  0.00    -0.057 A 
ENDROOT
BRANCH   1   7
ATOM      7  N   UNL d   1      -5.630  -2.803  -5.994  0.00  0.00    -0.732 N 
ATOM      8  C   UNL d   1      -6.000  -4.202  -6.000  0.00  0.00     0.284 C 
ATOM      9  H3  UNL d   1      -6.237  -2.215  -5.428  0.00  0.00     0.395 HD
ENDBRANCH   1   7
TORSDOF 1
ENDMDL
