MODEL 1
REMARK minimizedAffinity 3.78450203
REMARK minimizedRMSD -1
REMARK  1 active torsions:
REMARK  status: ('A' for Active; 'I' for Inactive)
REMARK    1  A    between atoms: N_2  and  C1_3 
ROOT
ATOM      1  C1  UNL d   1      -3.607  -2.292  -5.994  0.00  0.00     0.143 A 
ATOM      2  C2  UNL d   1      -2.637  -3.300  -5.997  0.00  0.00    -0.057 A 
ATOM      3  C3  UNL d   1      -2.997  -4.653  -5.992  0.00  0.00     0.033 A 
ATOM      4  C4  UNL d   1      -4.337  -5.023  -5.955  0.00  0.00    -0.042 A 
ATOM      5  C5  UNL d   1      -5.318  -4.038  -5.926  0.00  0.00     0.033 A 
ATOM      6  C6  UNL d   1      -4.953  -2.688  -5.938  0.00  0.00    -0.057 A 
ENDROOT
BRANCH   1   7
ATOM      7  N   UNL d   1      -3.313  -0.929  -5.899  0.00  0.00    -0.732 N 
ATOM      8  C   UNL d   1      -1.950  -0.481  -5.708  0.00  0.00     0.284 C 
ATOM      9  H3  UNL d   1      -3.846  -0.370  -6.561  0.00  0.00     0.395 HD
ENDBRANCH   1   7
TORSDOF 1
ENDMDL
