MODEL 1
REMARK minimizedAffinity 10.230547
REMARK minimizedRMSD -1
REMARK  0 active torsions:
REMARK  status: ('A' for Active; 'I' for Inactive)
ROOT
ATOM      1  C   UNL d   1       0.614  -0.773   2.329  0.00  0.00    -0.002 A 
ATOM      2  C1  UNL d   1       1.524  -0.814   3.376  0.00  0.00     0.010 A 
ATOM      3  C2  UNL d   1       2.632  -1.662   3.320  0.00  0.00     0.041 A 
ATOM      4  C3  UNL d   1       2.813  -2.473   2.183  0.00  0.00    -0.075 A 
ATOM      5  S   UNL d   1       4.097  -3.587   1.894  0.00  0.00     0.015 SA
ATOM      6  C4  UNL d   1       3.468  -4.033   0.375  0.00  0.00     0.022 A 
ATOM      7  C5  UNL d   1       2.307  -3.359   0.079  0.00  0.00     0.026 A 
ATOM      8  C6  UNL d   1       1.911  -2.448   1.116  0.00  0.00    -0.082 A 
ATOM      9  C7  UNL d   1       0.796  -1.579   1.203  0.00  0.00     0.045 A 
ENDROOT
TORSDOF 0
ENDMDL
