MODEL 1
REMARK minimizedAffinity 9.79463387
REMARK minimizedRMSD -1
REMARK  0 active torsions:
REMARK  status: ('A' for Active; 'I' for Inactive)
ROOT
ATOM      1  C   UNL d   1      -3.202   2.998  -2.842  0.00  0.00    -0.002 A 
ATOM      2  C1  UNL d   1      -3.987   3.070  -3.983  0.00  0.00     0.010 A 
ATOM      3  C2  UNL d   1      -4.638   1.935  -4.470  0.00  0.00     0.041 A 
ATOM      4  C3  UNL d   1      -4.486   0.715  -3.783  0.00  0.00    -0.075 A 
ATOM      5  S   UNL d   1      -5.189  -0.805  -4.194  0.00  0.00     0.015 SA
ATOM      6  C4  UNL d   1      -4.464  -1.585  -2.864  0.00  0.00     0.022 A 
ATOM      7  C5  UNL d   1      -3.700  -0.722  -2.114  0.00  0.00     0.026 A 
ATOM      8  C6  UNL d   1      -3.701   0.617  -2.631  0.00  0.00    -0.082 A 
ATOM      9  C7  UNL d   1      -3.053   1.786  -2.163  0.00  0.00     0.045 A 
ENDROOT
TORSDOF 0
ENDMDL
