MODEL 1
REMARK minimizedAffinity 14.0651865
REMARK minimizedRMSD -1
REMARK  0 active torsions:
REMARK  status: ('A' for Active; 'I' for Inactive)
ROOT
ATOM      1  C   UNL d   1       3.262  -2.290   1.500  0.00  0.00    -0.002 A 
ATOM      2  C1  UNL d   1       2.174  -3.049   1.091  0.00  0.00     0.010 A 
ATOM      3  C2  UNL d   1       2.359  -4.191   0.310  0.00  0.00     0.041 A 
ATOM      4  C3  UNL d   1       3.668  -4.564  -0.054  0.00  0.00    -0.075 A 
ATOM      5  S   UNL d   1       4.135  -5.925  -1.004  0.00  0.00     0.015 SA
ATOM      6  C4  UNL d   1       5.789  -5.532  -0.888  0.00  0.00     0.022 A 
ATOM      7  C5  UNL d   1       5.998  -4.393  -0.147  0.00  0.00     0.026 A 
ATOM      8  C6  UNL d   1       4.779  -3.817   0.347  0.00  0.00    -0.082 A 
ATOM      9  C7  UNL d   1       4.559  -2.663   1.137  0.00  0.00     0.045 A 
ENDROOT
TORSDOF 0
ENDMDL
