MODEL 1
REMARK minimizedAffinity 14.803566
REMARK minimizedRMSD -1
REMARK  0 active torsions:
REMARK  status: ('A' for Active; 'I' for Inactive)
ROOT
ATOM      1  C   UNL d   1       1.438  -2.613   0.944  0.00  0.00    -0.002 A 
ATOM      2  C1  UNL d   1       1.927  -3.897   0.753  0.00  0.00     0.010 A 
ATOM      3  C2  UNL d   1       3.292  -4.116   0.559  0.00  0.00     0.041 A 
ATOM      4  C3  UNL d   1       4.167  -3.012   0.564  0.00  0.00    -0.075 A 
ATOM      5  S   UNL d   1       5.877  -3.040   0.348  0.00  0.00     0.015 SA
ATOM      6  C4  UNL d   1       6.000  -1.348   0.506  0.00  0.00     0.022 A 
ATOM      7  C5  UNL d   1       4.775  -0.760   0.718  0.00  0.00     0.026 A 
ATOM      8  C6  UNL d   1       3.699  -1.709   0.755  0.00  0.00    -0.082 A 
ATOM      9  C7  UNL d   1       2.309  -1.520   0.948  0.00  0.00     0.045 A 
ENDROOT
TORSDOF 0
ENDMDL
