MODEL 1
REMARK minimizedAffinity 13.9527359
REMARK minimizedRMSD -1
REMARK  0 active torsions:
REMARK  status: ('A' for Active; 'I' for Inactive)
ROOT
ATOM      1  C   UNL d   1       2.627  -1.588   0.565  0.00  0.00    -0.002 A 
ATOM      2  C1  UNL d   1       1.787  -2.628   0.940  0.00  0.00     0.010 A 
ATOM      3  C2  UNL d   1       2.291  -3.917   1.122  0.00  0.00     0.041 A 
ATOM      4  C3  UNL d   1       3.667  -4.146   0.921  0.00  0.00    -0.075 A 
ATOM      5  S   UNL d   1       4.507  -5.642   1.086  0.00  0.00     0.015 SA
ATOM      6  C4  UNL d   1       6.000  -4.937   0.665  0.00  0.00     0.022 A 
ATOM      7  C5  UNL d   1       5.879  -3.593   0.401  0.00  0.00     0.026 A 
ATOM      8  C6  UNL d   1       4.532  -3.115   0.544  0.00  0.00    -0.082 A 
ATOM      9  C7  UNL d   1       3.991  -1.819   0.367  0.00  0.00     0.045 A 
ENDROOT
TORSDOF 0
ENDMDL
