MODEL 1
REMARK minimizedAffinity 13.1474648
REMARK minimizedRMSD -1
REMARK  1 active torsions:
REMARK  status: ('A' for Active; 'I' for Inactive)
REMARK    1  A    between atoms: C1_2  and  C2_3 
ROOT
ATOM      1  C2  UNL d   1      -3.437   1.728  -2.481  0.00  0.00    -0.076 A 
ATOM      2  C3  UNL d   1      -2.337   2.531  -2.135  0.00  0.00     0.004 A 
ATOM      3  C4  UNL d   1      -1.969   2.708  -0.803  0.00  0.00    -0.003 A 
ATOM      4  C5  UNL d   1      -2.696   2.085   0.206  0.00  0.00     0.000 A 
ATOM      5  C6  UNL d   1      -3.780   1.270  -0.120  0.00  0.00     0.000 A 
ATOM      6  C7  UNL d   1      -4.154   1.068  -1.460  0.00  0.00    -0.073 A 
ATOM      7  C8  UNL d   1      -5.335   0.184  -1.754  0.00  0.00     0.078 C 
ENDROOT
BRANCH   1   8
ATOM      8  C1  UNL d   1      -3.806   1.594  -3.942  0.00  0.00     0.053 C 
ATOM      9  C   UNL d   1      -4.694   2.730  -4.425  0.00  0.00     0.018 C 
ENDBRANCH   1   8
TORSDOF 1
ENDMDL
