MODEL 1
REMARK minimizedAffinity 12.001893
REMARK minimizedRMSD -1
REMARK  1 active torsions:
REMARK  status: ('A' for Active; 'I' for Inactive)
REMARK    1  A    between atoms: C1_2  and  C2_3 
ROOT
ATOM      1  C2  UNL d   1       5.149  -0.396  -4.827  0.00  0.00    -0.076 A 
ATOM      2  C3  UNL d   1       5.473   0.528  -5.836  0.00  0.00     0.004 A 
ATOM      3  C4  UNL d   1       4.737   1.700  -5.998  0.00  0.00    -0.003 A 
ATOM      4  C5  UNL d   1       3.665   1.968  -5.155  0.00  0.00     0.000 A 
ATOM      5  C6  UNL d   1       3.340   1.071  -4.137  0.00  0.00     0.000 A 
ATOM      6  C7  UNL d   1       4.082  -0.108  -3.949  0.00  0.00    -0.073 A 
ATOM      7  C8  UNL d   1       3.684  -1.042  -2.840  0.00  0.00     0.078 C 
ENDROOT
BRANCH   1   8
ATOM      8  C1  UNL d   1       5.966  -1.663  -4.716  0.00  0.00     0.053 C 
ATOM      9  C   UNL d   1       5.935  -2.491  -5.991  0.00  0.00     0.018 C 
ENDBRANCH   1   8
TORSDOF 1
ENDMDL
