MODEL 1
REMARK minimizedAffinity 8.43214417
REMARK minimizedRMSD -1
REMARK  1 active torsions:
REMARK  status: ('A' for Active; 'I' for Inactive)
REMARK    1  A    between atoms: C1_2  and  C2_3 
ROOT
ATOM      1  C2  UNL d   1       5.160  -0.779  -4.626  0.00  0.00    -0.076 A 
ATOM      2  C3  UNL d   1       5.286  -0.018  -5.801  0.00  0.00     0.004 A 
ATOM      3  C4  UNL d   1       4.518   1.128  -6.000  0.00  0.00    -0.003 A 
ATOM      4  C5  UNL d   1       3.612   1.532  -5.026  0.00  0.00     0.000 A 
ATOM      5  C6  UNL d   1       3.486   0.799  -3.846  0.00  0.00     0.000 A 
ATOM      6  C7  UNL d   1       4.265  -0.349  -3.623  0.00  0.00    -0.073 A 
ATOM      7  C8  UNL d   1       4.084  -1.105  -2.335  0.00  0.00     0.078 C 
ENDROOT
BRANCH   1   8
ATOM      8  C1  UNL d   1       6.000  -2.027  -4.478  0.00  0.00     0.053 C 
ATOM      9  C   UNL d   1       5.999  -2.882  -5.736  0.00  0.00     0.018 C 
ENDBRANCH   1   8
TORSDOF 1
ENDMDL
