MODEL 1
REMARK minimizedAffinity 7.01972246
REMARK minimizedRMSD -1
REMARK  1 active torsions:
REMARK  status: ('A' for Active; 'I' for Inactive)
REMARK    1  A    between atoms: C1_2  and  C2_3 
ROOT
ATOM      1  C2  UNL d   1       4.235  -0.784  -3.719  0.00  0.00    -0.076 A 
ATOM      2  C3  UNL d   1       5.186  -1.797  -3.937  0.00  0.00     0.004 A 
ATOM      3  C4  UNL d   1       6.000  -1.785  -5.069  0.00  0.00    -0.003 A 
ATOM      4  C5  UNL d   1       5.877  -0.759  -6.000  0.00  0.00     0.000 A 
ATOM      5  C6  UNL d   1       4.952   0.263  -5.790  0.00  0.00     0.000 A 
ATOM      6  C7  UNL d   1       4.135   0.274  -4.647  0.00  0.00    -0.073 A 
ATOM      7  C8  UNL d   1       3.150   1.398  -4.474  0.00  0.00     0.078 C 
ENDROOT
BRANCH   1   8
ATOM      8  C1  UNL d   1       3.362  -0.865  -2.487  0.00  0.00     0.053 C 
ATOM      9  C   UNL d   1       2.239  -1.881  -2.635  0.00  0.00     0.018 C 
ENDBRANCH   1   8
TORSDOF 1
ENDMDL
