MODEL 1
REMARK minimizedAffinity 22.877903
REMARK minimizedRMSD -1
REMARK  1 active torsions:
REMARK  status: ('A' for Active; 'I' for Inactive)
REMARK    1  A    between atoms: C1_2  and  C2_3 
ROOT
ATOM      1  C2  UNL d   1       2.003  -2.311  -0.168  0.00  0.00    -0.076 A 
ATOM      2  C3  UNL d   1       1.390  -3.563   0.009  0.00  0.00     0.004 A 
ATOM      3  C4  UNL d   1       1.443  -4.535  -0.988  0.00  0.00    -0.003 A 
ATOM      4  C5  UNL d   1       2.111  -4.271  -2.179  0.00  0.00     0.000 A 
ATOM      5  C6  UNL d   1       2.740  -3.040  -2.365  0.00  0.00     0.000 A 
ATOM      6  C7  UNL d   1       2.710  -2.055  -1.363  0.00  0.00    -0.073 A 
ATOM      7  C8  UNL d   1       3.399  -0.743  -1.619  0.00  0.00     0.078 C 
ENDROOT
BRANCH   1   8
ATOM      8  C1  UNL d   1       1.890  -1.286   0.938  0.00  0.00     0.053 C 
ATOM      9  C   UNL d   1       1.263  -1.858   2.201  0.00  0.00     0.018 C 
ENDBRANCH   1   8
TORSDOF 1
ENDMDL
