MODEL 1
REMARK minimizedAffinity 6.20568466
REMARK minimizedRMSD -1
REMARK  0 active torsions:
REMARK  status: ('A' for Active; 'I' for Inactive)
ROOT
ATOM      1  C   UNL d   1      -4.125   5.035  -5.457  0.00  0.00     0.078 C 
ATOM      2  C1  UNL d   1      -3.525   3.676  -5.255  0.00  0.00    -0.077 A 
ATOM      3  C2  UNL d   1      -2.414   3.260  -6.000  0.00  0.00    -0.001 A 
ATOM      4  C3  UNL d   1      -1.872   1.988  -5.808  0.00  0.00     0.003 A 
ATOM      5  C4  UNL d   1      -2.434   1.122  -4.872  0.00  0.00    -0.005 A 
ATOM      6  C5  UNL d   1      -3.540   1.526  -4.128  0.00  0.00     0.003 A 
ATOM      7  C6  UNL d   1      -4.084   2.797  -4.318  0.00  0.00    -0.001 A 
ENDROOT
TORSDOF 0
ENDMDL
