MODEL 1
REMARK minimizedAffinity 0.959508538
REMARK minimizedRMSD -1
REMARK  0 active torsions:
REMARK  status: ('A' for Active; 'I' for Inactive)
ROOT
ATOM      1  C   UNL d   1      -3.527   5.186  -4.995  0.00  0.00     0.078 C 
ATOM      2  C1  UNL d   1      -3.025   3.777  -4.891  0.00  0.00    -0.077 A 
ATOM      3  C2  UNL d   1      -3.132   3.060  -3.693  0.00  0.00    -0.001 A 
ATOM      4  C3  UNL d   1      -2.652   1.753  -3.607  0.00  0.00     0.003 A 
ATOM      5  C4  UNL d   1      -2.059   1.151  -4.716  0.00  0.00    -0.005 A 
ATOM      6  C5  UNL d   1      -1.946   1.858  -5.912  0.00  0.00     0.003 A 
ATOM      7  C6  UNL d   1      -2.426   3.165  -5.999  0.00  0.00    -0.001 A 
ENDROOT
TORSDOF 0
ENDMDL
