MODEL 1
REMARK minimizedAffinity 8.86198521
REMARK minimizedRMSD -1
REMARK  0 active torsions:
REMARK  status: ('A' for Active; 'I' for Inactive)
ROOT
ATOM      1  C   UNL d   1      -3.739   0.383  -3.000  0.00  0.00     0.078 C 
ATOM      2  C1  UNL d   1      -3.408   1.397  -4.053  0.00  0.00    -0.077 A 
ATOM      3  C2  UNL d   1      -2.438   1.134  -5.028  0.00  0.00    -0.001 A 
ATOM      4  C3  UNL d   1      -2.133   2.091  -5.997  0.00  0.00     0.003 A 
ATOM      5  C4  UNL d   1      -2.793   3.319  -6.000  0.00  0.00    -0.005 A 
ATOM      6  C5  UNL d   1      -3.758   3.591  -5.032  0.00  0.00     0.003 A 
ATOM      7  C6  UNL d   1      -4.064   2.635  -4.063  0.00  0.00    -0.001 A 
ENDROOT
TORSDOF 0
ENDMDL
