MODEL 1
REMARK minimizedAffinity 7.92959166
REMARK minimizedRMSD -1
REMARK  0 active torsions:
REMARK  status: ('A' for Active; 'I' for Inactive)
ROOT
ATOM      1  C   UNL d   1       0.286   2.706   0.359  0.00  0.00     0.078 C 
ATOM      2  C1  UNL d   1       0.674   1.356  -0.165  0.00  0.00    -0.077 A 
ATOM      3  C2  UNL d   1       1.089   0.338   0.702  0.00  0.00    -0.001 A 
ATOM      4  C3  UNL d   1       1.457  -0.911   0.199  0.00  0.00     0.003 A 
ATOM      5  C4  UNL d   1       1.416  -1.153  -1.172  0.00  0.00    -0.005 A 
ATOM      6  C5  UNL d   1       1.007  -0.145  -2.043  0.00  0.00     0.003 A 
ATOM      7  C6  UNL d   1       0.638   1.104  -1.542  0.00  0.00    -0.001 A 
ENDROOT
TORSDOF 0
ENDMDL
