MODEL 1
REMARK minimizedAffinity 7.47940922
REMARK minimizedRMSD -1
REMARK  0 active torsions:
REMARK  status: ('A' for Active; 'I' for Inactive)
ROOT
ATOM      1  C   UNL d   1       2.164   5.989  -1.819  0.00  0.00     0.078 C 
ATOM      2  C1  UNL d   1       1.156   5.189  -1.049  0.00  0.00    -0.077 A 
ATOM      3  C2  UNL d   1      -0.217   5.408  -1.216  0.00  0.00    -0.001 A 
ATOM      4  C3  UNL d   1      -1.145   4.662  -0.487  0.00  0.00     0.003 A 
ATOM      5  C4  UNL d   1      -0.709   3.694   0.416  0.00  0.00    -0.005 A 
ATOM      6  C5  UNL d   1       0.655   3.471   0.591  0.00  0.00     0.003 A 
ATOM      7  C6  UNL d   1       1.584   4.215  -0.138  0.00  0.00    -0.001 A 
ENDROOT
TORSDOF 0
ENDMDL
