MODEL 1
REMARK minimizedAffinity 11.3199196
REMARK minimizedRMSD -1
REMARK  0 active torsions:
REMARK  status: ('A' for Active; 'I' for Inactive)
ROOT
ATOM      1  C   UNL d   1      -2.344   3.113   1.251  0.00  0.00     0.078 C 
ATOM      2  C1  UNL d   1      -3.569   3.936   1.514  0.00  0.00    -0.077 A 
ATOM      3  C2  UNL d   1      -3.467   5.248   1.993  0.00  0.00    -0.001 A 
ATOM      4  C3  UNL d   1      -4.617   5.999   2.243  0.00  0.00     0.003 A 
ATOM      5  C4  UNL d   1      -5.876   5.447   2.018  0.00  0.00    -0.005 A 
ATOM      6  C5  UNL d   1      -5.987   4.142   1.544  0.00  0.00     0.003 A 
ATOM      7  C6  UNL d   1      -4.839   3.389   1.293  0.00  0.00    -0.001 A 
ENDROOT
TORSDOF 0
ENDMDL
