MODEL 1
REMARK minimizedAffinity 7.29881477
REMARK minimizedRMSD -1
REMARK  0 active torsions:
REMARK  status: ('A' for Active; 'I' for Inactive)
ROOT
ATOM      1  C   UNL d   1       2.542  -5.999   1.327  0.00  0.00     0.078 C 
ATOM      2  C1  UNL d   1       1.690  -5.264   0.336  0.00  0.00    -0.077 A 
ATOM      3  C2  UNL d   1       1.096  -5.933  -0.741  0.00  0.00    -0.001 A 
ATOM      4  C3  UNL d   1       0.313  -5.234  -1.661  0.00  0.00     0.003 A 
ATOM      5  C4  UNL d   1       0.118  -3.862  -1.514  0.00  0.00    -0.005 A 
ATOM      6  C5  UNL d   1       0.707  -3.187  -0.446  0.00  0.00     0.003 A 
ATOM      7  C6  UNL d   1       1.490  -3.885   0.475  0.00  0.00    -0.001 A 
ENDROOT
TORSDOF 0
ENDMDL
