MODEL 1
REMARK minimizedAffinity -1.1356982
REMARK minimizedRMSD -1
REMARK  0 active torsions:
REMARK  status: ('A' for Active; 'I' for Inactive)
ROOT
ATOM      1  C   UNL d   1       2.272  -0.669   1.652  0.00  0.00     0.078 C 
ATOM      2  C1  UNL d   1       3.435  -1.461   2.171  0.00  0.00    -0.077 A 
ATOM      3  C2  UNL d   1       4.302  -2.126   1.296  0.00  0.00    -0.001 A 
ATOM      4  C3  UNL d   1       5.375  -2.867   1.794  0.00  0.00     0.003 A 
ATOM      5  C4  UNL d   1       5.590  -2.951   3.169  0.00  0.00    -0.005 A 
ATOM      6  C5  UNL d   1       4.731  -2.294   4.047  0.00  0.00     0.003 A 
ATOM      7  C6  UNL d   1       3.657  -1.552   3.551  0.00  0.00    -0.001 A 
ENDROOT
TORSDOF 0
ENDMDL
