MODEL 1
REMARK minimizedAffinity 7.75088644
REMARK minimizedRMSD -1
REMARK  0 active torsions:
REMARK  status: ('A' for Active; 'I' for Inactive)
ROOT
ATOM      1  C2' OXE d   1       0.648  -0.820   1.416  0.00  0.00     0.078 C 
ATOM      2  C1' OXE d   1      -0.660   0.410  -0.741  0.00  0.00     0.078 C 
ATOM      3  C1  OXE d   1      -0.105   1.298   0.344  0.00  0.00    -0.078 A 
ATOM      4  C2  OXE d   1       0.493   0.685   1.419  0.00  0.00    -0.078 A 
ATOM      5  C3  OXE d   1       1.069   1.459   2.422  0.00  0.00     0.003 A 
ATOM      6  C4  OXE d   1       0.912   2.851   2.422  0.00  0.00    -0.002 A 
ATOM      7  C5  OXE d   1       0.272   3.493   1.357  0.00  0.00    -0.002 A 
ATOM      8  C6  OXE d   1      -0.203   2.736   0.291  0.00  0.00     0.003 A 
ENDROOT
TORSDOF 0
ENDMDL
