MODEL 1
REMARK minimizedAffinity 2.11976743
REMARK minimizedRMSD -1
REMARK  0 active torsions:
REMARK  status: ('A' for Active; 'I' for Inactive)
ROOT
ATOM      1  C2' OXE d   1      -2.306   5.481  -3.209  0.00  0.00     0.078 C 
ATOM      2  C1' OXE d   1      -2.506   5.194  -5.995  0.00  0.00     0.078 C 
ATOM      3  C1  OXE d   1      -3.711   4.835  -5.162  0.00  0.00    -0.078 A 
ATOM      4  C2  OXE d   1      -3.589   4.933  -3.797  0.00  0.00    -0.078 A 
ATOM      5  C3  OXE d   1      -4.688   4.666  -2.986  0.00  0.00     0.003 A 
ATOM      6  C4  OXE d   1      -5.868   4.151  -3.537  0.00  0.00    -0.002 A 
ATOM      7  C5  OXE d   1      -5.999   4.005  -4.922  0.00  0.00    -0.002 A 
ATOM      8  C6  OXE d   1      -4.948   4.381  -5.750  0.00  0.00     0.003 A 
ENDROOT
TORSDOF 0
ENDMDL
