MODEL 1
REMARK minimizedAffinity 4.88431978
REMARK minimizedRMSD -1
REMARK  0 active torsions:
REMARK  status: ('A' for Active; 'I' for Inactive)
ROOT
ATOM      1  C2' OXE d   1      -0.016   2.229  -0.709  0.00  0.00     0.078 C 
ATOM      2  C1' OXE d   1      -1.168   2.373   1.846  0.00  0.00     0.078 C 
ATOM      3  C1  OXE d   1      -1.159   3.626   1.007  0.00  0.00    -0.078 A 
ATOM      4  C2  OXE d   1      -0.551   3.558  -0.224  0.00  0.00    -0.078 A 
ATOM      5  C3  OXE d   1      -0.563   4.671  -1.060  0.00  0.00     0.003 A 
ATOM      6  C4  OXE d   1      -1.052   5.899  -0.600  0.00  0.00    -0.002 A 
ATOM      7  C5  OXE d   1      -1.640   6.000   0.666  0.00  0.00    -0.002 A 
ATOM      8  C6  OXE d   1      -1.739   4.865   1.463  0.00  0.00     0.003 A 
ENDROOT
TORSDOF 0
ENDMDL
