MODEL 1
REMARK minimizedAffinity 4.2326808
REMARK minimizedRMSD -1
REMARK  0 active torsions:
REMARK  status: ('A' for Active; 'I' for Inactive)
ROOT
ATOM      1  C2' OXE d   1      -0.532   5.348  -1.337  0.00  0.00     0.078 C 
ATOM      2  C1' OXE d   1      -2.602   4.359  -2.955  0.00  0.00     0.078 C 
ATOM      3  C1  OXE d   1      -1.772   3.362  -2.186  0.00  0.00    -0.078 A 
ATOM      4  C2  OXE d   1      -0.732   3.851  -1.433  0.00  0.00    -0.078 A 
ATOM      5  C3  OXE d   1       0.031   2.979  -0.662  0.00  0.00     0.003 A 
ATOM      6  C4  OXE d   1      -0.154   1.595  -0.764  0.00  0.00    -0.002 A 
ATOM      7  C5  OXE d   1      -1.183   1.073  -1.556  0.00  0.00    -0.002 A 
ATOM      8  C6  OXE d   1      -2.026   1.943  -2.238  0.00  0.00     0.003 A 
ENDROOT
TORSDOF 0
ENDMDL
