MODEL 1
REMARK minimizedAffinity 5.13084698
REMARK minimizedRMSD -1
REMARK  0 active torsions:
REMARK  status: ('A' for Active; 'I' for Inactive)
ROOT
ATOM      1  C2' OXE d   1      -0.063   4.364  -0.947  0.00  0.00     0.078 C 
ATOM      2  C1' OXE d   1       0.708   2.477   0.984  0.00  0.00     0.078 C 
ATOM      3  C1  OXE d   1       0.151   1.962  -0.320  0.00  0.00    -0.078 A 
ATOM      4  C2  OXE d   1      -0.267   2.893  -1.241  0.00  0.00    -0.078 A 
ATOM      5  C3  OXE d   1      -0.738   2.473  -2.481  0.00  0.00     0.003 A 
ATOM      6  C4  OXE d   1      -0.933   1.111  -2.741  0.00  0.00    -0.002 A 
ATOM      7  C5  OXE d   1      -0.551   0.147  -1.802  0.00  0.00    -0.002 A 
ATOM      8  C6  OXE d   1       0.031   0.554  -0.606  0.00  0.00     0.003 A 
ENDROOT
TORSDOF 0
ENDMDL
