MODEL 1
REMARK minimizedAffinity 2.33046389
REMARK minimizedRMSD -1
REMARK  0 active torsions:
REMARK  status: ('A' for Active; 'I' for Inactive)
ROOT
ATOM      1  C2' OXE d   1      -0.016   2.444   0.834  0.00  0.00     0.078 C 
ATOM      2  C1' OXE d   1      -0.884   1.408  -1.626  0.00  0.00     0.078 C 
ATOM      3  C1  OXE d   1      -0.584   2.885  -1.551  0.00  0.00    -0.078 A 
ATOM      4  C2  OXE d   1      -0.205   3.391  -0.331  0.00  0.00    -0.078 A 
ATOM      5  C3  OXE d   1       0.136   4.736  -0.219  0.00  0.00     0.003 A 
ATOM      6  C4  OXE d   1      -0.051   5.607  -1.299  0.00  0.00    -0.002 A 
ATOM      7  C5  OXE d   1      -0.475   5.119  -2.540  0.00  0.00    -0.002 A 
ATOM      8  C6  OXE d   1      -0.704   3.756  -2.694  0.00  0.00     0.003 A 
ENDROOT
TORSDOF 0
ENDMDL
