MODEL 1
REMARK minimizedAffinity 4.87594461
REMARK minimizedRMSD -1
REMARK  0 active torsions:
REMARK  status: ('A' for Active; 'I' for Inactive)
ROOT
ATOM      1  C2' OXE d   1       4.872  -6.000  -0.982  0.00  0.00     0.078 C 
ATOM      2  C1' OXE d   1       4.617  -5.525  -3.737  0.00  0.00     0.078 C 
ATOM      3  C1  OXE d   1       3.371  -5.444  -2.891  0.00  0.00    -0.078 A 
ATOM      4  C2  OXE d   1       3.497  -5.724  -1.551  0.00  0.00    -0.078 A 
ATOM      5  C3  OXE d   1       2.389  -5.610  -0.716  0.00  0.00     0.003 A 
ATOM      6  C4  OXE d   1       1.120  -5.363  -1.252  0.00  0.00    -0.002 A 
ATOM      7  C5  OXE d   1       0.963  -5.115  -2.620  0.00  0.00    -0.002 A 
ATOM      8  C6  OXE d   1       2.082  -5.109  -3.445  0.00  0.00     0.003 A 
ENDROOT
TORSDOF 0
ENDMDL
