MODEL 1
REMARK minimizedAffinity -2.13246703
REMARK minimizedRMSD -1
REMARK  0 active torsions:
REMARK  status: ('A' for Active; 'I' for Inactive)
ROOT
ATOM      1  C2' OXE d   1      -0.270   1.561  -0.861  0.00  0.00     0.078 C 
ATOM      2  C1' OXE d   1       0.167   0.660   1.761  0.00  0.00     0.078 C 
ATOM      3  C1  OXE d   1       0.585   2.069   1.422  0.00  0.00    -0.078 A 
ATOM      4  C2  OXE d   1       0.410   2.486   0.125  0.00  0.00    -0.078 A 
ATOM      5  C3  OXE d   1       0.729   3.794  -0.228  0.00  0.00     0.003 A 
ATOM      6  C4  OXE d   1       1.367   4.640   0.687  0.00  0.00    -0.002 A 
ATOM      7  C5  OXE d   1       1.590   4.222   2.003  0.00  0.00    -0.002 A 
ATOM      8  C6  OXE d   1       1.168   2.957   2.398  0.00  0.00     0.003 A 
ENDROOT
TORSDOF 0
ENDMDL
