MODEL 1
REMARK minimizedAffinity 2.05316997
REMARK minimizedRMSD -1
REMARK  0 active torsions:
REMARK  status: ('A' for Active; 'I' for Inactive)
ROOT
ATOM      1  C2' OXE d   1      -5.864  -2.709   4.875  0.00  0.00     0.078 C 
ATOM      2  C1' OXE d   1      -5.831   0.073   4.499  0.00  0.00     0.078 C 
ATOM      3  C1  OXE d   1      -5.907  -0.801   3.273  0.00  0.00    -0.078 A 
ATOM      4  C2  OXE d   1      -5.876  -2.162   3.463  0.00  0.00    -0.078 A 
ATOM      5  C3  OXE d   1      -5.999  -3.014   2.370  0.00  0.00     0.003 A 
ATOM      6  C4  OXE d   1      -5.999  -2.500   1.067  0.00  0.00    -0.002 A 
ATOM      7  C5  OXE d   1      -5.991  -1.119   0.849  0.00  0.00    -0.002 A 
ATOM      8  C6  OXE d   1      -5.988  -0.256   1.940  0.00  0.00     0.003 A 
ENDROOT
TORSDOF 0
ENDMDL
