MODEL 1
REMARK minimizedAffinity 3.61833978
REMARK minimizedRMSD -1
REMARK  0 active torsions:
REMARK  status: ('A' for Active; 'I' for Inactive)
ROOT
ATOM      1  C2' OXE d   1      -5.994  -1.388   1.671  0.00  0.00     0.078 C 
ATOM      2  C1' OXE d   1      -6.000  -3.835   3.046  0.00  0.00     0.078 C 
ATOM      3  C1  OXE d   1      -5.964  -2.569   3.864  0.00  0.00    -0.078 A 
ATOM      4  C2  OXE d   1      -5.914  -1.377   3.182  0.00  0.00    -0.078 A 
ATOM      5  C3  OXE d   1      -5.935  -0.178   3.889  0.00  0.00     0.003 A 
ATOM      6  C4  OXE d   1      -5.851  -0.176   5.286  0.00  0.00    -0.002 A 
ATOM      7  C5  OXE d   1      -5.861  -1.380   5.999  0.00  0.00    -0.002 A 
ATOM      8  C6  OXE d   1      -5.959  -2.581   5.306  0.00  0.00     0.003 A 
ENDROOT
TORSDOF 0
ENDMDL
