MODEL 1
REMARK minimizedAffinity -3.14558911
REMARK minimizedRMSD -1
REMARK  0 active torsions:
REMARK  status: ('A' for Active; 'I' for Inactive)
ROOT
ATOM      1  C2' OXE d   1       0.154  -0.153   1.551  0.00  0.00     0.078 C 
ATOM      2  C1' OXE d   1       0.482   2.382   2.710  0.00  0.00     0.078 C 
ATOM      3  C1  OXE d   1       0.090   2.320   1.255  0.00  0.00    -0.078 A 
ATOM      4  C2  OXE d   1      -0.022   1.075   0.684  0.00  0.00    -0.078 A 
ATOM      5  C3  OXE d   1      -0.435   0.959  -0.640  0.00  0.00     0.003 A 
ATOM      6  C4  OXE d   1      -0.586   2.100  -1.438  0.00  0.00    -0.002 A 
ATOM      7  C5  OXE d   1      -0.437   3.377  -0.886  0.00  0.00    -0.002 A 
ATOM      8  C6  OXE d   1      -0.141   3.504   0.467  0.00  0.00     0.003 A 
ENDROOT
TORSDOF 0
ENDMDL
