MODEL 1
REMARK minimizedAffinity -4.45150709
REMARK minimizedRMSD -1
REMARK  0 active torsions:
REMARK  status: ('A' for Active; 'I' for Inactive)
ROOT
ATOM      1  C   UNL d   1      -0.090   0.778   3.293  0.00  0.00     0.023 A 
ATOM      2  C1  UNL d   1      -1.146   1.042   2.419  0.00  0.00     0.003 A 
ATOM      3  C2  UNL d   1      -0.998   0.803   1.051  0.00  0.00     0.048 A 
ATOM      4  C3  UNL d   1       0.207   0.299   0.564  0.00  0.00     0.023 A 
ATOM      5  C4  UNL d   1       1.266   0.033   1.434  0.00  0.00     0.048 A 
ATOM      6  C5  UNL d   1       1.114   0.274   2.800  0.00  0.00     0.003 A 
ATOM      7  I   UNL d   1       0.429  -0.057  -1.472  0.00  0.00    -0.146 I 
ENDROOT
TORSDOF 0
ENDMDL
