MODEL 1
REMARK minimizedAffinity -4.77416849
REMARK minimizedRMSD -1
REMARK  0 active torsions:
REMARK  status: ('A' for Active; 'I' for Inactive)
ROOT
ATOM      1  C   UNL d   1      -0.645   0.666   2.007  0.00  0.00     0.023 A 
ATOM      2  C1  UNL d   1       0.734   0.649   1.799  0.00  0.00     0.003 A 
ATOM      3  C2  UNL d   1       1.245   0.499   0.508  0.00  0.00     0.048 A 
ATOM      4  C3  UNL d   1       0.372   0.368  -0.571  0.00  0.00     0.023 A 
ATOM      5  C4  UNL d   1      -1.009   0.385  -0.368  0.00  0.00     0.048 A 
ATOM      6  C5  UNL d   1      -1.516   0.534   0.925  0.00  0.00     0.003 A 
ATOM      7  I   UNL d   1       1.130   0.146  -2.493  0.00  0.00    -0.146 I 
ENDROOT
TORSDOF 0
ENDMDL
