MODEL 1
REMARK minimizedAffinity -5.08038139
REMARK minimizedRMSD -1
REMARK  0 active torsions:
REMARK  status: ('A' for Active; 'I' for Inactive)
ROOT
ATOM      1  C   UNL d   1      -0.885   1.284   3.077  0.00  0.00     0.023 A 
ATOM      2  C1  UNL d   1      -1.861   1.597   2.131  0.00  0.00     0.003 A 
ATOM      3  C2  UNL d   1      -1.606   1.404   0.772  0.00  0.00     0.048 A 
ATOM      4  C3  UNL d   1      -0.372   0.897   0.365  0.00  0.00     0.023 A 
ATOM      5  C4  UNL d   1       0.607   0.581   1.308  0.00  0.00     0.048 A 
ATOM      6  C5  UNL d   1       0.348   0.777   2.666  0.00  0.00     0.003 A 
ATOM      7  I   UNL d   1       0.010   0.609  -1.657  0.00  0.00    -0.146 I 
ENDROOT
TORSDOF 0
ENDMDL
