MODEL 1
REMARK minimizedAffinity -2.33809543
REMARK minimizedRMSD -1
REMARK  0 active torsions:
REMARK  status: ('A' for Active; 'I' for Inactive)
ROOT
ATOM      1  C   UNL d   1      -0.658  -0.123   1.530  0.00  0.00     0.023 A 
ATOM      2  C1  UNL d   1       0.684  -0.411   1.283  0.00  0.00     0.003 A 
ATOM      3  C2  UNL d   1       1.227  -0.186   0.016  0.00  0.00     0.048 A 
ATOM      4  C3  UNL d   1       0.421   0.327  -0.999  0.00  0.00     0.023 A 
ATOM      5  C4  UNL d   1      -0.923   0.617  -0.757  0.00  0.00     0.048 A 
ATOM      6  C5  UNL d   1      -1.461   0.390   0.511  0.00  0.00     0.003 A 
ATOM      7  I   UNL d   1       1.226   0.662  -2.886  0.00  0.00    -0.146 I 
ENDROOT
TORSDOF 0
ENDMDL
