MODEL 1
REMARK minimizedAffinity -4.13343906
REMARK minimizedRMSD -1
REMARK  0 active torsions:
REMARK  status: ('A' for Active; 'I' for Inactive)
ROOT
ATOM      1  C   UNL d   1      -0.978  -0.307   0.543  0.00  0.00     0.023 A 
ATOM      2  C1  UNL d   1      -1.394   0.935   0.064  0.00  0.00     0.003 A 
ATOM      3  C2  UNL d   1      -0.742   1.519  -1.024  0.00  0.00     0.048 A 
ATOM      4  C3  UNL d   1       0.325   0.856  -1.628  0.00  0.00     0.023 A 
ATOM      5  C4  UNL d   1       0.745  -0.387  -1.152  0.00  0.00     0.048 A 
ATOM      6  C5  UNL d   1       0.091  -0.967  -0.064  0.00  0.00     0.003 A 
ATOM      7  I   UNL d   1       1.297   1.724  -3.247  0.00  0.00    -0.146 I 
ENDROOT
TORSDOF 0
ENDMDL
