MODEL 1
REMARK minimizedAffinity -1.08022439
REMARK minimizedRMSD -1
REMARK  0 active torsions:
REMARK  status: ('A' for Active; 'I' for Inactive)
ROOT
ATOM      1  C   UNL d   1      -0.635   0.061   0.580  0.00  0.00     0.023 A 
ATOM      2  C1  UNL d   1      -0.807   1.293  -0.050  0.00  0.00     0.003 A 
ATOM      3  C2  UNL d   1      -0.263   1.513  -1.317  0.00  0.00     0.048 A 
ATOM      4  C3  UNL d   1       0.451   0.496  -1.949  0.00  0.00     0.023 A 
ATOM      5  C4  UNL d   1       0.625  -0.740  -1.323  0.00  0.00     0.048 A 
ATOM      6  C5  UNL d   1       0.080  -0.955  -0.055  0.00  0.00     0.003 A 
ATOM      7  I   UNL d   1       1.262   0.820  -3.835  0.00  0.00    -0.146 I 
ENDROOT
TORSDOF 0
ENDMDL
