MODEL 1
REMARK minimizedAffinity -1.58892667
REMARK minimizedRMSD -1
REMARK  0 active torsions:
REMARK  status: ('A' for Active; 'I' for Inactive)
ROOT
ATOM      1  C   UNL d   1       0.836  -0.638   3.786  0.00  0.00     0.023 A 
ATOM      2  C1  UNL d   1       1.812  -1.011   2.862  0.00  0.00     0.003 A 
ATOM      3  C2  UNL d   1       1.537  -0.956   1.494  0.00  0.00     0.048 A 
ATOM      4  C3  UNL d   1       0.284  -0.526   1.058  0.00  0.00     0.023 A 
ATOM      5  C4  UNL d   1      -0.695  -0.152   1.979  0.00  0.00     0.048 A 
ATOM      6  C5  UNL d   1      -0.416  -0.209   3.346  0.00  0.00     0.003 A 
ATOM      7  I   UNL d   1      -0.128  -0.443  -0.978  0.00  0.00    -0.146 I 
ENDROOT
TORSDOF 0
ENDMDL
