MODEL 1
REMARK minimizedAffinity -2.75240755
REMARK minimizedRMSD -1
REMARK  0 active torsions:
REMARK  status: ('A' for Active; 'I' for Inactive)
ROOT
ATOM      1  C   UNL d   1      -1.435   0.381   2.314  0.00  0.00     0.023 A 
ATOM      2  C1  UNL d   1      -2.134   0.523   1.116  0.00  0.00     0.003 A 
ATOM      3  C2  UNL d   1      -1.478   0.337  -0.103  0.00  0.00     0.048 A 
ATOM      4  C3  UNL d   1      -0.122   0.009  -0.116  0.00  0.00     0.023 A 
ATOM      5  C4  UNL d   1       0.581  -0.134   1.081  0.00  0.00     0.048 A 
ATOM      6  C5  UNL d   1      -0.079   0.054   2.297  0.00  0.00     0.003 A 
ATOM      7  I   UNL d   1       0.856  -0.268  -1.928  0.00  0.00    -0.146 I 
ENDROOT
TORSDOF 0
ENDMDL
