MODEL 1
REMARK minimizedAffinity -0.517163157
REMARK minimizedRMSD -1
REMARK  0 active torsions:
REMARK  status: ('A' for Active; 'I' for Inactive)
ROOT
ATOM      1  C   UNL d   1      -1.308  -0.057   1.964  0.00  0.00     0.023 A 
ATOM      2  C1  UNL d   1       0.042  -0.408   1.984  0.00  0.00     0.003 A 
ATOM      3  C2  UNL d   1       0.820  -0.261   0.833  0.00  0.00     0.048 A 
ATOM      4  C3  UNL d   1       0.242   0.238  -0.333  0.00  0.00     0.023 A 
ATOM      5  C4  UNL d   1      -1.109   0.592  -0.357  0.00  0.00     0.048 A 
ATOM      6  C5  UNL d   1      -1.883   0.442   0.795  0.00  0.00     0.003 A 
ATOM      7  I   UNL d   1       1.397   0.458  -2.046  0.00  0.00    -0.146 I 
ENDROOT
TORSDOF 0
ENDMDL
