MODEL 1
REMARK minimizedAffinity 6.07695484
REMARK minimizedRMSD -1
REMARK  0 active torsions:
REMARK  status: ('A' for Active; 'I' for Inactive)
ROOT
ATOM      1  N1  IND d   1      -3.182   1.132   1.044  0.00  0.00    -0.196 N 
ATOM      2  C2  IND d   1      -4.509   0.808   1.026  0.00  0.00     0.054 A 
ATOM      3  C3  IND d   1      -4.834   0.218  -0.146  0.00  0.00    -0.031 A 
ATOM      4  C4  IND d   1      -3.324  -0.407  -2.135  0.00  0.00     0.051 A 
ATOM      5  C5  IND d   1      -2.044  -0.280  -2.598  0.00  0.00    -0.031 A 
ATOM      6  C6  IND d   1      -1.058   0.335  -1.855  0.00  0.00     0.015 A 
ATOM      7  C7  IND d   1      -1.313   0.837  -0.610  0.00  0.00    -0.016 A 
ATOM      8  C8  IND d   1      -2.613   0.716  -0.140  0.00  0.00    -0.047 A 
ATOM      9  C9  IND d   1      -3.628   0.131  -0.907  0.00  0.00    -0.096 A 
ATOM     10  HN1 IND d   1      -2.771   1.530   1.686  0.00  0.00     0.298 HD
ENDROOT
TORSDOF 0
ENDMDL
