MODEL 1
REMARK minimizedAffinity 6.04480886
REMARK minimizedRMSD -1
REMARK  0 active torsions:
REMARK  status: ('A' for Active; 'I' for Inactive)
ROOT
ATOM      1  N1  IND d   1       1.394   5.705   4.300  0.00  0.00    -0.196 N 
ATOM      2  C2  IND d   1       0.391   5.595   5.223  0.00  0.00     0.054 A 
ATOM      3  C3  IND d   1       0.583   4.505   5.999  0.00  0.00    -0.031 A 
ATOM      4  C4  IND d   1       2.529   2.819   5.999  0.00  0.00     0.051 A 
ATOM      5  C5  IND d   1       3.664   2.484   5.315  0.00  0.00    -0.031 A 
ATOM      6  C6  IND d   1       4.111   3.222   4.238  0.00  0.00     0.015 A 
ATOM      7  C7  IND d   1       3.442   4.334   3.810  0.00  0.00    -0.016 A 
ATOM      8  C8  IND d   1       2.286   4.674   4.497  0.00  0.00    -0.047 A 
ATOM      9  C9  IND d   1       1.804   3.904   5.564  0.00  0.00    -0.096 A 
ATOM     10  HN1 IND d   1       1.457   6.316   3.698  0.00  0.00     0.298 HD
ENDROOT
TORSDOF 0
ENDMDL
