MODEL 1
REMARK minimizedAffinity 6.49152613
REMARK minimizedRMSD -1
REMARK  0 active torsions:
REMARK  status: ('A' for Active; 'I' for Inactive)
ROOT
ATOM      1  N1  IND d   1       4.824   0.814  -2.246  0.00  0.00    -0.196 N 
ATOM      2  C2  IND d   1       3.817  -0.013  -1.834  0.00  0.00     0.054 A 
ATOM      3  C3  IND d   1       3.406   0.328  -0.592  0.00  0.00    -0.031 A 
ATOM      4  C4  IND d   1       4.178   2.272   0.909  0.00  0.00     0.051 A 
ATOM      5  C5  IND d   1       5.101   3.278   0.980  0.00  0.00    -0.031 A 
ATOM      6  C6  IND d   1       5.996   3.519  -0.043  0.00  0.00     0.015 A 
ATOM      7  C7  IND d   1       5.993   2.769  -1.184  0.00  0.00    -0.016 A 
ATOM      8  C8  IND d   1       5.061   1.743  -1.257  0.00  0.00    -0.047 A 
ATOM      9  C9  IND d   1       4.179   1.466  -0.204  0.00  0.00    -0.096 A 
ATOM     10  HN1 IND d   1       5.240   0.762  -2.997  0.00  0.00     0.298 HD
ENDROOT
TORSDOF 0
ENDMDL
