MODEL 1
REMARK minimizedAffinity 6.75303316
REMARK minimizedRMSD -1
REMARK  0 active torsions:
REMARK  status: ('A' for Active; 'I' for Inactive)
ROOT
ATOM      1  N1  IND d   1       4.537   0.880   5.995  0.00  0.00    -0.196 N 
ATOM      2  C2  IND d   1       3.383   0.146   5.991  0.00  0.00     0.054 A 
ATOM      3  C3  IND d   1       2.307   0.964   6.000  0.00  0.00    -0.031 A 
ATOM      4  C4  IND d   1       2.204   3.535   5.920  0.00  0.00     0.051 A 
ATOM      5  C5  IND d   1       2.999   4.646   5.950  0.00  0.00    -0.031 A 
ATOM      6  C6  IND d   1       4.376   4.557   5.995  0.00  0.00     0.015 A 
ATOM      7  C7  IND d   1       5.011   3.347   6.000  0.00  0.00    -0.016 A 
ATOM      8  C8  IND d   1       4.207   2.217   5.976  0.00  0.00    -0.047 A 
ATOM      9  C9  IND d   1       2.808   2.301   5.974  0.00  0.00    -0.096 A 
ATOM     10  HN1 IND d   1       5.335   0.559   6.007  0.00  0.00     0.298 HD
ENDROOT
TORSDOF 0
ENDMDL
