MODEL 1
REMARK minimizedAffinity 9.65911388
REMARK minimizedRMSD -1
REMARK  0 active torsions:
REMARK  status: ('A' for Active; 'I' for Inactive)
ROOT
ATOM      1  N1  IND d   1       2.595   0.775  -0.366  0.00  0.00    -0.196 N 
ATOM      2  C2  IND d   1       1.751   1.028   0.679  0.00  0.00     0.054 A 
ATOM      3  C3  IND d   1       2.367   1.795   1.607  0.00  0.00    -0.031 A 
ATOM      4  C4  IND d   1       4.722   2.833   1.568  0.00  0.00     0.051 A 
ATOM      5  C5  IND d   1       5.877   2.856   0.838  0.00  0.00    -0.031 A 
ATOM      6  C6  IND d   1       6.000   2.174  -0.355  0.00  0.00     0.015 A 
ATOM      7  C7  IND d   1       4.962   1.450  -0.872  0.00  0.00    -0.016 A 
ATOM      8  C8  IND d   1       3.789   1.420  -0.130  0.00  0.00    -0.047 A 
ATOM      9  C9  IND d   1       3.674   2.075   1.102  0.00  0.00    -0.096 A 
ATOM     10  HN1 IND d   1       2.411   0.294  -1.055  0.00  0.00     0.298 HD
ENDROOT
TORSDOF 0
ENDMDL
