MODEL 1
REMARK minimizedAffinity 2.17879081
REMARK minimizedRMSD -1
REMARK  0 active torsions:
REMARK  status: ('A' for Active; 'I' for Inactive)
ROOT
ATOM      1  N1  IND d   1       2.582   1.159  -0.702  0.00  0.00    -0.196 N 
ATOM      2  C2  IND d   1       2.991  -0.071  -1.137  0.00  0.00     0.054 A 
ATOM      3  C3  IND d   1       4.288  -0.276  -0.815  0.00  0.00    -0.031 A 
ATOM      4  C4  IND d   1       5.902   1.228   0.511  0.00  0.00     0.051 A 
ATOM      5  C5  IND d   1       5.996   2.465   1.085  0.00  0.00    -0.031 A 
ATOM      6  C6  IND d   1       4.935   3.347   1.094  0.00  0.00     0.015 A 
ATOM      7  C7  IND d   1       3.731   3.018   0.538  0.00  0.00    -0.016 A 
ATOM      8  C8  IND d   1       3.634   1.765  -0.051  0.00  0.00    -0.047 A 
ATOM      9  C9  IND d   1       4.721   0.883  -0.101  0.00  0.00    -0.096 A 
ATOM     10  HN1 IND d   1       1.800   1.497  -0.817  0.00  0.00     0.298 HD
ENDROOT
TORSDOF 0
ENDMDL
