MODEL 1
REMARK minimizedAffinity 9.44376659
REMARK minimizedRMSD -1
REMARK  0 active torsions:
REMARK  status: ('A' for Active; 'I' for Inactive)
ROOT
ATOM      1  N1  IND d   1      -3.398  -0.522  -1.314  0.00  0.00    -0.196 N 
ATOM      2  C2  IND d   1      -4.624  -0.371  -0.729  0.00  0.00     0.054 A 
ATOM      3  C3  IND d   1      -5.522   0.086  -1.630  0.00  0.00    -0.031 A 
ATOM      4  C4  IND d   1      -5.223   0.558  -4.143  0.00  0.00     0.051 A 
ATOM      5  C5  IND d   1      -4.273   0.602  -5.125  0.00  0.00    -0.031 A 
ATOM      6  C6  IND d   1      -2.958   0.264  -4.883  0.00  0.00     0.015 A 
ATOM      7  C7  IND d   1      -2.543  -0.143  -3.646  0.00  0.00    -0.016 A 
ATOM      8  C8  IND d   1      -3.503  -0.182  -2.645  0.00  0.00    -0.047 A 
ATOM      9  C9  IND d   1      -4.831   0.200  -2.875  0.00  0.00    -0.096 A 
ATOM     10  HN1 IND d   1      -2.682  -0.786  -0.918  0.00  0.00     0.298 HD
ENDROOT
TORSDOF 0
ENDMDL
