MODEL 1
REMARK minimizedAffinity -0.665799916
REMARK minimizedRMSD -1
REMARK  0 active torsions:
REMARK  status: ('A' for Active; 'I' for Inactive)
ROOT
ATOM      1  N1  IND d   1       5.207   2.755  -0.483  0.00  0.00    -0.196 N 
ATOM      2  C2  IND d   1       5.749   2.749   0.772  0.00  0.00     0.054 A 
ATOM      3  C3  IND d   1       5.377   1.633   1.439  0.00  0.00    -0.031 A 
ATOM      4  C4  IND d   1       3.971  -0.365   0.628  0.00  0.00     0.051 A 
ATOM      5  C5  IND d   1       3.226  -0.798  -0.433  0.00  0.00    -0.031 A 
ATOM      6  C6  IND d   1       3.104  -0.056  -1.590  0.00  0.00     0.015 A 
ATOM      7  C7  IND d   1       3.734   1.148  -1.733  0.00  0.00    -0.016 A 
ATOM      8  C8  IND d   1       4.485   1.595  -0.655  0.00  0.00    -0.047 A 
ATOM      9  C9  IND d   1       4.578   0.865   0.537  0.00  0.00    -0.096 A 
ATOM     10  HN1 IND d   1       5.302   3.379  -1.067  0.00  0.00     0.298 HD
ENDROOT
TORSDOF 0
ENDMDL
