MODEL 1
REMARK minimizedAffinity 11.3507338
REMARK minimizedRMSD -1
REMARK  0 active torsions:
REMARK  status: ('A' for Active; 'I' for Inactive)
ROOT
ATOM      1  N1  IND d   1       4.445   2.674   5.976  0.00  0.00    -0.196 N 
ATOM      2  C2  IND d   1       3.789   1.474   5.977  0.00  0.00     0.054 A 
ATOM      3  C3  IND d   1       2.452   1.669   5.999  0.00  0.00    -0.031 A 
ATOM      4  C4  IND d   1       1.119   3.871   5.935  0.00  0.00     0.051 A 
ATOM      5  C5  IND d   1       1.278   5.228   5.966  0.00  0.00    -0.031 A 
ATOM      6  C6  IND d   1       2.527   5.815   5.999  0.00  0.00     0.015 A 
ATOM      7  C7  IND d   1       3.667   5.063   5.992  0.00  0.00    -0.016 A 
ATOM      8  C8  IND d   1       3.509   3.685   5.968  0.00  0.00    -0.047 A 
ATOM      9  C9  IND d   1       2.244   3.083   5.977  0.00  0.00    -0.096 A 
ATOM     10  HN1 IND d   1       5.298   2.779   5.980  0.00  0.00     0.298 HD
ENDROOT
TORSDOF 0
ENDMDL
