MODEL 1
REMARK minimizedAffinity -2.79360986
REMARK minimizedRMSD -1
REMARK  0 active torsions:
REMARK  status: ('A' for Active; 'I' for Inactive)
ROOT
ATOM      1  C1  BNZ d   1      -0.333   0.573  -0.167  0.00  0.00     0.000 A 
ATOM      2  C2  BNZ d   1       0.667  -0.330  -0.410  0.00  0.00     0.000 A 
ATOM      3  C3  BNZ d   1       1.576  -0.646   0.561  0.00  0.00     0.000 A 
ATOM      4  C4  BNZ d   1       1.508  -0.030   1.758  0.00  0.00     0.000 A 
ATOM      5  C5  BNZ d   1       0.511   0.890   2.016  0.00  0.00     0.000 A 
ATOM      6  C6  BNZ d   1      -0.425   1.177   1.049  0.00  0.00     0.000 A 
ENDROOT
TORSDOF 0
ENDMDL
