MODEL 1
REMARK minimizedAffinity -2.72418547
REMARK minimizedRMSD -1
REMARK  0 active torsions:
REMARK  status: ('A' for Active; 'I' for Inactive)
ROOT
ATOM      1  C1  BNZ d   1      -1.227   0.013   0.741  0.00  0.00     0.000 A 
ATOM      2  C2  BNZ d   1      -1.643   0.627   1.892  0.00  0.00     0.000 A 
ATOM      3  C3  BNZ d   1      -0.769   1.350   2.655  0.00  0.00     0.000 A 
ATOM      4  C4  BNZ d   1       0.527   1.424   2.288  0.00  0.00     0.000 A 
ATOM      5  C5  BNZ d   1       0.964   0.802   1.135  0.00  0.00     0.000 A 
ATOM      6  C6  BNZ d   1       0.073   0.108   0.349  0.00  0.00     0.000 A 
ENDROOT
TORSDOF 0
ENDMDL
