MODEL 1
REMARK minimizedAffinity -4.57031918
REMARK minimizedRMSD -1
REMARK  0 active torsions:
REMARK  status: ('A' for Active; 'I' for Inactive)
ROOT
ATOM      1  C1  BNZ d   1       0.545   1.000   0.795  0.00  0.00     0.000 A 
ATOM      2  C2  BNZ d   1       0.290   1.433   2.069  0.00  0.00     0.000 A 
ATOM      3  C3  BNZ d   1      -0.769   0.938   2.778  0.00  0.00     0.000 A 
ATOM      4  C4  BNZ d   1      -1.594   0.042   2.198  0.00  0.00     0.000 A 
ATOM      5  C5  BNZ d   1      -1.355  -0.398   0.911  0.00  0.00     0.000 A 
ATOM      6  C6  BNZ d   1      -0.266   0.073   0.215  0.00  0.00     0.000 A 
ENDROOT
TORSDOF 0
ENDMDL
