MODEL 1
REMARK minimizedAffinity -2.53437519
REMARK minimizedRMSD -1
REMARK  0 active torsions:
REMARK  status: ('A' for Active; 'I' for Inactive)
ROOT
ATOM      1  C1  BNZ d   1       1.223   0.556   1.768  0.00  0.00     0.000 A 
ATOM      2  C2  BNZ d   1       0.203   1.060   2.530  0.00  0.00     0.000 A 
ATOM      3  C3  BNZ d   1      -1.095   0.970   2.111  0.00  0.00     0.000 A 
ATOM      4  C4  BNZ d   1      -1.368   0.412   0.914  0.00  0.00     0.000 A 
ATOM      5  C5  BNZ d   1      -0.350  -0.093   0.129  0.00  0.00     0.000 A 
ATOM      6  C6  BNZ d   1       0.952  -0.035   0.572  0.00  0.00     0.000 A 
ENDROOT
TORSDOF 0
ENDMDL
