MODEL 1
REMARK minimizedAffinity -0.00795955304
REMARK minimizedRMSD -1
REMARK  0 active torsions:
REMARK  status: ('A' for Active; 'I' for Inactive)
ROOT
ATOM      1  C   UNL d   1      -0.211   2.406   2.358  0.00  0.00     0.023 A 
ATOM      2  C1  UNL d   1      -1.340   2.125   1.588  0.00  0.00     0.003 A 
ATOM      3  C2  UNL d   1      -1.279   1.160   0.582  0.00  0.00     0.048 A 
ATOM      4  C3  UNL d   1      -0.085   0.477   0.351  0.00  0.00     0.023 A 
ATOM      5  C4  UNL d   1       1.047   0.754   1.119  0.00  0.00     0.048 A 
ATOM      6  C5  UNL d   1       0.981   1.721   2.124  0.00  0.00     0.003 A 
ATOM      7  I   UNL d   1       0.009  -0.961  -1.147  0.00  0.00    -0.146 I 
ENDROOT
TORSDOF 0
ENDMDL
