MODEL 1
REMARK minimizedAffinity -4.71419144
REMARK minimizedRMSD -1
REMARK  0 active torsions:
REMARK  status: ('A' for Active; 'I' for Inactive)
ROOT
ATOM      1  C   UNL d   1      -1.519   3.598   0.396  0.00  0.00     0.023 A 
ATOM      2  C1  UNL d   1      -1.216   3.371  -0.946  0.00  0.00     0.003 A 
ATOM      3  C2  UNL d   1      -0.586   2.185  -1.330  0.00  0.00     0.048 A 
ATOM      4  C3  UNL d   1      -0.265   1.230  -0.366  0.00  0.00     0.023 A 
ATOM      5  C4  UNL d   1      -0.568   1.452   0.978  0.00  0.00     0.048 A 
ATOM      6  C5  UNL d   1      -1.196   2.640   1.357  0.00  0.00     0.003 A 
ATOM      7  I   UNL d   1       0.672  -0.537  -0.934  0.00  0.00    -0.146 I 
ENDROOT
TORSDOF 0
ENDMDL
