MODEL 1
REMARK minimizedAffinity -2.16533017
REMARK minimizedRMSD -1
REMARK  0 active torsions:
REMARK  status: ('A' for Active; 'I' for Inactive)
ROOT
ATOM      1  C   UNL d   1       1.089  -0.008  -2.231  0.00  0.00     0.023 A 
ATOM      2  C1  UNL d   1       0.331   1.157  -2.347  0.00  0.00     0.003 A 
ATOM      3  C2  UNL d   1      -0.334   1.674  -1.233  0.00  0.00     0.048 A 
ATOM      4  C3  UNL d   1      -0.236   1.021  -0.005  0.00  0.00     0.023 A 
ATOM      5  C4  UNL d   1       0.522  -0.145   0.117  0.00  0.00     0.048 A 
ATOM      6  C5  UNL d   1       1.185  -0.658  -1.000  0.00  0.00     0.003 A 
ATOM      7  I   UNL d   1      -1.224   1.788   1.654  0.00  0.00    -0.146 I 
ENDROOT
TORSDOF 0
ENDMDL
