MODEL 1
REMARK minimizedAffinity -3.92251396
REMARK minimizedRMSD -1
REMARK  0 active torsions:
REMARK  status: ('A' for Active; 'I' for Inactive)
ROOT
ATOM      1  C   UNL d   1      -0.155   3.008   0.592  0.00  0.00     0.023 A 
ATOM      2  C1  UNL d   1      -0.065   1.977   1.527  0.00  0.00     0.003 A 
ATOM      3  C2  UNL d   1       0.136   0.662   1.101  0.00  0.00     0.048 A 
ATOM      4  C3  UNL d   1       0.249   0.387  -0.262  0.00  0.00     0.023 A 
ATOM      5  C4  UNL d   1       0.161   1.416  -1.200  0.00  0.00     0.048 A 
ATOM      6  C5  UNL d   1      -0.042   2.728  -0.770  0.00  0.00     0.003 A 
ATOM      7  I   UNL d   1       0.550  -1.569  -0.898  0.00  0.00    -0.146 I 
ENDROOT
TORSDOF 0
ENDMDL
