MODEL 1
REMARK minimizedAffinity -2.95529366
REMARK minimizedRMSD -1
REMARK  0 active torsions:
REMARK  status: ('A' for Active; 'I' for Inactive)
ROOT
ATOM      1  C   UNL d   1      -0.872   3.236   0.795  0.00  0.00     0.023 A 
ATOM      2  C1  UNL d   1      -0.585   2.217   1.703  0.00  0.00     0.003 A 
ATOM      3  C2  UNL d   1      -0.218   0.951   1.241  0.00  0.00     0.048 A 
ATOM      4  C3  UNL d   1      -0.139   0.711  -0.130  0.00  0.00     0.023 A 
ATOM      5  C4  UNL d   1      -0.425   1.728  -1.043  0.00  0.00     0.048 A 
ATOM      6  C5  UNL d   1      -0.793   2.991  -0.576  0.00  0.00     0.003 A 
ATOM      7  I   UNL d   1       0.407  -1.172  -0.820  0.00  0.00    -0.146 I 
ENDROOT
TORSDOF 0
ENDMDL
