MODEL 1
REMARK minimizedAffinity -1.42255867
REMARK minimizedRMSD -1
REMARK  0 active torsions:
REMARK  status: ('A' for Active; 'I' for Inactive)
ROOT
ATOM      1  C   UNL d   1       0.695  -0.123  -1.871  0.00  0.00     0.023 A 
ATOM      2  C1  UNL d   1       0.214   1.143  -2.204  0.00  0.00     0.003 A 
ATOM      3  C2  UNL d   1      -0.376   1.947  -1.226  0.00  0.00     0.048 A 
ATOM      4  C3  UNL d   1      -0.481   1.478   0.083  0.00  0.00     0.023 A 
ATOM      5  C4  UNL d   1       0.001   0.212   0.421  0.00  0.00     0.048 A 
ATOM      6  C5  UNL d   1       0.589  -0.588  -0.560  0.00  0.00     0.003 A 
ATOM      7  I   UNL d   1      -1.358   2.672   1.541  0.00  0.00    -0.146 I 
ENDROOT
TORSDOF 0
ENDMDL
