MODEL 1
REMARK minimizedAffinity -1.69459057
REMARK minimizedRMSD -1
REMARK  0 active torsions:
REMARK  status: ('A' for Active; 'I' for Inactive)
ROOT
ATOM      1  C   UNL d   1       0.168   1.751   0.201  0.00  0.00     0.023 A 
ATOM      2  C1  UNL d   1      -0.324   0.765   1.057  0.00  0.00     0.003 A 
ATOM      3  C2  UNL d   1      -0.294  -0.576   0.669  0.00  0.00     0.048 A 
ATOM      4  C3  UNL d   1       0.230  -0.925  -0.575  0.00  0.00     0.023 A 
ATOM      5  C4  UNL d   1       0.723   0.058  -1.435  0.00  0.00     0.048 A 
ATOM      6  C5  UNL d   1       0.691   1.398  -1.043  0.00  0.00     0.003 A 
ATOM      7  I   UNL d   1       0.275  -2.920  -1.154  0.00  0.00    -0.146 I 
ENDROOT
TORSDOF 0
ENDMDL
