MODEL 1
REMARK minimizedAffinity 4.69469118
REMARK minimizedRMSD -1
REMARK  0 active torsions:
REMARK  status: ('A' for Active; 'I' for Inactive)
ROOT
ATOM      1  C1  BNZ d   1       3.235   0.810   0.265  0.00  0.00     0.000 A 
ATOM      2  C2  BNZ d   1       3.769  -0.379   0.685  0.00  0.00     0.000 A 
ATOM      3  C3  BNZ d   1       5.007  -0.425   1.263  0.00  0.00     0.000 A 
ATOM      4  C4  BNZ d   1       5.725   0.710   1.383  0.00  0.00     0.000 A 
ATOM      5  C5  BNZ d   1       5.205   1.915   0.955  0.00  0.00     0.000 A 
ATOM      6  C6  BNZ d   1       3.943   1.964   0.409  0.00  0.00     0.000 A 
ENDROOT
TORSDOF 0
ENDMDL
