MODEL 1
REMARK minimizedAffinity 12.813962
REMARK minimizedRMSD -1
REMARK  0 active torsions:
REMARK  status: ('A' for Active; 'I' for Inactive)
ROOT
ATOM      1  C1  BNZ d   1       4.429  -0.973   0.086  0.00  0.00     0.000 A 
ATOM      2  C2  BNZ d   1       3.531  -0.401  -0.775  0.00  0.00     0.000 A 
ATOM      3  C3  BNZ d   1       2.591   0.481  -0.321  0.00  0.00     0.000 A 
ATOM      4  C4  BNZ d   1       2.524   0.758   0.997  0.00  0.00     0.000 A 
ATOM      5  C5  BNZ d   1       3.416   0.182   1.879  0.00  0.00     0.000 A 
ATOM      6  C6  BNZ d   1       4.386  -0.675   1.413  0.00  0.00     0.000 A 
ENDROOT
TORSDOF 0
ENDMDL
