MODEL 1
REMARK minimizedAffinity 2.52332568
REMARK minimizedRMSD -1
REMARK  0 active torsions:
REMARK  status: ('A' for Active; 'I' for Inactive)
ROOT
ATOM      1  C1  BNZ d   1       4.922   0.890  -2.143  0.00  0.00     0.000 A 
ATOM      2  C2  BNZ d   1       4.630   0.417  -3.395  0.00  0.00     0.000 A 
ATOM      3  C3  BNZ d   1       4.515   1.270  -4.456  0.00  0.00     0.000 A 
ATOM      4  C4  BNZ d   1       4.651   2.597  -4.258  0.00  0.00     0.000 A 
ATOM      5  C5  BNZ d   1       4.935   3.090  -3.001  0.00  0.00     0.000 A 
ATOM      6  C6  BNZ d   1       5.090   2.225  -1.942  0.00  0.00     0.000 A 
ENDROOT
TORSDOF 0
ENDMDL
