MODEL 1
REMARK minimizedAffinity 1.42300725
REMARK minimizedRMSD -1
REMARK  0 active torsions:
REMARK  status: ('A' for Active; 'I' for Inactive)
ROOT
ATOM      1  C1  BNZ d   1       3.798  -0.805   0.540  0.00  0.00     0.000 A 
ATOM      2  C2  BNZ d   1       3.085  -0.282  -0.506  0.00  0.00     0.000 A 
ATOM      3  C3  BNZ d   1       2.234   0.771  -0.316  0.00  0.00     0.000 A 
ATOM      4  C4  BNZ d   1       2.066   1.272   0.925  0.00  0.00     0.000 A 
ATOM      5  C5  BNZ d   1       2.771   0.750   1.991  0.00  0.00     0.000 A 
ATOM      6  C6  BNZ d   1       3.656  -0.284   1.789  0.00  0.00     0.000 A 
ENDROOT
TORSDOF 0
ENDMDL
