MODEL 1
REMARK minimizedAffinity -0.15170531
REMARK minimizedRMSD -1
REMARK  0 active torsions:
REMARK  status: ('A' for Active; 'I' for Inactive)
ROOT
ATOM      1  C1  BNZ d   1       2.942   1.998   0.097  0.00  0.00     0.000 A 
ATOM      2  C2  BNZ d   1       1.735   2.204   0.709  0.00  0.00     0.000 A 
ATOM      3  C3  BNZ d   1       1.117   1.195   1.394  0.00  0.00     0.000 A 
ATOM      4  C4  BNZ d   1       1.687  -0.026   1.433  0.00  0.00     0.000 A 
ATOM      5  C5  BNZ d   1       2.899  -0.252   0.812  0.00  0.00     0.000 A 
ATOM      6  C6  BNZ d   1       3.537   0.775   0.156  0.00  0.00     0.000 A 
ENDROOT
TORSDOF 0
ENDMDL
