MODEL 1
REMARK minimizedAffinity 3.25466442
REMARK minimizedRMSD -1
REMARK  0 active torsions:
REMARK  status: ('A' for Active; 'I' for Inactive)
ROOT
ATOM      1  C1  BNZ d   1      -0.798  -4.216  -2.087  0.00  0.00     0.000 A 
ATOM      2  C2  BNZ d   1      -0.317  -3.766  -0.886  0.00  0.00     0.000 A 
ATOM      3  C3  BNZ d   1      -0.921  -2.727  -0.235  0.00  0.00     0.000 A 
ATOM      4  C4  BNZ d   1      -1.980  -2.114  -0.803  0.00  0.00     0.000 A 
ATOM      5  C5  BNZ d   1      -2.471  -2.551  -2.017  0.00  0.00     0.000 A 
ATOM      6  C6  BNZ d   1      -1.884  -3.622  -2.651  0.00  0.00     0.000 A 
ENDROOT
TORSDOF 0
ENDMDL
