MODEL 1
REMARK minimizedAffinity 3.53311586
REMARK minimizedRMSD -1
REMARK  0 active torsions:
REMARK  status: ('A' for Active; 'I' for Inactive)
ROOT
ATOM      1  C1  BNZ d   1      -5.542   0.741   4.975  0.00  0.00     0.000 A 
ATOM      2  C2  BNZ d   1      -5.818   1.609   5.998  0.00  0.00     0.000 A 
ATOM      3  C3  BNZ d   1      -5.307   2.876   5.997  0.00  0.00     0.000 A 
ATOM      4  C4  BNZ d   1      -4.489   3.262   4.996  0.00  0.00     0.000 A 
ATOM      5  C5  BNZ d   1      -4.194   2.395   3.962  0.00  0.00     0.000 A 
ATOM      6  C6  BNZ d   1      -4.741   1.133   3.946  0.00  0.00     0.000 A 
ENDROOT
TORSDOF 0
ENDMDL
