MODEL 1
REMARK minimizedAffinity -0.806190968
REMARK minimizedRMSD -1
REMARK  0 active torsions:
REMARK  status: ('A' for Active; 'I' for Inactive)
ROOT
ATOM      1  C1  BNZ d   1       3.066  -0.441   1.258  0.00  0.00     0.000 A 
ATOM      2  C2  BNZ d   1       2.929   0.667   0.464  0.00  0.00     0.000 A 
ATOM      3  C3  BNZ d   1       2.168   1.728   0.869  0.00  0.00     0.000 A 
ATOM      4  C4  BNZ d   1       1.513   1.663   2.046  0.00  0.00     0.000 A 
ATOM      5  C5  BNZ d   1       1.634   0.550   2.853  0.00  0.00     0.000 A 
ATOM      6  C6  BNZ d   1       2.432  -0.500   2.461  0.00  0.00     0.000 A 
ENDROOT
TORSDOF 0
ENDMDL
