MODEL 1
REMARK minimizedAffinity -1.9133023
REMARK minimizedRMSD -1
REMARK  0 active torsions:
REMARK  status: ('A' for Active; 'I' for Inactive)
ROOT
ATOM      1  C1  BNZ d   1       1.360   0.877   2.486  0.00  0.00     0.000 A 
ATOM      2  C2  BNZ d   1       1.955   1.014   1.260  0.00  0.00     0.000 A 
ATOM      3  C3  BNZ d   1       3.021   0.234   0.908  0.00  0.00     0.000 A 
ATOM      4  C4  BNZ d   1       3.515  -0.652   1.797  0.00  0.00     0.000 A 
ATOM      5  C5  BNZ d   1       2.932  -0.795   3.040  0.00  0.00     0.000 A 
ATOM      6  C6  BNZ d   1       1.835  -0.036   3.376  0.00  0.00     0.000 A 
ENDROOT
TORSDOF 0
ENDMDL
