MODEL 1
REMARK minimizedAffinity 3.27231288
REMARK minimizedRMSD -1
REMARK  0 active torsions:
REMARK  status: ('A' for Active; 'I' for Inactive)
ROOT
ATOM      1  C1  BNZ d   1       4.190   0.189   0.859  0.00  0.00     0.000 A 
ATOM      2  C2  BNZ d   1       4.477   1.485   0.518  0.00  0.00     0.000 A 
ATOM      3  C3  BNZ d   1       3.503   2.444   0.533  0.00  0.00     0.000 A 
ATOM      4  C4  BNZ d   1       2.238   2.100   0.850  0.00  0.00     0.000 A 
ATOM      5  C5  BNZ d   1       1.932   0.796   1.187  0.00  0.00     0.000 A 
ATOM      6  C6  BNZ d   1       2.922  -0.159   1.208  0.00  0.00     0.000 A 
ENDROOT
TORSDOF 0
ENDMDL
