MODEL 1
REMARK minimizedAffinity 5.37008572
REMARK minimizedRMSD -1
REMARK  0 active torsions:
REMARK  status: ('A' for Active; 'I' for Inactive)
ROOT
ATOM      1  C1  BNZ d   1      -5.569   6.000   4.366  0.00  0.00     0.000 A 
ATOM      2  C2  BNZ d   1      -6.000   5.995   3.066  0.00  0.00     0.000 A 
ATOM      3  C3  BNZ d   1      -5.784   4.911   2.261  0.00  0.00     0.000 A 
ATOM      4  C4  BNZ d   1      -5.104   3.851   2.744  0.00  0.00     0.000 A 
ATOM      5  C5  BNZ d   1      -4.656   3.845   4.050  0.00  0.00     0.000 A 
ATOM      6  C6  BNZ d   1      -4.908   4.921   4.869  0.00  0.00     0.000 A 
ENDROOT
TORSDOF 0
ENDMDL
