MODEL 1
REMARK minimizedAffinity 0.200001374
REMARK minimizedRMSD -1
REMARK  0 active torsions:
REMARK  status: ('A' for Active; 'I' for Inactive)
ROOT
ATOM      1  C1  BNZ d   1       1.822  -0.685   0.937  0.00  0.00     0.000 A 
ATOM      2  C2  BNZ d   1       3.040  -0.710   0.312  0.00  0.00     0.000 A 
ATOM      3  C3  BNZ d   1       3.517   0.395  -0.336  0.00  0.00     0.000 A 
ATOM      4  C4  BNZ d   1       2.759   1.509  -0.392  0.00  0.00     0.000 A 
ATOM      5  C5  BNZ d   1       1.524   1.547   0.225  0.00  0.00     0.000 A 
ATOM      6  C6  BNZ d   1       1.065   0.445   0.910  0.00  0.00     0.000 A 
ENDROOT
TORSDOF 0
ENDMDL
