MODEL 1
REMARK minimizedAffinity 3.93549275
REMARK minimizedRMSD -1
REMARK  0 active torsions:
REMARK  status: ('A' for Active; 'I' for Inactive)
ROOT
ATOM      1  C1  BNZ d   1       0.939   1.049   2.429  0.00  0.00     0.000 A 
ATOM      2  C2  BNZ d   1       1.286   1.434   1.162  0.00  0.00     0.000 A 
ATOM      3  C3  BNZ d   1       2.424   0.960   0.573  0.00  0.00     0.000 A 
ATOM      4  C4  BNZ d   1       3.234   0.134   1.266  0.00  0.00     0.000 A 
ATOM      5  C5  BNZ d   1       2.903  -0.256   2.548  0.00  0.00     0.000 A 
ATOM      6  C6  BNZ d   1       1.737   0.193   3.123  0.00  0.00     0.000 A 
ENDROOT
TORSDOF 0
ENDMDL
