MODEL 1
REMARK minimizedAffinity 4.84187174
REMARK minimizedRMSD -1
REMARK  0 active torsions:
REMARK  status: ('A' for Active; 'I' for Inactive)
ROOT
ATOM      1  C1  BNZ d   1      -1.790  -5.996   1.950  0.00  0.00     0.000 A 
ATOM      2  C2  BNZ d   1      -1.039  -4.855   2.051  0.00  0.00     0.000 A 
ATOM      3  C3  BNZ d   1      -1.463  -3.686   1.484  0.00  0.00     0.000 A 
ATOM      4  C4  BNZ d   1      -2.615  -3.668   0.784  0.00  0.00     0.000 A 
ATOM      5  C5  BNZ d   1      -3.379  -4.812   0.666  0.00  0.00     0.000 A 
ATOM      6  C6  BNZ d   1      -2.969  -5.978   1.271  0.00  0.00     0.000 A 
ENDROOT
TORSDOF 0
ENDMDL
