MODEL 1
REMARK minimizedAffinity 2.84644508
REMARK minimizedRMSD -1
REMARK  0 active torsions:
REMARK  status: ('A' for Active; 'I' for Inactive)
ROOT
ATOM      1  C1  BNZ d   1      -2.268  -4.071  -4.158  0.00  0.00     0.000 A 
ATOM      2  C2  BNZ d   1      -3.125  -3.578  -3.210  0.00  0.00     0.000 A 
ATOM      3  C3  BNZ d   1      -2.661  -3.170  -1.991  0.00  0.00     0.000 A 
ATOM      4  C4  BNZ d   1      -1.349  -3.292  -1.706  0.00  0.00     0.000 A 
ATOM      5  C5  BNZ d   1      -0.473  -3.795  -2.647  0.00  0.00     0.000 A 
ATOM      6  C6  BNZ d   1      -0.938  -4.169  -3.888  0.00  0.00     0.000 A 
ENDROOT
TORSDOF 0
ENDMDL
