MODEL 1
REMARK minimizedAffinity 10.3794622
REMARK minimizedRMSD -1
REMARK  0 active torsions:
REMARK  status: ('A' for Active; 'I' for Inactive)
ROOT
ATOM      1  O1  BZF d   1      -5.996   2.375   2.218  0.00  0.00    -0.204 OA
ATOM      2  C2  BZF d   1      -5.454   3.601   1.884  0.00  0.00     0.174 A 
ATOM      3  C3  BZF d   1      -4.148   3.653   2.214  0.00  0.00    -0.012 A 
ATOM      4  C3A BZF d   1      -3.831   2.347   2.706  0.00  0.00    -0.107 A 
ATOM      5  C4  BZF d   1      -2.684   1.772   3.173  0.00  0.00     0.055 A 
ATOM      6  C5  BZF d   1      -2.729   0.499   3.646  0.00  0.00    -0.016 A 
ATOM      7  C6  BZF d   1      -3.902  -0.226   3.670  0.00  0.00     0.022 A 
ATOM      8  C7  BZF d   1      -5.065   0.300   3.212  0.00  0.00     0.029 A 
ATOM      9  C7A BZF d   1      -5.016   1.575   2.704  0.00  0.00     0.058 A 
ENDROOT
TORSDOF 0
ENDMDL
