MODEL 1
REMARK minimizedAffinity 10.696804
REMARK minimizedRMSD -1
REMARK  0 active torsions:
REMARK  status: ('A' for Active; 'I' for Inactive)
ROOT
ATOM      1  O1  BZF d   1      -1.150   3.895   4.446  0.00  0.00    -0.204 OA
ATOM      2  C2  BZF d   1      -1.524   5.196   4.168  0.00  0.00     0.174 A 
ATOM      3  C3  BZF d   1      -2.297   5.245   3.064  0.00  0.00    -0.012 A 
ATOM      4  C3A BZF d   1      -2.490   3.881   2.678  0.00  0.00    -0.107 A 
ATOM      5  C4  BZF d   1      -3.181   3.280   1.664  0.00  0.00     0.055 A 
ATOM      6  C5  BZF d   1      -3.106   1.931   1.523  0.00  0.00    -0.016 A 
ATOM      7  C6  BZF d   1      -2.347   1.153   2.372  0.00  0.00     0.022 A 
ATOM      8  C7  BZF d   1      -1.648   1.703   3.395  0.00  0.00     0.029 A 
ATOM      9  C7A BZF d   1      -1.748   3.062   3.561  0.00  0.00     0.058 A 
ENDROOT
TORSDOF 0
ENDMDL
