MODEL 1
REMARK minimizedAffinity 22.2598305
REMARK minimizedRMSD -1
REMARK  0 active torsions:
REMARK  status: ('A' for Active; 'I' for Inactive)
ROOT
ATOM      1  O1  BZF d   1      -5.218   5.697   3.649  0.00  0.00    -0.204 OA
ATOM      2  C2  BZF d   1      -4.973   5.484   2.307  0.00  0.00     0.174 A 
ATOM      3  C3  BZF d   1      -3.647   5.461   2.061  0.00  0.00    -0.012 A 
ATOM      4  C3A BZF d   1      -3.024   5.581   3.343  0.00  0.00    -0.107 A 
ATOM      5  C4  BZF d   1      -1.722   5.606   3.756  0.00  0.00     0.055 A 
ATOM      6  C5  BZF d   1      -1.451   5.809   5.072  0.00  0.00    -0.016 A 
ATOM      7  C6  BZF d   1      -2.454   5.997   6.000  0.00  0.00     0.022 A 
ATOM      8  C7  BZF d   1      -3.760   5.976   5.639  0.00  0.00     0.029 A 
ATOM      9  C7A BZF d   1      -4.039   5.738   4.315  0.00  0.00     0.058 A 
ENDROOT
TORSDOF 0
ENDMDL
