MODEL 1
REMARK minimizedAffinity 9.97969246
REMARK minimizedRMSD -1
REMARK  0 active torsions:
REMARK  status: ('A' for Active; 'I' for Inactive)
ROOT
ATOM      1  O1  BZF d   1      -2.637   3.281   1.354  0.00  0.00    -0.204 OA
ATOM      2  C2  BZF d   1      -2.616   3.569   2.705  0.00  0.00     0.174 A 
ATOM      3  C3  BZF d   1      -2.707   2.440   3.437  0.00  0.00    -0.012 A 
ATOM      4  C3A BZF d   1      -2.697   1.373   2.484  0.00  0.00    -0.107 A 
ATOM      5  C4  BZF d   1      -2.747   0.013   2.597  0.00  0.00     0.055 A 
ATOM      6  C5  BZF d   1      -2.792  -0.743   1.469  0.00  0.00    -0.016 A 
ATOM      7  C6  BZF d   1      -2.795  -0.172   0.213  0.00  0.00     0.022 A 
ATOM      8  C7  BZF d   1      -2.741   1.172   0.050  0.00  0.00     0.029 A 
ATOM      9  C7A BZF d   1      -2.662   1.937   1.188  0.00  0.00     0.058 A 
ENDROOT
TORSDOF 0
ENDMDL
