MODEL 1
REMARK minimizedAffinity 2.50256181
REMARK minimizedRMSD -1
REMARK  0 active torsions:
REMARK  status: ('A' for Active; 'I' for Inactive)
ROOT
ATOM      1  O1  BZF d   1       4.448   5.171  -1.822  0.00  0.00    -0.204 OA
ATOM      2  C2  BZF d   1       3.153   5.626  -1.979  0.00  0.00     0.174 A 
ATOM      3  C3  BZF d   1       2.620   5.971  -0.789  0.00  0.00    -0.012 A 
ATOM      4  C3A BZF d   1       3.677   5.802   0.160  0.00  0.00    -0.107 A 
ATOM      5  C4  BZF d   1       3.769   6.000   1.508  0.00  0.00     0.055 A 
ATOM      6  C5  BZF d   1       4.922   5.670   2.147  0.00  0.00    -0.016 A 
ATOM      7  C6  BZF d   1       6.000   5.137   1.471  0.00  0.00     0.022 A 
ATOM      8  C7  BZF d   1       5.957   4.927   0.133  0.00  0.00     0.029 A 
ATOM      9  C7A BZF d   1       4.805   5.290  -0.521  0.00  0.00     0.058 A 
ENDROOT
TORSDOF 0
ENDMDL
