MODEL 1
REMARK minimizedAffinity 10.8719139
REMARK minimizedRMSD -1
REMARK  0 active torsions:
REMARK  status: ('A' for Active; 'I' for Inactive)
ROOT
ATOM      1  O1  BZF d   1       5.909   5.098   4.690  0.00  0.00    -0.204 OA
ATOM      2  C2  BZF d   1       4.953   5.661   5.513  0.00  0.00     0.174 A 
ATOM      3  C3  BZF d   1       3.854   5.999   4.807  0.00  0.00    -0.012 A 
ATOM      4  C3A BZF d   1       4.105   5.539   3.476  0.00  0.00    -0.107 A 
ATOM      5  C4  BZF d   1       3.379   5.569   2.319  0.00  0.00     0.055 A 
ATOM      6  C5  BZF d   1       3.941   5.101   1.174  0.00  0.00    -0.016 A 
ATOM      7  C6  BZF d   1       5.227   4.601   1.148  0.00  0.00     0.022 A 
ATOM      8  C7  BZF d   1       5.984   4.546   2.271  0.00  0.00     0.029 A 
ATOM      9  C7A BZF d   1       5.407   4.988   3.436  0.00  0.00     0.058 A 
ENDROOT
TORSDOF 0
ENDMDL
