MODEL 1
REMARK minimizedAffinity 13.1732616
REMARK minimizedRMSD -1
REMARK  0 active torsions:
REMARK  status: ('A' for Active; 'I' for Inactive)
ROOT
ATOM      1  O1  BZF d   1      -1.580   1.172   2.650  0.00  0.00    -0.204 OA
ATOM      2  C2  BZF d   1      -2.463   0.519   3.488  0.00  0.00     0.174 A 
ATOM      3  C3  BZF d   1      -3.079  -0.491   2.840  0.00  0.00    -0.012 A 
ATOM      4  C3A BZF d   1      -2.479  -0.526   1.542  0.00  0.00    -0.107 A 
ATOM      5  C4  BZF d   1      -2.658  -1.321   0.446  0.00  0.00     0.055 A 
ATOM      6  C5  BZF d   1      -1.966  -1.046  -0.690  0.00  0.00    -0.016 A 
ATOM      7  C6  BZF d   1      -1.092   0.019  -0.768  0.00  0.00     0.022 A 
ATOM      8  C7  BZF d   1      -0.878   0.833   0.294  0.00  0.00     0.029 A 
ATOM      9  C7A BZF d   1      -1.551   0.537   1.454  0.00  0.00     0.058 A 
ENDROOT
TORSDOF 0
ENDMDL
