MODEL 1
REMARK minimizedAffinity 11.6165447
REMARK minimizedRMSD -1
REMARK  0 active torsions:
REMARK  status: ('A' for Active; 'I' for Inactive)
ROOT
ATOM      1  O1  BZF d   1      -5.061   2.070   2.225  0.00  0.00    -0.204 OA
ATOM      2  C2  BZF d   1      -6.000   1.111   1.896  0.00  0.00     0.174 A 
ATOM      3  C3  BZF d   1      -5.425  -0.103   1.784  0.00  0.00    -0.012 A 
ATOM      4  C3A BZF d   1      -4.056   0.093   2.151  0.00  0.00    -0.107 A 
ATOM      5  C4  BZF d   1      -2.982  -0.744   2.252  0.00  0.00     0.055 A 
ATOM      6  C5  BZF d   1      -1.766  -0.224   2.566  0.00  0.00    -0.016 A 
ATOM      7  C6  BZF d   1      -1.588   1.127   2.780  0.00  0.00     0.022 A 
ATOM      8  C7  BZF d   1      -2.625   1.996   2.696  0.00  0.00     0.029 A 
ATOM      9  C7A BZF d   1      -3.861   1.469   2.412  0.00  0.00     0.058 A 
ENDROOT
TORSDOF 0
ENDMDL
