MODEL 1
REMARK minimizedAffinity 17.3989315
REMARK minimizedRMSD -1
REMARK  0 active torsions:
REMARK  status: ('A' for Active; 'I' for Inactive)
ROOT
ATOM      1  O1  BZF d   1      -1.883   0.570   4.073  0.00  0.00    -0.204 OA
ATOM      2  C2  BZF d   1      -1.923   0.816   2.714  0.00  0.00     0.174 A 
ATOM      3  C3  BZF d   1      -3.105   0.430   2.192  0.00  0.00    -0.012 A 
ATOM      4  C3A BZF d   1      -3.885  -0.005   3.309  0.00  0.00    -0.107 A 
ATOM      5  C4  BZF d   1      -5.156  -0.490   3.435  0.00  0.00     0.055 A 
ATOM      6  C5  BZF d   1      -5.591  -0.892   4.658  0.00  0.00    -0.016 A 
ATOM      7  C6  BZF d   1      -4.782  -0.829   5.774  0.00  0.00     0.022 A 
ATOM      8  C7  BZF d   1      -3.516  -0.351   5.699  0.00  0.00     0.029 A 
ATOM      9  C7A BZF d   1      -3.085   0.087   4.471  0.00  0.00     0.058 A 
ENDROOT
TORSDOF 0
ENDMDL
