MODEL 1
REMARK minimizedAffinity 8.98653984
REMARK minimizedRMSD -1
REMARK  0 active torsions:
REMARK  status: ('A' for Active; 'I' for Inactive)
ROOT
ATOM      1  O1  BZF d   1      -0.083   1.347  -3.017  0.00  0.00    -0.204 OA
ATOM      2  C2  BZF d   1       0.857   0.347  -3.175  0.00  0.00     0.174 A 
ATOM      3  C3  BZF d   1       0.607  -0.681  -2.338  0.00  0.00    -0.012 A 
ATOM      4  C3A BZF d   1      -0.616  -0.339  -1.677  0.00  0.00    -0.107 A 
ATOM      5  C4  BZF d   1      -1.385  -0.970  -0.741  0.00  0.00     0.055 A 
ATOM      6  C5  BZF d   1      -2.480  -0.334  -0.250  0.00  0.00    -0.016 A 
ATOM      7  C6  BZF d   1      -2.833   0.933  -0.667  0.00  0.00     0.022 A 
ATOM      8  C7  BZF d   1      -2.104   1.596  -1.597  0.00  0.00     0.029 A 
ATOM      9  C7A BZF d   1      -1.015   0.943  -2.120  0.00  0.00     0.058 A 
ENDROOT
TORSDOF 0
ENDMDL
