MODEL 1
REMARK minimizedAffinity 11.3575859
REMARK minimizedRMSD -1
REMARK  0 active torsions:
REMARK  status: ('A' for Active; 'I' for Inactive)
ROOT
ATOM      1  O1  BZF d   1      -1.639   0.470  -1.600  0.00  0.00    -0.204 OA
ATOM      2  C2  BZF d   1      -0.935   1.605  -1.954  0.00  0.00     0.174 A 
ATOM      3  C3  BZF d   1       0.364   1.314  -2.167  0.00  0.00    -0.012 A 
ATOM      4  C3A BZF d   1       0.461  -0.106  -2.022  0.00  0.00    -0.107 A 
ATOM      5  C4  BZF d   1       1.494  -0.993  -2.132  0.00  0.00     0.055 A 
ATOM      6  C5  BZF d   1       1.270  -2.305  -1.857  0.00  0.00    -0.016 A 
ATOM      7  C6  BZF d   1       0.029  -2.763  -1.466  0.00  0.00     0.022 A 
ATOM      8  C7  BZF d   1      -1.028  -1.922  -1.348  0.00  0.00     0.029 A 
ATOM      9  C7A BZF d   1      -0.812  -0.601  -1.657  0.00  0.00     0.058 A 
ENDROOT
TORSDOF 0
ENDMDL
