MODEL 1
REMARK minimizedAffinity 12.9146709
REMARK minimizedRMSD -1
REMARK  0 active torsions:
REMARK  status: ('A' for Active; 'I' for Inactive)
ROOT
ATOM      1  O1  BZF d   1       3.023   5.588  -2.088  0.00  0.00    -0.204 OA
ATOM      2  C2  BZF d   1       2.195   6.000  -3.114  0.00  0.00     0.174 A 
ATOM      3  C3  BZF d   1       1.367   5.003  -3.489  0.00  0.00    -0.012 A 
ATOM      4  C3A BZF d   1       1.636   3.929  -2.582  0.00  0.00    -0.107 A 
ATOM      5  C4  BZF d   1       1.120   2.673  -2.436  0.00  0.00     0.055 A 
ATOM      6  C5  BZF d   1       1.653   1.846  -1.498  0.00  0.00    -0.016 A 
ATOM      7  C6  BZF d   1       2.703   2.240  -0.695  0.00  0.00     0.022 A 
ATOM      8  C7  BZF d   1       3.244   3.478  -0.800  0.00  0.00     0.029 A 
ATOM      9  C7A BZF d   1       2.687   4.328  -1.724  0.00  0.00     0.058 A 
ENDROOT
TORSDOF 0
ENDMDL
