MODEL 1
REMARK minimizedAffinity 6.84756279
REMARK minimizedRMSD -1
REMARK  0 active torsions:
REMARK  status: ('A' for Active; 'I' for Inactive)
ROOT
ATOM      1  O1  BZF d   1      -2.107   0.425   4.168  0.00  0.00    -0.204 OA
ATOM      2  C2  BZF d   1      -1.858   0.633   2.825  0.00  0.00     0.174 A 
ATOM      3  C3  BZF d   1      -2.953   0.361   2.088  0.00  0.00    -0.012 A 
ATOM      4  C3A BZF d   1      -3.977   0.047   3.036  0.00  0.00    -0.107 A 
ATOM      5  C4  BZF d   1      -5.295  -0.294   2.917  0.00  0.00     0.055 A 
ATOM      6  C5  BZF d   1      -5.999  -0.610   4.036  0.00  0.00    -0.016 A 
ATOM      7  C6  BZF d   1      -5.417  -0.601   5.287  0.00  0.00     0.022 A 
ATOM      8  C7  BZF d   1      -4.114  -0.265   5.455  0.00  0.00     0.029 A 
ATOM      9  C7A BZF d   1      -3.409   0.087   4.330  0.00  0.00     0.058 A 
ENDROOT
TORSDOF 0
ENDMDL
