MODEL 1
REMARK minimizedAffinity -0.878609776
REMARK minimizedRMSD -1
REMARK  0 active torsions:
REMARK  status: ('A' for Active; 'I' for Inactive)
ROOT
ATOM      1  O1  BZF d   1      -3.568   0.326   2.760  0.00  0.00    -0.204 OA
ATOM      2  C2  BZF d   1      -2.203   0.419   2.570  0.00  0.00     0.174 A 
ATOM      3  C3  BZF d   1      -1.844  -0.138   1.395  0.00  0.00    -0.012 A 
ATOM      4  C3A BZF d   1      -3.072  -0.526   0.772  0.00  0.00    -0.107 A 
ATOM      5  C4  BZF d   1      -3.373  -1.119  -0.421  0.00  0.00     0.055 A 
ATOM      6  C5  BZF d   1      -4.668  -1.429  -0.696  0.00  0.00    -0.016 A 
ATOM      7  C6  BZF d   1      -5.683  -1.165   0.199  0.00  0.00     0.022 A 
ATOM      8  C7  BZF d   1      -5.434  -0.574   1.393  0.00  0.00     0.029 A 
ATOM      9  C7A BZF d   1      -4.132  -0.230   1.660  0.00  0.00     0.058 A 
ENDROOT
TORSDOF 0
ENDMDL
