MODEL 1
REMARK minimizedAffinity 5.38332605
REMARK minimizedRMSD -1
REMARK  0 active torsions:
REMARK  status: ('A' for Active; 'I' for Inactive)
ROOT
ATOM      1  O1  BZF d   1      -2.844   1.443   4.550  0.00  0.00    -0.204 OA
ATOM      2  C2  BZF d   1      -2.120   1.510   3.376  0.00  0.00     0.174 A 
ATOM      3  C3  BZF d   1      -2.725   0.804   2.399  0.00  0.00    -0.012 A 
ATOM      4  C3A BZF d   1      -3.949   0.338   2.975  0.00  0.00    -0.107 A 
ATOM      5  C4  BZF d   1      -4.990  -0.406   2.496  0.00  0.00     0.055 A 
ATOM      6  C5  BZF d   1      -6.000  -0.748   3.338  0.00  0.00    -0.016 A 
ATOM      7  C6  BZF d   1      -6.000  -0.370   4.664  0.00  0.00     0.022 A 
ATOM      8  C7  BZF d   1      -4.992   0.372   5.184  0.00  0.00     0.029 A 
ATOM      9  C7A BZF d   1      -3.986   0.748   4.328  0.00  0.00     0.058 A 
ENDROOT
TORSDOF 0
ENDMDL
