MODEL 1
REMARK minimizedAffinity 3.72776461
REMARK minimizedRMSD -1
REMARK  0 active torsions:
REMARK  status: ('A' for Active; 'I' for Inactive)
ROOT
ATOM      1  C   UNL d   1      -3.785  -1.495   3.488  0.00  0.00     0.172 C 
ATOM      2  N   UNL d   1      -2.570  -0.856   3.040  0.00  0.00    -0.070 N 
ATOM      3  C1  UNL d   1      -1.308  -1.134   3.492  0.00  0.00    -0.004 A 
ATOM      4  C2  UNL d   1      -0.428  -0.314   2.819  0.00  0.00    -0.047 A 
ATOM      5  C3  UNL d   1      -1.188   0.486   1.933  0.00  0.00    -0.047 A 
ATOM      6  C4  UNL d   1      -2.511   0.130   2.090  0.00  0.00    -0.004 A 
ENDROOT
TORSDOF 0
ENDMDL
