MODEL 1
REMARK minimizedAffinity 0.066930674
REMARK minimizedRMSD -1
REMARK  0 active torsions:
REMARK  status: ('A' for Active; 'I' for Inactive)
ROOT
ATOM      1  C   UNL d   1       3.526   3.007   2.624  0.00  0.00     0.172 C 
ATOM      2  N   UNL d   1       4.358   4.151   2.331  0.00  0.00    -0.070 N 
ATOM      3  C1  UNL d   1       5.501   4.500   3.000  0.00  0.00    -0.004 A 
ATOM      4  C2  UNL d   1       5.997   5.646   2.418  0.00  0.00    -0.047 A 
ATOM      5  C3  UNL d   1       5.121   6.000   1.364  0.00  0.00    -0.047 A 
ATOM      6  C4  UNL d   1       4.115   5.057   1.333  0.00  0.00    -0.004 A 
ENDROOT
TORSDOF 0
ENDMDL
