MODEL 1
REMARK minimizedAffinity -1.40333557
REMARK minimizedRMSD -1
REMARK  0 active torsions:
REMARK  status: ('A' for Active; 'I' for Inactive)
ROOT
ATOM      1  C   UNL d   1      -2.256  -0.220   2.873  0.00  0.00     0.172 C 
ATOM      2  N   UNL d   1      -1.557  -0.396   1.623  0.00  0.00    -0.070 N 
ATOM      3  C1  UNL d   1      -2.132  -0.729   0.426  0.00  0.00    -0.004 A 
ATOM      4  C2  UNL d   1      -1.131  -0.799  -0.519  0.00  0.00    -0.047 A 
ATOM      5  C3  UNL d   1       0.088  -0.498   0.133  0.00  0.00    -0.047 A 
ATOM      6  C4  UNL d   1      -0.204  -0.252   1.458  0.00  0.00    -0.004 A 
ENDROOT
TORSDOF 0
ENDMDL
