MODEL 1
REMARK minimizedAffinity -0.325649828
REMARK minimizedRMSD -1
REMARK  0 active torsions:
REMARK  status: ('A' for Active; 'I' for Inactive)
ROOT
ATOM      1  C   UNL d   1      -0.566  -0.385   3.636  0.00  0.00     0.172 C 
ATOM      2  N   UNL d   1      -0.999  -0.283   2.262  0.00  0.00    -0.070 N 
ATOM      3  C1  UNL d   1      -0.187  -0.354   1.162  0.00  0.00    -0.004 A 
ATOM      4  C2  UNL d   1      -0.979  -0.213   0.043  0.00  0.00    -0.047 A 
ATOM      5  C3  UNL d   1      -2.313  -0.050   0.486  0.00  0.00    -0.047 A 
ATOM      6  C4  UNL d   1      -2.296  -0.097   1.864  0.00  0.00    -0.004 A 
ENDROOT
TORSDOF 0
ENDMDL
