MODEL 1
REMARK minimizedAffinity 2.08523631
REMARK minimizedRMSD -1
REMARK  0 active torsions:
REMARK  status: ('A' for Active; 'I' for Inactive)
ROOT
ATOM      1  C   UNL d   1       3.006   0.104  -0.921  0.00  0.00     0.172 C 
ATOM      2  N   UNL d   1       3.119   0.877  -2.135  0.00  0.00    -0.070 N 
ATOM      3  C1  UNL d   1       2.462   0.621  -3.309  0.00  0.00    -0.004 A 
ATOM      4  C2  UNL d   1       2.837   1.583  -4.222  0.00  0.00    -0.047 A 
ATOM      5  C3  UNL d   1       3.752   2.447  -3.574  0.00  0.00    -0.047 A 
ATOM      6  C4  UNL d   1       3.909   1.987  -2.284  0.00  0.00    -0.004 A 
ENDROOT
TORSDOF 0
ENDMDL
