MODEL 1
REMARK minimizedAffinity 0.943692029
REMARK minimizedRMSD -1
REMARK  0 active torsions:
REMARK  status: ('A' for Active; 'I' for Inactive)
ROOT
ATOM      1  C   UNL d   1       0.177  -1.460   3.852  0.00  0.00     0.172 C 
ATOM      2  N   UNL d   1      -0.555  -1.039   2.681  0.00  0.00    -0.070 N 
ATOM      3  C1  UNL d   1      -1.860  -0.623   2.662  0.00  0.00    -0.004 A 
ATOM      4  C2  UNL d   1      -2.185  -0.310   1.360  0.00  0.00    -0.047 A 
ATOM      5  C3  UNL d   1      -1.036  -0.546   0.569  0.00  0.00    -0.047 A 
ATOM      6  C4  UNL d   1      -0.042  -0.997   1.412  0.00  0.00    -0.004 A 
ENDROOT
TORSDOF 0
ENDMDL
