MODEL 1
REMARK minimizedAffinity -0.720461249
REMARK minimizedRMSD -1
REMARK  0 active torsions:
REMARK  status: ('A' for Active; 'I' for Inactive)
ROOT
ATOM      1  C   UNL d   1      -0.072  -0.893   4.077  0.00  0.00     0.172 C 
ATOM      2  N   UNL d   1      -0.704  -0.523   2.833  0.00  0.00    -0.070 N 
ATOM      3  C1  UNL d   1      -2.052  -0.404   2.626  0.00  0.00    -0.004 A 
ATOM      4  C2  UNL d   1      -2.248  -0.035   1.313  0.00  0.00    -0.047 A 
ATOM      5  C3  UNL d   1      -0.972   0.070   0.709  0.00  0.00    -0.047 A 
ATOM      6  C4  UNL d   1      -0.035  -0.237   1.672  0.00  0.00    -0.004 A 
ENDROOT
TORSDOF 0
ENDMDL
