MODEL 1
REMARK minimizedAffinity -3.90161085
REMARK minimizedRMSD -1
REMARK  3 active torsions:
REMARK  status: ('A' for Active; 'I' for Inactive)
REMARK    1  A    between atoms: C3'_2  and  C2'_3 
REMARK    2  A    between atoms: C2'_3  and  C1'_4 
REMARK    3  A    between atoms: C1'_4  and  C1_5 
ROOT
ATOM      1  C1  N4B d   1      -0.602  -0.451   0.404  0.00  0.00    -0.075 A 
ATOM      2  C2  N4B d   1      -0.124  -1.699  -0.053  0.00  0.00     0.002 A 
ATOM      3  C3  N4B d   1       0.996  -1.756  -0.846  0.00  0.00     0.002 A 
ATOM      4  C4  N4B d   1       1.641  -0.583  -1.208  0.00  0.00    -0.004 A 
ATOM      5  C5  N4B d   1       1.187   0.616  -0.742  0.00  0.00     0.002 A 
ATOM      6  C6  N4B d   1       0.065   0.688   0.059  0.00  0.00     0.002 A 
ENDROOT
BRANCH   1   7
ATOM      7  C1' N4B d   1      -1.872  -0.331   1.202  0.00  0.00     0.057 C 
BRANCH   7   8
ATOM      8  C2' N4B d   1      -1.752   0.852   2.158  0.00  0.00     0.009 C 
BRANCH   8   9
ATOM      9  C3' N4B d   1      -3.054   1.628   2.268  0.00  0.00     0.004 C 
ATOM     10  C4' N4B d   1      -4.257   0.790   1.956  0.00  0.00     0.003 C 
ENDBRANCH   8   9
ENDBRANCH   7   8
ENDBRANCH   1   7
TORSDOF 3
ENDMDL
