MODEL 1
REMARK minimizedAffinity -2.6928401
REMARK minimizedRMSD -1
REMARK  3 active torsions:
REMARK  status: ('A' for Active; 'I' for Inactive)
REMARK    1  A    between atoms: C3'_2  and  C2'_3 
REMARK    2  A    between atoms: C2'_3  and  C1'_4 
REMARK    3  A    between atoms: C1'_4  and  C1_5 
ROOT
ATOM      1  C1  N4B d   1      -0.089  -0.409   0.493  0.00  0.00    -0.075 A 
ATOM      2  C2  N4B d   1       0.177  -1.772   0.235  0.00  0.00     0.002 A 
ATOM      3  C3  N4B d   1       1.159  -2.123  -0.658  0.00  0.00     0.002 A 
ATOM      4  C4  N4B d   1       1.872  -1.133  -1.318  0.00  0.00    -0.004 A 
ATOM      5  C5  N4B d   1       1.626   0.181  -1.044  0.00  0.00     0.002 A 
ATOM      6  C6  N4B d   1       0.645   0.548  -0.145  0.00  0.00     0.002 A 
ENDROOT
BRANCH   1   7
ATOM      7  C1' N4B d   1      -1.211   0.024   1.397  0.00  0.00     0.057 C 
BRANCH   7   8
ATOM      8  C2' N4B d   1      -2.543  -0.371   0.767  0.00  0.00     0.009 C 
BRANCH   8   9
ATOM      9  C3' N4B d   1      -3.718   0.308   1.450  0.00  0.00     0.004 C 
ATOM     10  C4' N4B d   1      -3.586   1.801   1.484  0.00  0.00     0.003 C 
ENDBRANCH   8   9
ENDBRANCH   7   8
ENDBRANCH   1   7
TORSDOF 3
ENDMDL
