MODEL 1
REMARK minimizedAffinity -1.24821115
REMARK minimizedRMSD -1
REMARK  3 active torsions:
REMARK  status: ('A' for Active; 'I' for Inactive)
REMARK    1  A    between atoms: C3'_2  and  C2'_3 
REMARK    2  A    between atoms: C2'_3  and  C1'_4 
REMARK    3  A    between atoms: C1'_4  and  C1_5 
ROOT
ATOM      1  C1  N4B d   1      -2.795   1.810  -5.390  0.00  0.00    -0.075 A 
ATOM      2  C2  N4B d   1      -3.897   2.548  -5.875  0.00  0.00     0.002 A 
ATOM      3  C3  N4B d   1      -3.813   3.915  -5.985  0.00  0.00     0.002 A 
ATOM      4  C4  N4B d   1      -2.649   4.563  -5.601  0.00  0.00    -0.004 A 
ATOM      5  C5  N4B d   1      -1.580   3.841  -5.158  0.00  0.00     0.002 A 
ATOM      6  C6  N4B d   1      -1.649   2.467  -5.046  0.00  0.00     0.002 A 
ENDROOT
BRANCH   1   7
ATOM      7  C1' N4B d   1      -2.870   0.324  -5.171  0.00  0.00     0.057 C 
BRANCH   7   8
ATOM      8  C2' N4B d   1      -4.309  -0.141  -5.374  0.00  0.00     0.009 C 
BRANCH   8   9
ATOM      9  C3' N4B d   1      -4.657  -1.318  -4.479  0.00  0.00     0.004 C 
ATOM     10  C4' N4B d   1      -5.032  -2.546  -5.255  0.00  0.00     0.003 C 
ENDBRANCH   8   9
ENDBRANCH   7   8
ENDBRANCH   1   7
TORSDOF 3
ENDMDL
