MODEL 1
REMARK minimizedAffinity 1.85127568
REMARK minimizedRMSD -1
REMARK  3 active torsions:
REMARK  status: ('A' for Active; 'I' for Inactive)
REMARK    1  A    between atoms: C3'_2  and  C2'_3 
REMARK    2  A    between atoms: C2'_3  and  C1'_4 
REMARK    3  A    between atoms: C1'_4  and  C1_5 
ROOT
ATOM      1  C1  N4B d   1       1.156  -0.943  -1.435  0.00  0.00    -0.075 A 
ATOM      2  C2  N4B d   1       0.962  -0.549  -2.777  0.00  0.00     0.002 A 
ATOM      3  C3  N4B d   1       1.285   0.726  -3.172  0.00  0.00     0.002 A 
ATOM      4  C4  N4B d   1       1.784   1.626  -2.242  0.00  0.00    -0.004 A 
ATOM      5  C5  N4B d   1       1.993   1.230  -0.954  0.00  0.00     0.002 A 
ATOM      6  C6  N4B d   1       1.676  -0.050  -0.544  0.00  0.00     0.002 A 
ENDROOT
BRANCH   1   7
ATOM      7  C1' N4B d   1       0.737  -2.299  -0.937  0.00  0.00     0.057 C 
BRANCH   7   8
ATOM      8  C2' N4B d   1      -0.094  -2.132   0.331  0.00  0.00     0.009 C 
BRANCH   8   9
ATOM      9  C3' N4B d   1      -1.390  -2.923   0.269  0.00  0.00     0.004 C 
ATOM     10  C4' N4B d   1      -2.409  -2.299  -0.637  0.00  0.00     0.003 C 
ENDBRANCH   8   9
ENDBRANCH   7   8
ENDBRANCH   1   7
TORSDOF 3
ENDMDL
