MODEL 1
REMARK minimizedAffinity 9.57370663
REMARK minimizedRMSD -1
REMARK  3 active torsions:
REMARK  status: ('A' for Active; 'I' for Inactive)
REMARK    1  A    between atoms: C3'_2  and  C2'_3 
REMARK    2  A    between atoms: C2'_3  and  C1'_4 
REMARK    3  A    between atoms: C1'_4  and  C1_5 
ROOT
ATOM      1  C1  N4B d   1      -3.626   3.191  -5.894  0.00  0.00    -0.075 A 
ATOM      2  C2  N4B d   1      -3.414   4.581  -5.769  0.00  0.00     0.002 A 
ATOM      3  C3  N4B d   1      -4.485   5.441  -5.766  0.00  0.00     0.002 A 
ATOM      4  C4  N4B d   1      -5.770   4.938  -5.905  0.00  0.00    -0.004 A 
ATOM      5  C5  N4B d   1      -5.967   3.591  -5.999  0.00  0.00     0.002 A 
ATOM      6  C6  N4B d   1      -4.901   2.715  -5.999  0.00  0.00     0.002 A 
ENDROOT
BRANCH   1   7
ATOM      7  C1' N4B d   1      -2.482   2.219  -5.988  0.00  0.00     0.057 C 
BRANCH   7   8
ATOM      8  C2' N4B d   1      -1.613   2.345  -4.741  0.00  0.00     0.009 C 
BRANCH   8   9
ATOM      9  C3' N4B d   1      -1.133   0.993  -4.243  0.00  0.00     0.004 C 
ATOM     10  C4' N4B d   1      -1.851   0.541  -3.006  0.00  0.00     0.003 C 
ENDBRANCH   8   9
ENDBRANCH   7   8
ENDBRANCH   1   7
TORSDOF 3
ENDMDL
