MODEL 1
REMARK minimizedAffinity -4.83748436
REMARK minimizedRMSD -1
REMARK  3 active torsions:
REMARK  status: ('A' for Active; 'I' for Inactive)
REMARK    1  A    between atoms: C3'_2  and  C2'_3 
REMARK    2  A    between atoms: C2'_3  and  C1'_4 
REMARK    3  A    between atoms: C1'_4  and  C1_5 
ROOT
ATOM      1  C1  N4B d   1      -1.517  -0.019  -0.511  0.00  0.00    -0.075 A 
ATOM      2  C2  N4B d   1      -1.254   1.333  -0.824  0.00  0.00     0.002 A 
ATOM      3  C3  N4B d   1      -0.016   1.869  -0.570  0.00  0.00     0.002 A 
ATOM      4  C4  N4B d   1       0.967   1.080   0.011  0.00  0.00    -0.004 A 
ATOM      5  C5  N4B d   1       0.713  -0.231   0.286  0.00  0.00     0.002 A 
ATOM      6  C6  N4B d   1      -0.526  -0.784   0.033  0.00  0.00     0.002 A 
ENDROOT
BRANCH   1   7
ATOM      7  C1' N4B d   1      -2.882  -0.625  -0.691  0.00  0.00     0.057 C 
BRANCH   7   8
ATOM      8  C2' N4B d   1      -3.900   0.190   0.101  0.00  0.00     0.009 C 
BRANCH   8   9
ATOM      9  C3' N4B d   1      -3.901  -0.178   1.574  0.00  0.00     0.004 C 
ATOM     10  C4' N4B d   1      -2.954   0.659   2.382  0.00  0.00     0.003 C 
ENDBRANCH   8   9
ENDBRANCH   7   8
ENDBRANCH   1   7
TORSDOF 3
ENDMDL
