MODEL 1
REMARK minimizedAffinity 2.04736447
REMARK minimizedRMSD -1
REMARK  3 active torsions:
REMARK  status: ('A' for Active; 'I' for Inactive)
REMARK    1  A    between atoms: C3'_2  and  C2'_3 
REMARK    2  A    between atoms: C2'_3  and  C1'_4 
REMARK    3  A    between atoms: C1'_4  and  C1_5 
ROOT
ATOM      1  C1  N4B d   1       0.861   1.122   0.373  0.00  0.00    -0.075 A 
ATOM      2  C2  N4B d   1       0.872   0.483  -0.886  0.00  0.00     0.002 A 
ATOM      3  C3  N4B d   1       0.400  -0.801  -1.009  0.00  0.00     0.002 A 
ATOM      4  C4  N4B d   1      -0.069  -1.469   0.112  0.00  0.00    -0.004 A 
ATOM      5  C5  N4B d   1      -0.100  -0.836   1.320  0.00  0.00     0.002 A 
ATOM      6  C6  N4B d   1       0.368   0.455   1.457  0.00  0.00     0.002 A 
ENDROOT
BRANCH   1   7
ATOM      7  C1' N4B d   1       1.447   2.493   0.573  0.00  0.00     0.057 C 
BRANCH   7   8
ATOM      8  C2' N4B d   1       2.969   2.401   0.517  0.00  0.00     0.009 C 
BRANCH   8   9
ATOM      9  C3' N4B d   1       3.472   2.168  -0.898  0.00  0.00     0.004 C 
ATOM     10  C4' N4B d   1       4.927   1.811  -0.945  0.00  0.00     0.003 C 
ENDBRANCH   8   9
ENDBRANCH   7   8
ENDBRANCH   1   7
TORSDOF 3
ENDMDL
