MODEL 1
REMARK minimizedAffinity 3.34716463
REMARK minimizedRMSD -1
REMARK  3 active torsions:
REMARK  status: ('A' for Active; 'I' for Inactive)
REMARK    1  A    between atoms: C3'_2  and  C2'_3 
REMARK    2  A    between atoms: C2'_3  and  C1'_4 
REMARK    3  A    between atoms: C1'_4  and  C1_5 
ROOT
ATOM      1  C1  N4B d   1      -4.596   3.347  -5.743  0.00  0.00    -0.075 A 
ATOM      2  C2  N4B d   1      -3.458   2.542  -5.975  0.00  0.00     0.002 A 
ATOM      3  C3  N4B d   1      -2.207   3.108  -5.982  0.00  0.00     0.002 A 
ATOM      4  C4  N4B d   1      -2.070   4.473  -5.779  0.00  0.00    -0.004 A 
ATOM      5  C5  N4B d   1      -3.171   5.239  -5.531  0.00  0.00     0.002 A 
ATOM      6  C6  N4B d   1      -4.435   4.684  -5.517  0.00  0.00     0.002 A 
ENDROOT
BRANCH   1   7
ATOM      7  C1' N4B d   1      -5.991   2.789  -5.811  0.00  0.00     0.057 C 
BRANCH   7   8
ATOM      8  C2' N4B d   1      -5.916   1.276  -5.997  0.00  0.00     0.009 C 
BRANCH   8   9
ATOM      9  C3' N4B d   1      -5.922   0.539  -4.669  0.00  0.00     0.004 C 
ATOM     10  C4' N4B d   1      -5.609  -0.920  -4.813  0.00  0.00     0.003 C 
ENDBRANCH   8   9
ENDBRANCH   7   8
ENDBRANCH   1   7
TORSDOF 3
ENDMDL
