MODEL 1
REMARK minimizedAffinity 4.20012331
REMARK minimizedRMSD -1
REMARK  3 active torsions:
REMARK  status: ('A' for Active; 'I' for Inactive)
REMARK    1  A    between atoms: C3'_2  and  C2'_3 
REMARK    2  A    between atoms: C2'_3  and  C1'_4 
REMARK    3  A    between atoms: C1'_4  and  C1_5 
ROOT
ATOM      1  C1  N4B d   1       4.136  -1.773  -2.749  0.00  0.00    -0.075 A 
ATOM      2  C2  N4B d   1       4.188  -1.521  -4.137  0.00  0.00     0.002 A 
ATOM      3  C3  N4B d   1       4.614  -2.502  -4.998  0.00  0.00     0.002 A 
ATOM      4  C4  N4B d   1       5.010  -3.732  -4.495  0.00  0.00    -0.004 A 
ATOM      5  C5  N4B d   1       4.933  -3.976  -3.155  0.00  0.00     0.002 A 
ATOM      6  C6  N4B d   1       4.503  -3.001  -2.278  0.00  0.00     0.002 A 
ENDROOT
BRANCH   1   7
ATOM      7  C1' N4B d   1       3.759  -0.704  -1.760  0.00  0.00     0.057 C 
BRANCH   7   8
ATOM      8  C2' N4B d   1       3.010   0.409  -2.488  0.00  0.00     0.009 C 
BRANCH   8   9
ATOM      9  C3' N4B d   1       2.799   1.625  -1.602  0.00  0.00     0.004 C 
ATOM     10  C4' N4B d   1       1.534   1.547  -0.801  0.00  0.00     0.003 C 
ENDBRANCH   8   9
ENDBRANCH   7   8
ENDBRANCH   1   7
TORSDOF 3
ENDMDL
