MODEL 1
REMARK minimizedAffinity -4.91705561
REMARK minimizedRMSD -1
REMARK  3 active torsions:
REMARK  status: ('A' for Active; 'I' for Inactive)
REMARK    1  A    between atoms: C3'_2  and  C2'_3 
REMARK    2  A    between atoms: C2'_3  and  C1'_4 
REMARK    3  A    between atoms: C1'_4  and  C1_5 
ROOT
ATOM      1  C1  N4B d   1      -0.761   0.053   1.156  0.00  0.00    -0.075 A 
ATOM      2  C2  N4B d   1      -1.739   0.776   1.874  0.00  0.00     0.002 A 
ATOM      3  C3  N4B d   1      -3.024   0.300   1.954  0.00  0.00     0.002 A 
ATOM      4  C4  N4B d   1      -3.358  -0.884   1.313  0.00  0.00    -0.004 A 
ATOM      5  C5  N4B d   1      -2.402  -1.590   0.643  0.00  0.00     0.002 A 
ATOM      6  C6  N4B d   1      -1.105  -1.124   0.557  0.00  0.00     0.002 A 
ENDROOT
BRANCH   1   7
ATOM      7  C1' N4B d   1       0.636   0.577   0.969  0.00  0.00     0.057 C 
BRANCH   7   8
ATOM      8  C2' N4B d   1       0.694   1.399  -0.316  0.00  0.00     0.009 C 
BRANCH   8   9
ATOM      9  C3' N4B d   1       2.020   1.233  -1.038  0.00  0.00     0.004 C 
ATOM     10  C4' N4B d   1       1.982   0.159  -2.084  0.00  0.00     0.003 C 
ENDBRANCH   8   9
ENDBRANCH   7   8
ENDBRANCH   1   7
TORSDOF 3
ENDMDL
