MODEL 1
REMARK minimizedAffinity -4.63556433
REMARK minimizedRMSD -1
REMARK  1 active torsions:
REMARK  status: ('A' for Active; 'I' for Inactive)
REMARK    1  A    between atoms: C3_4  and  O_7 
ROOT
ATOM      1  C   UNL d   1       1.214  -2.877   1.873  0.00  0.00    -0.033 A 
ATOM      2  C1  UNL d   1       0.093  -2.166   2.307  0.00  0.00     0.039 A 
ATOM      3  C2  UNL d   1      -0.377  -1.079   1.567  0.00  0.00    -0.080 A 
ATOM      4  C3  UNL d   1       0.281  -0.715   0.395  0.00  0.00     0.150 A 
ATOM      5  C4  UNL d   1       1.396  -1.421  -0.045  0.00  0.00    -0.007 A 
ATOM      6  C5  UNL d   1       1.864  -2.505   0.696  0.00  0.00     0.039 A 
ENDROOT
BRANCH   4   7
ATOM      7  O   UNL d   1      -0.138   0.341  -0.358  0.00  0.00    -0.526 OA
ATOM      8  H5  UNL d   1      -0.900   0.751   0.084  0.00  0.00     0.418 HD
ENDBRANCH   4   7
TORSDOF 1
ENDMDL
