MODEL 1
REMARK minimizedAffinity -4.37885046
REMARK minimizedRMSD -1
REMARK  1 active torsions:
REMARK  status: ('A' for Active; 'I' for Inactive)
REMARK    1  A    between atoms: C3_4  and  O_7 
ROOT
ATOM      1  C   UNL d   1      -0.898  -0.386   1.443  0.00  0.00    -0.033 A 
ATOM      2  C1  UNL d   1      -0.029  -0.132   0.381  0.00  0.00     0.039 A 
ATOM      3  C2  UNL d   1       1.179  -0.825   0.283  0.00  0.00    -0.080 A 
ATOM      4  C3  UNL d   1       1.505  -1.769   1.253  0.00  0.00     0.150 A 
ATOM      5  C4  UNL d   1       0.642  -2.030   2.312  0.00  0.00    -0.007 A 
ATOM      6  C5  UNL d   1      -0.563  -1.337   2.408  0.00  0.00     0.039 A 
ENDROOT
BRANCH   4   7
ATOM      7  O   UNL d   1       2.675  -2.467   1.203  0.00  0.00    -0.526 OA
ATOM      8  H5  UNL d   1       3.183  -2.161   0.433  0.00  0.00     0.418 HD
ENDBRANCH   4   7
TORSDOF 1
ENDMDL
