MODEL 1
REMARK minimizedAffinity -5.06061983
REMARK minimizedRMSD -1
REMARK  1 active torsions:
REMARK  status: ('A' for Active; 'I' for Inactive)
REMARK    1  A    between atoms: C3_4  and  O_7 
ROOT
ATOM      1  C   UNL d   1       0.777  -2.321   2.278  0.00  0.00    -0.033 A 
ATOM      2  C1  UNL d   1      -0.400  -1.654   2.625  0.00  0.00     0.039 A 
ATOM      3  C2  UNL d   1      -0.897  -0.639   1.804  0.00  0.00    -0.080 A 
ATOM      4  C3  UNL d   1      -0.210  -0.303   0.641  0.00  0.00     0.150 A 
ATOM      5  C4  UNL d   1       0.961  -0.966   0.288  0.00  0.00    -0.007 A 
ATOM      6  C5  UNL d   1       1.456  -1.978   1.109  0.00  0.00     0.039 A 
ENDROOT
BRANCH   4   7
ATOM      7  O   UNL d   1      -0.654   0.683  -0.189  0.00  0.00    -0.526 OA
ATOM      8  H5  UNL d   1      -1.456   1.072   0.197  0.00  0.00     0.418 HD
ENDBRANCH   4   7
TORSDOF 1
ENDMDL
