MODEL 1
REMARK minimizedAffinity -4.96289206
REMARK minimizedRMSD -1
REMARK  1 active torsions:
REMARK  status: ('A' for Active; 'I' for Inactive)
REMARK    1  A    between atoms: C3_4  and  O_7 
ROOT
ATOM      1  C   UNL d   1       0.869  -2.980   1.857  0.00  0.00    -0.033 A 
ATOM      2  C1  UNL d   1      -0.151  -2.174   2.367  0.00  0.00     0.039 A 
ATOM      3  C2  UNL d   1      -0.589  -1.061   1.648  0.00  0.00    -0.080 A 
ATOM      4  C3  UNL d   1      -0.002  -0.766   0.420  0.00  0.00     0.150 A 
ATOM      5  C4  UNL d   1       1.011  -1.567  -0.096  0.00  0.00    -0.007 A 
ATOM      6  C5  UNL d   1       1.449  -2.677   0.625  0.00  0.00     0.039 A 
ENDROOT
BRANCH   4   7
ATOM      7  O   UNL d   1      -0.394   0.312  -0.316  0.00  0.00    -0.526 OA
ATOM      8  H5  UNL d   1      -1.082   0.789   0.178  0.00  0.00     0.418 HD
ENDBRANCH   4   7
TORSDOF 1
ENDMDL
