MODEL 1
REMARK minimizedAffinity -5.49275684
REMARK minimizedRMSD -1
REMARK  1 active torsions:
REMARK  status: ('A' for Active; 'I' for Inactive)
REMARK    1  A    between atoms: C3_4  and  O_7 
ROOT
ATOM      1  C   UNL d   1       1.058  -2.804   2.108  0.00  0.00    -0.033 A 
ATOM      2  C1  UNL d   1      -0.164  -2.265   2.513  0.00  0.00     0.039 A 
ATOM      3  C2  UNL d   1      -0.766  -1.253   1.762  0.00  0.00    -0.080 A 
ATOM      4  C3  UNL d   1      -0.136  -0.791   0.609  0.00  0.00     0.150 A 
ATOM      5  C4  UNL d   1       1.080  -1.327   0.198  0.00  0.00    -0.007 A 
ATOM      6  C5  UNL d   1       1.679  -2.337   0.950  0.00  0.00     0.039 A 
ENDROOT
BRANCH   4   7
ATOM      7  O   UNL d   1      -0.683   0.198  -0.154  0.00  0.00    -0.526 OA
ATOM      8  H5  UNL d   1      -1.507   0.491   0.268  0.00  0.00     0.418 HD
ENDBRANCH   4   7
TORSDOF 1
ENDMDL
