MODEL 1
REMARK minimizedAffinity -5.02838898
REMARK minimizedRMSD -1
REMARK  1 active torsions:
REMARK  status: ('A' for Active; 'I' for Inactive)
REMARK    1  A    between atoms: C3_4  and  O_7 
ROOT
ATOM      1  C   UNL d   1       1.273  -2.827   1.619  0.00  0.00    -0.033 A 
ATOM      2  C1  UNL d   1       0.038  -2.538   2.203  0.00  0.00     0.039 A 
ATOM      3  C2  UNL d   1      -0.684  -1.416   1.793  0.00  0.00    -0.080 A 
ATOM      4  C3  UNL d   1      -0.162  -0.592   0.800  0.00  0.00     0.150 A 
ATOM      5  C4  UNL d   1       1.066  -0.876   0.211  0.00  0.00    -0.007 A 
ATOM      6  C5  UNL d   1       1.786  -1.997   0.622  0.00  0.00     0.039 A 
ENDROOT
BRANCH   4   7
ATOM      7  O   UNL d   1      -0.829   0.517   0.371  0.00  0.00    -0.526 OA
ATOM      8  H5  UNL d   1      -1.648   0.603   0.886  0.00  0.00     0.418 HD
ENDBRANCH   4   7
TORSDOF 1
ENDMDL
