MODEL 1
REMARK minimizedAffinity -4.81119251
REMARK minimizedRMSD -1
REMARK  1 active torsions:
REMARK  status: ('A' for Active; 'I' for Inactive)
REMARK    1  A    between atoms: C3_4  and  O_7 
ROOT
ATOM      1  C   UNL d   1       1.140  -2.405   1.344  0.00  0.00    -0.033 A 
ATOM      2  C1  UNL d   1      -0.008  -1.882   1.942  0.00  0.00     0.039 A 
ATOM      3  C2  UNL d   1      -0.708  -0.844   1.324  0.00  0.00    -0.080 A 
ATOM      4  C3  UNL d   1      -0.251  -0.339   0.110  0.00  0.00     0.150 A 
ATOM      5  C4  UNL d   1       0.890  -0.858  -0.494  0.00  0.00    -0.007 A 
ATOM      6  C5  UNL d   1       1.588  -1.894   0.125  0.00  0.00     0.039 A 
ENDROOT
BRANCH   4   7
ATOM      7  O   UNL d   1      -0.898   0.677  -0.529  0.00  0.00    -0.526 OA
ATOM      8  H5  UNL d   1      -1.651   0.954   0.019  0.00  0.00     0.418 HD
ENDBRANCH   4   7
TORSDOF 1
ENDMDL
