MODEL 1
REMARK minimizedAffinity -3.35188103
REMARK minimizedRMSD -1
REMARK  1 active torsions:
REMARK  status: ('A' for Active; 'I' for Inactive)
REMARK    1  A    between atoms: C3_4  and  O_7 
ROOT
ATOM      1  C   UNL d   1       1.102  -2.543   1.673  0.00  0.00    -0.033 A 
ATOM      2  C1  UNL d   1      -0.239  -2.187   1.833  0.00  0.00     0.039 A 
ATOM      3  C2  UNL d   1      -0.756  -1.083   1.153  0.00  0.00    -0.080 A 
ATOM      4  C3  UNL d   1       0.077  -0.344   0.316  0.00  0.00     0.150 A 
ATOM      5  C4  UNL d   1       1.413  -0.696   0.149  0.00  0.00    -0.007 A 
ATOM      6  C5  UNL d   1       1.927  -1.798   0.830  0.00  0.00     0.039 A 
ENDROOT
BRANCH   4   7
ATOM      7  O   UNL d   1      -0.381   0.744  -0.364  0.00  0.00    -0.526 OA
ATOM      8  H5  UNL d   1      -1.314   0.884  -0.130  0.00  0.00     0.418 HD
ENDBRANCH   4   7
TORSDOF 1
ENDMDL
