MODEL 1
REMARK minimizedAffinity -3.9510498
REMARK minimizedRMSD -1
REMARK  1 active torsions:
REMARK  status: ('A' for Active; 'I' for Inactive)
REMARK    1  A    between atoms: C3_4  and  O_7 
ROOT
ATOM      1  C   UNL d   1      -0.571   0.148   0.473  0.00  0.00    -0.033 A 
ATOM      2  C1  UNL d   1       0.693   0.186  -0.118  0.00  0.00     0.039 A 
ATOM      3  C2  UNL d   1       1.601  -0.851   0.104  0.00  0.00    -0.080 A 
ATOM      4  C3  UNL d   1       1.232  -1.920   0.917  0.00  0.00     0.150 A 
ATOM      5  C4  UNL d   1      -0.027  -1.966   1.506  0.00  0.00    -0.007 A 
ATOM      6  C5  UNL d   1      -0.932  -0.929   1.284  0.00  0.00     0.039 A 
ENDROOT
BRANCH   4   7
ATOM      7  O   UNL d   1       2.086  -2.953   1.166  0.00  0.00    -0.526 OA
ATOM      8  H5  UNL d   1       2.929  -2.771   0.717  0.00  0.00     0.418 HD
ENDBRANCH   4   7
TORSDOF 1
ENDMDL
