MODEL 1
REMARK minimizedAffinity -4.7794323
REMARK minimizedRMSD -1
REMARK  1 active torsions:
REMARK  status: ('A' for Active; 'I' for Inactive)
REMARK    1  A    between atoms: C3_4  and  O_7 
ROOT
ATOM      1  C   UNL d   1       1.285  -1.990   0.904  0.00  0.00    -0.033 A 
ATOM      2  C1  UNL d   1       0.716  -2.148   2.169  0.00  0.00     0.039 A 
ATOM      3  C2  UNL d   1      -0.357  -1.344   2.559  0.00  0.00    -0.080 A 
ATOM      4  C3  UNL d   1      -0.852  -0.388   1.676  0.00  0.00     0.150 A 
ATOM      5  C4  UNL d   1      -0.292  -0.229   0.412  0.00  0.00    -0.007 A 
ATOM      6  C5  UNL d   1       0.779  -1.032   0.025  0.00  0.00     0.039 A 
ENDROOT
BRANCH   4   7
ATOM      7  O   UNL d   1      -1.894   0.423   2.013  0.00  0.00    -0.526 OA
ATOM      8  H5  UNL d   1      -2.159   0.219   2.926  0.00  0.00     0.418 HD
ENDBRANCH   4   7
TORSDOF 1
ENDMDL
