MODEL 1
REMARK minimizedAffinity -5.36152649
REMARK minimizedRMSD -1
REMARK  1 active torsions:
REMARK  status: ('A' for Active; 'I' for Inactive)
REMARK    1  A    between atoms: C3_4  and  O_7 
ROOT
ATOM      1  C   UNL d   1      -0.735   0.352   1.130  0.00  0.00    -0.033 A 
ATOM      2  C1  UNL d   1       0.271   0.309   0.162  0.00  0.00     0.039 A 
ATOM      3  C2  UNL d   1       1.091  -0.815   0.053  0.00  0.00    -0.080 A 
ATOM      4  C3  UNL d   1       0.895  -1.890   0.916  0.00  0.00     0.150 A 
ATOM      5  C4  UNL d   1      -0.108  -1.856   1.880  0.00  0.00    -0.007 A 
ATOM      6  C5  UNL d   1      -0.925  -0.732   1.988  0.00  0.00     0.039 A 
ENDROOT
BRANCH   4   7
ATOM      7  O   UNL d   1       1.673  -3.007   0.851  0.00  0.00    -0.526 OA
ATOM      8  H5  UNL d   1       2.341  -2.877   0.157  0.00  0.00     0.418 HD
ENDBRANCH   4   7
TORSDOF 1
ENDMDL
