MODEL 1
REMARK minimizedAffinity -5.22634745
REMARK minimizedRMSD -1
REMARK  1 active torsions:
REMARK  status: ('A' for Active; 'I' for Inactive)
REMARK    1  A    between atoms: C3_4  and  O_7 
ROOT
ATOM      1  C   UNL d   1       0.037   0.454   0.731  0.00  0.00    -0.033 A 
ATOM      2  C1  UNL d   1       0.945   0.008  -0.231  0.00  0.00     0.039 A 
ATOM      3  C2  UNL d   1       1.362  -1.324  -0.236  0.00  0.00    -0.080 A 
ATOM      4  C3  UNL d   1       0.863  -2.199   0.725  0.00  0.00     0.150 A 
ATOM      5  C4  UNL d   1      -0.045  -1.763   1.684  0.00  0.00    -0.007 A 
ATOM      6  C5  UNL d   1      -0.460  -0.432   1.688  0.00  0.00     0.039 A 
ENDROOT
BRANCH   4   7
ATOM      7  O   UNL d   1       1.244  -3.508   0.764  0.00  0.00    -0.526 OA
ATOM      8  H5  UNL d   1       1.897  -3.659   0.059  0.00  0.00     0.418 HD
ENDBRANCH   4   7
TORSDOF 1
ENDMDL
