MODEL 1
REMARK minimizedAffinity -2.41165733
REMARK minimizedRMSD -1
REMARK  1 active torsions:
REMARK  status: ('A' for Active; 'I' for Inactive)
REMARK    1  A    between atoms: C3_4  and  O_7 
ROOT
ATOM      1  C   UNL d   1      -1.442   0.717   1.346  0.00  0.00    -0.033 A 
ATOM      2  C1  UNL d   1      -1.079   1.441   0.209  0.00  0.00     0.039 A 
ATOM      3  C2  UNL d   1       0.047   1.068  -0.528  0.00  0.00    -0.080 A 
ATOM      4  C3  UNL d   1       0.800  -0.029  -0.118  0.00  0.00     0.150 A 
ATOM      5  C4  UNL d   1       0.441  -0.757   1.012  0.00  0.00    -0.007 A 
ATOM      6  C5  UNL d   1      -0.683  -0.383   1.746  0.00  0.00     0.039 A 
ENDROOT
BRANCH   4   7
ATOM      7  O   UNL d   1       1.909  -0.428  -0.802  0.00  0.00    -0.526 OA
ATOM      8  H5  UNL d   1       2.051   0.186  -1.542  0.00  0.00     0.418 HD
ENDBRANCH   4   7
TORSDOF 1
ENDMDL
