MODEL 1
REMARK minimizedAffinity -4.9132719
REMARK minimizedRMSD -1
REMARK  1 active torsions:
REMARK  status: ('A' for Active; 'I' for Inactive)
REMARK    1  A    between atoms: C3_4  and  O_7 
ROOT
ATOM      1  C   UNL d   1       1.212  -2.570   2.002  0.00  0.00    -0.033 A 
ATOM      2  C1  UNL d   1      -0.081  -2.166   2.340  0.00  0.00     0.039 A 
ATOM      3  C2  UNL d   1      -0.687  -1.112   1.653  0.00  0.00    -0.080 A 
ATOM      4  C3  UNL d   1       0.010  -0.473   0.631  0.00  0.00     0.150 A 
ATOM      5  C4  UNL d   1       1.297  -0.873   0.286  0.00  0.00    -0.007 A 
ATOM      6  C5  UNL d   1       1.900  -1.925   0.974  0.00  0.00     0.039 A 
ENDROOT
BRANCH   4   7
ATOM      7  O   UNL d   1      -0.538   0.564  -0.065  0.00  0.00    -0.526 OA
ATOM      8  H5  UNL d   1      -1.419   0.749   0.301  0.00  0.00     0.418 HD
ENDBRANCH   4   7
TORSDOF 1
ENDMDL
