MODEL 1
REMARK minimizedAffinity -4.82444811
REMARK minimizedRMSD -1
REMARK  1 active torsions:
REMARK  status: ('A' for Active; 'I' for Inactive)
REMARK    1  A    between atoms: C3_4  and  O_7 
ROOT
ATOM      1  C   UNL d   1      -0.942   0.075   0.855  0.00  0.00    -0.033 A 
ATOM      2  C1  UNL d   1       0.206  -0.162   0.096  0.00  0.00     0.039 A 
ATOM      3  C2  UNL d   1       0.959  -1.318   0.309  0.00  0.00    -0.080 A 
ATOM      4  C3  UNL d   1       0.555  -2.227   1.283  0.00  0.00     0.150 A 
ATOM      5  C4  UNL d   1      -0.589  -1.999   2.040  0.00  0.00    -0.007 A 
ATOM      6  C5  UNL d   1      -1.340  -0.844   1.826  0.00  0.00     0.039 A 
ENDROOT
BRANCH   4   7
ATOM      7  O   UNL d   1       1.261  -3.367   1.531  0.00  0.00    -0.526 OA
ATOM      8  H5  UNL d   1       2.042  -3.377   0.952  0.00  0.00     0.418 HD
ENDBRANCH   4   7
TORSDOF 1
ENDMDL
