MODEL 1
REMARK minimizedAffinity -4.85042238
REMARK minimizedRMSD -1
REMARK  0 active torsions:
REMARK  status: ('A' for Active; 'I' for Inactive)
ROOT
ATOM      1  C1  BNZ d   1      -0.266  -0.597   0.890  0.00  0.00     0.000 A 
ATOM      2  C2  BNZ d   1      -0.707  -1.052   2.104  0.00  0.00     0.000 A 
ATOM      3  C3  BNZ d   1      -0.030  -2.034   2.771  0.00  0.00     0.000 A 
ATOM      4  C4  BNZ d   1       1.063  -2.588   2.206  0.00  0.00     0.000 A 
ATOM      5  C5  BNZ d   1       1.514  -2.146   0.978  0.00  0.00     0.000 A 
ATOM      6  C6  BNZ d   1       0.853  -1.130   0.328  0.00  0.00     0.000 A 
ENDROOT
TORSDOF 0
ENDMDL
