MODEL 1
REMARK minimizedAffinity -2.73190045
REMARK minimizedRMSD -1
REMARK  0 active torsions:
REMARK  status: ('A' for Active; 'I' for Inactive)
ROOT
ATOM      1  C1  BNZ d   1      -1.208   3.217  -2.884  0.00  0.00     0.000 A 
ATOM      2  C2  BNZ d   1      -2.003   2.651  -1.924  0.00  0.00     0.000 A 
ATOM      3  C3  BNZ d   1      -2.732   1.526  -2.193  0.00  0.00     0.000 A 
ATOM      4  C4  BNZ d   1      -2.697   0.994  -3.431  0.00  0.00     0.000 A 
ATOM      5  C5  BNZ d   1      -1.908   1.559  -4.413  0.00  0.00     0.000 A 
ATOM      6  C6  BNZ d   1      -1.145   2.668  -4.128  0.00  0.00     0.000 A 
ENDROOT
TORSDOF 0
ENDMDL
