MODEL 1
REMARK minimizedAffinity -1.8830632
REMARK minimizedRMSD -1
REMARK  0 active torsions:
REMARK  status: ('A' for Active; 'I' for Inactive)
ROOT
ATOM      1  C1  BNZ d   1       2.197  -1.272   0.012  0.00  0.00     0.000 A 
ATOM      2  C2  BNZ d   1       1.763  -0.345  -0.898  0.00  0.00     0.000 A 
ATOM      3  C3  BNZ d   1       0.583   0.320  -0.711  0.00  0.00     0.000 A 
ATOM      4  C4  BNZ d   1      -0.179   0.029   0.362  0.00  0.00     0.000 A 
ATOM      5  C5  BNZ d   1       0.240  -0.910   1.284  0.00  0.00     0.000 A 
ATOM      6  C6  BNZ d   1       1.446  -1.549   1.113  0.00  0.00     0.000 A 
ENDROOT
TORSDOF 0
ENDMDL
