MODEL 1
REMARK minimizedAffinity -3.05631018
REMARK minimizedRMSD -1
REMARK  0 active torsions:
REMARK  status: ('A' for Active; 'I' for Inactive)
ROOT
ATOM      1  C1  BNZ d   1      -2.928   0.760  -2.238  0.00  0.00     0.000 A 
ATOM      2  C2  BNZ d   1      -2.271   0.960  -1.053  0.00  0.00     0.000 A 
ATOM      3  C3  BNZ d   1      -1.271   1.886  -0.955  0.00  0.00     0.000 A 
ATOM      4  C4  BNZ d   1      -0.902   2.582  -2.049  0.00  0.00     0.000 A 
ATOM      5  C5  BNZ d   1      -1.548   2.385  -3.254  0.00  0.00     0.000 A 
ATOM      6  C6  BNZ d   1      -2.581   1.480  -3.339  0.00  0.00     0.000 A 
ENDROOT
TORSDOF 0
ENDMDL
