MODEL 1
REMARK minimizedAffinity -3.87056518
REMARK minimizedRMSD -1
REMARK  0 active torsions:
REMARK  status: ('A' for Active; 'I' for Inactive)
ROOT
ATOM      1  C1  BNZ d   1      -0.378  -0.082   0.374  0.00  0.00     0.000 A 
ATOM      2  C2  BNZ d   1       0.126  -1.252   0.877  0.00  0.00     0.000 A 
ATOM      3  C3  BNZ d   1       1.447  -1.568   0.725  0.00  0.00     0.000 A 
ATOM      4  C4  BNZ d   1       2.253  -0.735   0.038  0.00  0.00     0.000 A 
ATOM      5  C5  BNZ d   1       1.759   0.444  -0.484  0.00  0.00     0.000 A 
ATOM      6  C6  BNZ d   1       0.437   0.778  -0.295  0.00  0.00     0.000 A 
ENDROOT
TORSDOF 0
ENDMDL
