MODEL 1
REMARK minimizedAffinity -1.78642261
REMARK minimizedRMSD -1
REMARK  0 active torsions:
REMARK  status: ('A' for Active; 'I' for Inactive)
ROOT
ATOM      1  C1  BNZ d   1       0.343   0.886  -0.393  0.00  0.00     0.000 A 
ATOM      2  C2  BNZ d   1       1.633   0.430  -0.452  0.00  0.00     0.000 A 
ATOM      3  C3  BNZ d   1       2.014  -0.684   0.242  0.00  0.00     0.000 A 
ATOM      4  C4  BNZ d   1       1.116  -1.316   1.025  0.00  0.00     0.000 A 
ATOM      5  C5  BNZ d   1      -0.186  -0.863   1.102  0.00  0.00     0.000 A 
ATOM      6  C6  BNZ d   1      -0.575   0.236   0.372  0.00  0.00     0.000 A 
ENDROOT
TORSDOF 0
ENDMDL
