MODEL 1
REMARK minimizedAffinity -3.30328631
REMARK minimizedRMSD -1
REMARK  0 active torsions:
REMARK  status: ('A' for Active; 'I' for Inactive)
ROOT
ATOM      1  C1  BNZ d   1      -0.538   0.241   1.295  0.00  0.00     0.000 A 
ATOM      2  C2  BNZ d   1      -0.195  -0.714   2.215  0.00  0.00     0.000 A 
ATOM      3  C3  BNZ d   1       0.990  -1.388   2.115  0.00  0.00     0.000 A 
ATOM      4  C4  BNZ d   1       1.810  -1.136   1.075  0.00  0.00     0.000 A 
ATOM      5  C5  BNZ d   1       1.474  -0.183   0.134  0.00  0.00     0.000 A 
ATOM      6  C6  BNZ d   1       0.298   0.522   0.260  0.00  0.00     0.000 A 
ENDROOT
TORSDOF 0
ENDMDL
