MODEL 1
REMARK minimizedAffinity -3.45352483
REMARK minimizedRMSD -1
REMARK  0 active torsions:
REMARK  status: ('A' for Active; 'I' for Inactive)
ROOT
ATOM      1  C1  BNZ d   1       2.140  -0.709   0.380  0.00  0.00     0.000 A 
ATOM      2  C2  BNZ d   1       1.871   0.409  -0.364  0.00  0.00     0.000 A 
ATOM      3  C3  BNZ d   1       0.629   0.979  -0.346  0.00  0.00     0.000 A 
ATOM      4  C4  BNZ d   1      -0.352   0.409   0.382  0.00  0.00     0.000 A 
ATOM      5  C5  BNZ d   1      -0.099  -0.724   1.130  0.00  0.00     0.000 A 
ATOM      6  C6  BNZ d   1       1.162  -1.273   1.141  0.00  0.00     0.000 A 
ENDROOT
TORSDOF 0
ENDMDL
