MODEL 1
REMARK minimizedAffinity -3.95863962
REMARK minimizedRMSD -1
REMARK  0 active torsions:
REMARK  status: ('A' for Active; 'I' for Inactive)
ROOT
ATOM      1  C1  BNZ d   1      -0.706   0.343   0.773  0.00  0.00     0.000 A 
ATOM      2  C2  BNZ d   1      -1.324  -0.126   1.902  0.00  0.00     0.000 A 
ATOM      3  C3  BNZ d   1      -0.755  -1.117   2.652  0.00  0.00     0.000 A 
ATOM      4  C4  BNZ d   1       0.410  -1.665   2.251  0.00  0.00     0.000 A 
ATOM      5  C5  BNZ d   1       1.041  -1.210   1.111  0.00  0.00     0.000 A 
ATOM      6  C6  BNZ d   1       0.485  -0.186   0.380  0.00  0.00     0.000 A 
ENDROOT
TORSDOF 0
ENDMDL
