MODEL 1
REMARK minimizedAffinity -2.2272892
REMARK minimizedRMSD -1
REMARK  0 active torsions:
REMARK  status: ('A' for Active; 'I' for Inactive)
ROOT
ATOM      1  C1  BNZ d   1       2.579  -0.406  -0.094  0.00  0.00     0.000 A 
ATOM      2  C2  BNZ d   1       2.037   0.686  -0.718  0.00  0.00     0.000 A 
ATOM      3  C3  BNZ d   1       0.688   0.903  -0.704  0.00  0.00     0.000 A 
ATOM      4  C4  BNZ d   1      -0.121   0.008  -0.101  0.00  0.00     0.000 A 
ATOM      5  C5  BNZ d   1       0.408  -1.103   0.525  0.00  0.00     0.000 A 
ATOM      6  C6  BNZ d   1       1.771  -1.297   0.542  0.00  0.00     0.000 A 
ENDROOT
TORSDOF 0
ENDMDL
