MODEL 1
REMARK minimizedAffinity -3.87463021
REMARK minimizedRMSD -1
REMARK  0 active torsions:
REMARK  status: ('A' for Active; 'I' for Inactive)
ROOT
ATOM      1  C1  BNZ d   1       0.095   0.114   0.006  0.00  0.00     0.000 A 
ATOM      2  C2  BNZ d   1      -0.305  -0.642   1.075  0.00  0.00     0.000 A 
ATOM      3  C3  BNZ d   1      -1.452  -0.343   1.755  0.00  0.00     0.000 A 
ATOM      4  C4  BNZ d   1      -2.176   0.735   1.391  0.00  0.00     0.000 A 
ATOM      5  C5  BNZ d   1      -1.782   1.514   0.321  0.00  0.00     0.000 A 
ATOM      6  C6  BNZ d   1      -0.647   1.186  -0.385  0.00  0.00     0.000 A 
ENDROOT
TORSDOF 0
ENDMDL
