MODEL 1
REMARK minimizedAffinity -1.89949334
REMARK minimizedRMSD -1
REMARK  0 active torsions:
REMARK  status: ('A' for Active; 'I' for Inactive)
ROOT
ATOM      1  C1  BNZ d   1       0.395  -5.247  -3.755  0.00  0.00     0.000 A 
ATOM      2  C2  BNZ d   1      -0.974  -5.232  -3.774  0.00  0.00     0.000 A 
ATOM      3  C3  BNZ d   1      -1.664  -5.614  -4.891  0.00  0.00     0.000 A 
ATOM      4  C4  BNZ d   1      -0.984  -5.972  -5.999  0.00  0.00     0.000 A 
ATOM      5  C5  BNZ d   1       0.397  -5.983  -6.000  0.00  0.00     0.000 A 
ATOM      6  C6  BNZ d   1       1.087  -5.636  -4.861  0.00  0.00     0.000 A 
ENDROOT
TORSDOF 0
ENDMDL
