MODEL 1
REMARK minimizedAffinity -3.4130671
REMARK minimizedRMSD -1
REMARK  0 active torsions:
REMARK  status: ('A' for Active; 'I' for Inactive)
ROOT
ATOM      1  C1  BNZ d   1      -2.048   1.554  -4.170  0.00  0.00     0.000 A 
ATOM      2  C2  BNZ d   1      -2.974   1.218  -3.218  0.00  0.00     0.000 A 
ATOM      3  C3  BNZ d   1      -2.876   1.704  -1.945  0.00  0.00     0.000 A 
ATOM      4  C4  BNZ d   1      -1.832   2.492  -1.614  0.00  0.00     0.000 A 
ATOM      5  C5  BNZ d   1      -0.886   2.831  -2.560  0.00  0.00     0.000 A 
ATOM      6  C6  BNZ d   1      -1.009   2.372  -3.851  0.00  0.00     0.000 A 
ENDROOT
TORSDOF 0
ENDMDL
