MODEL 1
REMARK minimizedAffinity -4.45500088
REMARK minimizedRMSD -1
REMARK  0 active torsions:
REMARK  status: ('A' for Active; 'I' for Inactive)
ROOT
ATOM      1  C1  BNZ d   1       1.226  -2.532   2.335  0.00  0.00     0.000 A 
ATOM      2  C2  BNZ d   1       1.666  -2.164   1.092  0.00  0.00     0.000 A 
ATOM      3  C3  BNZ d   1       0.936  -1.307   0.316  0.00  0.00     0.000 A 
ATOM      4  C4  BNZ d   1      -0.250  -0.850   0.768  0.00  0.00     0.000 A 
ATOM      5  C5  BNZ d   1      -0.712  -1.219   2.015  0.00  0.00     0.000 A 
ATOM      6  C6  BNZ d   1       0.044  -2.052   2.809  0.00  0.00     0.000 A 
ENDROOT
TORSDOF 0
ENDMDL
