MODEL 1
REMARK minimizedAffinity 1.76911199
REMARK minimizedRMSD -1
REMARK  0 active torsions:
REMARK  status: ('A' for Active; 'I' for Inactive)
ROOT
ATOM      1  C1  BNZ d   1       1.633  -0.474   0.118  0.00  0.00     0.000 A 
ATOM      2  C2  BNZ d   1       2.126  -1.284   1.107  0.00  0.00     0.000 A 
ATOM      3  C3  BNZ d   1       1.346  -1.648   2.168  0.00  0.00     0.000 A 
ATOM      4  C4  BNZ d   1       0.088  -1.170   2.261  0.00  0.00     0.000 A 
ATOM      5  C5  BNZ d   1      -0.421  -0.345   1.278  0.00  0.00     0.000 A 
ATOM      6  C6  BNZ d   1       0.354  -0.013   0.191  0.00  0.00     0.000 A 
ENDROOT
TORSDOF 0
ENDMDL
