MODEL 1
REMARK minimizedAffinity -2.02629042
REMARK minimizedRMSD -1
REMARK  0 active torsions:
REMARK  status: ('A' for Active; 'I' for Inactive)
ROOT
ATOM      1  C1  BNZ d   1       1.424  -1.326   0.867  0.00  0.00     0.000 A 
ATOM      2  C2  BNZ d   1       0.081  -1.059   0.867  0.00  0.00     0.000 A 
ATOM      3  C3  BNZ d   1      -0.402   0.101   0.327  0.00  0.00     0.000 A 
ATOM      4  C4  BNZ d   1       0.460   1.008  -0.175  0.00  0.00     0.000 A 
ATOM      5  C5  BNZ d   1       1.818   0.757  -0.174  0.00  0.00     0.000 A 
ATOM      6  C6  BNZ d   1       2.297  -0.428   0.335  0.00  0.00     0.000 A 
ENDROOT
TORSDOF 0
ENDMDL
