MODEL 1
REMARK minimizedAffinity 1.30270445
REMARK minimizedRMSD -1
REMARK  3 active torsions:
REMARK  status: ('A' for Active; 'I' for Inactive)
REMARK    1  A    between atoms: C3'_2  and  C2'_3 
REMARK    2  A    between atoms: C2'_3  and  C1'_4 
REMARK    3  A    between atoms: C1'_4  and  C1_5 
ROOT
ATOM      1  C1  N4B d   1       1.450   2.635  -0.585  0.00  0.00    -0.075 A 
ATOM      2  C2  N4B d   1       1.961   1.362  -0.251  0.00  0.00     0.002 A 
ATOM      3  C3  N4B d   1       1.819   0.313  -1.126  0.00  0.00     0.002 A 
ATOM      4  C4  N4B d   1       1.155   0.508  -2.327  0.00  0.00    -0.004 A 
ATOM      5  C5  N4B d   1       0.686   1.747  -2.654  0.00  0.00     0.002 A 
ATOM      6  C6  N4B d   1       0.826   2.811  -1.786  0.00  0.00     0.002 A 
ENDROOT
BRANCH   1   7
ATOM      7  C1' N4B d   1       1.507   3.791   0.376  0.00  0.00     0.057 C 
BRANCH   7   8
ATOM      8  C2' N4B d   1       1.184   5.081  -0.373  0.00  0.00     0.009 C 
BRANCH   8   9
ATOM      9  C3' N4B d   1       2.390   6.000  -0.468  0.00  0.00     0.004 C 
ATOM     10  C4' N4B d   1       3.015   5.999  -1.831  0.00  0.00     0.003 C 
ENDBRANCH   8   9
ENDBRANCH   7   8
ENDBRANCH   1   7
TORSDOF 3
ENDMDL
