MODEL 1
REMARK minimizedAffinity 3.40084291
REMARK minimizedRMSD -1
REMARK  3 active torsions:
REMARK  status: ('A' for Active; 'I' for Inactive)
REMARK    1  A    between atoms: C3'_2  and  C2'_3 
REMARK    2  A    between atoms: C2'_3  and  C1'_4 
REMARK    3  A    between atoms: C1'_4  and  C1_5 
ROOT
ATOM      1  C1  N4B d   1      -2.321  -3.367   4.021  0.00  0.00    -0.075 A 
ATOM      2  C2  N4B d   1      -2.624  -4.611   3.426  0.00  0.00     0.002 A 
ATOM      3  C3  N4B d   1      -3.319  -5.560   4.134  0.00  0.00     0.002 A 
ATOM      4  C4  N4B d   1      -3.703  -5.296   5.440  0.00  0.00    -0.004 A 
ATOM      5  C5  N4B d   1      -3.428  -4.083   6.000  0.00  0.00     0.002 A 
ATOM      6  C6  N4B d   1      -2.734  -3.118   5.298  0.00  0.00     0.002 A 
ENDROOT
BRANCH   1   7
ATOM      7  C1' N4B d   1      -1.489  -2.331   3.316  0.00  0.00     0.057 C 
BRANCH   7   8
ATOM      8  C2' N4B d   1      -0.236  -2.050   4.140  0.00  0.00     0.009 C 
BRANCH   8   9
ATOM      9  C3' N4B d   1      -0.114  -0.580   4.506  0.00  0.00     0.004 C 
ATOM     10  C4' N4B d   1      -1.427   0.034   4.889  0.00  0.00     0.003 C 
ENDBRANCH   8   9
ENDBRANCH   7   8
ENDBRANCH   1   7
TORSDOF 3
ENDMDL
