MODEL 1
REMARK minimizedAffinity -4.54490185
REMARK minimizedRMSD -1
REMARK  3 active torsions:
REMARK  status: ('A' for Active; 'I' for Inactive)
REMARK    1  A    between atoms: C3'_2  and  C2'_3 
REMARK    2  A    between atoms: C2'_3  and  C1'_4 
REMARK    3  A    between atoms: C1'_4  and  C1_5 
ROOT
ATOM      1  C1  N4B d   1       1.289   2.304   0.464  0.00  0.00    -0.075 A 
ATOM      2  C2  N4B d   1       1.379   3.670   0.118  0.00  0.00     0.002 A 
ATOM      3  C3  N4B d   1       1.417   4.043  -1.203  0.00  0.00     0.002 A 
ATOM      4  C4  N4B d   1       1.386   3.071  -2.191  0.00  0.00    -0.004 A 
ATOM      5  C5  N4B d   1       1.274   1.755  -1.850  0.00  0.00     0.002 A 
ATOM      6  C6  N4B d   1       1.230   1.366  -0.526  0.00  0.00     0.002 A 
ENDROOT
BRANCH   1   7
ATOM      7  C1' N4B d   1       1.331   1.842   1.895  0.00  0.00     0.057 C 
BRANCH   7   8
ATOM      8  C2' N4B d   1       2.404   2.627   2.643  0.00  0.00     0.009 C 
BRANCH   8   9
ATOM      9  C3' N4B d   1       1.943   4.032   2.990  0.00  0.00     0.004 C 
ATOM     10  C4' N4B d   1       2.404   4.476   4.346  0.00  0.00     0.003 C 
ENDBRANCH   8   9
ENDBRANCH   7   8
ENDBRANCH   1   7
TORSDOF 3
ENDMDL
