MODEL 1
REMARK minimizedAffinity 2.38673925
REMARK minimizedRMSD -1
REMARK  3 active torsions:
REMARK  status: ('A' for Active; 'I' for Inactive)
REMARK    1  A    between atoms: C3'_2  and  C2'_3 
REMARK    2  A    between atoms: C2'_3  and  C1'_4 
REMARK    3  A    between atoms: C1'_4  and  C1_5 
ROOT
ATOM      1  C1  N4B d   1       1.564   3.045  -1.032  0.00  0.00    -0.075 A 
ATOM      2  C2  N4B d   1       1.958   4.334  -1.454  0.00  0.00     0.002 A 
ATOM      3  C3  N4B d   1       1.974   5.374  -0.557  0.00  0.00     0.002 A 
ATOM      4  C4  N4B d   1       1.584   5.154   0.756  0.00  0.00    -0.004 A 
ATOM      5  C5  N4B d   1       1.230   3.900   1.161  0.00  0.00     0.002 A 
ATOM      6  C6  N4B d   1       1.213   2.845   0.271  0.00  0.00     0.002 A 
ENDROOT
BRANCH   1   7
ATOM      7  C1' N4B d   1       1.449   1.896  -1.996  0.00  0.00     0.057 C 
BRANCH   7   8
ATOM      8  C2' N4B d   1       0.312   2.175  -2.975  0.00  0.00     0.009 C 
BRANCH   8   9
ATOM      9  C3' N4B d   1      -0.769   3.046  -2.357  0.00  0.00     0.004 C 
ATOM     10  C4' N4B d   1      -2.123   2.403  -2.391  0.00  0.00     0.003 C 
ENDBRANCH   8   9
ENDBRANCH   7   8
ENDBRANCH   1   7
TORSDOF 3
ENDMDL
