MODEL 1
REMARK minimizedAffinity 2.41895318
REMARK minimizedRMSD -1
REMARK  3 active torsions:
REMARK  status: ('A' for Active; 'I' for Inactive)
REMARK    1  A    between atoms: C3'_2  and  C2'_3 
REMARK    2  A    between atoms: C2'_3  and  C1'_4 
REMARK    3  A    between atoms: C1'_4  and  C1_5 
ROOT
ATOM      1  C1  N4B d   1       1.601  -0.337  -1.961  0.00  0.00    -0.075 A 
ATOM      2  C2  N4B d   1       1.697   1.049  -2.212  0.00  0.00     0.002 A 
ATOM      3  C3  N4B d   1       1.447   1.949  -1.205  0.00  0.00     0.002 A 
ATOM      4  C4  N4B d   1       1.082   1.488   0.051  0.00  0.00    -0.004 A 
ATOM      5  C5  N4B d   1       1.016   0.147   0.293  0.00  0.00     0.002 A 
ATOM      6  C6  N4B d   1       1.269  -0.769  -0.709  0.00  0.00     0.002 A 
ENDROOT
BRANCH   1   7
ATOM      7  C1' N4B d   1       1.782  -1.357  -3.052  0.00  0.00     0.057 C 
BRANCH   7   8
ATOM      8  C2' N4B d   1       1.838  -0.643  -4.399  0.00  0.00     0.009 C 
BRANCH   8   9
ATOM      9  C3' N4B d   1       2.032  -1.616  -5.550  0.00  0.00     0.004 C 
ATOM     10  C4' N4B d   1       3.357  -2.317  -5.500  0.00  0.00     0.003 C 
ENDBRANCH   8   9
ENDBRANCH   7   8
ENDBRANCH   1   7
TORSDOF 3
ENDMDL
