MODEL 1
REMARK minimizedAffinity -3.82148051
REMARK minimizedRMSD -1
REMARK  3 active torsions:
REMARK  status: ('A' for Active; 'I' for Inactive)
REMARK    1  A    between atoms: C3'_2  and  C2'_3 
REMARK    2  A    between atoms: C2'_3  and  C1'_4 
REMARK    3  A    between atoms: C1'_4  and  C1_5 
ROOT
ATOM      1  C1  N4B d   1       1.368   0.961  -0.935  0.00  0.00    -0.075 A 
ATOM      2  C2  N4B d   1       1.563   2.042  -1.822  0.00  0.00     0.002 A 
ATOM      3  C3  N4B d   1       1.461   3.333  -1.365  0.00  0.00     0.002 A 
ATOM      4  C4  N4B d   1       1.147   3.566  -0.035  0.00  0.00    -0.004 A 
ATOM      5  C5  N4B d   1       0.985   2.517   0.822  0.00  0.00     0.002 A 
ATOM      6  C6  N4B d   1       1.088   1.214   0.377  0.00  0.00     0.002 A 
ENDROOT
BRANCH   1   7
ATOM      7  C1' N4B d   1       1.384  -0.467  -1.407  0.00  0.00     0.057 C 
BRANCH   7   8
ATOM      8  C2' N4B d   1       1.657  -1.385  -0.218  0.00  0.00     0.009 C 
BRANCH   8   9
ATOM      9  C3' N4B d   1       0.674  -2.541  -0.156  0.00  0.00     0.004 C 
ATOM     10  C4' N4B d   1      -0.188  -2.637  -1.379  0.00  0.00     0.003 C 
ENDBRANCH   8   9
ENDBRANCH   7   8
ENDBRANCH   1   7
TORSDOF 3
ENDMDL
