MODEL 1
REMARK minimizedAffinity -3.07704353
REMARK minimizedRMSD -1
REMARK  3 active torsions:
REMARK  status: ('A' for Active; 'I' for Inactive)
REMARK    1  A    between atoms: C3'_2  and  C2'_3 
REMARK    2  A    between atoms: C2'_3  and  C1'_4 
REMARK    3  A    between atoms: C1'_4  and  C1_5 
ROOT
ATOM      1  C1  N4B d   1       1.120   2.083  -0.806  0.00  0.00    -0.075 A 
ATOM      2  C2  N4B d   1       0.749   0.985  -1.613  0.00  0.00     0.002 A 
ATOM      3  C3  N4B d   1       0.731  -0.282  -1.083  0.00  0.00     0.002 A 
ATOM      4  C4  N4B d   1       1.098  -0.477   0.240  0.00  0.00    -0.004 A 
ATOM      5  C5  N4B d   1       1.431   0.592   1.020  0.00  0.00     0.002 A 
ATOM      6  C6  N4B d   1       1.449   1.871   0.501  0.00  0.00     0.002 A 
ENDROOT
BRANCH   1   7
ATOM      7  C1' N4B d   1       1.237   3.475  -1.365  0.00  0.00     0.057 C 
BRANCH   7   8
ATOM      8  C2' N4B d   1       1.492   4.453  -0.222  0.00  0.00     0.009 C 
BRANCH   8   9
ATOM      9  C3' N4B d   1       1.734   5.865  -0.726  0.00  0.00     0.004 C 
ATOM     10  C4' N4B d   1       3.015   5.996  -1.494  0.00  0.00     0.003 C 
ENDBRANCH   8   9
ENDBRANCH   7   8
ENDBRANCH   1   7
TORSDOF 3
ENDMDL
