MODEL 1
REMARK minimizedAffinity -0.573823094
REMARK minimizedRMSD -1
REMARK  3 active torsions:
REMARK  status: ('A' for Active; 'I' for Inactive)
REMARK    1  A    between atoms: C3'_2  and  C2'_3 
REMARK    2  A    between atoms: C2'_3  and  C1'_4 
REMARK    3  A    between atoms: C1'_4  and  C1_5 
ROOT
ATOM      1  C1  N4B d   1       1.066   1.510   0.364  0.00  0.00    -0.075 A 
ATOM      2  C2  N4B d   1       0.703   0.476  -0.528  0.00  0.00     0.002 A 
ATOM      3  C3  N4B d   1       0.704   0.706  -1.882  0.00  0.00     0.002 A 
ATOM      4  C4  N4B d   1       1.045   1.961  -2.365  0.00  0.00    -0.004 A 
ATOM      5  C5  N4B d   1       1.418   2.946  -1.498  0.00  0.00     0.002 A 
ATOM      6  C6  N4B d   1       1.426   2.728  -0.135  0.00  0.00     0.002 A 
ENDROOT
BRANCH   1   7
ATOM      7  C1' N4B d   1       0.997   1.332   1.856  0.00  0.00     0.057 C 
BRANCH   7   8
ATOM      8  C2' N4B d   1      -0.072   2.262   2.422  0.00  0.00     0.009 C 
BRANCH   8   9
ATOM      9  C3' N4B d   1      -1.174   1.495   3.132  0.00  0.00     0.004 C 
ATOM     10  C4' N4B d   1      -2.546   1.885   2.667  0.00  0.00     0.003 C 
ENDBRANCH   8   9
ENDBRANCH   7   8
ENDBRANCH   1   7
TORSDOF 3
ENDMDL
