MODEL 1
REMARK minimizedAffinity -1.22543049
REMARK minimizedRMSD -1
REMARK  0 active torsions:
REMARK  status: ('A' for Active; 'I' for Inactive)
ROOT
ATOM      1  C   UNL d   1       0.389  -3.387   0.192  0.00  0.00     0.077 C 
ATOM      2  C1  UNL d   1       0.397  -1.917  -0.103  0.00  0.00    -0.074 A 
ATOM      3  C2  UNL d   1       0.538  -0.978   0.924  0.00  0.00    -0.005 A 
ATOM      4  C3  UNL d   1       0.554   0.386   0.633  0.00  0.00     0.006 A 
ATOM      5  C4  UNL d   1       0.429   0.825  -0.686  0.00  0.00    -0.005 A 
ATOM      6  C5  UNL d   1       0.288  -0.099  -1.726  0.00  0.00    -0.074 A 
ATOM      7  C6  UNL d   1       0.162   0.355  -3.150  0.00  0.00     0.077 C 
ATOM      8  C7  UNL d   1       0.280  -1.468  -1.426  0.00  0.00    -0.001 A 
ENDROOT
TORSDOF 0
ENDMDL
