MODEL 1
REMARK minimizedAffinity -0.275230289
REMARK minimizedRMSD -1
REMARK  0 active torsions:
REMARK  status: ('A' for Active; 'I' for Inactive)
ROOT
ATOM      1  C   UNL d   1       0.200   5.050   2.746  0.00  0.00     0.077 C 
ATOM      2  C1  UNL d   1       0.863   4.150   1.747  0.00  0.00    -0.074 A 
ATOM      3  C2  UNL d   1       2.257   4.061   1.674  0.00  0.00    -0.005 A 
ATOM      4  C3  UNL d   1       2.860   3.211   0.746  0.00  0.00     0.006 A 
ATOM      5  C4  UNL d   1       2.077   2.443  -0.116  0.00  0.00    -0.005 A 
ATOM      6  C5  UNL d   1       0.682   2.518  -0.057  0.00  0.00    -0.074 A 
ATOM      7  C6  UNL d   1      -0.175   1.692  -0.970  0.00  0.00     0.077 C 
ATOM      8  C7  UNL d   1       0.083   3.369   0.883  0.00  0.00    -0.001 A 
ENDROOT
TORSDOF 0
ENDMDL
