MODEL 1
REMARK minimizedAffinity -2.94385004
REMARK minimizedRMSD -1
REMARK  0 active torsions:
REMARK  status: ('A' for Active; 'I' for Inactive)
ROOT
ATOM      1  C   UNL d   1       2.375   3.610   0.373  0.00  0.00     0.077 C 
ATOM      2  C1  UNL d   1       1.530   2.372   0.413  0.00  0.00    -0.074 A 
ATOM      3  C2  UNL d   1       0.460   2.203  -0.472  0.00  0.00    -0.005 A 
ATOM      4  C3  UNL d   1      -0.311   1.042  -0.430  0.00  0.00     0.006 A 
ATOM      5  C4  UNL d   1      -0.022   0.040   0.497  0.00  0.00    -0.005 A 
ATOM      6  C5  UNL d   1       1.045   0.191   1.390  0.00  0.00    -0.074 A 
ATOM      7  C6  UNL d   1       1.375  -0.881   2.385  0.00  0.00     0.077 C 
ATOM      8  C7  UNL d   1       1.819   1.357   1.336  0.00  0.00    -0.001 A 
ENDROOT
TORSDOF 0
ENDMDL
