MODEL 1
REMARK minimizedAffinity -5.93086481
REMARK minimizedRMSD -1
REMARK  0 active torsions:
REMARK  status: ('A' for Active; 'I' for Inactive)
ROOT
ATOM      1  C   UNL d   1      -0.895   0.901  -0.148  0.00  0.00     0.077 C 
ATOM      2  C1  UNL d   1      -0.660  -0.571  -0.315  0.00  0.00    -0.074 A 
ATOM      3  C2  UNL d   1      -0.593  -1.419   0.795  0.00  0.00    -0.005 A 
ATOM      4  C3  UNL d   1      -0.384  -2.787   0.623  0.00  0.00     0.006 A 
ATOM      5  C4  UNL d   1      -0.239  -3.320  -0.658  0.00  0.00    -0.005 A 
ATOM      6  C5  UNL d   1      -0.304  -2.488  -1.780  0.00  0.00    -0.074 A 
ATOM      7  C6  UNL d   1      -0.161  -3.046  -3.165  0.00  0.00     0.077 C 
ATOM      8  C7  UNL d   1      -0.522  -1.115  -1.600  0.00  0.00    -0.001 A 
ENDROOT
TORSDOF 0
ENDMDL
