MODEL 1
REMARK minimizedAffinity -5.32268524
REMARK minimizedRMSD -1
REMARK  0 active torsions:
REMARK  status: ('A' for Active; 'I' for Inactive)
ROOT
ATOM      1  C   UNL d   1       0.138   0.398  -0.449  0.00  0.00     0.077 C 
ATOM      2  C1  UNL d   1       0.047  -1.072  -0.737  0.00  0.00    -0.074 A 
ATOM      3  C2  UNL d   1       0.883  -1.984  -0.085  0.00  0.00    -0.005 A 
ATOM      4  C3  UNL d   1       0.781  -3.349  -0.356  0.00  0.00     0.006 A 
ATOM      5  C4  UNL d   1      -0.156  -3.814  -1.280  0.00  0.00    -0.005 A 
ATOM      6  C5  UNL d   1      -1.000  -2.916  -1.941  0.00  0.00    -0.074 A 
ATOM      7  C6  UNL d   1      -2.018  -3.400  -2.930  0.00  0.00     0.077 C 
ATOM      8  C7  UNL d   1      -0.896  -1.547  -1.659  0.00  0.00    -0.001 A 
ENDROOT
TORSDOF 0
ENDMDL
