MODEL 1
REMARK minimizedAffinity -5.0344243
REMARK minimizedRMSD -1
REMARK  0 active torsions:
REMARK  status: ('A' for Active; 'I' for Inactive)
ROOT
ATOM      1  C   UNL d   1       0.085  -3.948  -0.121  0.00  0.00     0.077 C 
ATOM      2  C1  UNL d   1      -0.027  -2.456  -0.015  0.00  0.00    -0.074 A 
ATOM      3  C2  UNL d   1       0.443  -1.626  -1.038  0.00  0.00    -0.005 A 
ATOM      4  C3  UNL d   1       0.324  -0.240  -0.930  0.00  0.00     0.006 A 
ATOM      5  C4  UNL d   1      -0.266   0.328   0.200  0.00  0.00    -0.005 A 
ATOM      6  C5  UNL d   1      -0.742  -0.486   1.232  0.00  0.00    -0.074 A 
ATOM      7  C6  UNL d   1      -1.387   0.108   2.449  0.00  0.00     0.077 C 
ATOM      8  C7  UNL d   1      -0.625  -1.878   1.113  0.00  0.00    -0.001 A 
ENDROOT
TORSDOF 0
ENDMDL
