MODEL 1
REMARK minimizedAffinity -4.20198059
REMARK minimizedRMSD -1
REMARK  0 active torsions:
REMARK  status: ('A' for Active; 'I' for Inactive)
ROOT
ATOM      1  C   UNL d   1       0.216   1.583   0.041  0.00  0.00     0.077 C 
ATOM      2  C1  UNL d   1      -0.169   0.135   0.102  0.00  0.00    -0.074 A 
ATOM      3  C2  UNL d   1      -0.485  -0.474   1.321  0.00  0.00    -0.005 A 
ATOM      4  C3  UNL d   1      -0.850  -1.820   1.361  0.00  0.00     0.006 A 
ATOM      5  C4  UNL d   1      -0.902  -2.569   0.185  0.00  0.00    -0.005 A 
ATOM      6  C5  UNL d   1      -0.591  -1.977  -1.043  0.00  0.00    -0.074 A 
ATOM      7  C6  UNL d   1      -0.652  -2.765  -2.318  0.00  0.00     0.077 C 
ATOM      8  C7  UNL d   1      -0.232  -0.623  -1.076  0.00  0.00    -0.001 A 
ENDROOT
TORSDOF 0
ENDMDL
