MODEL 1
REMARK minimizedAffinity -3.47954726
REMARK minimizedRMSD -1
REMARK  0 active torsions:
REMARK  status: ('A' for Active; 'I' for Inactive)
ROOT
ATOM      1  C   UNL d   1       0.343  -2.203  -3.055  0.00  0.00     0.077 C 
ATOM      2  C1  UNL d   1       0.195  -2.018  -1.574  0.00  0.00    -0.074 A 
ATOM      3  C2  UNL d   1      -0.278  -3.055  -0.764  0.00  0.00    -0.005 A 
ATOM      4  C3  UNL d   1      -0.401  -2.871   0.614  0.00  0.00     0.006 A 
ATOM      5  C4  UNL d   1      -0.054  -1.650   1.193  0.00  0.00    -0.005 A 
ATOM      6  C5  UNL d   1       0.422  -0.602   0.399  0.00  0.00    -0.074 A 
ATOM      7  C6  UNL d   1       0.809   0.713   1.007  0.00  0.00     0.077 C 
ATOM      8  C7  UNL d   1       0.549  -0.797  -0.983  0.00  0.00    -0.001 A 
ENDROOT
TORSDOF 0
ENDMDL
