MODEL 1
REMARK minimizedAffinity -5.03753948
REMARK minimizedRMSD -1
REMARK  0 active torsions:
REMARK  status: ('A' for Active; 'I' for Inactive)
ROOT
ATOM      1  C   UNL d   1       0.098  -2.712  -3.271  0.00  0.00     0.077 C 
ATOM      2  C1  UNL d   1       0.089  -2.649  -1.773  0.00  0.00    -0.074 A 
ATOM      3  C2  UNL d   1       0.273  -3.802  -1.004  0.00  0.00    -0.005 A 
ATOM      4  C3  UNL d   1       0.272  -3.727   0.389  0.00  0.00     0.006 A 
ATOM      5  C4  UNL d   1       0.087  -2.499   1.026  0.00  0.00    -0.005 A 
ATOM      6  C5  UNL d   1      -0.097  -1.335   0.273  0.00  0.00    -0.074 A 
ATOM      7  C6  UNL d   1      -0.287  -0.006   0.942  0.00  0.00     0.077 C 
ATOM      8  C7  UNL d   1      -0.088  -1.418  -1.126  0.00  0.00    -0.001 A 
ENDROOT
TORSDOF 0
ENDMDL
