MODEL 1
REMARK minimizedAffinity -5.66864109
REMARK minimizedRMSD -1
REMARK  0 active torsions:
REMARK  status: ('A' for Active; 'I' for Inactive)
ROOT
ATOM      1  C   UNL d   1      -0.311   1.037  -0.366  0.00  0.00     0.077 C 
ATOM      2  C1  UNL d   1      -0.423  -0.371  -0.871  0.00  0.00    -0.074 A 
ATOM      3  C2  UNL d   1      -0.118  -0.685  -2.199  0.00  0.00    -0.005 A 
ATOM      4  C3  UNL d   1      -0.217  -2.000  -2.652  0.00  0.00     0.006 A 
ATOM      5  C4  UNL d   1      -0.621  -3.014  -1.782  0.00  0.00    -0.005 A 
ATOM      6  C5  UNL d   1      -0.929  -2.719  -0.450  0.00  0.00    -0.074 A 
ATOM      7  C6  UNL d   1      -1.356  -3.798   0.500  0.00  0.00     0.077 C 
ATOM      8  C7  UNL d   1      -0.821  -1.396  -0.001  0.00  0.00    -0.001 A 
ENDROOT
TORSDOF 0
ENDMDL
