MODEL 1
REMARK minimizedAffinity -5.53677845
REMARK minimizedRMSD -1
REMARK  0 active torsions:
REMARK  status: ('A' for Active; 'I' for Inactive)
ROOT
ATOM      1  C   UNL d   1       0.066   1.587   0.001  0.00  0.00     0.077 C 
ATOM      2  C1  UNL d   1       0.111   0.234  -0.646  0.00  0.00    -0.074 A 
ATOM      3  C2  UNL d   1       0.136   0.105  -2.039  0.00  0.00    -0.005 A 
ATOM      4  C3  UNL d   1       0.188  -1.159  -2.626  0.00  0.00     0.006 A 
ATOM      5  C4  UNL d   1       0.214  -2.304  -1.829  0.00  0.00    -0.005 A 
ATOM      6  C5  UNL d   1       0.190  -2.194  -0.435  0.00  0.00    -0.074 A 
ATOM      7  C6  UNL d   1       0.227  -3.414   0.436  0.00  0.00     0.077 C 
ATOM      8  C7  UNL d   1       0.145  -0.920   0.148  0.00  0.00    -0.001 A 
ENDROOT
TORSDOF 0
ENDMDL
