MODEL 1
REMARK minimizedAffinity -5.792624
REMARK minimizedRMSD -1
REMARK  0 active torsions:
REMARK  status: ('A' for Active; 'I' for Inactive)
ROOT
ATOM      1  C   UNL d   1      -0.030  -3.011  -3.038  0.00  0.00     0.077 C 
ATOM      2  C1  UNL d   1      -0.230  -2.387  -1.689  0.00  0.00    -0.074 A 
ATOM      3  C2  UNL d   1      -0.504  -3.175  -0.566  0.00  0.00    -0.005 A 
ATOM      4  C3  UNL d   1      -0.678  -2.581   0.684  0.00  0.00     0.006 A 
ATOM      5  C4  UNL d   1      -0.581  -1.196   0.824  0.00  0.00    -0.005 A 
ATOM      6  C5  UNL d   1      -0.307  -0.392  -0.288  0.00  0.00    -0.074 A 
ATOM      7  C6  UNL d   1      -0.189   1.097  -0.153  0.00  0.00     0.077 C 
ATOM      8  C7  UNL d   1      -0.126  -0.997  -1.539  0.00  0.00    -0.001 A 
ENDROOT
TORSDOF 0
ENDMDL
