MODEL 1
REMARK minimizedAffinity -0.689596415
REMARK minimizedRMSD -1
REMARK  0 active torsions:
REMARK  status: ('A' for Active; 'I' for Inactive)
ROOT
ATOM      1  C   UNL d   1      -0.108   1.785   1.124  0.00  0.00     0.077 C 
ATOM      2  C1  UNL d   1      -0.373   0.397   0.620  0.00  0.00    -0.074 A 
ATOM      3  C2  UNL d   1      -0.975  -0.563   1.440  0.00  0.00    -0.005 A 
ATOM      4  C3  UNL d   1      -1.224  -1.846   0.954  0.00  0.00     0.006 A 
ATOM      5  C4  UNL d   1      -0.875  -2.182  -0.355  0.00  0.00    -0.005 A 
ATOM      6  C5  UNL d   1      -0.273  -1.235  -1.190  0.00  0.00    -0.074 A 
ATOM      7  C6  UNL d   1       0.099  -1.576  -2.602  0.00  0.00     0.077 C 
ATOM      8  C7  UNL d   1      -0.033   0.055  -0.697  0.00  0.00    -0.001 A 
ENDROOT
TORSDOF 0
ENDMDL
