MODEL 1
REMARK minimizedAffinity -2.67334652
REMARK minimizedRMSD -1
REMARK  0 active torsions:
REMARK  status: ('A' for Active; 'I' for Inactive)
ROOT
ATOM      1  C   UNL d   1      -0.310   1.421  -0.739  0.00  0.00     0.077 C 
ATOM      2  C1  UNL d   1       0.608   2.483  -0.211  0.00  0.00    -0.074 A 
ATOM      3  C2  UNL d   1       1.877   2.677  -0.765  0.00  0.00    -0.005 A 
ATOM      4  C3  UNL d   1       2.716   3.675  -0.270  0.00  0.00     0.006 A 
ATOM      5  C4  UNL d   1       2.296   4.487   0.784  0.00  0.00    -0.005 A 
ATOM      6  C5  UNL d   1       1.030   4.309   1.350  0.00  0.00    -0.074 A 
ATOM      7  C6  UNL d   1       0.558   5.180   2.477  0.00  0.00     0.077 C 
ATOM      8  C7  UNL d   1       0.189   3.309   0.842  0.00  0.00    -0.001 A 
ENDROOT
TORSDOF 0
ENDMDL
