MODEL 1
REMARK minimizedAffinity -3.74713969
REMARK minimizedRMSD -1
REMARK  0 active torsions:
REMARK  status: ('A' for Active; 'I' for Inactive)
ROOT
ATOM      1  C   UNL d   1      -0.283  -4.039   0.406  0.00  0.00     0.077 C 
ATOM      2  C1  UNL d   1      -0.106  -2.784  -0.396  0.00  0.00    -0.074 A 
ATOM      3  C2  UNL d   1       0.077  -2.837  -1.782  0.00  0.00    -0.005 A 
ATOM      4  C3  UNL d   1       0.231  -1.661  -2.516  0.00  0.00     0.006 A 
ATOM      5  C4  UNL d   1       0.205  -0.422  -1.873  0.00  0.00    -0.005 A 
ATOM      6  C5  UNL d   1       0.022  -0.350  -0.488  0.00  0.00    -0.074 A 
ATOM      7  C6  UNL d   1      -0.020   0.973   0.217  0.00  0.00     0.077 C 
ATOM      8  C7  UNL d   1      -0.140  -1.536   0.241  0.00  0.00    -0.001 A 
ENDROOT
TORSDOF 0
ENDMDL
