MODEL 1
REMARK minimizedAffinity 3.44128609
REMARK minimizedRMSD -1
REMARK  1 active torsions:
REMARK  status: ('A' for Active; 'I' for Inactive)
REMARK    1  A    between atoms: N_2  and  C1_3 
ROOT
ATOM      1  C1  UNL d   1       3.175  -1.014  -0.184  0.00  0.00     0.143 A 
ATOM      2  C2  UNL d   1       2.412   0.121   0.110  0.00  0.00    -0.057 A 
ATOM      3  C3  UNL d   1       2.984   1.400   0.114  0.00  0.00     0.033 A 
ATOM      4  C4  UNL d   1       4.340   1.562  -0.147  0.00  0.00    -0.042 A 
ATOM      5  C5  UNL d   1       5.124   0.446  -0.416  0.00  0.00     0.033 A 
ATOM      6  C6  UNL d   1       4.545  -0.827  -0.426  0.00  0.00    -0.057 A 
ENDROOT
BRANCH   1   7
ATOM      7  N   UNL d   1       2.687  -2.320  -0.108  0.00  0.00    -0.732 N 
ATOM      8  C   UNL d   1       1.970  -2.905  -1.220  0.00  0.00     0.284 C 
ATOM      9  H3  UNL d   1       3.343  -2.954   0.344  0.00  0.00     0.395 HD
ENDBRANCH   1   7
TORSDOF 1
ENDMDL
