MODEL 1
REMARK minimizedAffinity 4.95915794
REMARK minimizedRMSD -1
REMARK  1 active torsions:
REMARK  status: ('A' for Active; 'I' for Inactive)
REMARK    1  A    between atoms: N_2  and  C1_3 
ROOT
ATOM      1  C1  UNL d   1       0.393  -4.187   4.550  0.00  0.00     0.143 A 
ATOM      2  C2  UNL d   1      -0.409  -3.308   5.286  0.00  0.00    -0.057 A 
ATOM      3  C3  UNL d   1      -1.524  -3.766   5.999  0.00  0.00     0.033 A 
ATOM      4  C4  UNL d   1      -1.873  -5.112   5.965  0.00  0.00    -0.042 A 
ATOM      5  C5  UNL d   1      -1.104  -6.000   5.221  0.00  0.00     0.033 A 
ATOM      6  C6  UNL d   1       0.011  -5.537   4.516  0.00  0.00    -0.057 A 
ENDROOT
BRANCH   1   7
ATOM      7  N   UNL d   1       1.456  -3.777   3.741  0.00  0.00    -0.732 N 
ATOM      8  C   UNL d   1       1.308  -2.652   2.843  0.00  0.00     0.284 C 
ATOM      9  H3  UNL d   1       2.348  -3.806   4.229  0.00  0.00     0.395 HD
ENDBRANCH   1   7
TORSDOF 1
ENDMDL
