MODEL 1
REMARK minimizedAffinity 7.81829739
REMARK minimizedRMSD -1
REMARK  1 active torsions:
REMARK  status: ('A' for Active; 'I' for Inactive)
REMARK    1  A    between atoms: N_2  and  C1_3 
ROOT
ATOM      1  C1  UNL d   1      -1.692  -0.597   1.097  0.00  0.00     0.143 A 
ATOM      2  C2  UNL d   1      -1.453  -0.872  -0.253  0.00  0.00    -0.057 A 
ATOM      3  C3  UNL d   1      -0.161  -0.815  -0.788  0.00  0.00     0.033 A 
ATOM      4  C4  UNL d   1       0.916  -0.452   0.015  0.00  0.00    -0.042 A 
ATOM      5  C5  UNL d   1       0.698  -0.150   1.355  0.00  0.00     0.033 A 
ATOM      6  C6  UNL d   1      -0.594  -0.216   1.884  0.00  0.00    -0.057 A 
ENDROOT
BRANCH   1   7
ATOM      7  N   UNL d   1      -2.967  -0.541   1.666  0.00  0.00    -0.732 N 
ATOM      8  C   UNL d   1      -3.998   0.291   1.083  0.00  0.00     0.284 C 
ATOM      9  H3  UNL d   1      -3.295  -1.453   1.976  0.00  0.00     0.395 HD
ENDBRANCH   1   7
TORSDOF 1
ENDMDL
