MODEL 1
REMARK minimizedAffinity 8.3695507
REMARK minimizedRMSD -1
REMARK  1 active torsions:
REMARK  status: ('A' for Active; 'I' for Inactive)
REMARK    1  A    between atoms: N_2  and  C1_3 
ROOT
ATOM      1  C1  UNL d   1       1.732  -2.210  -1.314  0.00  0.00     0.143 A 
ATOM      2  C2  UNL d   1       0.462  -2.425  -1.860  0.00  0.00    -0.057 A 
ATOM      3  C3  UNL d   1      -0.631  -1.633  -1.488  0.00  0.00     0.033 A 
ATOM      4  C4  UNL d   1      -0.479  -0.627  -0.539  0.00  0.00    -0.042 A 
ATOM      5  C5  UNL d   1       0.769  -0.412   0.035  0.00  0.00     0.033 A 
ATOM      6  C6  UNL d   1       1.859  -1.202  -0.345  0.00  0.00    -0.057 A 
ENDROOT
BRANCH   1   7
ATOM      7  N   UNL d   1       2.837  -3.027  -1.569  0.00  0.00    -0.732 N 
ATOM      8  C   UNL d   1       3.768  -2.698  -2.627  0.00  0.00     0.284 C 
ATOM      9  H3  UNL d   1       3.278  -3.361  -0.716  0.00  0.00     0.395 HD
ENDBRANCH   1   7
TORSDOF 1
ENDMDL
