MODEL 1
REMARK minimizedAffinity 10.0347252
REMARK minimizedRMSD -1
REMARK  1 active torsions:
REMARK  status: ('A' for Active; 'I' for Inactive)
REMARK    1  A    between atoms: N_2  and  C1_3 
ROOT
ATOM      1  C1  UNL d   1       0.117  -4.365   4.102  0.00  0.00     0.143 A 
ATOM      2  C2  UNL d   1      -0.441  -5.648   4.109  0.00  0.00    -0.057 A 
ATOM      3  C3  UNL d   1      -1.440  -6.000   5.025  0.00  0.00     0.033 A 
ATOM      4  C4  UNL d   1      -1.878  -5.081   5.972  0.00  0.00    -0.042 A 
ATOM      5  C5  UNL d   1      -1.320  -3.808   6.000  0.00  0.00     0.033 A 
ATOM      6  C6  UNL d   1      -0.328  -3.460   5.078  0.00  0.00    -0.057 A 
ENDROOT
BRANCH   1   7
ATOM      7  N   UNL d   1       1.182  -3.985   3.281  0.00  0.00    -0.732 N 
ATOM      8  C   UNL d   1       1.159  -2.717   2.584  0.00  0.00     0.284 C 
ATOM      9  H3  UNL d   1       2.086  -4.222   3.684  0.00  0.00     0.395 HD
ENDBRANCH   1   7
TORSDOF 1
ENDMDL
