MODEL 1
REMARK minimizedAffinity 12.9288044
REMARK minimizedRMSD -1
REMARK  0 active torsions:
REMARK  status: ('A' for Active; 'I' for Inactive)
ROOT
ATOM      1  C   UNL d   1       2.086  -1.671   3.328  0.00  0.00     0.124 A 
ATOM      2  C1  UNL d   1       2.670  -0.558   2.738  0.00  0.00     0.062 A 
ATOM      3  C2  UNL d   1       2.252  -0.131   1.481  0.00  0.00     0.162 A 
ATOM      4  C3  UNL d   1       1.242  -0.816   0.805  0.00  0.00    -0.034 A 
ATOM      5  C4  UNL d   1       0.660  -1.935   1.404  0.00  0.00     0.162 A 
ATOM      6  C5  UNL d   1       1.081  -2.358   2.660  0.00  0.00     0.062 A 
ATOM      7  F   UNL d   1       0.515  -3.433   3.228  0.00  0.00    -0.097 F 
ATOM      8  F1  UNL d   1      -0.313  -2.617   0.782  0.00  0.00    -0.096 F 
ATOM      9  I   UNL d   1       0.614  -0.181  -1.075  0.00  0.00    -0.060 I 
ATOM     10  F2  UNL d   1       2.834   0.947   0.936  0.00  0.00    -0.096 F 
ATOM     11  F3  UNL d   1       3.641   0.106   3.380  0.00  0.00    -0.097 F 
ATOM     12  F4  UNL d   1       2.491  -2.080   4.537  0.00  0.00    -0.092 F 
ENDROOT
TORSDOF 0
ENDMDL
