MODEL 1
REMARK minimizedAffinity 13.1274529
REMARK minimizedRMSD -1
REMARK  0 active torsions:
REMARK  status: ('A' for Active; 'I' for Inactive)
ROOT
ATOM      1  C   UNL d   1       0.647  -1.967   2.636  0.00  0.00     0.124 A 
ATOM      2  C1  UNL d   1       0.415  -1.644   1.306  0.00  0.00     0.062 A 
ATOM      3  C2  UNL d   1       1.246  -0.740   0.651  0.00  0.00     0.162 A 
ATOM      4  C3  UNL d   1       2.317  -0.153   1.323  0.00  0.00    -0.034 A 
ATOM      5  C4  UNL d   1       2.544  -0.482   2.661  0.00  0.00     0.162 A 
ATOM      6  C5  UNL d   1       1.711  -1.386   3.312  0.00  0.00     0.062 A 
ATOM      7  F   UNL d   1       1.937  -1.697   4.597  0.00  0.00    -0.097 F 
ATOM      8  F1  UNL d   1       3.565   0.064   3.338  0.00  0.00    -0.096 F 
ATOM      9  I   UNL d   1       3.561   1.200   0.346  0.00  0.00    -0.060 I 
ATOM     10  F2  UNL d   1       0.998  -0.446  -0.635  0.00  0.00    -0.096 F 
ATOM     11  F3  UNL d   1      -0.612  -2.204   0.651  0.00  0.00    -0.097 F 
ATOM     12  F4  UNL d   1      -0.154  -2.837   3.265  0.00  0.00    -0.092 F 
ENDROOT
TORSDOF 0
ENDMDL
