MODEL 1
REMARK minimizedAffinity 15.8772526
REMARK minimizedRMSD -1
REMARK  0 active torsions:
REMARK  status: ('A' for Active; 'I' for Inactive)
ROOT
ATOM      1  C   UNL d   1      -2.195   0.843  -2.366  0.00  0.00     0.124 A 
ATOM      2  C1  UNL d   1      -2.694   0.376  -1.158  0.00  0.00     0.062 A 
ATOM      3  C2  UNL d   1      -1.824  -0.032  -0.151  0.00  0.00     0.162 A 
ATOM      4  C3  UNL d   1      -0.444   0.025  -0.349  0.00  0.00    -0.034 A 
ATOM      5  C4  UNL d   1       0.050   0.494  -1.567  0.00  0.00     0.162 A 
ATOM      6  C5  UNL d   1      -0.824   0.901  -2.570  0.00  0.00     0.062 A 
ATOM      7  F   UNL d   1      -0.340   1.351  -3.736  0.00  0.00    -0.097 F 
ATOM      8  F1  UNL d   1       1.371   0.562  -1.790  0.00  0.00    -0.096 F 
ATOM      9  I   UNL d   1       0.861  -0.585   1.153  0.00  0.00    -0.060 I 
ATOM     10  F2  UNL d   1      -2.334  -0.478   1.006  0.00  0.00    -0.096 F 
ATOM     11  F3  UNL d   1      -4.019   0.318  -0.959  0.00  0.00    -0.097 F 
ATOM     12  F4  UNL d   1      -3.035   1.234  -3.333  0.00  0.00    -0.092 F 
ENDROOT
TORSDOF 0
ENDMDL
