MODEL 1
REMARK minimizedAffinity 9.99586487
REMARK minimizedRMSD -1
REMARK  0 active torsions:
REMARK  status: ('A' for Active; 'I' for Inactive)
ROOT
ATOM      1  C   UNL d   1      -3.931  -2.254  -0.575  0.00  0.00     0.124 A 
ATOM      2  C1  UNL d   1      -3.769  -1.304   0.424  0.00  0.00     0.062 A 
ATOM      3  C2  UNL d   1      -4.359  -0.049   0.299  0.00  0.00     0.162 A 
ATOM      4  C3  UNL d   1      -5.117   0.263  -0.829  0.00  0.00    -0.034 A 
ATOM      5  C4  UNL d   1      -5.275  -0.698  -1.830  0.00  0.00     0.162 A 
ATOM      6  C5  UNL d   1      -4.684  -1.950  -1.700  0.00  0.00     0.062 A 
ATOM      7  F   UNL d   1      -4.842  -2.867  -2.666  0.00  0.00    -0.097 F 
ATOM      8  F1  UNL d   1      -5.998  -0.431  -2.928  0.00  0.00    -0.096 F 
ATOM      9  I   UNL d   1      -6.000   2.138  -1.020  0.00  0.00    -0.060 I 
ATOM     10  F2  UNL d   1      -4.185   0.850   1.280  0.00  0.00    -0.096 F 
ATOM     11  F3  UNL d   1      -3.042  -1.595   1.512  0.00  0.00    -0.097 F 
ATOM     12  F4  UNL d   1      -3.362  -3.460  -0.452  0.00  0.00    -0.092 F 
ENDROOT
TORSDOF 0
ENDMDL
