MODEL 1
REMARK minimizedAffinity 12.1089983
REMARK minimizedRMSD -1
REMARK  0 active torsions:
REMARK  status: ('A' for Active; 'I' for Inactive)
ROOT
ATOM      1  C   UNL d   1       3.212  -0.121   1.717  0.00  0.00     0.124 A 
ATOM      2  C1  UNL d   1       2.769   0.161   0.432  0.00  0.00     0.062 A 
ATOM      3  C2  UNL d   1       1.442  -0.071   0.083  0.00  0.00     0.162 A 
ATOM      4  C3  UNL d   1       0.548  -0.588   1.020  0.00  0.00    -0.034 A 
ATOM      5  C4  UNL d   1       1.001  -0.870   2.310  0.00  0.00     0.162 A 
ATOM      6  C5  UNL d   1       2.328  -0.636   2.654  0.00  0.00     0.062 A 
ATOM      7  F   UNL d   1       2.754  -0.909   3.896  0.00  0.00    -0.097 F 
ATOM      8  F1  UNL d   1       0.167  -1.367   3.236  0.00  0.00    -0.096 F 
ATOM      9  I   UNL d   1      -1.438  -0.937   0.501  0.00  0.00    -0.060 I 
ATOM     10  F2  UNL d   1       1.042   0.210  -1.166  0.00  0.00    -0.096 F 
ATOM     11  F3  UNL d   1       3.622   0.658  -0.475  0.00  0.00    -0.097 F 
ATOM     12  F4  UNL d   1       4.490   0.103   2.051  0.00  0.00    -0.092 F 
ENDROOT
TORSDOF 0
ENDMDL
