MODEL 1
REMARK minimizedAffinity 9.08791065
REMARK minimizedRMSD -1
REMARK  0 active torsions:
REMARK  status: ('A' for Active; 'I' for Inactive)
ROOT
ATOM      1  C   UNL d   1      -4.560  -0.510  -0.372  0.00  0.00     0.124 A 
ATOM      2  C1  UNL d   1      -4.455   0.523   0.549  0.00  0.00     0.062 A 
ATOM      3  C2  UNL d   1      -4.774   1.826   0.179  0.00  0.00     0.162 A 
ATOM      4  C3  UNL d   1      -5.204   2.104  -1.118  0.00  0.00    -0.034 A 
ATOM      5  C4  UNL d   1      -5.307   1.060  -2.039  0.00  0.00     0.162 A 
ATOM      6  C5  UNL d   1      -4.987  -0.241  -1.665  0.00  0.00     0.062 A 
ATOM      7  F   UNL d   1      -5.089  -1.237  -2.556  0.00  0.00    -0.097 F 
ATOM      8  F1  UNL d   1      -5.717   1.292  -3.295  0.00  0.00    -0.096 F 
ATOM      9  I   UNL d   1      -5.683   4.051  -1.675  0.00  0.00    -0.060 I 
ATOM     10  F2  UNL d   1      -4.663   2.804   1.090  0.00  0.00    -0.096 F 
ATOM     11  F3  UNL d   1      -4.042   0.265   1.799  0.00  0.00    -0.097 F 
ATOM     12  F4  UNL d   1      -4.251  -1.763  -0.014  0.00  0.00    -0.092 F 
ENDROOT
TORSDOF 0
ENDMDL
