MODEL 1
REMARK minimizedAffinity 10.1159286
REMARK minimizedRMSD -1
REMARK  0 active torsions:
REMARK  status: ('A' for Active; 'I' for Inactive)
ROOT
ATOM      1  C   UNL d   1       0.016  -5.977  -4.815  0.00  0.00     0.124 A 
ATOM      2  C1  UNL d   1      -1.372  -5.978  -4.811  0.00  0.00     0.062 A 
ATOM      3  C2  UNL d   1      -2.068  -5.975  -3.606  0.00  0.00     0.162 A 
ATOM      4  C3  UNL d   1      -1.378  -5.968  -2.394  0.00  0.00    -0.034 A 
ATOM      5  C4  UNL d   1       0.018  -5.968  -2.406  0.00  0.00     0.162 A 
ATOM      6  C5  UNL d   1       0.710  -5.971  -3.613  0.00  0.00     0.062 A 
ATOM      7  F   UNL d   1       2.051  -5.970  -3.615  0.00  0.00    -0.097 F 
ATOM      8  F1  UNL d   1       0.714  -5.961  -1.259  0.00  0.00    -0.096 F 
ATOM      9  I   UNL d   1      -2.415  -5.963  -0.590  0.00  0.00    -0.060 I 
ATOM     10  F2  UNL d   1      -3.409  -5.976  -3.632  0.00  0.00    -0.096 F 
ATOM     11  F3  UNL d   1      -2.045  -5.984  -5.971  0.00  0.00    -0.097 F 
ATOM     12  F4  UNL d   1       0.683  -5.981  -5.976  0.00  0.00    -0.092 F 
ENDROOT
TORSDOF 0
ENDMDL
