MODEL 1
REMARK minimizedAffinity 17.7668724
REMARK minimizedRMSD -1
REMARK  0 active torsions:
REMARK  status: ('A' for Active; 'I' for Inactive)
ROOT
ATOM      1  C   UNL d   1      -4.760   0.479  -1.929  0.00  0.00     0.124 A 
ATOM      2  C1  UNL d   1      -3.672   0.852  -2.707  0.00  0.00     0.062 A 
ATOM      3  C2  UNL d   1      -2.384   0.788  -2.185  0.00  0.00     0.162 A 
ATOM      4  C3  UNL d   1      -2.175   0.349  -0.877  0.00  0.00    -0.034 A 
ATOM      5  C4  UNL d   1      -3.274  -0.023  -0.101  0.00  0.00     0.162 A 
ATOM      6  C5  UNL d   1      -4.560   0.042  -0.627  0.00  0.00     0.062 A 
ATOM      7  F   UNL d   1      -5.609  -0.318   0.126  0.00  0.00    -0.097 F 
ATOM      8  F1  UNL d   1      -3.109  -0.449   1.160  0.00  0.00    -0.096 F 
ATOM      9  I   UNL d   1      -0.249   0.253  -0.093  0.00  0.00    -0.060 I 
ATOM     10  F2  UNL d   1      -1.352   1.155  -2.959  0.00  0.00    -0.096 F 
ATOM     11  F3  UNL d   1      -3.863   1.275  -3.965  0.00  0.00    -0.097 F 
ATOM     12  F4  UNL d   1      -5.999   0.542  -2.433  0.00  0.00    -0.092 F 
ENDROOT
TORSDOF 0
ENDMDL
