MODEL 1
REMARK minimizedAffinity 12.8721199
REMARK minimizedRMSD -1
REMARK  0 active torsions:
REMARK  status: ('A' for Active; 'I' for Inactive)
ROOT
ATOM      1  C   UNL d   1       0.359  -1.629   1.254  0.00  0.00     0.124 A 
ATOM      2  C1  UNL d   1      -0.021  -0.376   0.791  0.00  0.00     0.062 A 
ATOM      3  C2  UNL d   1       0.945   0.554   0.417  0.00  0.00     0.162 A 
ATOM      4  C3  UNL d   1       2.300   0.235   0.503  0.00  0.00    -0.034 A 
ATOM      5  C4  UNL d   1       2.674  -1.027   0.970  0.00  0.00     0.162 A 
ATOM      6  C5  UNL d   1       1.705  -1.953   1.342  0.00  0.00     0.062 A 
ATOM      7  F   UNL d   1       2.073  -3.162   1.789  0.00  0.00    -0.097 F 
ATOM      8  F1  UNL d   1       3.968  -1.367   1.065  0.00  0.00    -0.096 F 
ATOM      9  I   UNL d   1       3.747   1.623  -0.055  0.00  0.00    -0.060 I 
ATOM     10  F2  UNL d   1       0.550   1.757  -0.026  0.00  0.00    -0.096 F 
ATOM     11  F3  UNL d   1      -1.321  -0.060   0.705  0.00  0.00    -0.097 F 
ATOM     12  F4  UNL d   1      -0.573  -2.521   1.614  0.00  0.00    -0.092 F 
ENDROOT
TORSDOF 0
ENDMDL
