MODEL 1
REMARK minimizedAffinity 12.7555828
REMARK minimizedRMSD -1
REMARK  0 active torsions:
REMARK  status: ('A' for Active; 'I' for Inactive)
ROOT
ATOM      1  C   UNL d   1       0.871  -0.544   1.254  0.00  0.00     0.124 A 
ATOM      2  C1  UNL d   1       0.121  -1.705   1.385  0.00  0.00     0.062 A 
ATOM      3  C2  UNL d   1      -1.267  -1.655   1.294  0.00  0.00     0.162 A 
ATOM      4  C3  UNL d   1      -1.914  -0.440   1.068  0.00  0.00    -0.034 A 
ATOM      5  C4  UNL d   1      -1.153   0.723   0.937  0.00  0.00     0.162 A 
ATOM      6  C5  UNL d   1       0.234   0.668   1.030  0.00  0.00     0.062 A 
ATOM      7  F   UNL d   1       0.957   1.790   0.902  0.00  0.00    -0.097 F 
ATOM      8  F1  UNL d   1      -1.743   1.908   0.720  0.00  0.00    -0.096 F 
ATOM      9  I   UNL d   1      -3.989  -0.361   0.930  0.00  0.00    -0.060 I 
ATOM     10  F2  UNL d   1      -1.967  -2.792   1.425  0.00  0.00    -0.096 F 
ATOM     11  F3  UNL d   1       0.734  -2.877   1.602  0.00  0.00    -0.097 F 
ATOM     12  F4  UNL d   1       2.206  -0.595   1.343  0.00  0.00    -0.092 F 
ENDROOT
TORSDOF 0
ENDMDL
