MODEL 1
REMARK minimizedAffinity 6.50974464
REMARK minimizedRMSD -1
REMARK  0 active torsions:
REMARK  status: ('A' for Active; 'I' for Inactive)
ROOT
ATOM      1  C   UNL d   1       1.456  -1.988   1.011  0.00  0.00     0.124 A 
ATOM      2  C1  UNL d   1       0.294  -2.729   0.843  0.00  0.00     0.062 A 
ATOM      3  C2  UNL d   1      -0.907  -2.090   0.551  0.00  0.00     0.162 A 
ATOM      4  C3  UNL d   1      -0.953  -0.702   0.423  0.00  0.00    -0.034 A 
ATOM      5  C4  UNL d   1       0.219   0.036   0.595  0.00  0.00     0.162 A 
ATOM      6  C5  UNL d   1       1.417  -0.607   0.886  0.00  0.00     0.062 A 
ATOM      7  F   UNL d   1       2.538   0.111   1.048  0.00  0.00    -0.097 F 
ATOM      8  F1  UNL d   1       0.210   1.373   0.479  0.00  0.00    -0.096 F 
ATOM      9  I   UNL d   1      -2.748   0.257  -0.014  0.00  0.00    -0.060 I 
ATOM     10  F2  UNL d   1      -2.014  -2.832   0.394  0.00  0.00    -0.096 F 
ATOM     11  F3  UNL d   1       0.329  -4.064   0.963  0.00  0.00    -0.097 F 
ATOM     12  F4  UNL d   1       2.611  -2.605   1.293  0.00  0.00    -0.092 F 
ENDROOT
TORSDOF 0
ENDMDL
