MODEL 1
REMARK minimizedAffinity 21.8785744
REMARK minimizedRMSD -1
REMARK  0 active torsions:
REMARK  status: ('A' for Active; 'I' for Inactive)
ROOT
ATOM      1  C   UNL d   1       1.208  -1.065   0.654  0.00  0.00     0.124 A 
ATOM      2  C1  UNL d   1       0.073  -1.816   0.926  0.00  0.00     0.062 A 
ATOM      3  C2  UNL d   1      -1.129  -1.524   0.287  0.00  0.00     0.162 A 
ATOM      4  C3  UNL d   1      -1.201  -0.476  -0.630  0.00  0.00    -0.034 A 
ATOM      5  C4  UNL d   1      -0.056   0.275  -0.898  0.00  0.00     0.162 A 
ATOM      6  C5  UNL d   1       1.143  -0.021  -0.257  0.00  0.00     0.062 A 
ATOM      7  F   UNL d   1       2.239   0.706  -0.521  0.00  0.00    -0.097 F 
ATOM      8  F1  UNL d   1      -0.090   1.290  -1.775  0.00  0.00    -0.096 F 
ATOM      9  I   UNL d   1      -2.997  -0.036  -1.587  0.00  0.00    -0.060 I 
ATOM     10  F2  UNL d   1      -2.210  -2.266   0.569  0.00  0.00    -0.096 F 
ATOM     11  F3  UNL d   1       0.133  -2.825   1.807  0.00  0.00    -0.097 F 
ATOM     12  F4  UNL d   1       2.363  -1.348   1.270  0.00  0.00    -0.092 F 
ENDROOT
TORSDOF 0
ENDMDL
