MODEL 1
REMARK minimizedAffinity 8.61780357
REMARK minimizedRMSD -1
REMARK  0 active torsions:
REMARK  status: ('A' for Active; 'I' for Inactive)
ROOT
ATOM      1  C   UNL d   1       1.020  -0.571   0.660  0.00  0.00     0.124 A 
ATOM      2  C1  UNL d   1       0.187  -1.681   0.651  0.00  0.00     0.062 A 
ATOM      3  C2  UNL d   1      -1.195  -1.519   0.641  0.00  0.00     0.162 A 
ATOM      4  C3  UNL d   1      -1.754  -0.241   0.640  0.00  0.00    -0.034 A 
ATOM      5  C4  UNL d   1      -0.910   0.871   0.650  0.00  0.00     0.162 A 
ATOM      6  C5  UNL d   1       0.471   0.703   0.660  0.00  0.00     0.062 A 
ATOM      7  F   UNL d   1       1.275   1.777   0.669  0.00  0.00    -0.097 F 
ATOM      8  F1  UNL d   1      -1.413   2.114   0.649  0.00  0.00    -0.096 F 
ATOM      9  I   UNL d   1      -3.820   0.006   0.626  0.00  0.00    -0.060 I 
ATOM     10  F2  UNL d   1      -1.976  -2.610   0.632  0.00  0.00    -0.096 F 
ATOM     11  F3  UNL d   1       0.715  -2.914   0.652  0.00  0.00    -0.097 F 
ATOM     12  F4  UNL d   1       2.350  -0.730   0.670  0.00  0.00    -0.092 F 
ENDROOT
TORSDOF 0
ENDMDL
