MODEL 1
REMARK minimizedAffinity 12.9704294
REMARK minimizedRMSD -1
REMARK  0 active torsions:
REMARK  status: ('A' for Active; 'I' for Inactive)
ROOT
ATOM      1  C   UNL d   1      -3.971  -5.998  -1.757  0.00  0.00     0.124 A 
ATOM      2  C1  UNL d   1      -2.735  -5.996  -1.125  0.00  0.00     0.062 A 
ATOM      3  C2  UNL d   1      -1.564  -5.996  -1.877  0.00  0.00     0.162 A 
ATOM      4  C3  UNL d   1      -1.623  -5.995  -3.270  0.00  0.00    -0.034 A 
ATOM      5  C4  UNL d   1      -2.869  -5.998  -3.899  0.00  0.00     0.162 A 
ATOM      6  C5  UNL d   1      -4.037  -5.998  -3.143  0.00  0.00     0.062 A 
ATOM      7  F   UNL d   1      -5.229  -5.999  -3.756  0.00  0.00    -0.097 F 
ATOM      8  F1  UNL d   1      -2.961  -5.997  -5.237  0.00  0.00    -0.096 F 
ATOM      9  I   UNL d   1       0.126  -5.995  -4.398  0.00  0.00    -0.060 I 
ATOM     10  F2  UNL d   1      -0.384  -5.995  -1.239  0.00  0.00    -0.096 F 
ATOM     11  F3  UNL d   1      -2.669  -5.997   0.214  0.00  0.00    -0.097 F 
ATOM     12  F4  UNL d   1      -5.096  -5.999  -1.031  0.00  0.00    -0.092 F 
ENDROOT
TORSDOF 0
ENDMDL
