MODEL 1
REMARK minimizedAffinity 12.0167656
REMARK minimizedRMSD -1
REMARK  0 active torsions:
REMARK  status: ('A' for Active; 'I' for Inactive)
ROOT
ATOM      1  C   UNL d   1      -3.246  -0.774   0.545  0.00  0.00     0.124 A 
ATOM      2  C1  UNL d   1      -2.635   0.367   1.045  0.00  0.00     0.062 A 
ATOM      3  C2  UNL d   1      -1.274   0.361   1.336  0.00  0.00     0.162 A 
ATOM      4  C3  UNL d   1      -0.514  -0.790   1.128  0.00  0.00    -0.034 A 
ATOM      5  C4  UNL d   1      -1.137  -1.934   0.625  0.00  0.00     0.162 A 
ATOM      6  C5  UNL d   1      -2.497  -1.923   0.335  0.00  0.00     0.062 A 
ATOM      7  F   UNL d   1      -3.087  -3.027  -0.148  0.00  0.00    -0.097 F 
ATOM      8  F1  UNL d   1      -0.437  -3.058   0.412  0.00  0.00    -0.096 F 
ATOM      9  I   UNL d   1       1.521  -0.803   1.562  0.00  0.00    -0.060 I 
ATOM     10  F2  UNL d   1      -0.709   1.478   1.819  0.00  0.00    -0.096 F 
ATOM     11  F3  UNL d   1      -3.356   1.478   1.249  0.00  0.00    -0.097 F 
ATOM     12  F4  UNL d   1      -4.556  -0.766   0.266  0.00  0.00    -0.092 F 
ENDROOT
TORSDOF 0
ENDMDL
