MODEL 1
REMARK minimizedAffinity 12.2199335
REMARK minimizedRMSD -1
REMARK  0 active torsions:
REMARK  status: ('A' for Active; 'I' for Inactive)
ROOT
ATOM      1  C   UNL d   1      -5.247   0.768  -1.624  0.00  0.00     0.124 A 
ATOM      2  C1  UNL d   1      -4.728   1.085  -0.377  0.00  0.00     0.062 A 
ATOM      3  C2  UNL d   1      -3.946   0.161   0.311  0.00  0.00     0.162 A 
ATOM      4  C3  UNL d   1      -3.677  -1.088  -0.247  0.00  0.00    -0.034 A 
ATOM      5  C4  UNL d   1      -4.204  -1.400  -1.502  0.00  0.00     0.162 A 
ATOM      6  C5  UNL d   1      -4.985  -0.474  -2.186  0.00  0.00     0.062 A 
ATOM      7  F   UNL d   1      -5.485  -0.782  -3.391  0.00  0.00    -0.097 F 
ATOM      8  F1  UNL d   1      -3.965  -2.593  -2.068  0.00  0.00    -0.096 F 
ATOM      9  I   UNL d   1      -2.509  -2.471   0.778  0.00  0.00    -0.060 I 
ATOM     10  F2  UNL d   1      -3.458   0.495   1.515  0.00  0.00    -0.096 F 
ATOM     11  F3  UNL d   1      -4.981   2.283   0.168  0.00  0.00    -0.097 F 
ATOM     12  F4  UNL d   1      -6.000   1.657  -2.284  0.00  0.00    -0.092 F 
ENDROOT
TORSDOF 0
ENDMDL
