MODEL 1
REMARK minimizedAffinity -3.26783133
REMARK minimizedRMSD -1
REMARK  0 active torsions:
REMARK  status: ('A' for Active; 'I' for Inactive)
ROOT
ATOM      1  C   UNL d   1      -1.584   2.266   1.360  0.00  0.00     0.078 C 
ATOM      2  C1  UNL d   1      -0.928   1.477   0.266  0.00  0.00    -0.077 A 
ATOM      3  C2  UNL d   1      -0.517   0.155   0.477  0.00  0.00    -0.001 A 
ATOM      4  C3  UNL d   1       0.102  -0.564  -0.547  0.00  0.00     0.003 A 
ATOM      5  C4  UNL d   1       0.315   0.031  -1.789  0.00  0.00    -0.005 A 
ATOM      6  C5  UNL d   1      -0.089   1.346  -2.008  0.00  0.00     0.003 A 
ATOM      7  C6  UNL d   1      -0.707   2.067  -0.985  0.00  0.00    -0.001 A 
ENDROOT
TORSDOF 0
ENDMDL
