MODEL 1
REMARK minimizedAffinity -3.63724017
REMARK minimizedRMSD -1
REMARK  0 active torsions:
REMARK  status: ('A' for Active; 'I' for Inactive)
ROOT
ATOM      1  C   UNL d   1      -1.783   2.031   1.207  0.00  0.00     0.078 C 
ATOM      2  C1  UNL d   1      -1.009   1.337   0.126  0.00  0.00    -0.077 A 
ATOM      3  C2  UNL d   1      -0.350   0.126   0.375  0.00  0.00    -0.001 A 
ATOM      4  C3  UNL d   1       0.374  -0.504  -0.637  0.00  0.00     0.003 A 
ATOM      5  C4  UNL d   1       0.449   0.069  -1.905  0.00  0.00    -0.005 A 
ATOM      6  C5  UNL d   1      -0.201   1.274  -2.162  0.00  0.00     0.003 A 
ATOM      7  C6  UNL d   1      -0.927   1.906  -1.150  0.00  0.00    -0.001 A 
ENDROOT
TORSDOF 0
ENDMDL
