MODEL 1
REMARK minimizedAffinity -3.2610693
REMARK minimizedRMSD -1
REMARK  0 active torsions:
REMARK  status: ('A' for Active; 'I' for Inactive)
ROOT
ATOM      1  C   UNL d   1       0.186  -1.410  -0.917  0.00  0.00     0.078 C 
ATOM      2  C1  UNL d   1       0.012  -0.287   0.062  0.00  0.00    -0.077 A 
ATOM      3  C2  UNL d   1      -0.903   0.745  -0.181  0.00  0.00    -0.001 A 
ATOM      4  C3  UNL d   1      -1.048   1.789   0.734  0.00  0.00     0.003 A 
ATOM      5  C4  UNL d   1      -0.281   1.812   1.897  0.00  0.00    -0.005 A 
ATOM      6  C5  UNL d   1       0.633   0.790   2.146  0.00  0.00     0.003 A 
ATOM      7  C6  UNL d   1       0.780  -0.255   1.232  0.00  0.00    -0.001 A 
ENDROOT
TORSDOF 0
ENDMDL
