MODEL 1
REMARK minimizedAffinity -1.6279062
REMARK minimizedRMSD -1
REMARK  0 active torsions:
REMARK  status: ('A' for Active; 'I' for Inactive)
ROOT
ATOM      1  C   UNL d   1      -0.615   2.978   1.872  0.00  0.00     0.078 C 
ATOM      2  C1  UNL d   1      -0.179   1.830   1.013  0.00  0.00    -0.077 A 
ATOM      3  C2  UNL d   1      -0.288   1.891  -0.382  0.00  0.00    -0.001 A 
ATOM      4  C3  UNL d   1       0.114   0.810  -1.170  0.00  0.00     0.003 A 
ATOM      5  C4  UNL d   1       0.625  -0.339  -0.572  0.00  0.00    -0.005 A 
ATOM      6  C5  UNL d   1       0.735  -0.411   0.816  0.00  0.00     0.003 A 
ATOM      7  C6  UNL d   1       0.334   0.669   1.605  0.00  0.00    -0.001 A 
ENDROOT
TORSDOF 0
ENDMDL
