MODEL 1
REMARK minimizedAffinity -3.43167686
REMARK minimizedRMSD -1
REMARK  0 active torsions:
REMARK  status: ('A' for Active; 'I' for Inactive)
ROOT
ATOM      1  C   UNL d   1      -1.880   2.000   1.260  0.00  0.00     0.078 C 
ATOM      2  C1  UNL d   1      -1.032   1.227   0.294  0.00  0.00    -0.077 A 
ATOM      3  C2  UNL d   1      -0.340   0.080   0.700  0.00  0.00    -0.001 A 
ATOM      4  C3  UNL d   1       0.453  -0.624  -0.208  0.00  0.00     0.003 A 
ATOM      5  C4  UNL d   1       0.563  -0.187  -1.527  0.00  0.00    -0.005 A 
ATOM      6  C5  UNL d   1      -0.121   0.955  -1.939  0.00  0.00     0.003 A 
ATOM      7  C6  UNL d   1      -0.914   1.660  -1.033  0.00  0.00    -0.001 A 
ENDROOT
TORSDOF 0
ENDMDL
