MODEL 1
REMARK minimizedAffinity -2.29316664
REMARK minimizedRMSD -1
REMARK  0 active torsions:
REMARK  status: ('A' for Active; 'I' for Inactive)
ROOT
ATOM      1  C   UNL d   1       1.483  -6.000   0.060  0.00  0.00     0.078 C 
ATOM      2  C1  UNL d   1       0.723  -4.883  -0.590  0.00  0.00    -0.077 A 
ATOM      3  C2  UNL d   1       1.286  -3.608  -0.722  0.00  0.00    -0.001 A 
ATOM      4  C3  UNL d   1       0.563  -2.575  -1.320  0.00  0.00     0.003 A 
ATOM      5  C4  UNL d   1      -0.728  -2.807  -1.791  0.00  0.00    -0.005 A 
ATOM      6  C5  UNL d   1      -1.298  -4.072  -1.662  0.00  0.00     0.003 A 
ATOM      7  C6  UNL d   1      -0.576  -5.106  -1.064  0.00  0.00    -0.001 A 
ENDROOT
TORSDOF 0
ENDMDL
