MODEL 1
REMARK minimizedAffinity -0.812302828
REMARK minimizedRMSD -1
REMARK  0 active torsions:
REMARK  status: ('A' for Active; 'I' for Inactive)
ROOT
ATOM      1  C   UNL d   1       0.758  -0.692   1.516  0.00  0.00     0.078 C 
ATOM      2  C1  UNL d   1       0.082   0.292   0.609  0.00  0.00    -0.077 A 
ATOM      3  C2  UNL d   1       0.131   0.142  -0.783  0.00  0.00    -0.001 A 
ATOM      4  C3  UNL d   1      -0.494   1.072  -1.615  0.00  0.00     0.003 A 
ATOM      5  C4  UNL d   1      -1.171   2.159  -1.066  0.00  0.00    -0.005 A 
ATOM      6  C5  UNL d   1      -1.223   2.318   0.317  0.00  0.00     0.003 A 
ATOM      7  C6  UNL d   1      -0.599   1.389   1.152  0.00  0.00    -0.001 A 
ENDROOT
TORSDOF 0
ENDMDL
