MODEL 1
REMARK minimizedAffinity 6.08538818
REMARK minimizedRMSD -1
REMARK  1 active torsions:
REMARK  status: ('A' for Active; 'I' for Inactive)
REMARK    1  A    between atoms: C1_2  and  C2_3 
ROOT
ATOM      1  C2  UNL d   1       1.296  -0.214   2.056  0.00  0.00    -0.073 A 
ATOM      2  C3  UNL d   1       1.576  -1.082   3.117  0.00  0.00    -0.002 A 
ATOM      3  C4  UNL d   1       2.337  -0.646   4.202  0.00  0.00     0.004 A 
ATOM      4  C5  UNL d   1       2.819   0.662   4.241  0.00  0.00    -0.004 A 
ATOM      5  C6  UNL d   1       2.539   1.548   3.196  0.00  0.00    -0.075 A 
ATOM      6  C7  UNL d   1       3.052   2.958   3.221  0.00  0.00     0.076 C 
ATOM      7  C8  UNL d   1       1.777   1.102   2.108  0.00  0.00     0.001 A 
ENDROOT
BRANCH   1   8
ATOM      8  C1  UNL d   1       0.469  -0.679   0.884  0.00  0.00     0.053 C 
ATOM      9  C   UNL d   1       0.160   0.455  -0.081  0.00  0.00     0.018 C 
ENDBRANCH   1   8
TORSDOF 1
ENDMDL
