MODEL 1
REMARK minimizedAffinity -4.56837368
REMARK minimizedRMSD -1
REMARK  1 active torsions:
REMARK  status: ('A' for Active; 'I' for Inactive)
REMARK    1  A    between atoms: C1_2  and  C2_3 
ROOT
ATOM      1  C2  UNL d   1       0.815  -0.372   0.287  0.00  0.00    -0.073 A 
ATOM      2  C3  UNL d   1       0.327  -1.227   1.282  0.00  0.00    -0.002 A 
ATOM      3  C4  UNL d   1      -1.046  -1.436   1.421  0.00  0.00     0.004 A 
ATOM      4  C5  UNL d   1      -1.943  -0.800   0.564  0.00  0.00    -0.004 A 
ATOM      5  C6  UNL d   1      -1.475   0.048  -0.445  0.00  0.00    -0.075 A 
ATOM      6  C7  UNL d   1      -2.427   0.742  -1.374  0.00  0.00     0.076 C 
ATOM      7  C8  UNL d   1      -0.095   0.256  -0.576  0.00  0.00     0.001 A 
ENDROOT
BRANCH   1   8
ATOM      8  C1  UNL d   1       2.296  -0.148   0.129  0.00  0.00     0.053 C 
ATOM      9  C   UNL d   1       2.959   0.232   1.444  0.00  0.00     0.018 C 
ENDBRANCH   1   8
TORSDOF 1
ENDMDL
