MODEL 1
REMARK minimizedAffinity -4.79758835
REMARK minimizedRMSD -1
REMARK  1 active torsions:
REMARK  status: ('A' for Active; 'I' for Inactive)
REMARK    1  A    between atoms: C1_2  and  C2_3 
ROOT
ATOM      1  C2  UNL d   1      -0.752   0.317  -0.597  0.00  0.00    -0.073 A 
ATOM      2  C3  UNL d   1      -0.595  -1.026  -0.234  0.00  0.00    -0.002 A 
ATOM      3  C4  UNL d   1       0.600  -1.466   0.338  0.00  0.00     0.004 A 
ATOM      4  C5  UNL d   1       1.645  -0.569   0.558  0.00  0.00    -0.004 A 
ATOM      5  C6  UNL d   1       1.503   0.778   0.212  0.00  0.00    -0.075 A 
ATOM      6  C7  UNL d   1       2.619   1.755   0.441  0.00  0.00     0.076 C 
ATOM      7  C8  UNL d   1       0.301   1.213  -0.364  0.00  0.00     0.001 A 
ENDROOT
BRANCH   1   8
ATOM      8  C1  UNL d   1      -2.042   0.798  -1.209  0.00  0.00     0.053 C 
ATOM      9  C   UNL d   1      -2.469  -0.061  -2.389  0.00  0.00     0.018 C 
ENDBRANCH   1   8
TORSDOF 1
ENDMDL
