MODEL 1
REMARK minimizedAffinity -3.34261942
REMARK minimizedRMSD -1
REMARK  1 active torsions:
REMARK  status: ('A' for Active; 'I' for Inactive)
REMARK    1  A    between atoms: C1_2  and  C2_3 
ROOT
ATOM      1  C2  UNL d   1      -1.021   0.361  -0.662  0.00  0.00    -0.073 A 
ATOM      2  C3  UNL d   1      -0.218   1.504  -0.578  0.00  0.00    -0.002 A 
ATOM      3  C4  UNL d   1       1.090   1.413  -0.100  0.00  0.00     0.004 A 
ATOM      4  C5  UNL d   1       1.610   0.180   0.290  0.00  0.00    -0.004 A 
ATOM      5  C6  UNL d   1       0.828  -0.976   0.202  0.00  0.00    -0.075 A 
ATOM      6  C7  UNL d   1       1.372  -2.311   0.620  0.00  0.00     0.076 C 
ATOM      7  C8  UNL d   1      -0.486  -0.876  -0.276  0.00  0.00     0.001 A 
ENDROOT
BRANCH   1   8
ATOM      8  C1  UNL d   1      -2.432   0.454  -1.184  0.00  0.00     0.053 C 
ATOM      9  C   UNL d   1      -2.530   0.028  -2.640  0.00  0.00     0.018 C 
ENDBRANCH   1   8
TORSDOF 1
ENDMDL
