MODEL 1
REMARK minimizedAffinity -2.39843631
REMARK minimizedRMSD -1
REMARK  1 active torsions:
REMARK  status: ('A' for Active; 'I' for Inactive)
REMARK    1  A    between atoms: C1_2  and  C2_3 
ROOT
ATOM      1  C2  UNL d   1      -1.079  -0.212  -1.438  0.00  0.00    -0.073 A 
ATOM      2  C3  UNL d   1      -1.947  -0.052  -0.351  0.00  0.00    -0.002 A 
ATOM      3  C4  UNL d   1      -1.440   0.222   0.920  0.00  0.00     0.004 A 
ATOM      4  C5  UNL d   1      -0.065   0.344   1.116  0.00  0.00    -0.004 A 
ATOM      5  C6  UNL d   1       0.817   0.199   0.041  0.00  0.00    -0.075 A 
ATOM      6  C7  UNL d   1       2.299   0.326   0.236  0.00  0.00     0.076 C 
ATOM      7  C8  UNL d   1       0.301  -0.078  -1.232  0.00  0.00     0.001 A 
ENDROOT
BRANCH   1   8
ATOM      8  C1  UNL d   1      -1.622  -0.502  -2.814  0.00  0.00     0.053 C 
ATOM      9  C   UNL d   1      -3.098  -0.156  -2.929  0.00  0.00     0.018 C 
ENDBRANCH   1   8
TORSDOF 1
ENDMDL
