MODEL 1
REMARK minimizedAffinity -5.36379051
REMARK minimizedRMSD -1
REMARK  1 active torsions:
REMARK  status: ('A' for Active; 'I' for Inactive)
REMARK    1  A    between atoms: C1_2  and  C2_3 
ROOT
ATOM      1  C2  UNL d   1      -0.228   0.310   0.301  0.00  0.00    -0.073 A 
ATOM      2  C3  UNL d   1       0.905   1.127   0.380  0.00  0.00    -0.002 A 
ATOM      3  C4  UNL d   1       2.083   0.645   0.952  0.00  0.00     0.004 A 
ATOM      4  C5  UNL d   1       2.143  -0.659   1.444  0.00  0.00    -0.004 A 
ATOM      5  C6  UNL d   1       1.024  -1.495   1.363  0.00  0.00    -0.075 A 
ATOM      6  C7  UNL d   1       1.071  -2.899   1.889  0.00  0.00     0.076 C 
ATOM      7  C8  UNL d   1      -0.156  -1.003   0.790  0.00  0.00     0.001 A 
ENDROOT
BRANCH   1   8
ATOM      8  C1  UNL d   1      -1.501   0.824  -0.321  0.00  0.00     0.053 C 
ATOM      9  C   UNL d   1      -1.841   0.092  -1.609  0.00  0.00     0.018 C 
ENDBRANCH   1   8
TORSDOF 1
ENDMDL
