MODEL 1
REMARK minimizedAffinity -1.246297
REMARK minimizedRMSD -1
REMARK  0 active torsions:
REMARK  status: ('A' for Active; 'I' for Inactive)
ROOT
ATOM      1  C2' OXE d   1       1.227  -0.284  -2.950  0.00  0.00     0.078 C 
ATOM      2  C1' OXE d   1       1.710  -1.973  -0.760  0.00  0.00     0.078 C 
ATOM      3  C1  OXE d   1       0.549  -1.014  -0.667  0.00  0.00    -0.078 A 
ATOM      4  C2  OXE d   1       0.348  -0.159  -1.724  0.00  0.00    -0.078 A 
ATOM      5  C3  OXE d   1      -0.741   0.707  -1.713  0.00  0.00     0.003 A 
ATOM      6  C4  OXE d   1      -1.543   0.823  -0.571  0.00  0.00    -0.002 A 
ATOM      7  C5  OXE d   1      -1.332  -0.010   0.532  0.00  0.00    -0.002 A 
ATOM      8  C6  OXE d   1      -0.319  -0.962   0.484  0.00  0.00     0.003 A 
ENDROOT
TORSDOF 0
ENDMDL
