MODEL 1
REMARK minimizedAffinity -4.81492615
REMARK minimizedRMSD -1
REMARK  0 active torsions:
REMARK  status: ('A' for Active; 'I' for Inactive)
ROOT
ATOM      1  C2' OXE d   1      -0.665   1.499   2.512  0.00  0.00     0.078 C 
ATOM      2  C1' OXE d   1       1.959   0.586   2.112  0.00  0.00     0.078 C 
ATOM      3  C1  OXE d   1       0.923   0.223   1.078  0.00  0.00    -0.078 A 
ATOM      4  C2  OXE d   1      -0.368   0.634   1.306  0.00  0.00    -0.078 A 
ATOM      5  C3  OXE d   1      -1.353   0.373   0.356  0.00  0.00     0.003 A 
ATOM      6  C4  OXE d   1      -1.072  -0.435  -0.751  0.00  0.00    -0.002 A 
ATOM      7  C5  OXE d   1       0.228  -0.898  -0.982  0.00  0.00    -0.002 A 
ATOM      8  C6  OXE d   1       1.244  -0.543  -0.101  0.00  0.00     0.003 A 
ENDROOT
TORSDOF 0
ENDMDL
