MODEL 1
REMARK minimizedAffinity -4.66379499
REMARK minimizedRMSD -1
REMARK  0 active torsions:
REMARK  status: ('A' for Active; 'I' for Inactive)
ROOT
ATOM      1  C2' OXE d   1       2.004   0.569   2.237  0.00  0.00     0.078 C 
ATOM      2  C1' OXE d   1      -0.522   1.721   2.653  0.00  0.00     0.078 C 
ATOM      3  C1  OXE d   1      -0.350   0.815   1.460  0.00  0.00    -0.078 A 
ATOM      4  C2  OXE d   1       0.901   0.292   1.237  0.00  0.00    -0.078 A 
ATOM      5  C3  OXE d   1       1.101  -0.593   0.182  0.00  0.00     0.003 A 
ATOM      6  C4  OXE d   1       0.078  -0.835  -0.743  0.00  0.00    -0.002 A 
ATOM      7  C5  OXE d   1      -1.193  -0.282  -0.557  0.00  0.00    -0.002 A 
ATOM      8  C6  OXE d   1      -1.435   0.509   0.560  0.00  0.00     0.003 A 
ENDROOT
TORSDOF 0
ENDMDL
