MODEL 1
REMARK minimizedAffinity -3.47731543
REMARK minimizedRMSD -1
REMARK  0 active torsions:
REMARK  status: ('A' for Active; 'I' for Inactive)
ROOT
ATOM      1  C2' OXE d   1      -0.831   1.503   2.918  0.00  0.00     0.078 C 
ATOM      2  C1' OXE d   1       1.637   0.476   2.064  0.00  0.00     0.078 C 
ATOM      3  C1  OXE d   1       0.459   0.340   1.133  0.00  0.00    -0.078 A 
ATOM      4  C2  OXE d   1      -0.756   0.803   1.578  0.00  0.00    -0.078 A 
ATOM      5  C3  OXE d   1      -1.864   0.752   0.738  0.00  0.00     0.003 A 
ATOM      6  C4  OXE d   1      -1.788   0.095  -0.496  0.00  0.00    -0.002 A 
ATOM      7  C5  OXE d   1      -0.569  -0.420  -0.952  0.00  0.00    -0.002 A 
ATOM      8  C6  OXE d   1       0.570  -0.268  -0.170  0.00  0.00     0.003 A 
ENDROOT
TORSDOF 0
ENDMDL
