MODEL 1
REMARK minimizedAffinity -5.98278284
REMARK minimizedRMSD -1
REMARK  0 active torsions:
REMARK  status: ('A' for Active; 'I' for Inactive)
ROOT
ATOM      1  C2' OXE d   1       1.679   0.752   1.758  0.00  0.00     0.078 C 
ATOM      2  C1' OXE d   1      -0.607   1.806   3.000  0.00  0.00     0.078 C 
ATOM      3  C1  OXE d   1      -0.801   0.982   1.752  0.00  0.00    -0.078 A 
ATOM      4  C2  OXE d   1       0.326   0.509   1.125  0.00  0.00    -0.078 A 
ATOM      5  C3  OXE d   1       0.201  -0.303   0.001  0.00  0.00     0.003 A 
ATOM      6  C4  OXE d   1      -1.053  -0.514  -0.585  0.00  0.00    -0.002 A 
ATOM      7  C5  OXE d   1      -2.211  -0.008   0.016  0.00  0.00    -0.002 A 
ATOM      8  C6  OXE d   1      -2.107   0.704   1.205  0.00  0.00     0.003 A 
ENDROOT
TORSDOF 0
ENDMDL
