MODEL 1
REMARK minimizedAffinity -3.38171744
REMARK minimizedRMSD -1
REMARK  0 active torsions:
REMARK  status: ('A' for Active; 'I' for Inactive)
ROOT
ATOM      1  C2' OXE d   1       2.273  -1.565  -0.312  0.00  0.00     0.078 C 
ATOM      2  C1' OXE d   1       0.666  -1.125  -2.572  0.00  0.00     0.078 C 
ATOM      3  C1  OXE d   1       0.180  -0.590  -1.248  0.00  0.00    -0.078 A 
ATOM      4  C2  OXE d   1       0.950  -0.850  -0.140  0.00  0.00    -0.078 A 
ATOM      5  C3  OXE d   1       0.576  -0.333   1.097  0.00  0.00     0.003 A 
ATOM      6  C4  OXE d   1      -0.655   0.318   1.250  0.00  0.00    -0.002 A 
ATOM      7  C5  OXE d   1      -1.473   0.559   0.142  0.00  0.00    -0.002 A 
ATOM      8  C6  OXE d   1      -1.051   0.150  -1.119  0.00  0.00     0.003 A 
ENDROOT
TORSDOF 0
ENDMDL
