MODEL 1
REMARK minimizedAffinity -1.94207537
REMARK minimizedRMSD -1
REMARK  0 active torsions:
REMARK  status: ('A' for Active; 'I' for Inactive)
ROOT
ATOM      1  C2' OXE d   1       2.339  -0.408  -0.058  0.00  0.00     0.078 C 
ATOM      2  C1' OXE d   1       1.178   1.405   1.744  0.00  0.00     0.078 C 
ATOM      3  C1  OXE d   1       0.256   0.617   0.846  0.00  0.00    -0.078 A 
ATOM      4  C2  OXE d   1       0.835  -0.233  -0.064  0.00  0.00    -0.078 A 
ATOM      5  C3  OXE d   1       0.029  -1.024  -0.878  0.00  0.00     0.003 A 
ATOM      6  C4  OXE d   1      -1.360  -0.849  -0.885  0.00  0.00    -0.002 A 
ATOM      7  C5  OXE d   1      -1.968   0.041   0.007  0.00  0.00    -0.002 A 
ATOM      8  C6  OXE d   1      -1.178   0.749   0.907  0.00  0.00     0.003 A 
ENDROOT
TORSDOF 0
ENDMDL
