MODEL 1
REMARK minimizedAffinity -4.16069889
REMARK minimizedRMSD -1
REMARK  0 active torsions:
REMARK  status: ('A' for Active; 'I' for Inactive)
ROOT
ATOM      1  C2' OXE d   1       1.136  -0.651  -0.830  0.00  0.00     0.078 C 
ATOM      2  C1' OXE d   1       1.864   0.107   1.773  0.00  0.00     0.078 C 
ATOM      3  C1  OXE d   1       0.432   0.324   1.352  0.00  0.00    -0.078 A 
ATOM      4  C2  OXE d   1       0.096  -0.007   0.061  0.00  0.00    -0.078 A 
ATOM      5  C3  OXE d   1      -1.224   0.122  -0.362  0.00  0.00     0.003 A 
ATOM      6  C4  OXE d   1      -2.178   0.728   0.465  0.00  0.00    -0.002 A 
ATOM      7  C5  OXE d   1      -1.847   1.109   1.770  0.00  0.00    -0.002 A 
ATOM      8  C6  OXE d   1      -0.560   0.875   2.242  0.00  0.00     0.003 A 
ENDROOT
TORSDOF 0
ENDMDL
