MODEL 1
REMARK minimizedAffinity -4.39607096
REMARK minimizedRMSD -1
REMARK  0 active torsions:
REMARK  status: ('A' for Active; 'I' for Inactive)
ROOT
ATOM      1  C2' OXE d   1       1.991   0.470   1.665  0.00  0.00     0.078 C 
ATOM      2  C1' OXE d   1       0.711  -0.849  -0.457  0.00  0.00     0.078 C 
ATOM      3  C1  OXE d   1      -0.142  -0.034   0.482  0.00  0.00    -0.078 A 
ATOM      4  C2  OXE d   1       0.486   0.570   1.545  0.00  0.00    -0.078 A 
ATOM      5  C3  OXE d   1      -0.246   1.379   2.409  0.00  0.00     0.003 A 
ATOM      6  C4  OXE d   1      -1.639   1.458   2.297  0.00  0.00    -0.002 A 
ATOM      7  C5  OXE d   1      -2.304   0.818   1.245  0.00  0.00    -0.002 A 
ATOM      8  C6  OXE d   1      -1.567   0.105   0.307  0.00  0.00     0.003 A 
ENDROOT
TORSDOF 0
ENDMDL
