MODEL 1
REMARK minimizedAffinity -4.74956512
REMARK minimizedRMSD -1
REMARK  0 active torsions:
REMARK  status: ('A' for Active; 'I' for Inactive)
ROOT
ATOM      1  C2' OXE d   1      -2.071  -0.560  -0.196  0.00  0.00     0.078 C 
ATOM      2  C1' OXE d   1       0.466   0.083  -1.212  0.00  0.00     0.078 C 
ATOM      3  C1  OXE d   1       0.167   0.452   0.220  0.00  0.00    -0.078 A 
ATOM      4  C2  OXE d   1      -1.092   0.176   0.694  0.00  0.00    -0.078 A 
ATOM      5  C3  OXE d   1      -1.402   0.446   2.024  0.00  0.00     0.003 A 
ATOM      6  C4  OXE d   1      -0.495   1.135   2.838  0.00  0.00    -0.002 A 
ATOM      7  C5  OXE d   1       0.779   1.462   2.362  0.00  0.00    -0.002 A 
ATOM      8  C6  OXE d   1       1.140   1.090   1.071  0.00  0.00     0.003 A 
ENDROOT
TORSDOF 0
ENDMDL
