MODEL 1
REMARK minimizedAffinity -4.68854666
REMARK minimizedRMSD -1
REMARK  0 active torsions:
REMARK  status: ('A' for Active; 'I' for Inactive)
ROOT
ATOM      1  C2' OXE d   1      -1.767  -0.049   0.867  0.00  0.00     0.078 C 
ATOM      2  C1' OXE d   1      -0.191   1.395   2.687  0.00  0.00     0.078 C 
ATOM      3  C1  OXE d   1       0.463   0.263   1.933  0.00  0.00    -0.078 A 
ATOM      4  C2  OXE d   1      -0.328  -0.467   1.079  0.00  0.00    -0.078 A 
ATOM      5  C3  OXE d   1       0.237  -1.487   0.318  0.00  0.00     0.003 A 
ATOM      6  C4  OXE d   1       1.566  -1.874   0.528  0.00  0.00    -0.002 A 
ATOM      7  C5  OXE d   1       2.379  -1.169   1.423  0.00  0.00    -0.002 A 
ATOM      8  C6  OXE d   1       1.855  -0.073   2.100  0.00  0.00     0.003 A 
ENDROOT
TORSDOF 0
ENDMDL
