MODEL 1
REMARK minimizedAffinity -2.90669537
REMARK minimizedRMSD -1
REMARK  0 active torsions:
REMARK  status: ('A' for Active; 'I' for Inactive)
ROOT
ATOM      1  C2' OXE d   1      -2.353  -0.336  -0.610  0.00  0.00     0.078 C 
ATOM      2  C1' OXE d   1       0.340  -0.786  -1.262  0.00  0.00     0.078 C 
ATOM      3  C1  OXE d   1       0.040  -0.063   0.027  0.00  0.00    -0.078 A 
ATOM      4  C2  OXE d   1      -1.279   0.194   0.315  0.00  0.00    -0.078 A 
ATOM      5  C3  OXE d   1      -1.614   0.810   1.518  0.00  0.00     0.003 A 
ATOM      6  C4  OXE d   1      -0.614   1.306   2.363  0.00  0.00    -0.002 A 
ATOM      7  C5  OXE d   1       0.736   1.090   2.069  0.00  0.00    -0.002 A 
ATOM      8  C6  OXE d   1       1.079   0.372   0.928  0.00  0.00     0.003 A 
ENDROOT
TORSDOF 0
ENDMDL
