MODEL 1
REMARK minimizedAffinity -4.07441425
REMARK minimizedRMSD -1
REMARK  0 active torsions:
REMARK  status: ('A' for Active; 'I' for Inactive)
ROOT
ATOM      1  C2' OXE d   1      -2.279   1.267  -0.029  0.00  0.00     0.078 C 
ATOM      2  C1' OXE d   1      -0.791   2.078   2.209  0.00  0.00     0.078 C 
ATOM      3  C1  OXE d   1      -0.207   1.002   1.328  0.00  0.00    -0.078 A 
ATOM      4  C2  OXE d   1      -0.963   0.578   0.261  0.00  0.00    -0.078 A 
ATOM      5  C3  OXE d   1      -0.447  -0.373  -0.615  0.00  0.00     0.003 A 
ATOM      6  C4  OXE d   1       0.766  -1.012  -0.333  0.00  0.00    -0.002 A 
ATOM      7  C5  OXE d   1       1.534  -0.624   0.770  0.00  0.00    -0.002 A 
ATOM      8  C6  OXE d   1       1.083   0.409   1.585  0.00  0.00     0.003 A 
ENDROOT
TORSDOF 0
ENDMDL
