MODEL 1
REMARK minimizedAffinity -5.17349434
REMARK minimizedRMSD -1
REMARK  3 active torsions:
REMARK  status: ('A' for Active; 'I' for Inactive)
REMARK    1  A    between atoms: C3'_2  and  C2'_3 
REMARK    2  A    between atoms: C2'_3  and  C1'_4 
REMARK    3  A    between atoms: C1'_4  and  C1_5 
ROOT
ATOM      1  C1  N4B d   1       0.018  -0.021  -0.019  0.00  0.00    -0.075 A 
ATOM      2  C2  N4B d   1       0.237  -1.413   0.067  0.00  0.00     0.002 A 
ATOM      3  C3  N4B d   1       1.439  -1.946  -0.330  0.00  0.00     0.002 A 
ATOM      4  C4  N4B d   1       2.426  -1.111  -0.833  0.00  0.00    -0.004 A 
ATOM      5  C5  N4B d   1       2.216   0.236  -0.890  0.00  0.00     0.002 A 
ATOM      6  C6  N4B d   1       1.015   0.785  -0.490  0.00  0.00     0.002 A 
ENDROOT
BRANCH   1   7
ATOM      7  C1' N4B d   1      -1.310   0.598   0.322  0.00  0.00     0.057 C 
BRANCH   7   8
ATOM      8  C2' N4B d   1      -1.146   1.488   1.551  0.00  0.00     0.009 C 
BRANCH   8   9
ATOM      9  C3' N4B d   1      -2.172   1.169   2.625  0.00  0.00     0.004 C 
ATOM     10  C4' N4B d   1      -1.692   0.133   3.597  0.00  0.00     0.003 C 
ENDBRANCH   8   9
ENDBRANCH   7   8
ENDBRANCH   1   7
TORSDOF 3
ENDMDL
