MODEL 1
REMARK minimizedAffinity -5.45746136
REMARK minimizedRMSD -1
REMARK  3 active torsions:
REMARK  status: ('A' for Active; 'I' for Inactive)
REMARK    1  A    between atoms: C3'_2  and  C2'_3 
REMARK    2  A    between atoms: C2'_3  and  C1'_4 
REMARK    3  A    between atoms: C1'_4  and  C1_5 
ROOT
ATOM      1  C1  N4B d   1      -0.178  -0.008  -0.117  0.00  0.00    -0.075 A 
ATOM      2  C2  N4B d   1       1.024   0.706  -0.321  0.00  0.00     0.002 A 
ATOM      3  C3  N4B d   1       2.195   0.028  -0.549  0.00  0.00     0.002 A 
ATOM      4  C4  N4B d   1       2.194  -1.359  -0.560  0.00  0.00    -0.004 A 
ATOM      5  C5  N4B d   1       1.025  -2.041  -0.388  0.00  0.00     0.002 A 
ATOM      6  C6  N4B d   1      -0.161  -1.372  -0.161  0.00  0.00     0.002 A 
ENDROOT
BRANCH   1   7
ATOM      7  C1' N4B d   1      -1.467   0.688   0.222  0.00  0.00     0.057 C 
BRANCH   7   8
ATOM      8  C2' N4B d   1      -1.358   1.295   1.618  0.00  0.00     0.009 C 
BRANCH   8   9
ATOM      9  C3' N4B d   1      -2.405   0.735   2.565  0.00  0.00     0.004 C 
ATOM     10  C4' N4B d   1      -1.834   0.340   3.894  0.00  0.00     0.003 C 
ENDBRANCH   8   9
ENDBRANCH   7   8
ENDBRANCH   1   7
TORSDOF 3
ENDMDL
