MODEL 1
REMARK minimizedAffinity -1.35621643
REMARK minimizedRMSD -1
REMARK  3 active torsions:
REMARK  status: ('A' for Active; 'I' for Inactive)
REMARK    1  A    between atoms: C3'_2  and  C2'_3 
REMARK    2  A    between atoms: C2'_3  and  C1'_4 
REMARK    3  A    between atoms: C1'_4  and  C1_5 
ROOT
ATOM      1  C1  N4B d   1       0.791   0.315  -0.186  0.00  0.00    -0.075 A 
ATOM      2  C2  N4B d   1       0.657  -1.037   0.200  0.00  0.00     0.002 A 
ATOM      3  C3  N4B d   1      -0.534  -1.490   0.712  0.00  0.00     0.002 A 
ATOM      4  C4  N4B d   1      -1.595  -0.609   0.864  0.00  0.00    -0.004 A 
ATOM      5  C5  N4B d   1      -1.465   0.689   0.465  0.00  0.00     0.002 A 
ATOM      6  C6  N4B d   1      -0.275   1.157  -0.055  0.00  0.00     0.002 A 
ENDROOT
BRANCH   1   7
ATOM      7  C1' N4B d   1       2.099   0.876  -0.671  0.00  0.00     0.057 C 
BRANCH   7   8
ATOM      8  C2' N4B d   1       2.230   0.620  -2.169  0.00  0.00     0.009 C 
BRANCH   8   9
ATOM      9  C3' N4B d   1       3.132  -0.566  -2.467  0.00  0.00     0.004 C 
ATOM     10  C4' N4B d   1       2.388  -1.727  -3.056  0.00  0.00     0.003 C 
ENDBRANCH   8   9
ENDBRANCH   7   8
ENDBRANCH   1   7
TORSDOF 3
ENDMDL
