MODEL 1
REMARK minimizedAffinity -5.53962755
REMARK minimizedRMSD -1
REMARK  3 active torsions:
REMARK  status: ('A' for Active; 'I' for Inactive)
REMARK    1  A    between atoms: C3'_2  and  C2'_3 
REMARK    2  A    between atoms: C2'_3  and  C1'_4 
REMARK    3  A    between atoms: C1'_4  and  C1_5 
ROOT
ATOM      1  C1  N4B d   1       0.097  -0.293   0.211  0.00  0.00    -0.075 A 
ATOM      2  C2  N4B d   1       0.855   0.744  -0.376  0.00  0.00     0.002 A 
ATOM      3  C3  N4B d   1       1.950   0.442  -1.148  0.00  0.00     0.002 A 
ATOM      4  C4  N4B d   1       2.316  -0.883  -1.329  0.00  0.00    -0.004 A 
ATOM      5  C5  N4B d   1       1.565  -1.880  -0.779  0.00  0.00     0.002 A 
ATOM      6  C6  N4B d   1       0.459  -1.591  -0.005  0.00  0.00     0.002 A 
ENDROOT
BRANCH   1   7
ATOM      7  C1' N4B d   1      -1.058  -0.008   1.132  0.00  0.00     0.057 C 
BRANCH   7   8
ATOM      8  C2' N4B d   1      -0.609   0.976   2.208  0.00  0.00     0.009 C 
BRANCH   8   9
ATOM      9  C3' N4B d   1      -1.706   1.245   3.225  0.00  0.00     0.004 C 
ATOM     10  C4' N4B d   1      -1.302   0.883   4.623  0.00  0.00     0.003 C 
ENDBRANCH   8   9
ENDBRANCH   7   8
ENDBRANCH   1   7
TORSDOF 3
ENDMDL
