MODEL 1
REMARK minimizedAffinity -5.55040503
REMARK minimizedRMSD -1
REMARK  3 active torsions:
REMARK  status: ('A' for Active; 'I' for Inactive)
REMARK    1  A    between atoms: C3'_2  and  C2'_3 
REMARK    2  A    between atoms: C2'_3  and  C1'_4 
REMARK    3  A    between atoms: C1'_4  and  C1_5 
ROOT
ATOM      1  C1  N4B d   1      -0.069  -0.054  -0.259  0.00  0.00    -0.075 A 
ATOM      2  C2  N4B d   1       1.092   0.585  -0.747  0.00  0.00     0.002 A 
ATOM      3  C3  N4B d   1       2.251  -0.133  -0.916  0.00  0.00     0.002 A 
ATOM      4  C4  N4B d   1       2.278  -1.480  -0.587  0.00  0.00    -0.004 A 
ATOM      5  C5  N4B d   1       1.145  -2.095  -0.140  0.00  0.00     0.002 A 
ATOM      6  C6  N4B d   1      -0.027  -1.387   0.031  0.00  0.00     0.002 A 
ENDROOT
BRANCH   1   7
ATOM      7  C1' N4B d   1      -1.335   0.707   0.024  0.00  0.00     0.057 C 
BRANCH   7   8
ATOM      8  C2' N4B d   1      -1.873   0.295   1.391  0.00  0.00     0.009 C 
BRANCH   8   9
ATOM      9  C3' N4B d   1      -1.519   1.305   2.469  0.00  0.00     0.004 C 
ATOM     10  C4' N4B d   1      -1.854   0.822   3.849  0.00  0.00     0.003 C 
ENDBRANCH   8   9
ENDBRANCH   7   8
ENDBRANCH   1   7
TORSDOF 3
ENDMDL
