MODEL 1
REMARK minimizedAffinity -4.93309593
REMARK minimizedRMSD -1
REMARK  3 active torsions:
REMARK  status: ('A' for Active; 'I' for Inactive)
REMARK    1  A    between atoms: C3'_2  and  C2'_3 
REMARK    2  A    between atoms: C2'_3  and  C1'_4 
REMARK    3  A    between atoms: C1'_4  and  C1_5 
ROOT
ATOM      1  C1  N4B d   1       0.744  -0.590  -0.239  0.00  0.00    -0.075 A 
ATOM      2  C2  N4B d   1       1.619   0.453   0.135  0.00  0.00     0.002 A 
ATOM      3  C3  N4B d   1       2.812   0.618  -0.526  0.00  0.00     0.002 A 
ATOM      4  C4  N4B d   1       3.158  -0.256  -1.546  0.00  0.00    -0.004 A 
ATOM      5  C5  N4B d   1       2.295  -1.245  -1.917  0.00  0.00     0.002 A 
ATOM      6  C6  N4B d   1       1.091  -1.420  -1.265  0.00  0.00     0.002 A 
ENDROOT
BRANCH   1   7
ATOM      7  C1' N4B d   1      -0.532  -0.863   0.510  0.00  0.00     0.057 C 
BRANCH   7   8
ATOM      8  C2' N4B d   1      -1.231   0.460   0.807  0.00  0.00     0.009 C 
BRANCH   8   9
ATOM      9  C3' N4B d   1      -1.952   0.435   2.144  0.00  0.00     0.004 C 
ATOM     10  C4' N4B d   1      -1.699   1.666   2.963  0.00  0.00     0.003 C 
ENDBRANCH   8   9
ENDBRANCH   7   8
ENDBRANCH   1   7
TORSDOF 3
ENDMDL
