MODEL 1
REMARK minimizedAffinity -4.1626997
REMARK minimizedRMSD -1
REMARK  0 active torsions:
REMARK  status: ('A' for Active; 'I' for Inactive)
ROOT
ATOM      1  C   UNL d   1      -4.819  -1.027  -4.510  0.00  0.00    -0.002 A 
ATOM      2  C1  UNL d   1      -5.999  -1.656  -4.879  0.00  0.00     0.010 A 
ATOM      3  C2  UNL d   1      -6.000  -3.002  -5.251  0.00  0.00     0.041 A 
ATOM      4  C3  UNL d   1      -4.783  -3.712  -5.243  0.00  0.00    -0.075 A 
ATOM      5  S   UNL d   1      -4.543  -5.368  -5.659  0.00  0.00     0.015 SA
ATOM      6  C4  UNL d   1      -2.868  -5.279  -5.356  0.00  0.00     0.022 A 
ATOM      7  C5  UNL d   1      -2.484  -4.024  -4.946  0.00  0.00     0.026 A 
ATOM      8  C6  UNL d   1      -3.582  -3.100  -4.874  0.00  0.00    -0.082 A 
ATOM      9  C7  UNL d   1      -3.614  -1.734  -4.504  0.00  0.00     0.045 A 
ENDROOT
TORSDOF 0
ENDMDL
