MODEL 1
REMARK minimizedAffinity -0.505293369
REMARK minimizedRMSD -1
REMARK  0 active torsions:
REMARK  status: ('A' for Active; 'I' for Inactive)
ROOT
ATOM      1  C   UNL d   1      -2.852  -5.852  -5.730  0.00  0.00    -0.002 A 
ATOM      2  C1  UNL d   1      -1.934  -4.820  -5.864  0.00  0.00     0.010 A 
ATOM      3  C2  UNL d   1      -2.348  -3.488  -5.795  0.00  0.00     0.041 A 
ATOM      4  C3  UNL d   1      -3.713  -3.209  -5.586  0.00  0.00    -0.075 A 
ATOM      5  S   UNL d   1      -4.450  -1.654  -5.467  0.00  0.00     0.015 SA
ATOM      6  C4  UNL d   1      -6.000  -2.324  -5.234  0.00  0.00     0.022 A 
ATOM      7  C5  UNL d   1      -5.974  -3.698  -5.245  0.00  0.00     0.026 A 
ATOM      8  C6  UNL d   1      -4.656  -4.231  -5.448  0.00  0.00    -0.082 A 
ATOM      9  C7  UNL d   1      -4.205  -5.571  -5.523  0.00  0.00     0.045 A 
ENDROOT
TORSDOF 0
ENDMDL
