MODEL 1
REMARK minimizedAffinity -0.926413
REMARK minimizedRMSD -1
REMARK  0 active torsions:
REMARK  status: ('A' for Active; 'I' for Inactive)
ROOT
ATOM      1  C   UNL d   1      -3.646  -5.965  -4.469  0.00  0.00    -0.002 A 
ATOM      2  C1  UNL d   1      -3.019  -5.401  -5.571  0.00  0.00     0.010 A 
ATOM      3  C2  UNL d   1      -3.355  -4.114  -5.997  0.00  0.00     0.041 A 
ATOM      4  C3  UNL d   1      -4.339  -3.397  -5.289  0.00  0.00    -0.075 A 
ATOM      5  S   UNL d   1      -4.911  -1.806  -5.627  0.00  0.00     0.015 SA
ATOM      6  C4  UNL d   1      -6.000  -1.838  -4.317  0.00  0.00     0.022 A 
ATOM      7  C5  UNL d   1      -5.942  -3.026  -3.627  0.00  0.00     0.026 A 
ATOM      8  C6  UNL d   1      -4.983  -3.944  -4.176  0.00  0.00    -0.082 A 
ATOM      9  C7  UNL d   1      -4.622  -5.251  -3.769  0.00  0.00     0.045 A 
ENDROOT
TORSDOF 0
ENDMDL
