MODEL 1
REMARK minimizedAffinity -0.712274313
REMARK minimizedRMSD -1
REMARK  0 active torsions:
REMARK  status: ('A' for Active; 'I' for Inactive)
ROOT
ATOM      1  C   UNL d   1      -2.956  -5.941  -3.214  0.00  0.00    -0.002 A 
ATOM      2  C1  UNL d   1      -3.073  -4.834  -2.386  0.00  0.00     0.010 A 
ATOM      3  C2  UNL d   1      -3.895  -3.763  -2.743  0.00  0.00     0.041 A 
ATOM      4  C3  UNL d   1      -4.606  -3.824  -3.957  0.00  0.00    -0.075 A 
ATOM      5  S   UNL d   1      -5.672  -2.632  -4.599  0.00  0.00     0.015 SA
ATOM      6  C4  UNL d   1      -5.999  -3.564  -5.988  0.00  0.00     0.022 A 
ATOM      7  C5  UNL d   1      -5.319  -4.759  -5.979  0.00  0.00     0.026 A 
ATOM      8  C6  UNL d   1      -4.505  -4.929  -4.808  0.00  0.00    -0.082 A 
ATOM      9  C7  UNL d   1      -3.663  -5.998  -4.418  0.00  0.00     0.045 A 
ENDROOT
TORSDOF 0
ENDMDL
