MODEL 1
REMARK minimizedAffinity 2.05490208
REMARK minimizedRMSD -1
REMARK  0 active torsions:
REMARK  status: ('A' for Active; 'I' for Inactive)
ROOT
ATOM      1  C   UNL d   1      -2.671  -0.912   1.483  0.00  0.00    -0.002 A 
ATOM      2  C1  UNL d   1      -2.178  -1.596   0.381  0.00  0.00     0.010 A 
ATOM      3  C2  UNL d   1      -0.973  -2.298   0.462  0.00  0.00     0.041 A 
ATOM      4  C3  UNL d   1      -0.267  -2.302   1.680  0.00  0.00    -0.075 A 
ATOM      5  S   UNL d   1       1.229  -3.093   2.013  0.00  0.00     0.015 SA
ATOM      6  C4  UNL d   1       1.248  -2.541   3.625  0.00  0.00     0.022 A 
ATOM      7  C5  UNL d   1       0.148  -1.771   3.920  0.00  0.00     0.026 A 
ATOM      8  C6  UNL d   1      -0.743  -1.620   2.804  0.00  0.00    -0.082 A 
ATOM      9  C7  UNL d   1      -1.967  -0.918   2.690  0.00  0.00     0.045 A 
ENDROOT
TORSDOF 0
ENDMDL
