MODEL 1
REMARK minimizedAffinity 8.17513084
REMARK minimizedRMSD -1
REMARK  0 active torsions:
REMARK  status: ('A' for Active; 'I' for Inactive)
ROOT
ATOM      1  C   UNL d   1      -5.783  -2.860  -4.059  0.00  0.00    -0.002 A 
ATOM      2  C1  UNL d   1      -5.414  -2.436  -5.328  0.00  0.00     0.010 A 
ATOM      3  C2  UNL d   1      -4.352  -3.045  -5.999  0.00  0.00     0.041 A 
ATOM      4  C3  UNL d   1      -3.661  -4.098  -5.369  0.00  0.00    -0.075 A 
ATOM      5  S   UNL d   1      -2.329  -4.992  -6.000  0.00  0.00     0.015 SA
ATOM      6  C4  UNL d   1      -2.219  -5.959  -4.600  0.00  0.00     0.022 A 
ATOM      7  C5  UNL d   1      -3.167  -5.621  -3.664  0.00  0.00     0.026 A 
ATOM      8  C6  UNL d   1      -4.014  -4.543  -4.092  0.00  0.00    -0.082 A 
ATOM      9  C7  UNL d   1      -5.095  -3.905  -3.437  0.00  0.00     0.045 A 
ENDROOT
TORSDOF 0
ENDMDL
