MODEL 1
REMARK minimizedAffinity 1.08652484
REMARK minimizedRMSD -1
REMARK  0 active torsions:
REMARK  status: ('A' for Active; 'I' for Inactive)
ROOT
ATOM      1  C   UNL d   1      -2.237  -5.520  -4.169  0.00  0.00    -0.002 A 
ATOM      2  C1  UNL d   1      -2.674  -5.999  -5.396  0.00  0.00     0.010 A 
ATOM      3  C2  UNL d   1      -3.816  -5.468  -5.999  0.00  0.00     0.041 A 
ATOM      4  C3  UNL d   1      -4.516  -4.436  -5.344  0.00  0.00    -0.075 A 
ATOM      5  S   UNL d   1      -5.939  -3.634  -5.894  0.00  0.00     0.015 SA
ATOM      6  C4  UNL d   1      -6.000  -2.636  -4.514  0.00  0.00     0.022 A 
ATOM      7  C5  UNL d   1      -4.967  -2.895  -3.644  0.00  0.00     0.026 A 
ATOM      8  C6  UNL d   1      -4.095  -3.937  -4.108  0.00  0.00    -0.082 A 
ATOM      9  C7  UNL d   1      -2.934  -4.496  -3.522  0.00  0.00     0.045 A 
ENDROOT
TORSDOF 0
ENDMDL
