MODEL 1
REMARK minimizedAffinity 0.713937581
REMARK minimizedRMSD -1
REMARK  0 active torsions:
REMARK  status: ('A' for Active; 'I' for Inactive)
ROOT
ATOM      1  C   UNL d   1      -2.427  -4.893  -2.453  0.00  0.00    -0.002 A 
ATOM      2  C1  UNL d   1      -2.250  -5.906  -3.385  0.00  0.00     0.010 A 
ATOM      3  C2  UNL d   1      -3.085  -5.998  -4.500  0.00  0.00     0.041 A 
ATOM      4  C3  UNL d   1      -4.109  -5.045  -4.666  0.00  0.00    -0.075 A 
ATOM      5  S   UNL d   1      -5.251  -4.959  -5.954  0.00  0.00     0.015 SA
ATOM      6  C4  UNL d   1      -6.000  -3.575  -5.299  0.00  0.00     0.022 A 
ATOM      7  C5  UNL d   1      -5.405  -3.175  -4.125  0.00  0.00     0.026 A 
ATOM      8  C6  UNL d   1      -4.306  -4.015  -3.741  0.00  0.00    -0.082 A 
ATOM      9  C7  UNL d   1      -3.443  -3.949  -2.621  0.00  0.00     0.045 A 
ENDROOT
TORSDOF 0
ENDMDL
