MODEL 1
REMARK minimizedAffinity -3.54526711
REMARK minimizedRMSD -1
REMARK  0 active torsions:
REMARK  status: ('A' for Active; 'I' for Inactive)
ROOT
ATOM      1  C   UNL d   1      -6.000  -2.673  -4.842  0.00  0.00    -0.002 A 
ATOM      2  C1  UNL d   1      -5.012  -1.798  -5.272  0.00  0.00     0.010 A 
ATOM      3  C2  UNL d   1      -3.755  -2.275  -5.649  0.00  0.00     0.041 A 
ATOM      4  C3  UNL d   1      -3.506  -3.661  -5.587  0.00  0.00    -0.075 A 
ATOM      5  S   UNL d   1      -2.042  -4.472  -5.999  0.00  0.00     0.015 SA
ATOM      6  C4  UNL d   1      -2.693  -6.000  -5.615  0.00  0.00     0.022 A 
ATOM      7  C5  UNL d   1      -3.994  -5.911  -5.181  0.00  0.00     0.026 A 
ATOM      8  C6  UNL d   1      -4.485  -4.562  -5.158  0.00  0.00    -0.082 A 
ATOM      9  C7  UNL d   1      -5.749  -4.046  -4.782  0.00  0.00     0.045 A 
ENDROOT
TORSDOF 0
ENDMDL
