MODEL 1
REMARK minimizedAffinity 9.69570827
REMARK minimizedRMSD -1
REMARK  0 active torsions:
REMARK  status: ('A' for Active; 'I' for Inactive)
ROOT
ATOM      1  C   UNL d   1      -1.870  -4.098  -3.668  0.00  0.00    -0.002 A 
ATOM      2  C1  UNL d   1      -2.347  -5.196  -2.964  0.00  0.00     0.010 A 
ATOM      3  C2  UNL d   1      -3.598  -5.740  -3.260  0.00  0.00     0.041 A 
ATOM      4  C3  UNL d   1      -4.369  -5.159  -4.286  0.00  0.00    -0.075 A 
ATOM      5  S   UNL d   1      -5.929  -5.658  -4.823  0.00  0.00     0.015 SA
ATOM      6  C4  UNL d   1      -6.000  -4.427  -6.000  0.00  0.00     0.022 A 
ATOM      7  C5  UNL d   1      -4.869  -3.645  -5.996  0.00  0.00     0.026 A 
ATOM      8  C6  UNL d   1      -3.910  -4.055  -5.009  0.00  0.00    -0.082 A 
ATOM      9  C7  UNL d   1      -2.638  -3.525  -4.685  0.00  0.00     0.045 A 
ENDROOT
TORSDOF 0
ENDMDL
