MODEL 1
REMARK minimizedAffinity -1.84918177
REMARK minimizedRMSD -1
REMARK  0 active torsions:
REMARK  status: ('A' for Active; 'I' for Inactive)
ROOT
ATOM      1  C   UNL d   1      -1.749  -5.202  -5.406  0.00  0.00    -0.002 A 
ATOM      2  C1  UNL d   1      -2.250  -5.936  -4.340  0.00  0.00     0.010 A 
ATOM      3  C2  UNL d   1      -3.531  -5.685  -3.844  0.00  0.00     0.041 A 
ATOM      4  C3  UNL d   1      -4.309  -4.676  -4.446  0.00  0.00    -0.075 A 
ATOM      5  S   UNL d   1      -5.905  -4.194  -4.009  0.00  0.00     0.015 SA
ATOM      6  C4  UNL d   1      -5.960  -3.004  -5.227  0.00  0.00     0.022 A 
ATOM      7  C5  UNL d   1      -4.798  -2.961  -5.959  0.00  0.00     0.026 A 
ATOM      8  C6  UNL d   1      -3.827  -3.925  -5.522  0.00  0.00    -0.082 A 
ATOM      9  C7  UNL d   1      -2.523  -4.202  -6.000  0.00  0.00     0.045 A 
ENDROOT
TORSDOF 0
ENDMDL
