MODEL 1
REMARK minimizedAffinity -0.982751727
REMARK minimizedRMSD -1
REMARK  0 active torsions:
REMARK  status: ('A' for Active; 'I' for Inactive)
ROOT
ATOM      1  C   UNL d   1      -1.535  -5.095  -4.140  0.00  0.00    -0.002 A 
ATOM      2  C1  UNL d   1      -1.811  -5.994  -5.161  0.00  0.00     0.010 A 
ATOM      3  C2  UNL d   1      -3.060  -5.997  -5.785  0.00  0.00     0.041 A 
ATOM      4  C3  UNL d   1      -4.036  -5.072  -5.363  0.00  0.00    -0.075 A 
ATOM      5  S   UNL d   1      -5.635  -4.892  -5.982  0.00  0.00     0.015 SA
ATOM      6  C4  UNL d   1      -5.988  -3.618  -4.907  0.00  0.00     0.022 A 
ATOM      7  C5  UNL d   1      -4.923  -3.324  -4.088  0.00  0.00     0.026 A 
ATOM      8  C6  UNL d   1      -3.781  -4.157  -4.337  0.00  0.00    -0.082 A 
ATOM      9  C7  UNL d   1      -2.505  -4.179  -3.724  0.00  0.00     0.045 A 
ENDROOT
TORSDOF 0
ENDMDL
