MODEL 1
REMARK minimizedAffinity 14.202301
REMARK minimizedRMSD -1
REMARK  1 active torsions:
REMARK  status: ('A' for Active; 'I' for Inactive)
REMARK    1  A    between atoms: C1_2  and  C2_3 
ROOT
ATOM      1  C2  UNL d   1      -2.277   3.192  -2.603  0.00  0.00    -0.081 A 
ATOM      2  C3  UNL d   1      -1.551   2.250  -1.864  0.00  0.00     0.006 A 
ATOM      3  C4  UNL d   1      -0.343   2.604  -1.258  0.00  0.00     0.002 A 
ATOM      4  C5  UNL d   1       0.155   3.907  -1.374  0.00  0.00    -0.080 A 
ATOM      5  C6  UNL d   1       1.435   4.308  -0.704  0.00  0.00     0.076 C 
ATOM      6  C7  UNL d   1      -0.562   4.843  -2.127  0.00  0.00     0.002 A 
ATOM      7  C8  UNL d   1      -1.770   4.489  -2.733  0.00  0.00     0.006 A 
ENDROOT
BRANCH   1   8
ATOM      8  C1  UNL d   1      -3.612   2.831  -3.203  0.00  0.00     0.054 C 
ATOM      9  C   UNL d   1      -4.121   1.503  -2.661  0.00  0.00     0.018 C 
ENDBRANCH   1   8
TORSDOF 1
ENDMDL
