MODEL 1
REMARK minimizedAffinity 3.94785714
REMARK minimizedRMSD -1
REMARK  1 active torsions:
REMARK  status: ('A' for Active; 'I' for Inactive)
REMARK    1  A    between atoms: C1_2  and  C2_3 
ROOT
ATOM      1  C2  UNL d   1       1.419  -1.810   3.829  0.00  0.00    -0.081 A 
ATOM      2  C3  UNL d   1       0.664  -0.811   4.456  0.00  0.00     0.006 A 
ATOM      3  C4  UNL d   1       0.281   0.334   3.752  0.00  0.00     0.002 A 
ATOM      4  C5  UNL d   1       0.641   0.495   2.410  0.00  0.00    -0.080 A 
ATOM      5  C6  UNL d   1       0.211   1.705   1.634  0.00  0.00     0.076 C 
ATOM      6  C7  UNL d   1       1.411  -0.495   1.789  0.00  0.00     0.002 A 
ATOM      7  C8  UNL d   1       1.794  -1.639   2.492  0.00  0.00     0.006 A 
ENDROOT
BRANCH   1   8
ATOM      8  C1  UNL d   1       1.778  -3.075   4.566  0.00  0.00     0.054 C 
ATOM      9  C   UNL d   1       2.197  -2.780   6.000  0.00  0.00     0.018 C 
ENDBRANCH   1   8
TORSDOF 1
ENDMDL
