MODEL 1
REMARK minimizedAffinity 6.6607995
REMARK minimizedRMSD -1
REMARK  1 active torsions:
REMARK  status: ('A' for Active; 'I' for Inactive)
REMARK    1  A    between atoms: C1_2  and  C2_3 
ROOT
ATOM      1  C2  UNL d   1       0.029   2.292   0.441  0.00  0.00    -0.081 A 
ATOM      2  C3  UNL d   1      -0.629   1.547  -0.545  0.00  0.00     0.006 A 
ATOM      3  C4  UNL d   1      -0.972   2.135  -1.765  0.00  0.00     0.002 A 
ATOM      4  C5  UNL d   1      -0.657   3.474  -2.021  0.00  0.00    -0.080 A 
ATOM      5  C6  UNL d   1      -0.993   4.108  -3.338  0.00  0.00     0.076 C 
ATOM      6  C7  UNL d   1      -0.015   4.223  -1.029  0.00  0.00     0.002 A 
ATOM      7  C8  UNL d   1       0.328   3.636   0.191  0.00  0.00     0.006 A 
ENDROOT
BRANCH   1   8
ATOM      8  C1  UNL d   1       0.458   1.643   1.733  0.00  0.00     0.054 C 
ATOM      9  C   UNL d   1      -0.723   1.446   2.672  0.00  0.00     0.018 C 
ENDBRANCH   1   8
TORSDOF 1
ENDMDL
