MODEL 1
REMARK minimizedAffinity 7.23508167
REMARK minimizedRMSD -1
REMARK  1 active torsions:
REMARK  status: ('A' for Active; 'I' for Inactive)
REMARK    1  A    between atoms: C1_2  and  C2_3 
ROOT
ATOM      1  C2  UNL d   1      -4.343  -0.214   2.603  0.00  0.00    -0.081 A 
ATOM      2  C3  UNL d   1      -5.462   0.140   3.366  0.00  0.00     0.006 A 
ATOM      3  C4  UNL d   1      -6.000  -0.756   4.293  0.00  0.00     0.002 A 
ATOM      4  C5  UNL d   1      -5.423  -2.017   4.477  0.00  0.00    -0.080 A 
ATOM      5  C6  UNL d   1      -5.972  -2.977   5.491  0.00  0.00     0.076 C 
ATOM      6  C7  UNL d   1      -4.316  -2.378   3.702  0.00  0.00     0.002 A 
ATOM      7  C8  UNL d   1      -3.778  -1.483   2.775  0.00  0.00     0.006 A 
ENDROOT
BRANCH   1   8
ATOM      8  C1  UNL d   1      -3.722   0.774   1.649  0.00  0.00     0.054 C 
ATOM      9  C   UNL d   1      -3.745   0.253   0.219  0.00  0.00     0.018 C 
ENDBRANCH   1   8
TORSDOF 1
ENDMDL
