MODEL 1
REMARK minimizedAffinity 10.6360397
REMARK minimizedRMSD -1
REMARK  1 active torsions:
REMARK  status: ('A' for Active; 'I' for Inactive)
REMARK    1  A    between atoms: C1_2  and  C2_3 
ROOT
ATOM      1  C2  UNL d   1      -3.159   2.535  -2.312  0.00  0.00    -0.081 A 
ATOM      2  C3  UNL d   1      -3.703   3.741  -2.771  0.00  0.00     0.006 A 
ATOM      3  C4  UNL d   1      -2.873   4.825  -3.067  0.00  0.00     0.002 A 
ATOM      4  C5  UNL d   1      -1.486   4.718  -2.918  0.00  0.00    -0.080 A 
ATOM      5  C6  UNL d   1      -0.581   5.864  -3.261  0.00  0.00     0.076 C 
ATOM      6  C7  UNL d   1      -0.944   3.519  -2.443  0.00  0.00     0.002 A 
ATOM      7  C8  UNL d   1      -1.773   2.435  -2.146  0.00  0.00     0.006 A 
ENDROOT
BRANCH   1   8
ATOM      8  C1  UNL d   1      -4.045   1.343  -2.054  0.00  0.00     0.054 C 
ATOM      9  C   UNL d   1      -4.304   1.159  -0.565  0.00  0.00     0.018 C 
ENDBRANCH   1   8
TORSDOF 1
ENDMDL
