MODEL 1
REMARK minimizedAffinity 2.41016936
REMARK minimizedRMSD -1
REMARK  1 active torsions:
REMARK  status: ('A' for Active; 'I' for Inactive)
REMARK    1  A    between atoms: C1_2  and  C2_3 
ROOT
ATOM      1  C2  UNL d   1      -5.500  -1.169   4.036  0.00  0.00    -0.081 A 
ATOM      2  C3  UNL d   1      -4.494  -1.885   3.377  0.00  0.00     0.006 A 
ATOM      3  C4  UNL d   1      -3.990  -1.435   2.154  0.00  0.00     0.002 A 
ATOM      4  C5  UNL d   1      -4.478  -0.259   1.574  0.00  0.00    -0.080 A 
ATOM      5  C6  UNL d   1      -3.924   0.250   0.277  0.00  0.00     0.076 C 
ATOM      6  C7  UNL d   1      -5.495   0.447   2.224  0.00  0.00     0.002 A 
ATOM      7  C8  UNL d   1      -6.000  -0.002   3.447  0.00  0.00     0.006 A 
ENDROOT
BRANCH   1   8
ATOM      8  C1  UNL d   1      -6.000  -1.616   5.386  0.00  0.00     0.054 C 
ATOM      9  C   UNL d   1      -5.991  -3.133   5.505  0.00  0.00     0.018 C 
ENDBRANCH   1   8
TORSDOF 1
ENDMDL
