MODEL 1
REMARK minimizedAffinity -5.15815353
REMARK minimizedRMSD -1
REMARK  0 active torsions:
REMARK  status: ('A' for Active; 'I' for Inactive)
ROOT
ATOM      1  N1  IND d   1       0.135   1.912  -0.624  0.00  0.00    -0.196 N 
ATOM      2  C2  IND d   1      -0.430   1.666   0.596  0.00  0.00     0.054 A 
ATOM      3  C3  IND d   1      -1.562   2.391   0.745  0.00  0.00    -0.031 A 
ATOM      4  C4  IND d   1      -2.727   3.966  -0.925  0.00  0.00     0.051 A 
ATOM      5  C5  IND d   1      -2.569   4.537  -2.157  0.00  0.00    -0.031 A 
ATOM      6  C6  IND d   1      -1.481   4.255  -2.957  0.00  0.00     0.015 A 
ATOM      7  C7  IND d   1      -0.512   3.378  -2.559  0.00  0.00    -0.016 A 
ATOM      8  C8  IND d   1      -0.665   2.801  -1.306  0.00  0.00    -0.047 A 
ATOM      9  C9  IND d   1      -1.745   3.117  -0.472  0.00  0.00    -0.096 A 
ATOM     10  HN1 IND d   1       0.868   1.569  -0.915  0.00  0.00     0.298 HD
ENDROOT
TORSDOF 0
ENDMDL
