MODEL 1
REMARK minimizedAffinity -2.34859991
REMARK minimizedRMSD -1
REMARK  0 active torsions:
REMARK  status: ('A' for Active; 'I' for Inactive)
ROOT
ATOM      1  N1  IND d   1      -3.651   4.135  -3.686  0.00  0.00    -0.196 N 
ATOM      2  C2  IND d   1      -4.519   3.877  -2.661  0.00  0.00     0.054 A 
ATOM      3  C3  IND d   1      -3.936   3.072  -1.744  0.00  0.00    -0.031 A 
ATOM      4  C4  IND d   1      -1.537   2.143  -1.672  0.00  0.00     0.051 A 
ATOM      5  C5  IND d   1      -0.385   2.077  -2.404  0.00  0.00    -0.031 A 
ATOM      6  C6  IND d   1      -0.259   2.708  -3.625  0.00  0.00     0.015 A 
ATOM      7  C7  IND d   1      -1.282   3.442  -4.156  0.00  0.00    -0.016 A 
ATOM      8  C8  IND d   1      -2.456   3.506  -3.418  0.00  0.00    -0.047 A 
ATOM      9  C9  IND d   1      -2.603   2.832  -2.198  0.00  0.00    -0.096 A 
ATOM     10  HN1 IND d   1      -3.824   4.611  -4.381  0.00  0.00     0.298 HD
ENDROOT
TORSDOF 0
ENDMDL
