MODEL 1
REMARK minimizedAffinity -0.170785829
REMARK minimizedRMSD -1
REMARK  0 active torsions:
REMARK  status: ('A' for Active; 'I' for Inactive)
ROOT
ATOM      1  N1  IND d   1      -1.199   0.901  -1.082  0.00  0.00    -0.196 N 
ATOM      2  C2  IND d   1      -0.424   0.607  -2.169  0.00  0.00     0.054 A 
ATOM      3  C3  IND d   1       0.553  -0.263  -1.828  0.00  0.00    -0.031 A 
ATOM      4  C4  IND d   1       1.005  -1.413   0.431  0.00  0.00     0.051 A 
ATOM      5  C5  IND d   1       0.586  -1.433   1.732  0.00  0.00    -0.031 A 
ATOM      6  C6  IND d   1      -0.472  -0.663   2.169  0.00  0.00     0.015 A 
ATOM      7  C7  IND d   1      -1.161   0.151   1.316  0.00  0.00    -0.016 A 
ATOM      8  C8  IND d   1      -0.735   0.180  -0.004  0.00  0.00    -0.047 A 
ATOM      9  C9  IND d   1       0.365  -0.567  -0.445  0.00  0.00    -0.096 A 
ATOM     10  HN1 IND d   1      -1.865   1.445  -1.073  0.00  0.00     0.298 HD
ENDROOT
TORSDOF 0
ENDMDL
