MODEL 1
REMARK minimizedAffinity -4.377635
REMARK minimizedRMSD -1
REMARK  0 active torsions:
REMARK  status: ('A' for Active; 'I' for Inactive)
ROOT
ATOM      1  N1  IND d   1      -1.230   0.381  -0.010  0.00  0.00    -0.196 N 
ATOM      2  C2  IND d   1      -0.905   0.427  -1.337  0.00  0.00     0.054 A 
ATOM      3  C3  IND d   1       0.233  -0.266  -1.567  0.00  0.00    -0.031 A 
ATOM      4  C4  IND d   1       1.670  -1.639   0.070  0.00  0.00     0.051 A 
ATOM      5  C5  IND d   1       1.794  -1.949   1.395  0.00  0.00    -0.031 A 
ATOM      6  C6  IND d   1       0.897  -1.492   2.338  0.00  0.00     0.015 A 
ATOM      7  C7  IND d   1      -0.169  -0.712   1.988  0.00  0.00    -0.016 A 
ATOM      8  C8  IND d   1      -0.295  -0.390   0.644  0.00  0.00    -0.047 A 
ATOM      9  C9  IND d   1       0.637  -0.816  -0.311  0.00  0.00    -0.096 A 
ATOM     10  HN1 IND d   1      -1.906   0.769   0.355  0.00  0.00     0.298 HD
ENDROOT
TORSDOF 0
ENDMDL
