MODEL 1
REMARK minimizedAffinity 0.515684009
REMARK minimizedRMSD -1
REMARK  0 active torsions:
REMARK  status: ('A' for Active; 'I' for Inactive)
ROOT
ATOM      1  N1  IND d   1       0.673   0.339  -0.730  0.00  0.00    -0.196 N 
ATOM      2  C2  IND d   1      -0.162  -0.462  -0.001  0.00  0.00     0.054 A 
ATOM      3  C3  IND d   1      -1.451  -0.109  -0.206  0.00  0.00    -0.031 A 
ATOM      4  C4  IND d   1      -2.424   1.687  -1.773  0.00  0.00     0.051 A 
ATOM      5  C5  IND d   1      -2.054   2.697  -2.615  0.00  0.00    -0.031 A 
ATOM      6  C6  IND d   1      -0.728   2.977  -2.880  0.00  0.00     0.015 A 
ATOM      7  C7  IND d   1       0.280   2.246  -2.317  0.00  0.00    -0.016 A 
ATOM      8  C8  IND d   1      -0.093   1.224  -1.456  0.00  0.00    -0.047 A 
ATOM      9  C9  IND d   1      -1.435   0.962  -1.151  0.00  0.00    -0.096 A 
ATOM     10  HN1 IND d   1       1.532   0.297  -0.733  0.00  0.00     0.298 HD
ENDROOT
TORSDOF 0
ENDMDL
