MODEL 1
REMARK minimizedAffinity -2.81404448
REMARK minimizedRMSD -1
REMARK  0 active torsions:
REMARK  status: ('A' for Active; 'I' for Inactive)
ROOT
ATOM      1  N1  IND d   1      -4.399   4.037  -2.605  0.00  0.00    -0.196 N 
ATOM      2  C2  IND d   1      -5.148   2.946  -2.261  0.00  0.00     0.054 A 
ATOM      3  C3  IND d   1      -4.386   1.829  -2.274  0.00  0.00    -0.031 A 
ATOM      4  C4  IND d   1      -1.865   1.575  -2.733  0.00  0.00     0.051 A 
ATOM      5  C5  IND d   1      -0.765   2.283  -3.127  0.00  0.00    -0.031 A 
ATOM      6  C6  IND d   1      -0.820   3.641  -3.369  0.00  0.00     0.015 A 
ATOM      7  C7  IND d   1      -1.981   4.345  -3.215  0.00  0.00    -0.016 A 
ATOM      8  C8  IND d   1      -3.102   3.627  -2.822  0.00  0.00    -0.047 A 
ATOM      9  C9  IND d   1      -3.061   2.242  -2.616  0.00  0.00    -0.096 A 
ATOM     10  HN1 IND d   1      -4.690   4.843  -2.675  0.00  0.00     0.298 HD
ENDROOT
TORSDOF 0
ENDMDL
