MODEL 1
REMARK minimizedAffinity -1.49709082
REMARK minimizedRMSD -1
REMARK  0 active torsions:
REMARK  status: ('A' for Active; 'I' for Inactive)
ROOT
ATOM      1  N1  IND d   1       1.973  -1.632  -0.464  0.00  0.00    -0.196 N 
ATOM      2  C2  IND d   1       1.490  -1.170  -1.656  0.00  0.00     0.054 A 
ATOM      3  C3  IND d   1       0.211  -0.755  -1.516  0.00  0.00    -0.031 A 
ATOM      4  C4  IND d   1      -1.252  -0.648   0.599  0.00  0.00     0.051 A 
ATOM      5  C5  IND d   1      -1.260  -0.994   1.922  0.00  0.00    -0.031 A 
ATOM      6  C6  IND d   1      -0.168  -1.579   2.529  0.00  0.00     0.015 A 
ATOM      7  C7  IND d   1       0.982  -1.831   1.837  0.00  0.00    -0.016 A 
ATOM      8  C8  IND d   1       0.991  -1.488   0.492  0.00  0.00    -0.047 A 
ATOM      9  C9  IND d   1      -0.129  -0.933  -0.140  0.00  0.00    -0.096 A 
ATOM     10  HN1 IND d   1       2.758  -1.958  -0.333  0.00  0.00     0.298 HD
ENDROOT
TORSDOF 0
ENDMDL
