MODEL 1
REMARK minimizedAffinity -6.76013565
REMARK minimizedRMSD -1
REMARK  0 active torsions:
REMARK  status: ('A' for Active; 'I' for Inactive)
ROOT
ATOM      1  C   UNL d   1      -0.094   1.095  -1.344  0.00  0.00     0.124 A 
ATOM      2  C1  UNL d   1       0.448  -0.014  -1.980  0.00  0.00     0.062 A 
ATOM      3  C2  UNL d   1       0.556  -1.225  -1.303  0.00  0.00     0.162 A 
ATOM      4  C3  UNL d   1       0.120  -1.335   0.017  0.00  0.00    -0.034 A 
ATOM      5  C4  UNL d   1      -0.423  -0.216   0.650  0.00  0.00     0.162 A 
ATOM      6  C5  UNL d   1      -0.529   0.993  -0.031  0.00  0.00     0.062 A 
ATOM      7  F   UNL d   1      -1.053   2.063   0.585  0.00  0.00    -0.097 F 
ATOM      8  F1  UNL d   1      -0.852  -0.286   1.919  0.00  0.00    -0.096 F 
ATOM      9  I   UNL d   1       0.279  -3.145   1.032  0.00  0.00    -0.060 I 
ATOM     10  F2  UNL d   1       1.084  -2.280  -1.942  0.00  0.00    -0.096 F 
ATOM     11  F3  UNL d   1       0.870   0.082  -3.249  0.00  0.00    -0.097 F 
ATOM     12  F4  UNL d   1      -0.195   2.260  -1.997  0.00  0.00    -0.092 F 
ENDROOT
TORSDOF 0
ENDMDL
