MODEL 1
REMARK minimizedAffinity 0.575552166
REMARK minimizedRMSD -1
REMARK  0 active torsions:
REMARK  status: ('A' for Active; 'I' for Inactive)
ROOT
ATOM      1  C   UNL d   1      -0.478  -3.194  -0.385  0.00  0.00     0.124 A 
ATOM      2  C1  UNL d   1      -1.119  -2.305   0.467  0.00  0.00     0.062 A 
ATOM      3  C2  UNL d   1      -0.765  -0.959   0.469  0.00  0.00     0.162 A 
ATOM      4  C3  UNL d   1       0.236  -0.493  -0.385  0.00  0.00    -0.034 A 
ATOM      5  C4  UNL d   1       0.877  -1.393  -1.237  0.00  0.00     0.162 A 
ATOM      6  C5  UNL d   1       0.519  -2.737  -1.236  0.00  0.00     0.062 A 
ATOM      7  F   UNL d   1       1.139  -3.595  -2.059  0.00  0.00    -0.097 F 
ATOM      8  F1  UNL d   1       1.843  -0.979  -2.071  0.00  0.00    -0.096 F 
ATOM      9  I   UNL d   1       0.768   1.519  -0.384  0.00  0.00    -0.060 I 
ATOM     10  F2  UNL d   1      -1.401  -0.122   1.302  0.00  0.00    -0.096 F 
ATOM     11  F3  UNL d   1      -2.082  -2.743   1.290  0.00  0.00    -0.097 F 
ATOM     12  F4  UNL d   1      -0.820  -4.488  -0.384  0.00  0.00    -0.092 F 
ENDROOT
TORSDOF 0
ENDMDL
