MODEL 1
REMARK minimizedAffinity -4.33669567
REMARK minimizedRMSD -1
REMARK  0 active torsions:
REMARK  status: ('A' for Active; 'I' for Inactive)
ROOT
ATOM      1  C   UNL d   1      -0.129   0.503  -0.053  0.00  0.00     0.124 A 
ATOM      2  C1  UNL d   1       0.593   0.075  -1.159  0.00  0.00     0.062 A 
ATOM      3  C2  UNL d   1       0.625  -1.275  -1.495  0.00  0.00     0.162 A 
ATOM      4  C3  UNL d   1      -0.069  -2.208  -0.726  0.00  0.00    -0.034 A 
ATOM      5  C4  UNL d   1      -0.793  -1.771   0.385  0.00  0.00     0.162 A 
ATOM      6  C5  UNL d   1      -0.821  -0.421   0.718  0.00  0.00     0.062 A 
ATOM      7  F   UNL d   1      -1.520  -0.010   1.786  0.00  0.00    -0.097 F 
ATOM      8  F1  UNL d   1      -1.472  -2.642   1.147  0.00  0.00    -0.096 F 
ATOM      9  I   UNL d   1      -0.025  -4.228  -1.226  0.00  0.00    -0.060 I 
ATOM     10  F2  UNL d   1       1.331  -1.659  -2.569  0.00  0.00    -0.096 F 
ATOM     11  F3  UNL d   1       1.263   0.966  -1.905  0.00  0.00    -0.097 F 
ATOM     12  F4  UNL d   1      -0.157   1.802   0.269  0.00  0.00    -0.092 F 
ENDROOT
TORSDOF 0
ENDMDL
