MODEL 1
REMARK minimizedAffinity -3.7592411
REMARK minimizedRMSD -1
REMARK  0 active torsions:
REMARK  status: ('A' for Active; 'I' for Inactive)
ROOT
ATOM      1  C   UNL d   1      -0.030  -3.059  -1.219  0.00  0.00     0.124 A 
ATOM      2  C1  UNL d   1      -0.177  -2.133  -2.243  0.00  0.00     0.062 A 
ATOM      3  C2  UNL d   1      -0.107  -0.770  -1.969  0.00  0.00     0.162 A 
ATOM      4  C3  UNL d   1       0.114  -0.324  -0.666  0.00  0.00    -0.034 A 
ATOM      5  C4  UNL d   1       0.260  -1.261   0.358  0.00  0.00     0.162 A 
ATOM      6  C5  UNL d   1       0.189  -2.622   0.080  0.00  0.00     0.062 A 
ATOM      7  F   UNL d   1       0.331  -3.515   1.070  0.00  0.00    -0.097 F 
ATOM      8  F1  UNL d   1       0.474  -0.867   1.622  0.00  0.00    -0.096 F 
ATOM      9  I   UNL d   1       0.221   1.713  -0.254  0.00  0.00    -0.060 I 
ATOM     10  F2  UNL d   1      -0.253   0.102  -2.978  0.00  0.00    -0.096 F 
ATOM     11  F3  UNL d   1      -0.390  -2.552  -3.498  0.00  0.00    -0.097 F 
ATOM     12  F4  UNL d   1      -0.100  -4.370  -1.484  0.00  0.00    -0.092 F 
ENDROOT
TORSDOF 0
ENDMDL
