MODEL 1
REMARK minimizedAffinity 4.79433346
REMARK minimizedRMSD -1
REMARK  0 active torsions:
REMARK  status: ('A' for Active; 'I' for Inactive)
ROOT
ATOM      1  C   UNL d   1      -0.498  -1.215  -1.218  0.00  0.00     0.124 A 
ATOM      2  C1  UNL d   1      -0.835  -1.075   0.121  0.00  0.00     0.062 A 
ATOM      3  C2  UNL d   1      -0.522   0.098   0.802  0.00  0.00     0.162 A 
ATOM      4  C3  UNL d   1       0.131   1.141   0.145  0.00  0.00    -0.034 A 
ATOM      5  C4  UNL d   1       0.468   0.992  -1.202  0.00  0.00     0.162 A 
ATOM      6  C5  UNL d   1       0.153  -0.183  -1.878  0.00  0.00     0.062 A 
ATOM      7  F   UNL d   1       0.479  -0.317  -3.172  0.00  0.00    -0.097 F 
ATOM      8  F1  UNL d   1       1.096   1.974  -1.864  0.00  0.00    -0.096 F 
ATOM      9  I   UNL d   1       0.601   2.896   1.160  0.00  0.00    -0.060 I 
ATOM     10  F2  UNL d   1      -0.859   0.207   2.096  0.00  0.00    -0.096 F 
ATOM     11  F3  UNL d   1      -1.463  -2.071   0.762  0.00  0.00    -0.097 F 
ATOM     12  F4  UNL d   1      -0.799  -2.345  -1.870  0.00  0.00    -0.092 F 
ENDROOT
TORSDOF 0
ENDMDL
