MODEL 1
REMARK minimizedAffinity -4.79706049
REMARK minimizedRMSD -1
REMARK  0 active torsions:
REMARK  status: ('A' for Active; 'I' for Inactive)
ROOT
ATOM      1  C   UNL d   1      -0.213  -3.156  -0.727  0.00  0.00     0.124 A 
ATOM      2  C1  UNL d   1      -0.162  -2.315  -1.830  0.00  0.00     0.062 A 
ATOM      3  C2  UNL d   1      -0.081  -0.937  -1.656  0.00  0.00     0.162 A 
ATOM      4  C3  UNL d   1      -0.049  -0.390  -0.373  0.00  0.00    -0.034 A 
ATOM      5  C4  UNL d   1      -0.101  -1.242   0.731  0.00  0.00     0.162 A 
ATOM      6  C5  UNL d   1      -0.182  -2.619   0.552  0.00  0.00     0.062 A 
ATOM      7  F   UNL d   1      -0.231  -3.430   1.619  0.00  0.00    -0.097 F 
ATOM      8  F1  UNL d   1      -0.072  -0.750   1.979  0.00  0.00    -0.096 F 
ATOM      9  I   UNL d   1       0.072   1.671  -0.109  0.00  0.00    -0.060 I 
ATOM     10  F2  UNL d   1      -0.034  -0.148  -2.740  0.00  0.00    -0.096 F 
ATOM     11  F3  UNL d   1      -0.193  -2.832  -3.067  0.00  0.00    -0.097 F 
ATOM     12  F4  UNL d   1      -0.292  -4.482  -0.898  0.00  0.00    -0.092 F 
ENDROOT
TORSDOF 0
ENDMDL
