MODEL 1
REMARK minimizedAffinity -4.52490377
REMARK minimizedRMSD -1
REMARK  0 active torsions:
REMARK  status: ('A' for Active; 'I' for Inactive)
ROOT
ATOM      1  C   UNL d   1       0.328  -2.947  -1.261  0.00  0.00     0.124 A 
ATOM      2  C1  UNL d   1       0.324  -2.572   0.076  0.00  0.00     0.062 A 
ATOM      3  C2  UNL d   1       0.306  -1.225   0.425  0.00  0.00     0.162 A 
ATOM      4  C3  UNL d   1       0.292  -0.242  -0.564  0.00  0.00    -0.034 A 
ATOM      5  C4  UNL d   1       0.299  -0.626  -1.906  0.00  0.00     0.162 A 
ATOM      6  C5  UNL d   1       0.316  -1.974  -2.250  0.00  0.00     0.062 A 
ATOM      7  F   UNL d   1       0.321  -2.333  -3.542  0.00  0.00    -0.097 F 
ATOM      8  F1  UNL d   1       0.286   0.294  -2.882  0.00  0.00    -0.096 F 
ATOM      9  I   UNL d   1       0.266   1.774  -0.045  0.00  0.00    -0.060 I 
ATOM     10  F2  UNL d   1       0.302  -0.892   1.724  0.00  0.00    -0.096 F 
ATOM     11  F3  UNL d   1       0.337  -3.511   1.033  0.00  0.00    -0.097 F 
ATOM     12  F4  UNL d   1       0.346  -4.244  -1.594  0.00  0.00    -0.092 F 
ENDROOT
TORSDOF 0
ENDMDL
