MODEL 1
REMARK minimizedAffinity 1.73304307
REMARK minimizedRMSD -1
REMARK  0 active torsions:
REMARK  status: ('A' for Active; 'I' for Inactive)
ROOT
ATOM      1  C   UNL d   1      -0.860  -0.424   0.869  0.00  0.00     0.124 A 
ATOM      2  C1  UNL d   1      -1.020  -1.698   0.344  0.00  0.00     0.062 A 
ATOM      3  C2  UNL d   1      -0.498  -2.011  -0.908  0.00  0.00     0.162 A 
ATOM      4  C3  UNL d   1       0.192  -1.046  -1.643  0.00  0.00    -0.034 A 
ATOM      5  C4  UNL d   1       0.348   0.234  -1.109  0.00  0.00     0.162 A 
ATOM      6  C5  UNL d   1      -0.176   0.541   0.143  0.00  0.00     0.062 A 
ATOM      7  F   UNL d   1      -0.020   1.773   0.649  0.00  0.00    -0.097 F 
ATOM      8  F1  UNL d   1       1.006   1.185  -1.789  0.00  0.00    -0.096 F 
ATOM      9  I   UNL d   1       0.975  -1.509  -3.515  0.00  0.00    -0.060 I 
ATOM     10  F2  UNL d   1      -0.668  -3.251  -1.390  0.00  0.00    -0.096 F 
ATOM     11  F3  UNL d   1      -1.682  -2.632   1.043  0.00  0.00    -0.097 F 
ATOM     12  F4  UNL d   1      -1.365  -0.126   2.073  0.00  0.00    -0.092 F 
ENDROOT
TORSDOF 0
ENDMDL
