MODEL 1
REMARK minimizedAffinity 2.08383918
REMARK minimizedRMSD -1
REMARK  0 active torsions:
REMARK  status: ('A' for Active; 'I' for Inactive)
ROOT
ATOM      1  C   UNL d   1      -0.943  -1.975  -0.892  0.00  0.00     0.124 A 
ATOM      2  C1  UNL d   1      -1.051  -1.521   0.415  0.00  0.00     0.062 A 
ATOM      3  C2  UNL d   1      -0.566  -0.263   0.762  0.00  0.00     0.162 A 
ATOM      4  C3  UNL d   1       0.031   0.551  -0.201  0.00  0.00    -0.034 A 
ATOM      5  C4  UNL d   1       0.138   0.087  -1.513  0.00  0.00     0.162 A 
ATOM      6  C5  UNL d   1      -0.349  -1.171  -1.854  0.00  0.00     0.062 A 
ATOM      7  F   UNL d   1      -0.243  -1.608  -3.118  0.00  0.00    -0.097 F 
ATOM      8  F1  UNL d   1       0.706   0.843  -2.464  0.00  0.00    -0.096 F 
ATOM      9  I   UNL d   1       0.758   2.432   0.313  0.00  0.00    -0.060 I 
ATOM     10  F2  UNL d   1      -0.684   0.150   2.033  0.00  0.00    -0.096 F 
ATOM     11  F3  UNL d   1      -1.623  -2.296   1.348  0.00  0.00    -0.097 F 
ATOM     12  F4  UNL d   1      -1.409  -3.186  -1.222  0.00  0.00    -0.092 F 
ENDROOT
TORSDOF 0
ENDMDL
