MODEL 1
REMARK minimizedAffinity -6.13168383
REMARK minimizedRMSD -1
REMARK  0 active torsions:
REMARK  status: ('A' for Active; 'I' for Inactive)
ROOT
ATOM      1  C   UNL d   1       0.195  -3.361  -0.978  0.00  0.00     0.124 A 
ATOM      2  C1  UNL d   1       0.198  -2.795   0.290  0.00  0.00     0.062 A 
ATOM      3  C2  UNL d   1       0.242  -1.412   0.439  0.00  0.00     0.162 A 
ATOM      4  C3  UNL d   1       0.283  -0.584  -0.682  0.00  0.00    -0.034 A 
ATOM      5  C4  UNL d   1       0.281  -1.160  -1.954  0.00  0.00     0.162 A 
ATOM      6  C5  UNL d   1       0.236  -2.543  -2.098  0.00  0.00     0.062 A 
ATOM      7  F   UNL d   1       0.234  -3.087  -3.324  0.00  0.00    -0.097 F 
ATOM      8  F1  UNL d   1       0.319  -0.393  -3.054  0.00  0.00    -0.096 F 
ATOM      9  I   UNL d   1       0.350   1.485  -0.463  0.00  0.00    -0.060 I 
ATOM     10  F2  UNL d   1       0.244  -0.893   1.676  0.00  0.00    -0.096 F 
ATOM     11  F3  UNL d   1       0.159  -3.583   1.374  0.00  0.00    -0.097 F 
ATOM     12  F4  UNL d   1       0.153  -4.692  -1.119  0.00  0.00    -0.092 F 
ENDROOT
TORSDOF 0
ENDMDL
