MODEL 1
REMARK minimizedAffinity -6.25508356
REMARK minimizedRMSD -1
REMARK  0 active torsions:
REMARK  status: ('A' for Active; 'I' for Inactive)
ROOT
ATOM      1  C   UNL d   1      -1.442   0.362   1.208  0.00  0.00     0.124 A 
ATOM      2  C1  UNL d   1      -1.422  -1.023   1.119  0.00  0.00     0.062 A 
ATOM      3  C2  UNL d   1      -0.621  -1.652   0.170  0.00  0.00     0.162 A 
ATOM      4  C3  UNL d   1       0.167  -0.895  -0.698  0.00  0.00    -0.034 A 
ATOM      5  C4  UNL d   1       0.140   0.497  -0.603  0.00  0.00     0.162 A 
ATOM      6  C5  UNL d   1      -0.662   1.120   0.348  0.00  0.00     0.062 A 
ATOM      7  F   UNL d   1      -0.681   2.458   0.432  0.00  0.00    -0.097 F 
ATOM      8  F1  UNL d   1       0.885   1.255  -1.421  0.00  0.00    -0.096 F 
ATOM      9  I   UNL d   1       1.366  -1.831  -2.119  0.00  0.00    -0.060 I 
ATOM     10  F2  UNL d   1      -0.620  -2.992   0.106  0.00  0.00    -0.096 F 
ATOM     11  F3  UNL d   1      -2.176  -1.759   1.949  0.00  0.00    -0.097 F 
ATOM     12  F4  UNL d   1      -2.215   0.964   2.122  0.00  0.00    -0.092 F 
ENDROOT
TORSDOF 0
ENDMDL
