MODEL 1
REMARK minimizedAffinity -1.40013623
REMARK minimizedRMSD -1
REMARK  0 active torsions:
REMARK  status: ('A' for Active; 'I' for Inactive)
ROOT
ATOM      1  C   UNL d   1       2.030   0.453  -1.766  0.00  0.00     0.124 A 
ATOM      2  C1  UNL d   1       0.673   0.441  -1.473  0.00  0.00     0.062 A 
ATOM      3  C2  UNL d   1       0.141   1.369  -0.584  0.00  0.00     0.162 A 
ATOM      4  C3  UNL d   1       0.965   2.320   0.019  0.00  0.00    -0.034 A 
ATOM      5  C4  UNL d   1       2.329   2.325  -0.280  0.00  0.00     0.162 A 
ATOM      6  C5  UNL d   1       2.856   1.395  -1.170  0.00  0.00     0.062 A 
ATOM      7  F   UNL d   1       4.167   1.408  -1.452  0.00  0.00    -0.097 F 
ATOM      8  F1  UNL d   1       3.150   3.225   0.281  0.00  0.00    -0.096 F 
ATOM      9  I   UNL d   1       0.173   3.710   1.349  0.00  0.00    -0.060 I 
ATOM     10  F2  UNL d   1      -1.174   1.334  -0.319  0.00  0.00    -0.096 F 
ATOM     11  F3  UNL d   1      -0.127  -0.469  -2.047  0.00  0.00    -0.097 F 
ATOM     12  F4  UNL d   1       2.539  -0.443  -2.622  0.00  0.00    -0.092 F 
ENDROOT
TORSDOF 0
ENDMDL
