MODEL 1
REMARK minimizedAffinity -3.27881694
REMARK minimizedRMSD -1
REMARK  0 active torsions:
REMARK  status: ('A' for Active; 'I' for Inactive)
ROOT
ATOM      1  C   UNL d   1      -0.429  -1.582  -0.645  0.00  0.00     0.124 A 
ATOM      2  C1  UNL d   1      -0.338  -1.213   0.690  0.00  0.00     0.062 A 
ATOM      3  C2  UNL d   1       0.088   0.066   1.035  0.00  0.00     0.162 A 
ATOM      4  C3  UNL d   1       0.425   0.987   0.043  0.00  0.00    -0.034 A 
ATOM      5  C4  UNL d   1       0.331   0.608  -1.297  0.00  0.00     0.162 A 
ATOM      6  C5  UNL d   1      -0.095  -0.672  -1.637  0.00  0.00     0.062 A 
ATOM      7  F   UNL d   1      -0.183  -1.026  -2.927  0.00  0.00    -0.097 F 
ATOM      8  F1  UNL d   1       0.647   1.469  -2.276  0.00  0.00    -0.096 F 
ATOM      9  I   UNL d   1       1.062   2.901   0.555  0.00  0.00    -0.060 I 
ATOM     10  F2  UNL d   1       0.167   0.395   2.333  0.00  0.00    -0.096 F 
ATOM     11  F3  UNL d   1      -0.659  -2.092   1.651  0.00  0.00    -0.097 F 
ATOM     12  F4  UNL d   1      -0.839  -2.814  -0.974  0.00  0.00    -0.092 F 
ENDROOT
TORSDOF 0
ENDMDL
