MODEL 1
REMARK minimizedAffinity -2.38037753
REMARK minimizedRMSD -1
REMARK  0 active torsions:
REMARK  status: ('A' for Active; 'I' for Inactive)
ROOT
ATOM      1  C   UNL d   1       0.046  -3.415  -1.205  0.00  0.00     0.124 A 
ATOM      2  C1  UNL d   1      -0.326  -2.775  -0.030  0.00  0.00     0.062 A 
ATOM      3  C2  UNL d   1      -0.287  -1.387   0.053  0.00  0.00     0.162 A 
ATOM      4  C3  UNL d   1       0.125  -0.627  -1.042  0.00  0.00    -0.034 A 
ATOM      5  C4  UNL d   1       0.498  -1.277  -2.219  0.00  0.00     0.162 A 
ATOM      6  C5  UNL d   1       0.457  -2.665  -2.298  0.00  0.00     0.062 A 
ATOM      7  F   UNL d   1       0.817  -3.281  -3.433  0.00  0.00    -0.097 F 
ATOM      8  F1  UNL d   1       0.899  -0.577  -3.291  0.00  0.00    -0.096 F 
ATOM      9  I   UNL d   1       0.185   1.450  -0.921  0.00  0.00    -0.060 I 
ATOM     10  F2  UNL d   1      -0.652  -0.796   1.201  0.00  0.00    -0.096 F 
ATOM     11  F3  UNL d   1      -0.724  -3.497   1.027  0.00  0.00    -0.097 F 
ATOM     12  F4  UNL d   1       0.008  -4.751  -1.282  0.00  0.00    -0.092 F 
ENDROOT
TORSDOF 0
ENDMDL
