MODEL 1
REMARK minimizedAffinity -1.51999247
REMARK minimizedRMSD -1
REMARK  0 active torsions:
REMARK  status: ('A' for Active; 'I' for Inactive)
ROOT
ATOM      1  C   UNL d   1      -0.161   0.648   0.466  0.00  0.00     0.124 A 
ATOM      2  C1  UNL d   1      -1.092  -0.280   0.911  0.00  0.00     0.062 A 
ATOM      3  C2  UNL d   1      -0.980  -1.617   0.540  0.00  0.00     0.162 A 
ATOM      4  C3  UNL d   1       0.068  -2.034  -0.281  0.00  0.00    -0.034 A 
ATOM      5  C4  UNL d   1       1.000  -1.095  -0.725  0.00  0.00     0.162 A 
ATOM      6  C5  UNL d   1       0.884   0.240  -0.352  0.00  0.00     0.062 A 
ATOM      7  F   UNL d   1       1.784   1.135  -0.783  0.00  0.00    -0.097 F 
ATOM      8  F1  UNL d   1       2.020  -1.462  -1.515  0.00  0.00    -0.096 F 
ATOM      9  I   UNL d   1       0.238  -4.032  -0.838  0.00  0.00    -0.060 I 
ATOM     10  F2  UNL d   1      -1.894  -2.492   0.985  0.00  0.00    -0.096 F 
ATOM     11  F3  UNL d   1      -2.103   0.112   1.700  0.00  0.00    -0.097 F 
ATOM     12  F4  UNL d   1      -0.271   1.934   0.823  0.00  0.00    -0.092 F 
ENDROOT
TORSDOF 0
ENDMDL
