MODEL 1
REMARK minimizedAffinity -4.13542318
REMARK minimizedRMSD -1
REMARK  0 active torsions:
REMARK  status: ('A' for Active; 'I' for Inactive)
ROOT
ATOM      1  C   UNL d   1      -0.196   0.822   0.349  0.00  0.00     0.124 A 
ATOM      2  C1  UNL d   1      -0.754  -0.229   1.064  0.00  0.00     0.062 A 
ATOM      3  C2  UNL d   1      -0.798  -1.506   0.512  0.00  0.00     0.162 A 
ATOM      4  C3  UNL d   1      -0.282  -1.739  -0.763  0.00  0.00    -0.034 A 
ATOM      5  C4  UNL d   1       0.276  -0.677  -1.476  0.00  0.00     0.162 A 
ATOM      6  C5  UNL d   1       0.318   0.597  -0.920  0.00  0.00     0.062 A 
ATOM      7  F   UNL d   1       0.857   1.611  -1.612  0.00  0.00    -0.097 F 
ATOM      8  F1  UNL d   1       0.781  -0.867  -2.704  0.00  0.00    -0.096 F 
ATOM      9  I   UNL d   1      -0.346  -3.647  -1.592  0.00  0.00    -0.060 I 
ATOM     10  F2  UNL d   1      -1.342  -2.502   1.226  0.00  0.00    -0.096 F 
ATOM     11  F3  UNL d   1      -1.252  -0.014   2.290  0.00  0.00    -0.097 F 
ATOM     12  F4  UNL d   1      -0.156   2.050   0.882  0.00  0.00    -0.092 F 
ENDROOT
TORSDOF 0
ENDMDL
