MODEL 1
REMARK minimizedAffinity 5.3205657
REMARK minimizedRMSD -1
REMARK  0 active torsions:
REMARK  status: ('A' for Active; 'I' for Inactive)
ROOT
ATOM      1  C2' OXE d   1       0.790  -2.172  -2.121  0.00  0.00     0.078 C 
ATOM      2  C1' OXE d   1      -0.360  -1.680   0.392  0.00  0.00     0.078 C 
ATOM      3  C1  OXE d   1      -1.200  -1.411  -0.831  0.00  0.00    -0.078 A 
ATOM      4  C2  OXE d   1      -0.613  -1.610  -2.058  0.00  0.00    -0.078 A 
ATOM      5  C3  OXE d   1      -1.362  -1.430  -3.218  0.00  0.00     0.003 A 
ATOM      6  C4  OXE d   1      -2.656  -0.900  -3.151  0.00  0.00    -0.002 A 
ATOM      7  C5  OXE d   1      -3.259  -0.653  -1.913  0.00  0.00    -0.002 A 
ATOM      8  C6  OXE d   1      -2.561  -0.942  -0.745  0.00  0.00     0.003 A 
ENDROOT
TORSDOF 0
ENDMDL
