MODEL 1
REMARK minimizedAffinity 3.1449163
REMARK minimizedRMSD -1
REMARK  0 active torsions:
REMARK  status: ('A' for Active; 'I' for Inactive)
ROOT
ATOM      1  C2' OXE d   1       2.205  -1.134   3.415  0.00  0.00     0.078 C 
ATOM      2  C1' OXE d   1       0.249  -1.502   1.435  0.00  0.00     0.078 C 
ATOM      3  C1  OXE d   1       1.135  -0.286   1.331  0.00  0.00    -0.078 A 
ATOM      4  C2  OXE d   1       2.058  -0.089   2.330  0.00  0.00    -0.078 A 
ATOM      5  C3  OXE d   1       2.937   0.987   2.253  0.00  0.00     0.003 A 
ATOM      6  C4  OXE d   1       2.789   1.954   1.252  0.00  0.00    -0.002 A 
ATOM      7  C5  OXE d   1       1.829   1.794   0.247  0.00  0.00    -0.002 A 
ATOM      8  C6  OXE d   1       1.024   0.660   0.248  0.00  0.00     0.003 A 
ENDROOT
TORSDOF 0
ENDMDL
