MODEL 1
REMARK minimizedAffinity 14.4858732
REMARK minimizedRMSD -1
REMARK  0 active torsions:
REMARK  status: ('A' for Active; 'I' for Inactive)
ROOT
ATOM      1  C2' OXE d   1       2.844  -1.065   2.891  0.00  0.00     0.078 C 
ATOM      2  C1' OXE d   1       2.187   1.427   1.778  0.00  0.00     0.078 C 
ATOM      3  C1  OXE d   1       1.196   0.301   1.617  0.00  0.00    -0.078 A 
ATOM      4  C2  OXE d   1       1.547  -0.927   2.124  0.00  0.00    -0.078 A 
ATOM      5  C3  OXE d   1       0.646  -1.986   2.051  0.00  0.00     0.003 A 
ATOM      6  C4  OXE d   1      -0.548  -1.853   1.332  0.00  0.00    -0.002 A 
ATOM      7  C5  OXE d   1      -0.906  -0.621   0.773  0.00  0.00    -0.002 A 
ATOM      8  C6  OXE d   1      -0.067   0.474   0.943  0.00  0.00     0.003 A 
ENDROOT
TORSDOF 0
ENDMDL
