MODEL 1
REMARK minimizedAffinity -0.111558728
REMARK minimizedRMSD -1
REMARK  0 active torsions:
REMARK  status: ('A' for Active; 'I' for Inactive)
ROOT
ATOM      1  C2' OXE d   1      -0.361  -1.438   1.319  0.00  0.00     0.078 C 
ATOM      2  C1' OXE d   1       1.809  -1.310   3.096  0.00  0.00     0.078 C 
ATOM      3  C1  OXE d   1       1.708  -0.246   2.031  0.00  0.00    -0.078 A 
ATOM      4  C2  OXE d   1       0.669  -0.343   1.137  0.00  0.00    -0.078 A 
ATOM      5  C3  OXE d   1       0.498   0.642   0.169  0.00  0.00     0.003 A 
ATOM      6  C4  OXE d   1       1.460   1.645   0.001  0.00  0.00    -0.002 A 
ATOM      7  C5  OXE d   1       2.548   1.740   0.876  0.00  0.00    -0.002 A 
ATOM      8  C6  OXE d   1       2.663   0.829   1.920  0.00  0.00     0.003 A 
ENDROOT
TORSDOF 0
ENDMDL
