MODEL 1
REMARK minimizedAffinity 8.03469658
REMARK minimizedRMSD -1
REMARK  0 active torsions:
REMARK  status: ('A' for Active; 'I' for Inactive)
ROOT
ATOM      1  C2' OXE d   1      -2.288   0.962   1.336  0.00  0.00     0.078 C 
ATOM      2  C1' OXE d   1      -1.319  -1.670   1.220  0.00  0.00     0.078 C 
ATOM      3  C1  OXE d   1      -0.310  -0.550   1.254  0.00  0.00    -0.078 A 
ATOM      4  C2  OXE d   1      -0.793   0.737   1.264  0.00  0.00    -0.078 A 
ATOM      5  C3  OXE d   1       0.094   1.806   1.351  0.00  0.00     0.003 A 
ATOM      6  C4  OXE d   1       1.475   1.588   1.273  0.00  0.00    -0.002 A 
ATOM      7  C5  OXE d   1       1.988   0.288   1.222  0.00  0.00    -0.002 A 
ATOM      8  C6  OXE d   1       1.112  -0.792   1.255  0.00  0.00     0.003 A 
ENDROOT
TORSDOF 0
ENDMDL
