MODEL 1
REMARK minimizedAffinity 3.25921297
REMARK minimizedRMSD -1
REMARK  0 active torsions:
REMARK  status: ('A' for Active; 'I' for Inactive)
ROOT
ATOM      1  C2' OXE d   1      -1.028  -1.384   0.891  0.00  0.00     0.078 C 
ATOM      2  C1' OXE d   1       0.771  -2.782   2.531  0.00  0.00     0.078 C 
ATOM      3  C1  OXE d   1       1.161  -1.397   2.078  0.00  0.00    -0.078 A 
ATOM      4  C2  OXE d   1       0.296  -0.739   1.238  0.00  0.00    -0.078 A 
ATOM      5  C3  OXE d   1       0.582   0.562   0.834  0.00  0.00     0.003 A 
ATOM      6  C4  OXE d   1       1.814   1.147   1.152  0.00  0.00    -0.002 A 
ATOM      7  C5  OXE d   1       2.727   0.479   1.974  0.00  0.00    -0.002 A 
ATOM      8  C6  OXE d   1       2.399  -0.774   2.479  0.00  0.00     0.003 A 
ENDROOT
TORSDOF 0
ENDMDL
