MODEL 1
REMARK minimizedAffinity 0.48565945
REMARK minimizedRMSD -1
REMARK  0 active torsions:
REMARK  status: ('A' for Active; 'I' for Inactive)
ROOT
ATOM      1  C2' OXE d   1      -0.712  -0.999   1.592  0.00  0.00     0.078 C 
ATOM      2  C1' OXE d   1       1.639  -1.414   3.068  0.00  0.00     0.078 C 
ATOM      3  C1  OXE d   1       1.611  -0.258   2.099  0.00  0.00    -0.078 A 
ATOM      4  C2  OXE d   1       0.473  -0.091   1.347  0.00  0.00    -0.078 A 
ATOM      5  C3  OXE d   1       0.374   0.992   0.478  0.00  0.00     0.003 A 
ATOM      6  C4  OXE d   1       1.479   1.821   0.250  0.00  0.00    -0.002 A 
ATOM      7  C5  OXE d   1       2.662   1.644   0.977  0.00  0.00    -0.002 A 
ATOM      8  C6  OXE d   1       2.729   0.638   1.934  0.00  0.00     0.003 A 
ENDROOT
TORSDOF 0
ENDMDL
