MODEL 1
REMARK minimizedAffinity 1.54551709
REMARK minimizedRMSD -1
REMARK  0 active torsions:
REMARK  status: ('A' for Active; 'I' for Inactive)
ROOT
ATOM      1  C2' OXE d   1       1.208  -3.025   3.225  0.00  0.00     0.078 C 
ATOM      2  C1' OXE d   1      -0.226  -2.236   0.944  0.00  0.00     0.078 C 
ATOM      3  C1  OXE d   1       0.650  -1.208   1.614  0.00  0.00    -0.078 A 
ATOM      4  C2  OXE d   1       1.312  -1.589   2.757  0.00  0.00    -0.078 A 
ATOM      5  C3  OXE d   1       2.176  -0.696   3.384  0.00  0.00     0.003 A 
ATOM      6  C4  OXE d   1       2.258   0.633   2.951  0.00  0.00    -0.002 A 
ATOM      7  C5  OXE d   1       1.562   1.053   1.813  0.00  0.00    -0.002 A 
ATOM      8  C6  OXE d   1       0.788   0.136   1.110  0.00  0.00     0.003 A 
ENDROOT
TORSDOF 0
ENDMDL
