MODEL 1
REMARK minimizedAffinity 3.23315334
REMARK minimizedRMSD -1
REMARK  0 active torsions:
REMARK  status: ('A' for Active; 'I' for Inactive)
ROOT
ATOM      1  C2' OXE d   1       2.099  -0.246   2.067  0.00  0.00     0.078 C 
ATOM      2  C1' OXE d   1      -0.240  -1.791   1.922  0.00  0.00     0.078 C 
ATOM      3  C1  OXE d   1       0.896  -2.313   2.766  0.00  0.00    -0.078 A 
ATOM      4  C2  OXE d   1       2.054  -1.573   2.793  0.00  0.00    -0.078 A 
ATOM      5  C3  OXE d   1       3.113  -1.981   3.599  0.00  0.00     0.003 A 
ATOM      6  C4  OXE d   1       3.067  -3.215   4.260  0.00  0.00    -0.002 A 
ATOM      7  C5  OXE d   1       1.912  -4.003   4.213  0.00  0.00    -0.002 A 
ATOM      8  C6  OXE d   1       0.805  -3.547   3.507  0.00  0.00     0.003 A 
ENDROOT
TORSDOF 0
ENDMDL
