MODEL 1
REMARK minimizedAffinity -0.62018621
REMARK minimizedRMSD -1
REMARK  0 active torsions:
REMARK  status: ('A' for Active; 'I' for Inactive)
ROOT
ATOM      1  N1  IND d   1       0.490   0.328  -0.019  0.00  0.00    -0.196 N 
ATOM      2  C2  IND d   1      -0.539  -0.149   0.744  0.00  0.00     0.054 A 
ATOM      3  C3  IND d   1      -1.719   0.340   0.302  0.00  0.00    -0.031 A 
ATOM      4  C4  IND d   1      -2.206   1.858  -1.720  0.00  0.00     0.051 A 
ATOM      5  C5  IND d   1      -1.584   2.582  -2.698  0.00  0.00    -0.031 A 
ATOM      6  C6  IND d   1      -0.211   2.590  -2.838  0.00  0.00     0.015 A 
ATOM      7  C7  IND d   1       0.593   1.861  -2.008  0.00  0.00    -0.016 A 
ATOM      8  C8  IND d   1      -0.034   1.131  -1.009  0.00  0.00    -0.047 A 
ATOM      9  C9  IND d   1      -1.424   1.153  -0.836  0.00  0.00    -0.096 A 
ATOM     10  HN1 IND d   1       1.324   0.157   0.099  0.00  0.00     0.298 HD
ENDROOT
TORSDOF 0
ENDMDL
