MODEL 1
REMARK minimizedAffinity -3.90728784
REMARK minimizedRMSD -1
REMARK  0 active torsions:
REMARK  status: ('A' for Active; 'I' for Inactive)
ROOT
ATOM      1  N1  IND d   1       0.909  -1.521   2.098  0.00  0.00    -0.196 N 
ATOM      2  C2  IND d   1      -0.094  -0.842   2.733  0.00  0.00     0.054 A 
ATOM      3  C3  IND d   1      -0.739  -0.033   1.863  0.00  0.00    -0.031 A 
ATOM      4  C4  IND d   1      -0.383   0.259  -0.670  0.00  0.00     0.051 A 
ATOM      5  C5  IND d   1       0.439  -0.122  -1.693  0.00  0.00    -0.031 A 
ATOM      6  C6  IND d   1       1.479  -1.008  -1.501  0.00  0.00     0.015 A 
ATOM      7  C7  IND d   1       1.730  -1.558  -0.276  0.00  0.00    -0.016 A 
ATOM      8  C8  IND d   1       0.901  -1.169   0.767  0.00  0.00    -0.047 A 
ATOM      9  C9  IND d   1      -0.129  -0.237   0.587  0.00  0.00    -0.096 A 
ATOM     10  HN1 IND d   1       1.452  -2.074   2.469  0.00  0.00     0.298 HD
ENDROOT
TORSDOF 0
ENDMDL
