MODEL 1
REMARK minimizedAffinity -0.244066983
REMARK minimizedRMSD -1
REMARK  0 active torsions:
REMARK  status: ('A' for Active; 'I' for Inactive)
ROOT
ATOM      1  N1  IND d   1      -1.027   2.241  -2.652  0.00  0.00    -0.196 N 
ATOM      2  C2  IND d   1      -0.187   3.299  -2.441  0.00  0.00     0.054 A 
ATOM      3  C3  IND d   1       0.444   3.168  -1.252  0.00  0.00    -0.031 A 
ATOM      4  C4  IND d   1       0.325   1.249   0.460  0.00  0.00     0.051 A 
ATOM      5  C5  IND d   1      -0.332   0.080   0.724  0.00  0.00    -0.031 A 
ATOM      6  C6  IND d   1      -1.271  -0.440  -0.143  0.00  0.00     0.015 A 
ATOM      7  C7  IND d   1      -1.582   0.187  -1.316  0.00  0.00    -0.016 A 
ATOM      8  C8  IND d   1      -0.922   1.377  -1.585  0.00  0.00    -0.047 A 
ATOM      9  C9  IND d   1       0.002   1.932  -0.689  0.00  0.00    -0.096 A 
ATOM     10  HN1 IND d   1      -1.536   2.134  -3.337  0.00  0.00     0.298 HD
ENDROOT
TORSDOF 0
ENDMDL
