MODEL 1
REMARK minimizedAffinity -2.28528452
REMARK minimizedRMSD -1
REMARK  0 active torsions:
REMARK  status: ('A' for Active; 'I' for Inactive)
ROOT
ATOM      1  N1  IND d   1      -0.701   3.529  -0.842  0.00  0.00    -0.196 N 
ATOM      2  C2  IND d   1      -0.583   3.442  -2.201  0.00  0.00     0.054 A 
ATOM      3  C3  IND d   1      -0.533   2.148  -2.587  0.00  0.00    -0.031 A 
ATOM      4  C4  IND d   1      -0.731   0.009  -1.167  0.00  0.00     0.051 A 
ATOM      5  C5  IND d   1      -0.815  -0.420   0.127  0.00  0.00    -0.031 A 
ATOM      6  C6  IND d   1      -0.869   0.463   1.186  0.00  0.00     0.015 A 
ATOM      7  C7  IND d   1      -0.853   1.814   0.988  0.00  0.00    -0.016 A 
ATOM      8  C8  IND d   1      -0.760   2.254  -0.325  0.00  0.00    -0.047 A 
ATOM      9  C9  IND d   1      -0.662   1.362  -1.401  0.00  0.00    -0.096 A 
ATOM     10  HN1 IND d   1      -0.733   4.258  -0.387  0.00  0.00     0.298 HD
ENDROOT
TORSDOF 0
ENDMDL
