MODEL 1
REMARK minimizedAffinity -0.306660622
REMARK minimizedRMSD -1
REMARK  0 active torsions:
REMARK  status: ('A' for Active; 'I' for Inactive)
ROOT
ATOM      1  N1  IND d   1       0.473  -1.095   2.364  0.00  0.00    -0.196 N 
ATOM      2  C2  IND d   1      -0.669  -0.550   2.882  0.00  0.00     0.054 A 
ATOM      3  C3  IND d   1      -1.403   0.023   1.902  0.00  0.00    -0.031 A 
ATOM      4  C4  IND d   1      -0.972   0.096  -0.635  0.00  0.00     0.051 A 
ATOM      5  C5  IND d   1      -0.040  -0.233  -1.579  0.00  0.00    -0.031 A 
ATOM      6  C6  IND d   1       1.132  -0.883  -1.251  0.00  0.00     0.015 A 
ATOM      7  C7  IND d   1       1.413  -1.238   0.038  0.00  0.00    -0.016 A 
ATOM      8  C8  IND d   1       0.473  -0.899   1.000  0.00  0.00    -0.047 A 
ATOM      9  C9  IND d   1      -0.699  -0.202   0.679  0.00  0.00    -0.096 A 
ATOM     10  HN1 IND d   1       1.089  -1.493   2.814  0.00  0.00     0.298 HD
ENDROOT
TORSDOF 0
ENDMDL
