MODEL 1
REMARK minimizedAffinity -2.08574295
REMARK minimizedRMSD -1
REMARK  0 active torsions:
REMARK  status: ('A' for Active; 'I' for Inactive)
ROOT
ATOM      1  N1  IND d   1       2.042  -2.031  -0.406  0.00  0.00    -0.196 N 
ATOM      2  C2  IND d   1       2.659  -2.773   0.562  0.00  0.00     0.054 A 
ATOM      3  C3  IND d   1       2.055  -2.583   1.757  0.00  0.00    -0.031 A 
ATOM      4  C4  IND d   1      -0.024  -1.179   2.333  0.00  0.00     0.051 A 
ATOM      5  C5  IND d   1      -0.912  -0.294   1.788  0.00  0.00    -0.031 A 
ATOM      6  C6  IND d   1      -0.861   0.061   0.455  0.00  0.00     0.015 A 
ATOM      7  C7  IND d   1       0.077  -0.465  -0.387  0.00  0.00    -0.016 A 
ATOM      8  C8  IND d   1       0.984  -1.358   0.165  0.00  0.00    -0.047 A 
ATOM      9  C9  IND d   1       0.964  -1.690   1.526  0.00  0.00    -0.096 A 
ATOM     10  HN1 IND d   1       2.276  -1.991  -1.232  0.00  0.00     0.298 HD
ENDROOT
TORSDOF 0
ENDMDL
