MODEL 1
REMARK minimizedAffinity -0.884901583
REMARK minimizedRMSD -1
REMARK  0 active torsions:
REMARK  status: ('A' for Active; 'I' for Inactive)
ROOT
ATOM      1  N1  IND d   1       0.539  -0.403  -0.881  0.00  0.00    -0.196 N 
ATOM      2  C2  IND d   1      -0.568   0.321  -0.536  0.00  0.00     0.054 A 
ATOM      3  C3  IND d   1      -0.951   0.021   0.726  0.00  0.00    -0.031 A 
ATOM      4  C4  IND d   1       0.151  -1.552   2.440  0.00  0.00     0.051 A 
ATOM      5  C5  IND d   1       1.163  -2.461   2.573  0.00  0.00    -0.031 A 
ATOM      6  C6  IND d   1       2.038  -2.734   1.541  0.00  0.00     0.015 A 
ATOM      7  C7  IND d   1       1.940  -2.097   0.337  0.00  0.00    -0.016 A 
ATOM      8  C8  IND d   1       0.910  -1.178   0.196  0.00  0.00    -0.047 A 
ATOM      9  C9  IND d   1      -0.008  -0.929   1.225  0.00  0.00    -0.096 A 
ATOM     10  HN1 IND d   1       0.937  -0.379  -1.643  0.00  0.00     0.298 HD
ENDROOT
TORSDOF 0
ENDMDL
