MODEL 1
REMARK minimizedAffinity -0.710195065
REMARK minimizedRMSD -1
REMARK  0 active torsions:
REMARK  status: ('A' for Active; 'I' for Inactive)
ROOT
ATOM      1  N1  IND d   1       2.298  -2.198  -0.067  0.00  0.00    -0.196 N 
ATOM      2  C2  IND d   1       2.304  -1.821  -1.381  0.00  0.00     0.054 A 
ATOM      3  C3  IND d   1       1.270  -0.988  -1.636  0.00  0.00    -0.031 A 
ATOM      4  C4  IND d   1      -0.494  -0.029  -0.025  0.00  0.00     0.051 A 
ATOM      5  C5  IND d   1      -0.931  -0.112   1.267  0.00  0.00    -0.031 A 
ATOM      6  C6  IND d   1      -0.299  -0.909   2.200  0.00  0.00     0.015 A 
ATOM      7  C7  IND d   1       0.805  -1.646   1.877  0.00  0.00    -0.016 A 
ATOM      8  C8  IND d   1       1.246  -1.570   0.564  0.00  0.00    -0.047 A 
ATOM      9  C9  IND d   1       0.584  -0.797  -0.398  0.00  0.00    -0.096 A 
ATOM     10  HN1 IND d   1       2.856  -2.736   0.303  0.00  0.00     0.298 HD
ENDROOT
TORSDOF 0
ENDMDL
