MODEL 1
REMARK minimizedAffinity -2.63435197
REMARK minimizedRMSD -1
REMARK  0 active torsions:
REMARK  status: ('A' for Active; 'I' for Inactive)
ROOT
ATOM      1  C   UNL d   1       0.108   1.105   1.570  0.00  0.00     0.020 A 
ATOM      2  C1  UNL d   1      -1.279   1.050   1.448  0.00  0.00     0.020 A 
ATOM      3  C2  UNL d   1      -1.870   0.082   0.633  0.00  0.00     0.034 A 
ATOM      4  C3  UNL d   1      -1.073  -0.835  -0.062  0.00  0.00     0.017 A 
ATOM      5  C4  UNL d   1       0.320  -0.779   0.062  0.00  0.00     0.017 A 
ATOM      6  C5  UNL d   1       0.906   0.193   0.879  0.00  0.00     0.034 A 
ATOM      7 Cl   UNL d   1       1.369  -1.876  -0.764  0.00  0.00    -0.070 Cl
ATOM      8 Cl1  UNL d   1      -1.872  -2.006  -1.050  0.00  0.00    -0.070 Cl
ENDROOT
TORSDOF 0
ENDMDL
