MODEL 1
REMARK minimizedAffinity -2.27265215
REMARK minimizedRMSD -1
REMARK  0 active torsions:
REMARK  status: ('A' for Active; 'I' for Inactive)
ROOT
ATOM      1  C   UNL d   1      -0.296  -1.065  -0.740  0.00  0.00     0.020 A 
ATOM      2  C1  UNL d   1      -1.214  -0.430   0.095  0.00  0.00     0.020 A 
ATOM      3  C2  UNL d   1      -0.773   0.500   1.039  0.00  0.00     0.034 A 
ATOM      4  C3  UNL d   1       0.591   0.797   1.151  0.00  0.00     0.017 A 
ATOM      5  C4  UNL d   1       1.512   0.158   0.312  0.00  0.00     0.017 A 
ATOM      6  C5  UNL d   1       1.064  -0.771  -0.632  0.00  0.00     0.034 A 
ATOM      7 Cl   UNL d   1       3.209   0.473   0.391  0.00  0.00    -0.070 Cl
ATOM      8 Cl1  UNL d   1       1.066   1.957   2.340  0.00  0.00    -0.070 Cl
ENDROOT
TORSDOF 0
ENDMDL
