MODEL 1
REMARK minimizedAffinity -2.45917225
REMARK minimizedRMSD -1
REMARK  0 active torsions:
REMARK  status: ('A' for Active; 'I' for Inactive)
ROOT
ATOM      1  C   UNL d   1      -2.909  -1.316  -2.875  0.00  0.00     0.020 A 
ATOM      2  C1  UNL d   1      -2.067  -2.279  -3.429  0.00  0.00     0.020 A 
ATOM      3  C2  UNL d   1      -0.843  -2.568  -2.822  0.00  0.00     0.034 A 
ATOM      4  C3  UNL d   1      -0.458  -1.895  -1.657  0.00  0.00     0.017 A 
ATOM      5  C4  UNL d   1      -1.305  -0.929  -1.101  0.00  0.00     0.017 A 
ATOM      6  C5  UNL d   1      -2.529  -0.643  -1.713  0.00  0.00     0.034 A 
ATOM      7 Cl   UNL d   1      -0.899  -0.056   0.334  0.00  0.00    -0.070 Cl
ATOM      8 Cl1  UNL d   1       1.069  -2.304  -0.960  0.00  0.00    -0.070 Cl
ENDROOT
TORSDOF 0
ENDMDL
