MODEL 1
REMARK minimizedAffinity -2.84369016
REMARK minimizedRMSD -1
REMARK  0 active torsions:
REMARK  status: ('A' for Active; 'I' for Inactive)
ROOT
ATOM      1  C   UNL d   1      -0.406  -1.012  -0.613  0.00  0.00     0.020 A 
ATOM      2  C1  UNL d   1      -1.177  -0.352   0.343  0.00  0.00     0.020 A 
ATOM      3  C2  UNL d   1      -0.586   0.591   1.187  0.00  0.00     0.034 A 
ATOM      4  C3  UNL d   1       0.779   0.877   1.076  0.00  0.00     0.017 A 
ATOM      5  C4  UNL d   1       1.552   0.214   0.115  0.00  0.00     0.017 A 
ATOM      6  C5  UNL d   1       0.955  -0.729  -0.727  0.00  0.00     0.034 A 
ATOM      7 Cl   UNL d   1       3.243   0.514  -0.082  0.00  0.00    -0.070 Cl
ATOM      8 Cl1  UNL d   1       1.444   2.055   2.151  0.00  0.00    -0.070 Cl
ENDROOT
TORSDOF 0
ENDMDL
