MODEL 1
REMARK minimizedAffinity -2.91052198
REMARK minimizedRMSD -1
REMARK  0 active torsions:
REMARK  status: ('A' for Active; 'I' for Inactive)
ROOT
ATOM      1  C   UNL d   1       0.611   0.373  -0.584  0.00  0.00     0.020 A 
ATOM      2  C1  UNL d   1       0.415  -0.833   0.088  0.00  0.00     0.020 A 
ATOM      3  C2  UNL d   1      -0.578  -1.717  -0.340  0.00  0.00     0.034 A 
ATOM      4  C3  UNL d   1      -1.378  -1.397  -1.443  0.00  0.00     0.017 A 
ATOM      5  C4  UNL d   1      -1.180  -0.186  -2.117  0.00  0.00     0.017 A 
ATOM      6  C5  UNL d   1      -0.184   0.695  -1.684  0.00  0.00     0.034 A 
ATOM      7 Cl   UNL d   1      -2.127   0.278  -3.486  0.00  0.00    -0.070 Cl
ATOM      8 Cl1  UNL d   1      -2.587  -2.537  -1.917  0.00  0.00    -0.070 Cl
ENDROOT
TORSDOF 0
ENDMDL
