MODEL 1
REMARK minimizedAffinity -2.26462603
REMARK minimizedRMSD -1
REMARK  0 active torsions:
REMARK  status: ('A' for Active; 'I' for Inactive)
ROOT
ATOM      1  C   UNL d   1       0.247   1.732   2.085  0.00  0.00     0.020 A 
ATOM      2  C1  UNL d   1      -1.029   1.187   1.945  0.00  0.00     0.020 A 
ATOM      3  C2  UNL d   1      -1.264   0.196   0.989  0.00  0.00     0.034 A 
ATOM      4  C3  UNL d   1      -0.221  -0.252   0.169  0.00  0.00     0.017 A 
ATOM      5  C4  UNL d   1       1.059   0.296   0.311  0.00  0.00     0.017 A 
ATOM      6  C5  UNL d   1       1.288   1.287   1.270  0.00  0.00     0.034 A 
ATOM      7 Cl   UNL d   1       2.395  -0.206  -0.664  0.00  0.00    -0.070 Cl
ATOM      8 Cl1  UNL d   1      -0.583  -1.480  -0.991  0.00  0.00    -0.070 Cl
ENDROOT
TORSDOF 0
ENDMDL
