MODEL 1
REMARK minimizedAffinity -1.97651219
REMARK minimizedRMSD -1
REMARK  0 active torsions:
REMARK  status: ('A' for Active; 'I' for Inactive)
ROOT
ATOM      1  C   UNL d   1      -0.554  -1.116  -0.556  0.00  0.00     0.020 A 
ATOM      2  C1  UNL d   1      -1.307  -0.455   0.414  0.00  0.00     0.020 A 
ATOM      3  C2  UNL d   1      -0.703   0.497   1.238  0.00  0.00     0.034 A 
ATOM      4  C3  UNL d   1       0.658   0.791   1.094  0.00  0.00     0.017 A 
ATOM      5  C4  UNL d   1       1.413   0.127   0.121  0.00  0.00     0.017 A 
ATOM      6  C5  UNL d   1       0.803  -0.826  -0.702  0.00  0.00     0.034 A 
ATOM      7 Cl   UNL d   1       3.097   0.436  -0.116  0.00  0.00    -0.070 Cl
ATOM      8 Cl1  UNL d   1       1.338   1.980   2.147  0.00  0.00    -0.070 Cl
ENDROOT
TORSDOF 0
ENDMDL
