MODEL 1
REMARK minimizedAffinity -3.53629518
REMARK minimizedRMSD -1
REMARK  0 active torsions:
REMARK  status: ('A' for Active; 'I' for Inactive)
ROOT
ATOM      1  C   UNL d   1      -0.732   1.666   1.866  0.00  0.00     0.020 A 
ATOM      2  C1  UNL d   1      -1.455   0.621   1.291  0.00  0.00     0.020 A 
ATOM      3  C2  UNL d   1      -0.793  -0.360   0.551  0.00  0.00     0.034 A 
ATOM      4  C3  UNL d   1       0.595  -0.299   0.383  0.00  0.00     0.017 A 
ATOM      5  C4  UNL d   1       1.319   0.750   0.960  0.00  0.00     0.017 A 
ATOM      6  C5  UNL d   1       0.652   1.730   1.701  0.00  0.00     0.034 A 
ATOM      7 Cl   UNL d   1       3.034   0.893   0.797  0.00  0.00    -0.070 Cl
ATOM      8 Cl1  UNL d   1       1.348  -1.547  -0.545  0.00  0.00    -0.070 Cl
ENDROOT
TORSDOF 0
ENDMDL
