MODEL 1
REMARK minimizedAffinity 1.72647011
REMARK minimizedRMSD -1
REMARK  0 active torsions:
REMARK  status: ('A' for Active; 'I' for Inactive)
ROOT
ATOM      1  C   UNL d   1      -2.798  -1.837  -2.036  0.00  0.00     0.020 A 
ATOM      2  C1  UNL d   1      -1.844  -1.723  -3.047  0.00  0.00     0.020 A 
ATOM      3  C2  UNL d   1      -0.553  -1.286  -2.742  0.00  0.00     0.034 A 
ATOM      4  C3  UNL d   1      -0.213  -0.961  -1.423  0.00  0.00     0.017 A 
ATOM      5  C4  UNL d   1      -1.172  -1.076  -0.410  0.00  0.00     0.017 A 
ATOM      6  C5  UNL d   1      -2.463  -1.514  -0.721  0.00  0.00     0.034 A 
ATOM      7 Cl   UNL d   1      -0.827  -0.693   1.240  0.00  0.00    -0.070 Cl
ATOM      8 Cl1  UNL d   1       1.402  -0.428  -1.118  0.00  0.00    -0.070 Cl
ENDROOT
TORSDOF 0
ENDMDL
