MODEL 1
REMARK minimizedAffinity 0.660305262
REMARK minimizedRMSD -1
REMARK  0 active torsions:
REMARK  status: ('A' for Active; 'I' for Inactive)
ROOT
ATOM      1  C   UNL d   1      -1.159  -0.780  -0.160  0.00  0.00     0.020 A 
ATOM      2  C1  UNL d   1      -1.553   0.051   0.887  0.00  0.00     0.020 A 
ATOM      3  C2  UNL d   1      -0.614   0.863   1.525  0.00  0.00     0.034 A 
ATOM      4  C3  UNL d   1       0.725   0.846   1.117  0.00  0.00     0.017 A 
ATOM      5  C4  UNL d   1       1.120   0.011   0.065  0.00  0.00     0.017 A 
ATOM      6  C5  UNL d   1       0.174  -0.800  -0.570  0.00  0.00     0.034 A 
ATOM      7 Cl   UNL d   1       2.753  -0.066  -0.495  0.00  0.00    -0.070 Cl
ATOM      8 Cl1  UNL d   1       1.833   1.876   1.951  0.00  0.00    -0.070 Cl
ENDROOT
TORSDOF 0
ENDMDL
