MODEL 1
REMARK minimizedAffinity -1.49146068
REMARK minimizedRMSD -1
REMARK  0 active torsions:
REMARK  status: ('A' for Active; 'I' for Inactive)
ROOT
ATOM      1  C   UNL d   1      -1.225  -1.284  -3.474  0.00  0.00     0.020 A 
ATOM      2  C1  UNL d   1      -2.318  -1.478  -2.631  0.00  0.00     0.020 A 
ATOM      3  C2  UNL d   1      -2.186  -1.265  -1.257  0.00  0.00     0.034 A 
ATOM      4  C3  UNL d   1      -0.958  -0.857  -0.722  0.00  0.00     0.017 A 
ATOM      5  C4  UNL d   1       0.138  -0.662  -1.570  0.00  0.00     0.017 A 
ATOM      6  C5  UNL d   1       0.000  -0.876  -2.945  0.00  0.00     0.034 A 
ATOM      7 Cl   UNL d   1       1.684  -0.158  -0.985  0.00  0.00    -0.070 Cl
ATOM      8 Cl1  UNL d   1      -0.867  -0.612   0.986  0.00  0.00    -0.070 Cl
ENDROOT
TORSDOF 0
ENDMDL
