MODEL 1
REMARK minimizedAffinity -2.1249156
REMARK minimizedRMSD -1
REMARK  0 active torsions:
REMARK  status: ('A' for Active; 'I' for Inactive)
ROOT
ATOM      1  C   UNL d   1       1.129   1.585   1.834  0.00  0.00     0.020 A 
ATOM      2  C1  UNL d   1      -0.261   1.577   1.719  0.00  0.00     0.020 A 
ATOM      3  C2  UNL d   1      -0.888   0.640   0.895  0.00  0.00     0.034 A 
ATOM      4  C3  UNL d   1      -0.125  -0.293   0.184  0.00  0.00     0.017 A 
ATOM      5  C4  UNL d   1       1.269  -0.285   0.300  0.00  0.00     0.017 A 
ATOM      6  C5  UNL d   1       1.892   0.655   1.127  0.00  0.00     0.034 A 
ATOM      7 Cl   UNL d   1       2.277  -1.406  -0.546  0.00  0.00    -0.070 Cl
ATOM      8 Cl1  UNL d   1      -0.967  -1.424  -0.816  0.00  0.00    -0.070 Cl
ENDROOT
TORSDOF 0
ENDMDL
