MODEL 1
REMARK minimizedAffinity -4.36374092
REMARK minimizedRMSD -1
REMARK  0 active torsions:
REMARK  status: ('A' for Active; 'I' for Inactive)
ROOT
ATOM      1  C   UNL d   1       2.934   0.442   0.419  0.00  0.00     0.020 A 
ATOM      2  C1  UNL d   1       2.585   1.262   1.491  0.00  0.00     0.020 A 
ATOM      3  C2  UNL d   1       1.249   1.371   1.882  0.00  0.00     0.034 A 
ATOM      4  C3  UNL d   1       0.256   0.658   1.199  0.00  0.00     0.017 A 
ATOM      5  C4  UNL d   1       0.607  -0.164   0.123  0.00  0.00     0.017 A 
ATOM      6  C5  UNL d   1       1.947  -0.270  -0.264  0.00  0.00     0.034 A 
ATOM      7 Cl   UNL d   1      -0.562  -1.074  -0.768  0.00  0.00    -0.070 Cl
ATOM      8 Cl1  UNL d   1      -1.376   0.840   1.736  0.00  0.00    -0.070 Cl
ENDROOT
TORSDOF 0
ENDMDL
