MODEL 1
REMARK minimizedAffinity -0.971100211
REMARK minimizedRMSD -1
REMARK  0 active torsions:
REMARK  status: ('A' for Active; 'I' for Inactive)
ROOT
ATOM      1  C   UNL d   1      -3.862  -2.646  -0.894  0.00  0.00     0.020 A 
ATOM      2  C1  UNL d   1      -4.216  -2.177  -2.159  0.00  0.00     0.020 A 
ATOM      3  C2  UNL d   1      -3.247  -1.608  -2.988  0.00  0.00     0.034 A 
ATOM      4  C3  UNL d   1      -1.920  -1.507  -2.555  0.00  0.00     0.017 A 
ATOM      5  C4  UNL d   1      -1.566  -1.978  -1.285  0.00  0.00     0.017 A 
ATOM      6  C5  UNL d   1      -2.540  -2.546  -0.458  0.00  0.00     0.034 A 
ATOM      7 Cl   UNL d   1       0.050  -1.887  -0.680  0.00  0.00    -0.070 Cl
ATOM      8 Cl1  UNL d   1      -0.774  -0.793  -3.633  0.00  0.00    -0.070 Cl
ENDROOT
TORSDOF 0
ENDMDL
