MODEL 1
REMARK minimizedAffinity -1.66786802
REMARK minimizedRMSD -1
REMARK  0 active torsions:
REMARK  status: ('A' for Active; 'I' for Inactive)
ROOT
ATOM      1  C   UNL d   1      -0.756   1.265   1.975  0.00  0.00     0.020 A 
ATOM      2  C1  UNL d   1       0.510   1.822   2.154  0.00  0.00     0.020 A 
ATOM      3  C2  UNL d   1       1.572   1.416   1.344  0.00  0.00     0.034 A 
ATOM      4  C3  UNL d   1       1.371   0.450   0.351  0.00  0.00     0.017 A 
ATOM      5  C4  UNL d   1       0.101  -0.109   0.172  0.00  0.00     0.017 A 
ATOM      6  C5  UNL d   1      -0.960   0.302   0.986  0.00  0.00     0.034 A 
ATOM      7 Cl   UNL d   1      -0.224  -1.306  -1.032  0.00  0.00    -0.070 Cl
ATOM      8 Cl1  UNL d   1       2.730  -0.005  -0.614  0.00  0.00    -0.070 Cl
ENDROOT
TORSDOF 0
ENDMDL
