MODEL 1
REMARK minimizedAffinity -3.55104041
REMARK minimizedRMSD -1
REMARK  0 active torsions:
REMARK  status: ('A' for Active; 'I' for Inactive)
ROOT
ATOM      1  C   UNL d   1      -1.069   1.489   1.810  0.00  0.00     0.020 A 
ATOM      2  C1  UNL d   1       0.251   1.935   1.739  0.00  0.00     0.020 A 
ATOM      3  C2  UNL d   1       1.190   1.219   0.993  0.00  0.00     0.034 A 
ATOM      4  C3  UNL d   1       0.812   0.054   0.316  0.00  0.00     0.017 A 
ATOM      5  C4  UNL d   1      -0.512  -0.392   0.388  0.00  0.00     0.017 A 
ATOM      6  C5  UNL d   1      -1.449   0.328   1.135  0.00  0.00     0.034 A 
ATOM      7 Cl   UNL d   1      -1.054  -1.821  -0.421  0.00  0.00    -0.070 Cl
ATOM      8 Cl1  UNL d   1       2.026  -0.780  -0.587  0.00  0.00    -0.070 Cl
ENDROOT
TORSDOF 0
ENDMDL
