MODEL 1
REMARK minimizedAffinity -2.04846168
REMARK minimizedRMSD -1
REMARK  0 active torsions:
REMARK  status: ('A' for Active; 'I' for Inactive)
ROOT
ATOM      1  C   UNL d   1       0.908  -0.899  -2.932  0.00  0.00     0.124 A 
ATOM      2  C1  UNL d   1       0.006  -1.707  -2.255  0.00  0.00     0.062 A 
ATOM      3  C2  UNL d   1      -0.318  -1.437  -0.929  0.00  0.00     0.162 A 
ATOM      4  C3  UNL d   1       0.260  -0.352  -0.270  0.00  0.00    -0.034 A 
ATOM      5  C4  UNL d   1       1.167   0.457  -0.958  0.00  0.00     0.162 A 
ATOM      6  C5  UNL d   1       1.488   0.182  -2.283  0.00  0.00     0.062 A 
ATOM      7  F   UNL d   1       2.360   0.965  -2.936  0.00  0.00    -0.097 F 
ATOM      8  F1  UNL d   1       1.742   1.508  -0.355  0.00  0.00    -0.096 F 
ATOM      9  I   UNL d   1      -0.222   0.056   1.713  0.00  0.00    -0.060 I 
ATOM     10  F2  UNL d   1      -1.193  -2.235  -0.300  0.00  0.00    -0.096 F 
ATOM     11  F3  UNL d   1      -0.555  -2.753  -2.880  0.00  0.00    -0.097 F 
ATOM     12  F4  UNL d   1       1.219  -1.162  -4.208  0.00  0.00    -0.092 F 
ENDROOT
TORSDOF 0
ENDMDL
