MODEL 1
REMARK minimizedAffinity 3.17394257
REMARK minimizedRMSD -1
REMARK  0 active torsions:
REMARK  status: ('A' for Active; 'I' for Inactive)
ROOT
ATOM      1  C   UNL d   1      -0.805   0.377   1.061  0.00  0.00     0.124 A 
ATOM      2  C1  UNL d   1       0.506   0.832   1.031  0.00  0.00     0.062 A 
ATOM      3  C2  UNL d   1       1.229   0.808  -0.158  0.00  0.00     0.162 A 
ATOM      4  C3  UNL d   1       0.641   0.330  -1.329  0.00  0.00    -0.034 A 
ATOM      5  C4  UNL d   1      -0.678  -0.127  -1.291  0.00  0.00     0.162 A 
ATOM      6  C5  UNL d   1      -1.395  -0.101  -0.100  0.00  0.00     0.062 A 
ATOM      7  F   UNL d   1      -2.662  -0.541  -0.073  0.00  0.00    -0.097 F 
ATOM      8  F1  UNL d   1      -1.274  -0.593  -2.399  0.00  0.00    -0.096 F 
ATOM      9  I   UNL d   1       1.718   0.293  -3.110  0.00  0.00    -0.060 I 
ATOM     10  F2  UNL d   1       2.494   1.254  -0.157  0.00  0.00    -0.096 F 
ATOM     11  F3  UNL d   1       1.080   1.294   2.152  0.00  0.00    -0.097 F 
ATOM     12  F4  UNL d   1      -1.497   0.400   2.207  0.00  0.00    -0.092 F 
ENDROOT
TORSDOF 0
ENDMDL
