MODEL 1
REMARK minimizedAffinity -3.21398568
REMARK minimizedRMSD -1
REMARK  0 active torsions:
REMARK  status: ('A' for Active; 'I' for Inactive)
ROOT
ATOM      1  C   UNL d   1      -0.396  -0.364   2.520  0.00  0.00     0.124 A 
ATOM      2  C1  UNL d   1       0.883   0.154   2.373  0.00  0.00     0.062 A 
ATOM      3  C2  UNL d   1       1.433   0.310   1.104  0.00  0.00     0.162 A 
ATOM      4  C3  UNL d   1       0.704  -0.050  -0.029  0.00  0.00    -0.034 A 
ATOM      5  C4  UNL d   1      -0.582  -0.571   0.127  0.00  0.00     0.162 A 
ATOM      6  C5  UNL d   1      -1.127  -0.726   1.398  0.00  0.00     0.062 A 
ATOM      7  F   UNL d   1      -2.364  -1.226   1.538  0.00  0.00    -0.097 F 
ATOM      8  F1  UNL d   1      -1.311  -0.928  -0.940  0.00  0.00    -0.096 F 
ATOM      9  I   UNL d   1       1.523   0.182  -1.928  0.00  0.00    -0.060 I 
ATOM     10  F2  UNL d   1       2.672   0.813   0.992  0.00  0.00    -0.096 F 
ATOM     11  F3  UNL d   1       1.592   0.504   3.456  0.00  0.00    -0.097 F 
ATOM     12  F4  UNL d   1      -0.923  -0.514   3.742  0.00  0.00    -0.092 F 
ENDROOT
TORSDOF 0
ENDMDL
