MODEL 1
REMARK minimizedAffinity -6.31211042
REMARK minimizedRMSD -1
REMARK  0 active torsions:
REMARK  status: ('A' for Active; 'I' for Inactive)
ROOT
ATOM      1  C   UNL d   1       0.952   0.606  -0.694  0.00  0.00     0.124 A 
ATOM      2  C1  UNL d   1      -0.396   0.320  -0.857  0.00  0.00     0.062 A 
ATOM      3  C2  UNL d   1      -1.181  -0.008   0.244  0.00  0.00     0.162 A 
ATOM      4  C3  UNL d   1      -0.619  -0.051   1.521  0.00  0.00    -0.034 A 
ATOM      5  C4  UNL d   1       0.738   0.237   1.677  0.00  0.00     0.162 A 
ATOM      6  C5  UNL d   1       1.518   0.565   0.572  0.00  0.00     0.062 A 
ATOM      7  F   UNL d   1       2.820   0.841   0.732  0.00  0.00    -0.097 F 
ATOM      8  F1  UNL d   1       1.310   0.205   2.890  0.00  0.00    -0.096 F 
ATOM      9  I   UNL d   1      -1.789  -0.541   3.171  0.00  0.00    -0.060 I 
ATOM     10  F2  UNL d   1      -2.481  -0.280   0.057  0.00  0.00    -0.096 F 
ATOM     11  F3  UNL d   1      -0.945   0.359  -2.080  0.00  0.00    -0.097 F 
ATOM     12  F4  UNL d   1       1.705   0.921  -1.756  0.00  0.00    -0.092 F 
ENDROOT
TORSDOF 0
ENDMDL
