MODEL 1
REMARK minimizedAffinity 3.3155489
REMARK minimizedRMSD -1
REMARK  0 active torsions:
REMARK  status: ('A' for Active; 'I' for Inactive)
ROOT
ATOM      1  C   UNL d   1      -0.507   0.075   2.092  0.00  0.00     0.124 A 
ATOM      2  C1  UNL d   1       0.829   0.390   1.888  0.00  0.00     0.062 A 
ATOM      3  C2  UNL d   1       1.376   0.327   0.609  0.00  0.00     0.162 A 
ATOM      4  C3  UNL d   1       0.586  -0.053  -0.476  0.00  0.00    -0.034 A 
ATOM      5  C4  UNL d   1      -0.757  -0.370  -0.262  0.00  0.00     0.162 A 
ATOM      6  C5  UNL d   1      -1.299  -0.305   1.017  0.00  0.00     0.062 A 
ATOM      7  F   UNL d   1      -2.590  -0.610   1.213  0.00  0.00    -0.097 F 
ATOM      8  F1  UNL d   1      -1.545  -0.739  -1.283  0.00  0.00    -0.096 F 
ATOM      9  I   UNL d   1       1.399  -0.150  -2.389  0.00  0.00    -0.060 I 
ATOM     10  F2  UNL d   1       2.670   0.637   0.441  0.00  0.00    -0.096 F 
ATOM     11  F3  UNL d   1       1.596   0.757   2.925  0.00  0.00    -0.097 F 
ATOM     12  F4  UNL d   1      -1.030   0.136   3.323  0.00  0.00    -0.092 F 
ENDROOT
TORSDOF 0
ENDMDL
