MODEL 1
REMARK minimizedAffinity 5.07534695
REMARK minimizedRMSD -1
REMARK  0 active torsions:
REMARK  status: ('A' for Active; 'I' for Inactive)
ROOT
ATOM      1  C   UNL d   1      -0.872   0.658   1.215  0.00  0.00     0.124 A 
ATOM      2  C1  UNL d   1      -1.649   0.695   0.066  0.00  0.00     0.062 A 
ATOM      3  C2  UNL d   1      -1.108   0.310  -1.158  0.00  0.00     0.162 A 
ATOM      4  C3  UNL d   1       0.218  -0.116  -1.238  0.00  0.00    -0.034 A 
ATOM      5  C4  UNL d   1       0.993  -0.149  -0.078  0.00  0.00     0.162 A 
ATOM      6  C5  UNL d   1       0.448   0.236   1.143  0.00  0.00     0.062 A 
ATOM      7  F   UNL d   1       1.200   0.199   2.252  0.00  0.00    -0.097 F 
ATOM      8  F1  UNL d   1       2.271  -0.554  -0.119  0.00  0.00    -0.096 F 
ATOM      9  I   UNL d   1       1.031  -0.692  -3.065  0.00  0.00    -0.060 I 
ATOM     10  F2  UNL d   1      -1.882   0.356  -2.252  0.00  0.00    -0.096 F 
ATOM     11  F3  UNL d   1      -2.925   1.103   0.133  0.00  0.00    -0.097 F 
ATOM     12  F4  UNL d   1      -1.395   1.029   2.391  0.00  0.00    -0.092 F 
ENDROOT
TORSDOF 0
ENDMDL
