MODEL 1
REMARK minimizedAffinity -1.16849315
REMARK minimizedRMSD -1
REMARK  0 active torsions:
REMARK  status: ('A' for Active; 'I' for Inactive)
ROOT
ATOM      1  C   UNL d   1       0.595   0.133   2.353  0.00  0.00     0.124 A 
ATOM      2  C1  UNL d   1       1.440   0.570   1.342  0.00  0.00     0.062 A 
ATOM      3  C2  UNL d   1       1.089   0.384   0.008  0.00  0.00     0.162 A 
ATOM      4  C3  UNL d   1      -0.113  -0.241  -0.323  0.00  0.00    -0.034 A 
ATOM      5  C4  UNL d   1      -0.957  -0.679   0.699  0.00  0.00     0.162 A 
ATOM      6  C5  UNL d   1      -0.602  -0.491   2.031  0.00  0.00     0.062 A 
ATOM      7  F   UNL d   1      -1.419  -0.914   3.006  0.00  0.00    -0.097 F 
ATOM      8  F1  UNL d   1      -2.120  -1.284   0.416  0.00  0.00    -0.096 F 
ATOM      9  I   UNL d   1      -0.641  -0.521  -2.317  0.00  0.00    -0.060 I 
ATOM     10  F2  UNL d   1       1.925   0.816  -0.948  0.00  0.00    -0.096 F 
ATOM     11  F3  UNL d   1       2.597   1.172   1.651  0.00  0.00    -0.097 F 
ATOM     12  F4  UNL d   1       0.935   0.312   3.636  0.00  0.00    -0.092 F 
ENDROOT
TORSDOF 0
ENDMDL
