MODEL 1
REMARK minimizedAffinity 3.47157693
REMARK minimizedRMSD -1
REMARK  0 active torsions:
REMARK  status: ('A' for Active; 'I' for Inactive)
ROOT
ATOM      1  C   UNL d   1      -0.529   0.019   2.369  0.00  0.00     0.124 A 
ATOM      2  C1  UNL d   1       0.531   0.836   2.001  0.00  0.00     0.062 A 
ATOM      3  C2  UNL d   1       0.987   0.842   0.686  0.00  0.00     0.162 A 
ATOM      4  C3  UNL d   1       0.383   0.029  -0.272  0.00  0.00    -0.034 A 
ATOM      5  C4  UNL d   1      -0.681  -0.792   0.105  0.00  0.00     0.162 A 
ATOM      6  C5  UNL d   1      -1.134  -0.794   1.421  0.00  0.00     0.062 A 
ATOM      7  F   UNL d   1      -2.158  -1.585   1.774  0.00  0.00    -0.097 F 
ATOM      8  F1  UNL d   1      -1.285  -1.587  -0.791  0.00  0.00    -0.096 F 
ATOM      9  I   UNL d   1       1.062   0.035  -2.239  0.00  0.00    -0.060 I 
ATOM     10  F2  UNL d   1       2.013   1.643   0.360  0.00  0.00    -0.096 F 
ATOM     11  F3  UNL d   1       1.118   1.622   2.916  0.00  0.00    -0.097 F 
ATOM     12  F4  UNL d   1      -0.965   0.014   3.635  0.00  0.00    -0.092 F 
ENDROOT
TORSDOF 0
ENDMDL
