MODEL 1
REMARK minimizedAffinity -3.82187724
REMARK minimizedRMSD -1
REMARK  0 active torsions:
REMARK  status: ('A' for Active; 'I' for Inactive)
ROOT
ATOM      1  C   UNL d   1       1.531   0.002   2.379  0.00  0.00     0.124 A 
ATOM      2  C1  UNL d   1       0.281  -0.593   2.276  0.00  0.00     0.062 A 
ATOM      3  C2  UNL d   1      -0.429  -0.526   1.081  0.00  0.00     0.162 A 
ATOM      4  C3  UNL d   1       0.110   0.137  -0.022  0.00  0.00    -0.034 A 
ATOM      5  C4  UNL d   1       1.368   0.733   0.090  0.00  0.00     0.162 A 
ATOM      6  C5  UNL d   1       2.073   0.664   1.287  0.00  0.00     0.062 A 
ATOM      7  F   UNL d   1       3.281   1.238   1.385  0.00  0.00    -0.097 F 
ATOM      8  F1  UNL d   1       1.915   1.379  -0.950  0.00  0.00    -0.096 F 
ATOM      9  I   UNL d   1      -0.948   0.240  -1.811  0.00  0.00    -0.060 I 
ATOM     10  F2  UNL d   1      -1.635  -1.109   1.009  0.00  0.00    -0.096 F 
ATOM     11  F3  UNL d   1      -0.245  -1.232   3.330  0.00  0.00    -0.097 F 
ATOM     12  F4  UNL d   1       2.212  -0.063   3.531  0.00  0.00    -0.092 F 
ENDROOT
TORSDOF 0
ENDMDL
