MODEL 1
REMARK minimizedAffinity 2.87862825
REMARK minimizedRMSD -1
REMARK  0 active torsions:
REMARK  status: ('A' for Active; 'I' for Inactive)
ROOT
ATOM      1  C   UNL d   1      -0.594   0.515   2.127  0.00  0.00     0.124 A 
ATOM      2  C1  UNL d   1      -1.257   0.209   0.947  0.00  0.00     0.062 A 
ATOM      3  C2  UNL d   1      -0.541   0.035  -0.234  0.00  0.00     0.162 A 
ATOM      4  C3  UNL d   1       0.848   0.167  -0.240  0.00  0.00    -0.034 A 
ATOM      5  C4  UNL d   1       1.508   0.477   0.950  0.00  0.00     0.162 A 
ATOM      6  C5  UNL d   1       0.787   0.649   2.128  0.00  0.00     0.062 A 
ATOM      7  F   UNL d   1       1.429   0.946   3.267  0.00  0.00    -0.097 F 
ATOM      8  F1  UNL d   1       2.842   0.611   0.980  0.00  0.00    -0.096 F 
ATOM      9  I   UNL d   1       1.923  -0.092  -2.003  0.00  0.00    -0.060 I 
ATOM     10  F2  UNL d   1      -1.207  -0.261  -1.360  0.00  0.00    -0.096 F 
ATOM     11  F3  UNL d   1      -2.592   0.080   0.943  0.00  0.00    -0.097 F 
ATOM     12  F4  UNL d   1      -1.286   0.683   3.261  0.00  0.00    -0.092 F 
ENDROOT
TORSDOF 0
ENDMDL
