MODEL 1
REMARK minimizedAffinity 2.08421707
REMARK minimizedRMSD -1
REMARK  0 active torsions:
REMARK  status: ('A' for Active; 'I' for Inactive)
ROOT
ATOM      1  C   UNL d   1       0.739  -0.223  -2.421  0.00  0.00     0.124 A 
ATOM      2  C1  UNL d   1       1.561  -1.086  -1.710  0.00  0.00     0.062 A 
ATOM      3  C2  UNL d   1       1.566  -1.062  -0.319  0.00  0.00     0.162 A 
ATOM      4  C3  UNL d   1       0.744  -0.171   0.373  0.00  0.00    -0.034 A 
ATOM      5  C4  UNL d   1      -0.079   0.695  -0.349  0.00  0.00     0.162 A 
ATOM      6  C5  UNL d   1      -0.080   0.667  -1.740  0.00  0.00     0.062 A 
ATOM      7  F   UNL d   1      -0.876   1.502  -2.424  0.00  0.00    -0.097 F 
ATOM      8  F1  UNL d   1      -0.882   1.564   0.284  0.00  0.00    -0.096 F 
ATOM      9  I   UNL d   1       0.749  -0.131   2.453  0.00  0.00    -0.060 I 
ATOM     10  F2  UNL d   1       2.371  -1.907   0.342  0.00  0.00    -0.096 F 
ATOM     11  F3  UNL d   1       2.354  -1.946  -2.366  0.00  0.00    -0.097 F 
ATOM     12  F4  UNL d   1       0.737  -0.248  -3.760  0.00  0.00    -0.092 F 
ENDROOT
TORSDOF 0
ENDMDL
