MODEL 1
REMARK minimizedAffinity -2.44019651
REMARK minimizedRMSD -1
REMARK  0 active torsions:
REMARK  status: ('A' for Active; 'I' for Inactive)
ROOT
ATOM      1  C   UNL d   1       2.798   0.169   1.989  0.00  0.00     0.172 C 
ATOM      2  N   UNL d   1       2.231  -1.035   2.550  0.00  0.00    -0.070 N 
ATOM      3  C1  UNL d   1       2.229  -1.373   3.877  0.00  0.00    -0.004 A 
ATOM      4  C2  UNL d   1       1.595  -2.591   4.002  0.00  0.00    -0.047 A 
ATOM      5  C3  UNL d   1       1.204  -2.999   2.704  0.00  0.00    -0.047 A 
ATOM      6  C4  UNL d   1       1.610  -2.018   1.825  0.00  0.00    -0.004 A 
ENDROOT
TORSDOF 0
ENDMDL
