MODEL 1
REMARK minimizedAffinity -2.03442597
REMARK minimizedRMSD -1
REMARK  0 active torsions:
REMARK  status: ('A' for Active; 'I' for Inactive)
ROOT
ATOM      1  C   UNL d   1       1.466  -1.385   2.273  0.00  0.00     0.172 C 
ATOM      2  N   UNL d   1       1.794  -2.476   3.161  0.00  0.00    -0.070 N 
ATOM      3  C1  UNL d   1       2.255  -3.707   2.778  0.00  0.00    -0.004 A 
ATOM      4  C2  UNL d   1       2.448  -4.459   3.916  0.00  0.00    -0.047 A 
ATOM      5  C3  UNL d   1       2.090  -3.652   5.022  0.00  0.00    -0.047 A 
ATOM      6  C4  UNL d   1       1.689  -2.430   4.527  0.00  0.00    -0.004 A 
ENDROOT
TORSDOF 0
ENDMDL
