MODEL 1
REMARK minimizedAffinity 1.82527959
REMARK minimizedRMSD -1
REMARK  0 active torsions:
REMARK  status: ('A' for Active; 'I' for Inactive)
ROOT
ATOM      1  C   UNL d   1       2.285  -5.896  -1.963  0.00  0.00     0.172 C 
ATOM      2  N   UNL d   1       3.135  -5.935  -3.130  0.00  0.00    -0.070 N 
ATOM      3  C1  UNL d   1       4.504  -5.942  -3.120  0.00  0.00    -0.004 A 
ATOM      4  C2  UNL d   1       4.935  -5.983  -4.429  0.00  0.00    -0.047 A 
ATOM      5  C3  UNL d   1       3.785  -6.000  -5.253  0.00  0.00    -0.047 A 
ATOM      6  C4  UNL d   1       2.684  -5.969  -4.423  0.00  0.00    -0.004 A 
ENDROOT
TORSDOF 0
ENDMDL
