MODEL 1
REMARK minimizedAffinity -3.06787419
REMARK minimizedRMSD -1
REMARK  0 active torsions:
REMARK  status: ('A' for Active; 'I' for Inactive)
ROOT
ATOM      1  C   UNL d   1       2.111  -1.822   3.230  0.00  0.00     0.172 C 
ATOM      2  N   UNL d   1       2.133  -2.892   4.200  0.00  0.00    -0.070 N 
ATOM      3  C1  UNL d   1       3.003  -2.996   5.253  0.00  0.00    -0.004 A 
ATOM      4  C2  UNL d   1       2.698  -4.152   5.939  0.00  0.00    -0.047 A 
ATOM      5  C3  UNL d   1       1.608  -4.763   5.275  0.00  0.00    -0.047 A 
ATOM      6  C4  UNL d   1       1.279  -3.962   4.202  0.00  0.00    -0.004 A 
ENDROOT
TORSDOF 0
ENDMDL
