MODEL 1
REMARK minimizedAffinity 2.36853266
REMARK minimizedRMSD -1
REMARK  0 active torsions:
REMARK  status: ('A' for Active; 'I' for Inactive)
ROOT
ATOM      1  C   UNL d   1       0.899  -2.632   3.356  0.00  0.00     0.172 C 
ATOM      2  N   UNL d   1       2.307  -2.790   3.638  0.00  0.00    -0.070 N 
ATOM      3  C1  UNL d   1       2.843  -3.170   4.839  0.00  0.00    -0.004 A 
ATOM      4  C2  UNL d   1       4.213  -3.204   4.698  0.00  0.00    -0.047 A 
ATOM      5  C3  UNL d   1       4.511  -2.829   3.366  0.00  0.00    -0.047 A 
ATOM      6  C4  UNL d   1       3.312  -2.579   2.732  0.00  0.00    -0.004 A 
ENDROOT
TORSDOF 0
ENDMDL
