MODEL 1
REMARK minimizedAffinity 2.8155055
REMARK minimizedRMSD -1
REMARK  0 active torsions:
REMARK  status: ('A' for Active; 'I' for Inactive)
ROOT
ATOM      1  C   UNL d   1      -3.267   3.171  -1.438  0.00  0.00     0.172 C 
ATOM      2  N   UNL d   1      -4.153   3.079  -0.300  0.00  0.00    -0.070 N 
ATOM      3  C1  UNL d   1      -3.793   2.686   0.961  0.00  0.00    -0.004 A 
ATOM      4  C2  UNL d   1      -4.919   2.732   1.754  0.00  0.00    -0.047 A 
ATOM      5  C3  UNL d   1      -5.993   3.168   0.941  0.00  0.00    -0.047 A 
ATOM      6  C4  UNL d   1      -5.490   3.375  -0.326  0.00  0.00    -0.004 A 
ENDROOT
TORSDOF 0
ENDMDL
