MODEL 1
REMARK minimizedAffinity -0.444578707
REMARK minimizedRMSD -1
REMARK  0 active torsions:
REMARK  status: ('A' for Active; 'I' for Inactive)
ROOT
ATOM      1  C   UNL d   1       2.680  -6.000  -4.542  0.00  0.00     0.172 C 
ATOM      2  N   UNL d   1       3.284  -5.999  -3.231  0.00  0.00    -0.070 N 
ATOM      3  C1  UNL d   1       2.607  -5.999  -2.040  0.00  0.00    -0.004 A 
ATOM      4  C2  UNL d   1       3.539  -6.000  -1.025  0.00  0.00    -0.047 A 
ATOM      5  C3  UNL d   1       4.820  -5.999  -1.626  0.00  0.00    -0.047 A 
ATOM      6  C4  UNL d   1       4.633  -5.999  -2.992  0.00  0.00    -0.004 A 
ENDROOT
TORSDOF 0
ENDMDL
