MODEL 1
REMARK minimizedAffinity 3.66613603
REMARK minimizedRMSD -1
REMARK  0 active torsions:
REMARK  status: ('A' for Active; 'I' for Inactive)
ROOT
ATOM      1  C   UNL d   1      -2.923  -0.580  -3.131  0.00  0.00     0.172 C 
ATOM      2  N   UNL d   1      -2.710   0.536  -2.240  0.00  0.00    -0.070 N 
ATOM      3  C1  UNL d   1      -2.252   0.453  -0.952  0.00  0.00    -0.004 A 
ATOM      4  C2  UNL d   1      -2.187   1.733  -0.444  0.00  0.00    -0.047 A 
ATOM      5  C3  UNL d   1      -2.620   2.615  -1.462  0.00  0.00    -0.047 A 
ATOM      6  C4  UNL d   1      -2.938   1.848  -2.563  0.00  0.00    -0.004 A 
ENDROOT
TORSDOF 0
ENDMDL
