MODEL 1
REMARK minimizedAffinity -2.58469248
REMARK minimizedRMSD -1
REMARK  0 active torsions:
REMARK  status: ('A' for Active; 'I' for Inactive)
ROOT
ATOM      1  C   UNL d   1       2.956   0.815   0.816  0.00  0.00     0.172 C 
ATOM      2  N   UNL d   1       2.126  -0.221   1.383  0.00  0.00    -0.070 N 
ATOM      3  C1  UNL d   1       2.172  -0.661   2.680  0.00  0.00    -0.004 A 
ATOM      4  C2  UNL d   1       1.226  -1.652   2.823  0.00  0.00    -0.047 A 
ATOM      5  C3  UNL d   1       0.590  -1.815   1.570  0.00  0.00    -0.047 A 
ATOM      6  C4  UNL d   1       1.166  -0.917   0.697  0.00  0.00    -0.004 A 
ENDROOT
TORSDOF 0
ENDMDL
