MODEL 1
REMARK minimizedAffinity 0.645332873
REMARK minimizedRMSD -1
REMARK  0 active torsions:
REMARK  status: ('A' for Active; 'I' for Inactive)
ROOT
ATOM      1  C4' PXY d   1       2.822  -5.635   0.696  0.00  0.00     0.077 C 
ATOM      2  C1' PXY d   1      -1.209  -1.530   0.140  0.00  0.00     0.077 C 
ATOM      3  C1  PXY d   1      -0.148  -2.601   0.297  0.00  0.00    -0.082 A 
ATOM      4  C2  PXY d   1       0.308  -3.232  -0.773  0.00  0.00     0.003 A 
ATOM      5  C3  PXY d   1       1.245  -4.225  -0.646  0.00  0.00     0.003 A 
ATOM      6  C4  PXY d   1       1.758  -4.540   0.584  0.00  0.00    -0.082 A 
ATOM      7  C5  PXY d   1       1.306  -3.893   1.679  0.00  0.00     0.003 A 
ATOM      8  C6  PXY d   1       0.325  -2.916   1.533  0.00  0.00     0.003 A 
ENDROOT
TORSDOF 0
ENDMDL
