MODEL 1
REMARK minimizedAffinity 5.19667625
REMARK minimizedRMSD -1
REMARK  0 active torsions:
REMARK  status: ('A' for Active; 'I' for Inactive)
ROOT
ATOM      1  C4' PXY d   1      -0.665  -1.890   0.014  0.00  0.00     0.077 C 
ATOM      2  C1' PXY d   1       2.950  -2.563   4.474  0.00  0.00     0.077 C 
ATOM      3  C1  PXY d   1       2.002  -2.374   3.306  0.00  0.00    -0.082 A 
ATOM      4  C2  PXY d   1       1.162  -3.343   2.981  0.00  0.00     0.003 A 
ATOM      5  C3  PXY d   1       0.321  -3.201   1.908  0.00  0.00     0.003 A 
ATOM      6  C4  PXY d   1       0.303  -2.034   1.192  0.00  0.00    -0.082 A 
ATOM      7  C5  PXY d   1       1.149  -1.036   1.524  0.00  0.00     0.003 A 
ATOM      8  C6  PXY d   1       2.024  -1.216   2.591  0.00  0.00     0.003 A 
ENDROOT
TORSDOF 0
ENDMDL
