MODEL 1
REMARK minimizedAffinity 9.15676785
REMARK minimizedRMSD -1
REMARK  0 active torsions:
REMARK  status: ('A' for Active; 'I' for Inactive)
ROOT
ATOM      1  C4' PXY d   1      -0.611  -2.076  -0.342  0.00  0.00     0.077 C 
ATOM      2  C1' PXY d   1       2.705  -2.339   4.386  0.00  0.00     0.077 C 
ATOM      3  C1  PXY d   1       1.835  -2.257   3.147  0.00  0.00    -0.082 A 
ATOM      4  C2  PXY d   1       1.105  -3.302   2.790  0.00  0.00     0.003 A 
ATOM      5  C3  PXY d   1       0.337  -3.256   1.655  0.00  0.00     0.003 A 
ATOM      6  C4  PXY d   1       0.275  -2.111   0.907  0.00  0.00    -0.082 A 
ATOM      7  C5  PXY d   1       1.008  -1.037   1.271  0.00  0.00     0.003 A 
ATOM      8  C6  PXY d   1       1.813  -1.118   2.403  0.00  0.00     0.003 A 
ENDROOT
TORSDOF 0
ENDMDL
