MODEL 1
REMARK minimizedAffinity 11.9935398
REMARK minimizedRMSD -1
REMARK  0 active torsions:
REMARK  status: ('A' for Active; 'I' for Inactive)
ROOT
ATOM      1  C4' PXY d   1      -0.550   3.601   1.507  0.00  0.00     0.077 C 
ATOM      2  C1' PXY d   1      -5.998   4.123  -0.353  0.00  0.00     0.077 C 
ATOM      3  C1  PXY d   1      -4.574   3.988   0.147  0.00  0.00    -0.082 A 
ATOM      4  C2  PXY d   1      -3.566   4.253  -0.669  0.00  0.00     0.003 A 
ATOM      5  C3  PXY d   1      -2.271   4.105  -0.242  0.00  0.00     0.003 A 
ATOM      6  C4  PXY d   1      -2.005   3.734   1.048  0.00  0.00    -0.082 A 
ATOM      7  C5  PXY d   1      -3.027   3.472   1.890  0.00  0.00     0.003 A 
ATOM      8  C6  PXY d   1      -4.334   3.588   1.426  0.00  0.00     0.003 A 
ENDROOT
TORSDOF 0
ENDMDL
