MODEL 1
REMARK minimizedAffinity 5.32735205
REMARK minimizedRMSD -1
REMARK  0 active torsions:
REMARK  status: ('A' for Active; 'I' for Inactive)
ROOT
ATOM      1  C4' PXY d   1       3.048  -3.781   5.997  0.00  0.00     0.077 C 
ATOM      2  C1' PXY d   1       0.045  -2.136   1.340  0.00  0.00     0.077 C 
ATOM      3  C1  PXY d   1       0.822  -2.575   2.565  0.00  0.00    -0.082 A 
ATOM      4  C2  PXY d   1       1.776  -1.795   3.049  0.00  0.00     0.003 A 
ATOM      5  C3  PXY d   1       2.510  -2.192   4.137  0.00  0.00     0.003 A 
ATOM      6  C4  PXY d   1       2.231  -3.374   4.768  0.00  0.00    -0.082 A 
ATOM      7  C5  PXY d   1       1.252  -4.170   4.287  0.00  0.00     0.003 A 
ATOM      8  C6  PXY d   1       0.546  -3.769   3.157  0.00  0.00     0.003 A 
ENDROOT
TORSDOF 0
ENDMDL
