MODEL 1
REMARK minimizedAffinity 2.8284297
REMARK minimizedRMSD -1
REMARK  0 active torsions:
REMARK  status: ('A' for Active; 'I' for Inactive)
ROOT
ATOM      1  C4' PXY d   1       2.676   1.095   1.178  0.00  0.00     0.077 C 
ATOM      2  C1' PXY d   1       0.653  -3.503   4.038  0.00  0.00     0.077 C 
ATOM      3  C1  PXY d   1       1.180  -2.303   3.277  0.00  0.00    -0.082 A 
ATOM      4  C2  PXY d   1       2.050  -1.492   3.856  0.00  0.00     0.003 A 
ATOM      5  C3  PXY d   1       2.513  -0.384   3.194  0.00  0.00     0.003 A 
ATOM      6  C4  PXY d   1       2.123  -0.134   1.905  0.00  0.00    -0.082 A 
ATOM      7  C5  PXY d   1       1.244  -0.963   1.303  0.00  0.00     0.003 A 
ATOM      8  C6  PXY d   1       0.755  -2.059   2.008  0.00  0.00     0.003 A 
ENDROOT
TORSDOF 0
ENDMDL
