MODEL 1
REMARK minimizedAffinity 2.06210661
REMARK minimizedRMSD -1
REMARK  0 active torsions:
REMARK  status: ('A' for Active; 'I' for Inactive)
ROOT
ATOM      1  C4' PXY d   1       2.743  -0.723   4.252  0.00  0.00     0.077 C 
ATOM      2  C1' PXY d   1       1.360   1.960  -0.678  0.00  0.00     0.077 C 
ATOM      3  C1  PXY d   1       1.734   1.263   0.615  0.00  0.00    -0.082 A 
ATOM      4  C2  PXY d   1       1.176   0.102   0.917  0.00  0.00     0.003 A 
ATOM      5  C3  PXY d   1       1.479  -0.527   2.098  0.00  0.00     0.003 A 
ATOM      6  C4  PXY d   1       2.402   0.012   2.953  0.00  0.00    -0.082 A 
ATOM      7  C5  PXY d   1       2.984   1.192   2.647  0.00  0.00     0.003 A 
ATOM      8  C6  PXY d   1       2.632   1.834   1.463  0.00  0.00     0.003 A 
ENDROOT
TORSDOF 0
ENDMDL
