MODEL 1
REMARK minimizedAffinity 2.71392679
REMARK minimizedRMSD -1
REMARK  0 active torsions:
REMARK  status: ('A' for Active; 'I' for Inactive)
ROOT
ATOM      1  C4' PXY d   1      -0.074  -2.592   0.196  0.00  0.00     0.077 C 
ATOM      2  C1' PXY d   1       2.948   1.504   2.936  0.00  0.00     0.077 C 
ATOM      3  C1  PXY d   1       2.161   0.420   2.225  0.00  0.00    -0.082 A 
ATOM      4  C2  PXY d   1       1.713   0.635   0.999  0.00  0.00     0.003 A 
ATOM      5  C3  PXY d   1       0.972  -0.321   0.353  0.00  0.00     0.003 A 
ATOM      6  C4  PXY d   1       0.733  -1.531   0.948  0.00  0.00    -0.082 A 
ATOM      7  C5  PXY d   1       1.197  -1.762   2.195  0.00  0.00     0.003 A 
ATOM      8  C6  PXY d   1       1.912  -0.763   2.849  0.00  0.00     0.003 A 
ENDROOT
TORSDOF 0
ENDMDL
