MODEL 1
REMARK minimizedAffinity -0.553272665
REMARK minimizedRMSD -1
REMARK  0 active torsions:
REMARK  status: ('A' for Active; 'I' for Inactive)
ROOT
ATOM      1  C4' PXY d   1       0.727  -1.793   0.840  0.00  0.00     0.077 C 
ATOM      2  C1' PXY d   1       3.337   2.706   3.362  0.00  0.00     0.077 C 
ATOM      3  C1  PXY d   1       2.647   1.534   2.692  0.00  0.00    -0.082 A 
ATOM      4  C2  PXY d   1       2.419   0.428   3.382  0.00  0.00     0.003 A 
ATOM      5  C3  PXY d   1       1.825  -0.653   2.782  0.00  0.00     0.003 A 
ATOM      6  C4  PXY d   1       1.412  -0.582   1.479  0.00  0.00    -0.082 A 
ATOM      7  C5  PXY d   1       1.632   0.547   0.772  0.00  0.00     0.003 A 
ATOM      8  C6  PXY d   1       2.273   1.618   1.387  0.00  0.00     0.003 A 
ENDROOT
TORSDOF 0
ENDMDL
