MODEL 1
REMARK minimizedAffinity 2.45965695
REMARK minimizedRMSD -1
REMARK  0 active torsions:
REMARK  status: ('A' for Active; 'I' for Inactive)
ROOT
ATOM      1  C4' PXY d   1       5.434   1.452  -5.983  0.00  0.00     0.077 C 
ATOM      2  C1' PXY d   1       3.647  -4.045  -5.993  0.00  0.00     0.077 C 
ATOM      3  C1  PXY d   1       4.127  -2.607  -5.985  0.00  0.00    -0.082 A 
ATOM      4  C2  PXY d   1       3.243  -1.623  -5.973  0.00  0.00     0.003 A 
ATOM      5  C3  PXY d   1       3.659  -0.316  -5.998  0.00  0.00     0.003 A 
ATOM      6  C4  PXY d   1       4.995  -0.015  -5.982  0.00  0.00    -0.082 A 
ATOM      7  C5  PXY d   1       5.903  -1.014  -5.983  0.00  0.00     0.003 A 
ATOM      8  C6  PXY d   1       5.459  -2.333  -6.000  0.00  0.00     0.003 A 
ENDROOT
TORSDOF 0
ENDMDL
