MODEL 1
REMARK minimizedAffinity 0.839196265
REMARK minimizedRMSD -1
REMARK  0 active torsions:
REMARK  status: ('A' for Active; 'I' for Inactive)
ROOT
ATOM      1  C4' PXY d   1       2.836   1.566   3.206  0.00  0.00     0.077 C 
ATOM      2  C1' PXY d   1      -0.384  -1.961  -0.050  0.00  0.00     0.077 C 
ATOM      3  C1  PXY d   1       0.458  -1.043   0.815  0.00  0.00    -0.082 A 
ATOM      4  C2  PXY d   1       0.675   0.203   0.426  0.00  0.00     0.003 A 
ATOM      5  C3  PXY d   1       1.461   1.037   1.180  0.00  0.00     0.003 A 
ATOM      6  C4  PXY d   1       1.985   0.607   2.370  0.00  0.00    -0.082 A 
ATOM      7  C5  PXY d   1       1.758  -0.660   2.778  0.00  0.00     0.003 A 
ATOM      8  C6  PXY d   1       0.993  -1.503   1.978  0.00  0.00     0.003 A 
ENDROOT
TORSDOF 0
ENDMDL
