MODEL 1
REMARK minimizedAffinity -1.68491352
REMARK minimizedRMSD -1
REMARK  0 active torsions:
REMARK  status: ('A' for Active; 'I' for Inactive)
ROOT
ATOM      1  C4' PXY d   1       4.687  -3.731  -6.000  0.00  0.00     0.077 C 
ATOM      2  C1' PXY d   1       4.477   2.046  -5.972  0.00  0.00     0.077 C 
ATOM      3  C1  PXY d   1       4.544   0.531  -5.985  0.00  0.00    -0.082 A 
ATOM      4  C2  PXY d   1       3.424  -0.173  -5.999  0.00  0.00     0.003 A 
ATOM      5  C3  PXY d   1       3.466  -1.543  -5.979  0.00  0.00     0.003 A 
ATOM      6  C4  PXY d   1       4.668  -2.200  -5.996  0.00  0.00    -0.082 A 
ATOM      7  C5  PXY d   1       5.815  -1.489  -5.992  0.00  0.00     0.003 A 
ATOM      8  C6  PXY d   1       5.750  -0.098  -5.972  0.00  0.00     0.003 A 
ENDROOT
TORSDOF 0
ENDMDL
