MODEL 1
REMARK minimizedAffinity 4.58024311
REMARK minimizedRMSD -1
REMARK  0 active torsions:
REMARK  status: ('A' for Active; 'I' for Inactive)
ROOT
ATOM      1  C   UNL d   1       5.404   1.899  -1.696  0.00  0.00     0.077 C 
ATOM      2  C1  UNL d   1       4.788   1.389  -0.428  0.00  0.00    -0.074 A 
ATOM      3  C2  UNL d   1       5.420   0.399   0.331  0.00  0.00    -0.005 A 
ATOM      4  C3  UNL d   1       4.840  -0.059   1.514  0.00  0.00     0.006 A 
ATOM      5  C4  UNL d   1       3.624   0.467   1.949  0.00  0.00    -0.005 A 
ATOM      6  C5  UNL d   1       2.977   1.458   1.205  0.00  0.00    -0.074 A 
ATOM      7  C6  UNL d   1       1.674   2.042   1.664  0.00  0.00     0.077 C 
ATOM      8  C7  UNL d   1       3.570   1.918   0.021  0.00  0.00    -0.001 A 
ENDROOT
TORSDOF 0
ENDMDL
