MODEL 1
REMARK minimizedAffinity 0.857956648
REMARK minimizedRMSD -1
REMARK  0 active torsions:
REMARK  status: ('A' for Active; 'I' for Inactive)
ROOT
ATOM      1  C   UNL d   1      -5.553   4.246   5.266  0.00  0.00     0.077 C 
ATOM      2  C1  UNL d   1      -5.548   2.767   5.019  0.00  0.00    -0.074 A 
ATOM      3  C2  UNL d   1      -6.000   1.873   5.995  0.00  0.00    -0.005 A 
ATOM      4  C3  UNL d   1      -5.998   0.501   5.747  0.00  0.00     0.006 A 
ATOM      5  C4  UNL d   1      -5.546   0.009   4.521  0.00  0.00    -0.005 A 
ATOM      6  C5  UNL d   1      -5.092   0.888   3.533  0.00  0.00    -0.074 A 
ATOM      7  C6  UNL d   1      -4.612   0.376   2.207  0.00  0.00     0.077 C 
ATOM      8  C7  UNL d   1      -5.103   2.266   3.787  0.00  0.00    -0.001 A 
ENDROOT
TORSDOF 0
ENDMDL
