MODEL 1
REMARK minimizedAffinity 11.7726717
REMARK minimizedRMSD -1
REMARK  0 active torsions:
REMARK  status: ('A' for Active; 'I' for Inactive)
ROOT
ATOM      1  C   UNL d   1      -1.692  -1.898   0.640  0.00  0.00     0.077 C 
ATOM      2  C1  UNL d   1      -1.816  -3.330   1.068  0.00  0.00    -0.074 A 
ATOM      3  C2  UNL d   1      -0.695  -4.054   1.487  0.00  0.00    -0.005 A 
ATOM      4  C3  UNL d   1      -0.827  -5.383   1.890  0.00  0.00     0.006 A 
ATOM      5  C4  UNL d   1      -2.079  -5.999   1.879  0.00  0.00    -0.005 A 
ATOM      6  C5  UNL d   1      -3.211  -5.291   1.465  0.00  0.00    -0.074 A 
ATOM      7  C6  UNL d   1      -4.565  -5.935   1.456  0.00  0.00     0.077 C 
ATOM      8  C7  UNL d   1      -3.071  -3.954   1.067  0.00  0.00    -0.001 A 
ENDROOT
TORSDOF 0
ENDMDL
