MODEL 1
REMARK minimizedAffinity 10.1671114
REMARK minimizedRMSD -1
REMARK  0 active torsions:
REMARK  status: ('A' for Active; 'I' for Inactive)
ROOT
ATOM      1  C   UNL d   1       5.034   5.970  -5.950  0.00  0.00     0.077 C 
ATOM      2  C1  UNL d   1       3.700   5.469  -5.480  0.00  0.00    -0.074 A 
ATOM      3  C2  UNL d   1       2.512   5.996  -5.997  0.00  0.00    -0.005 A 
ATOM      4  C3  UNL d   1       1.279   5.514  -5.558  0.00  0.00     0.006 A 
ATOM      5  C4  UNL d   1       1.222   4.502  -4.599  0.00  0.00    -0.005 A 
ATOM      6  C5  UNL d   1       2.399   3.962  -4.072  0.00  0.00    -0.074 A 
ATOM      7  C6  UNL d   1       2.355   2.867  -3.048  0.00  0.00     0.077 C 
ATOM      8  C7  UNL d   1       3.634   4.447  -4.523  0.00  0.00    -0.001 A 
ENDROOT
TORSDOF 0
ENDMDL
