MODEL 1
REMARK minimizedAffinity 7.39077711
REMARK minimizedRMSD -1
REMARK  0 active torsions:
REMARK  status: ('A' for Active; 'I' for Inactive)
ROOT
ATOM      1  C   UNL d   1       2.077   1.035   1.488  0.00  0.00     0.077 C 
ATOM      2  C1  UNL d   1       1.110   2.098   1.058  0.00  0.00    -0.074 A 
ATOM      3  C2  UNL d   1       0.878   3.223   1.856  0.00  0.00    -0.005 A 
ATOM      4  C3  UNL d   1      -0.017   4.208   1.438  0.00  0.00     0.006 A 
ATOM      5  C4  UNL d   1      -0.688   4.078   0.222  0.00  0.00    -0.005 A 
ATOM      6  C5  UNL d   1      -0.468   2.960  -0.589  0.00  0.00    -0.074 A 
ATOM      7  C6  UNL d   1      -1.174   2.810  -1.904  0.00  0.00     0.077 C 
ATOM      8  C7  UNL d   1       0.438   1.978  -0.166  0.00  0.00    -0.001 A 
ENDROOT
TORSDOF 0
ENDMDL
