MODEL 1
REMARK minimizedAffinity 16.509758
REMARK minimizedRMSD -1
REMARK  0 active torsions:
REMARK  status: ('A' for Active; 'I' for Inactive)
ROOT
ATOM      1  C   UNL d   1      -4.599   4.377   1.462  0.00  0.00     0.077 C 
ATOM      2  C1  UNL d   1      -4.126   3.223   2.295  0.00  0.00    -0.074 A 
ATOM      3  C2  UNL d   1      -3.095   3.384   3.226  0.00  0.00    -0.005 A 
ATOM      4  C3  UNL d   1      -2.672   2.304   4.000  0.00  0.00     0.006 A 
ATOM      5  C4  UNL d   1      -3.275   1.054   3.852  0.00  0.00    -0.005 A 
ATOM      6  C5  UNL d   1      -4.308   0.875   2.926  0.00  0.00    -0.074 A 
ATOM      7  C6  UNL d   1      -4.973  -0.460   2.761  0.00  0.00     0.077 C 
ATOM      8  C7  UNL d   1      -4.732   1.967   2.157  0.00  0.00    -0.001 A 
ENDROOT
TORSDOF 0
ENDMDL
