MODEL 1
REMARK minimizedAffinity 17.6854916
REMARK minimizedRMSD -1
REMARK  0 active torsions:
REMARK  status: ('A' for Active; 'I' for Inactive)
ROOT
ATOM      1  C   UNL d   1       1.417   0.648   2.150  0.00  0.00     0.077 C 
ATOM      2  C1  UNL d   1       1.895   1.806   1.325  0.00  0.00    -0.074 A 
ATOM      3  C2  UNL d   1       2.063   1.683  -0.058  0.00  0.00    -0.005 A 
ATOM      4  C3  UNL d   1       2.498   2.771  -0.814  0.00  0.00     0.006 A 
ATOM      5  C4  UNL d   1       2.769   3.992  -0.196  0.00  0.00    -0.005 A 
ATOM      6  C5  UNL d   1       2.606   4.135   1.186  0.00  0.00    -0.074 A 
ATOM      7  C6  UNL d   1       2.883   5.444   1.865  0.00  0.00     0.077 C 
ATOM      8  C7  UNL d   1       2.161   3.039   1.938  0.00  0.00    -0.001 A 
ENDROOT
TORSDOF 0
ENDMDL
