MODEL 1
REMARK minimizedAffinity 17.5657558
REMARK minimizedRMSD -1
REMARK  0 active torsions:
REMARK  status: ('A' for Active; 'I' for Inactive)
ROOT
ATOM      1  C   UNL d   1      -1.856  -5.998   2.319  0.00  0.00     0.077 C 
ATOM      2  C1  UNL d   1      -3.134  -5.918   1.538  0.00  0.00    -0.074 A 
ATOM      3  C2  UNL d   1      -4.365  -5.778   2.187  0.00  0.00    -0.005 A 
ATOM      4  C3  UNL d   1      -5.545  -5.695   1.446  0.00  0.00     0.006 A 
ATOM      5  C4  UNL d   1      -5.505  -5.750   0.053  0.00  0.00    -0.005 A 
ATOM      6  C5  UNL d   1      -4.283  -5.889  -0.613  0.00  0.00    -0.074 A 
ATOM      7  C6  UNL d   1      -4.222  -5.940  -2.111  0.00  0.00     0.077 C 
ATOM      8  C7  UNL d   1      -3.102  -5.965   0.137  0.00  0.00    -0.001 A 
ENDROOT
TORSDOF 0
ENDMDL
