MODEL 1
REMARK minimizedAffinity 22.5344543
REMARK minimizedRMSD -1
REMARK  0 active torsions:
REMARK  status: ('A' for Active; 'I' for Inactive)
ROOT
ATOM      1  C   UNL d   1      -5.985  -2.246  -4.998  0.00  0.00     0.077 C 
ATOM      2  C1  UNL d   1      -5.066  -2.981  -4.068  0.00  0.00    -0.074 A 
ATOM      3  C2  UNL d   1      -3.747  -2.557  -3.876  0.00  0.00    -0.005 A 
ATOM      4  C3  UNL d   1      -2.907  -3.245  -3.001  0.00  0.00     0.006 A 
ATOM      5  C4  UNL d   1      -3.377  -4.363  -2.309  0.00  0.00    -0.005 A 
ATOM      6  C5  UNL d   1      -4.693  -4.801  -2.487  0.00  0.00    -0.074 A 
ATOM      7  C6  UNL d   1      -5.216  -5.994  -1.745  0.00  0.00     0.077 C 
ATOM      8  C7  UNL d   1      -5.533  -4.100  -3.363  0.00  0.00    -0.001 A 
ENDROOT
TORSDOF 0
ENDMDL
