MODEL 1
REMARK minimizedAffinity 22.3487663
REMARK minimizedRMSD -1
REMARK  0 active torsions:
REMARK  status: ('A' for Active; 'I' for Inactive)
ROOT
ATOM      1  C   UNL d   1      -2.631  -2.213  -0.929  0.00  0.00     0.077 C 
ATOM      2  C1  UNL d   1      -2.036  -2.663   0.372  0.00  0.00    -0.074 A 
ATOM      3  C2  UNL d   1      -1.495  -1.740   1.273  0.00  0.00    -0.005 A 
ATOM      4  C3  UNL d   1      -0.954  -2.173   2.483  0.00  0.00     0.006 A 
ATOM      5  C4  UNL d   1      -0.947  -3.531   2.804  0.00  0.00    -0.005 A 
ATOM      6  C5  UNL d   1      -1.484  -4.469   1.916  0.00  0.00    -0.074 A 
ATOM      7  C6  UNL d   1      -1.493  -5.931   2.250  0.00  0.00     0.077 C 
ATOM      8  C7  UNL d   1      -2.032  -4.025   0.705  0.00  0.00    -0.001 A 
ENDROOT
TORSDOF 0
ENDMDL
