MODEL 1
REMARK minimizedAffinity 16.0085239
REMARK minimizedRMSD -1
REMARK  0 active torsions:
REMARK  status: ('A' for Active; 'I' for Inactive)
ROOT
ATOM      1  C   UNL d   1      -4.756  -5.993   1.550  0.00  0.00     0.077 C 
ATOM      2  C1  UNL d   1      -3.431  -5.314   1.731  0.00  0.00    -0.074 A 
ATOM      3  C2  UNL d   1      -2.340  -6.000   2.275  0.00  0.00    -0.005 A 
ATOM      4  C3  UNL d   1      -1.112  -5.358   2.429  0.00  0.00     0.006 A 
ATOM      5  C4  UNL d   1      -0.961  -4.026   2.040  0.00  0.00    -0.005 A 
ATOM      6  C5  UNL d   1      -2.040  -3.325   1.492  0.00  0.00    -0.074 A 
ATOM      7  C6  UNL d   1      -1.892  -1.896   1.060  0.00  0.00     0.077 C 
ATOM      8  C7  UNL d   1      -3.269  -3.979   1.335  0.00  0.00    -0.001 A 
ENDROOT
TORSDOF 0
ENDMDL
