MODEL 1
REMARK minimizedAffinity 13.2703199
REMARK minimizedRMSD -1
REMARK  0 active torsions:
REMARK  status: ('A' for Active; 'I' for Inactive)
ROOT
ATOM      1  C   UNL d   1      -1.189  -5.899  -3.726  0.00  0.00     0.077 C 
ATOM      2  C1  UNL d   1      -2.434  -5.162  -3.329  0.00  0.00    -0.074 A 
ATOM      3  C2  UNL d   1      -2.470  -3.764  -3.318  0.00  0.00    -0.005 A 
ATOM      4  C3  UNL d   1      -3.638  -3.093  -2.956  0.00  0.00     0.006 A 
ATOM      5  C4  UNL d   1      -4.780  -3.812  -2.601  0.00  0.00    -0.005 A 
ATOM      6  C5  UNL d   1      -4.764  -5.211  -2.607  0.00  0.00    -0.074 A 
ATOM      7  C6  UNL d   1      -5.985  -5.999  -2.238  0.00  0.00     0.077 C 
ATOM      8  C7  UNL d   1      -3.588  -5.878  -2.979  0.00  0.00    -0.001 A 
ENDROOT
TORSDOF 0
ENDMDL
