MODEL 1
REMARK minimizedAffinity 14.7269983
REMARK minimizedRMSD -1
REMARK  0 active torsions:
REMARK  status: ('A' for Active; 'I' for Inactive)
ROOT
ATOM      1  C   UNL d   1       2.440   1.696   1.036  0.00  0.00     0.077 C 
ATOM      2  C1  UNL d   1       2.026   2.446  -0.195  0.00  0.00    -0.074 A 
ATOM      3  C2  UNL d   1       2.955   2.758  -1.192  0.00  0.00    -0.005 A 
ATOM      4  C3  UNL d   1       2.554   3.448  -2.336  0.00  0.00     0.006 A 
ATOM      5  C4  UNL d   1       1.222   3.833  -2.493  0.00  0.00    -0.005 A 
ATOM      6  C5  UNL d   1       0.278   3.529  -1.506  0.00  0.00    -0.074 A 
ATOM      7  C6  UNL d   1      -1.159   3.927  -1.664  0.00  0.00     0.077 C 
ATOM      8  C7  UNL d   1       0.688   2.829  -0.363  0.00  0.00    -0.001 A 
ENDROOT
TORSDOF 0
ENDMDL
