MODEL 1
REMARK minimizedAffinity 21.7635803
REMARK minimizedRMSD -1
REMARK  0 active torsions:
REMARK  status: ('A' for Active; 'I' for Inactive)
ROOT
ATOM      1  C   UNL d   1       0.224  -0.031   5.215  0.00  0.00     0.077 C 
ATOM      2  C1  UNL d   1       0.410  -0.356   3.762  0.00  0.00    -0.074 A 
ATOM      3  C2  UNL d   1       1.429   0.244   3.016  0.00  0.00    -0.005 A 
ATOM      4  C3  UNL d   1       1.595  -0.076   1.668  0.00  0.00     0.006 A 
ATOM      5  C4  UNL d   1       0.745  -0.997   1.054  0.00  0.00    -0.005 A 
ATOM      6  C5  UNL d   1      -0.279  -1.607   1.785  0.00  0.00    -0.074 A 
ATOM      7  C6  UNL d   1      -1.195  -2.607   1.143  0.00  0.00     0.077 C 
ATOM      8  C7  UNL d   1      -0.435  -1.286   3.140  0.00  0.00    -0.001 A 
ENDROOT
TORSDOF 0
ENDMDL
