MODEL 1
REMARK minimizedAffinity 15.9245939
REMARK minimizedRMSD -1
REMARK  0 active torsions:
REMARK  status: ('A' for Active; 'I' for Inactive)
ROOT
ATOM      1  C   UNL d   1      -1.919  -5.500   2.514  0.00  0.00     0.077 C 
ATOM      2  C1  UNL d   1      -1.570  -4.081   2.173  0.00  0.00    -0.074 A 
ATOM      3  C2  UNL d   1      -1.664  -3.614   0.858  0.00  0.00    -0.005 A 
ATOM      4  C3  UNL d   1      -1.345  -2.290   0.558  0.00  0.00     0.006 A 
ATOM      5  C4  UNL d   1      -0.929  -1.421   1.567  0.00  0.00    -0.005 A 
ATOM      6  C5  UNL d   1      -0.830  -1.870   2.888  0.00  0.00    -0.074 A 
ATOM      7  C6  UNL d   1      -0.394  -0.946   3.987  0.00  0.00     0.077 C 
ATOM      8  C7  UNL d   1      -1.159  -3.200   3.183  0.00  0.00    -0.001 A 
ENDROOT
TORSDOF 0
ENDMDL
