MODEL 1
REMARK minimizedAffinity 16.3306427
REMARK minimizedRMSD -1
REMARK  0 active torsions:
REMARK  status: ('A' for Active; 'I' for Inactive)
ROOT
ATOM      1  C   UNL d   1      -5.957  -3.394  -3.533  0.00  0.00     0.077 C 
ATOM      2  C1  UNL d   1      -4.543  -2.996  -3.233  0.00  0.00    -0.074 A 
ATOM      3  C2  UNL d   1      -3.589  -2.907  -4.252  0.00  0.00    -0.005 A 
ATOM      4  C3  UNL d   1      -2.280  -2.526  -3.959  0.00  0.00     0.006 A 
ATOM      5  C4  UNL d   1      -1.911  -2.231  -2.646  0.00  0.00    -0.005 A 
ATOM      6  C5  UNL d   1      -2.850  -2.314  -1.614  0.00  0.00    -0.074 A 
ATOM      7  C6  UNL d   1      -2.473  -1.991  -0.199  0.00  0.00     0.077 C 
ATOM      8  C7  UNL d   1      -4.166  -2.691  -1.917  0.00  0.00    -0.001 A 
ENDROOT
TORSDOF 0
ENDMDL
