MODEL 1
REMARK minimizedAffinity 8.79070568
REMARK minimizedRMSD -1
REMARK  0 active torsions:
REMARK  status: ('A' for Active; 'I' for Inactive)
ROOT
ATOM      1  C   UNL d   1      -5.622  -2.746  -5.275  0.00  0.00     0.077 C 
ATOM      2  C1  UNL d   1      -5.059  -3.524  -4.123  0.00  0.00    -0.074 A 
ATOM      3  C2  UNL d   1      -5.640  -4.730  -3.718  0.00  0.00    -0.005 A 
ATOM      4  C3  UNL d   1      -5.100  -5.447  -2.651  0.00  0.00     0.006 A 
ATOM      5  C4  UNL d   1      -3.975  -4.967  -1.979  0.00  0.00    -0.005 A 
ATOM      6  C5  UNL d   1      -3.380  -3.763  -2.371  0.00  0.00    -0.074 A 
ATOM      7  C6  UNL d   1      -2.165  -3.238  -1.666  0.00  0.00     0.077 C 
ATOM      8  C7  UNL d   1      -3.925  -3.052  -3.448  0.00  0.00    -0.001 A 
ENDROOT
TORSDOF 0
ENDMDL
