MODEL 1
REMARK minimizedAffinity 5.05784416
REMARK minimizedRMSD -1
REMARK  0 active torsions:
REMARK  status: ('A' for Active; 'I' for Inactive)
ROOT
ATOM      1  O1  BZF d   1       1.425  -5.444   4.417  0.00  0.00    -0.204 OA
ATOM      2  C2  BZF d   1       2.029  -4.267   4.020  0.00  0.00     0.174 A 
ATOM      3  C3  BZF d   1       1.221  -3.213   4.250  0.00  0.00    -0.012 A 
ATOM      4  C3A BZF d   1       0.074  -3.755   4.912  0.00  0.00    -0.107 A 
ATOM      5  C4  BZF d   1      -1.071  -3.203   5.410  0.00  0.00     0.055 A 
ATOM      6  C5  BZF d   1      -2.025  -4.018   5.931  0.00  0.00    -0.016 A 
ATOM      7  C6  BZF d   1      -1.870  -5.388   5.965  0.00  0.00     0.022 A 
ATOM      8  C7  BZF d   1      -0.749  -5.982   5.488  0.00  0.00     0.029 A 
ATOM      9  C7A BZF d   1       0.232  -5.158   4.991  0.00  0.00     0.058 A 
ENDROOT
TORSDOF 0
ENDMDL
