MODEL 1
REMARK minimizedAffinity 13.4098215
REMARK minimizedRMSD -1
REMARK  0 active torsions:
REMARK  status: ('A' for Active; 'I' for Inactive)
ROOT
ATOM      1  O1  BZF d   1      -1.382  -0.960   0.390  0.00  0.00    -0.204 OA
ATOM      2  C2  BZF d   1      -0.550  -0.883  -0.710  0.00  0.00     0.174 A 
ATOM      3  C3  BZF d   1      -1.257  -0.625  -1.828  0.00  0.00    -0.012 A 
ATOM      4  C3A BZF d   1      -2.606  -0.443  -1.386  0.00  0.00    -0.107 A 
ATOM      5  C4  BZF d   1      -3.773  -0.146  -2.031  0.00  0.00     0.055 A 
ATOM      6  C5  BZF d   1      -4.930  -0.111  -1.319  0.00  0.00    -0.016 A 
ATOM      7  C6  BZF d   1      -4.957  -0.372   0.036  0.00  0.00     0.022 A 
ATOM      8  C7  BZF d   1      -3.825  -0.666   0.719  0.00  0.00     0.029 A 
ATOM      9  C7A BZF d   1      -2.649  -0.670   0.009  0.00  0.00     0.058 A 
ENDROOT
TORSDOF 0
ENDMDL
