MODEL 1
REMARK minimizedAffinity 9.47681522
REMARK minimizedRMSD -1
REMARK  0 active torsions:
REMARK  status: ('A' for Active; 'I' for Inactive)
ROOT
ATOM      1  O1  BZF d   1       2.039  -3.757  -2.074  0.00  0.00    -0.204 OA
ATOM      2  C2  BZF d   1       3.358  -3.428  -1.831  0.00  0.00     0.174 A 
ATOM      3  C3  BZF d   1       3.450  -2.214  -1.252  0.00  0.00    -0.012 A 
ATOM      4  C3A BZF d   1       2.098  -1.795  -1.041  0.00  0.00    -0.107 A 
ATOM      5  C4  BZF d   1       1.536  -0.680  -0.487  0.00  0.00     0.055 A 
ATOM      6  C5  BZF d   1       0.184  -0.546  -0.501  0.00  0.00    -0.016 A 
ATOM      7  C6  BZF d   1      -0.635  -1.503  -1.062  0.00  0.00     0.022 A 
ATOM      8  C7  BZF d   1      -0.124  -2.629  -1.619  0.00  0.00     0.029 A 
ATOM      9  C7A BZF d   1       1.240  -2.782  -1.577  0.00  0.00     0.058 A 
ENDROOT
TORSDOF 0
ENDMDL
