MODEL 1
REMARK minimizedAffinity 20.1495018
REMARK minimizedRMSD -1
REMARK  0 active torsions:
REMARK  status: ('A' for Active; 'I' for Inactive)
ROOT
ATOM      1  O1  BZF d   1      -5.372  -0.024   2.018  0.00  0.00    -0.204 OA
ATOM      2  C2  BZF d   1      -4.495   1.013   2.270  0.00  0.00     0.174 A 
ATOM      3  C3  BZF d   1      -3.835   1.365   1.148  0.00  0.00    -0.012 A 
ATOM      4  C3A BZF d   1      -4.398   0.556   0.111  0.00  0.00    -0.107 A 
ATOM      5  C4  BZF d   1      -4.168   0.456  -1.231  0.00  0.00     0.055 A 
ATOM      6  C5  BZF d   1      -4.835  -0.486  -1.948  0.00  0.00    -0.016 A 
ATOM      7  C6  BZF d   1      -5.735  -1.347  -1.354  0.00  0.00     0.022 A 
ATOM      8  C7  BZF d   1      -6.000  -1.284  -0.026  0.00  0.00     0.029 A 
ATOM      9  C7A BZF d   1      -5.351  -0.311   0.694  0.00  0.00     0.058 A 
ENDROOT
TORSDOF 0
ENDMDL
