MODEL 1
REMARK minimizedAffinity 7.14167309
REMARK minimizedRMSD -1
REMARK  0 active torsions:
REMARK  status: ('A' for Active; 'I' for Inactive)
ROOT
ATOM      1  O1  BZF d   1       1.442  -2.280  -0.433  0.00  0.00    -0.204 OA
ATOM      2  C2  BZF d   1       2.240  -1.549   0.426  0.00  0.00     0.174 A 
ATOM      3  C3  BZF d   1       1.811  -0.273   0.509  0.00  0.00    -0.012 A 
ATOM      4  C3A BZF d   1       0.619  -0.225  -0.281  0.00  0.00    -0.107 A 
ATOM      5  C4  BZF d   1      -0.273   0.766  -0.576  0.00  0.00     0.055 A 
ATOM      6  C5  BZF d   1      -1.291   0.505  -1.438  0.00  0.00    -0.016 A 
ATOM      7  C6  BZF d   1      -1.444  -0.734  -2.026  0.00  0.00     0.022 A 
ATOM      8  C7  BZF d   1      -0.587  -1.750  -1.761  0.00  0.00     0.029 A 
ATOM      9  C7A BZF d   1       0.423  -1.498  -0.865  0.00  0.00     0.058 A 
ENDROOT
TORSDOF 0
ENDMDL
