MODEL 1
REMARK minimizedAffinity 7.252707
REMARK minimizedRMSD -1
REMARK  0 active torsions:
REMARK  status: ('A' for Active; 'I' for Inactive)
ROOT
ATOM      1  O1  BZF d   1       0.413   0.586   0.122  0.00  0.00    -0.204 OA
ATOM      2  C2  BZF d   1       1.505   0.014   0.746  0.00  0.00     0.174 A 
ATOM      3  C3  BZF d   1       1.654  -1.272   0.366  0.00  0.00    -0.012 A 
ATOM      4  C3A BZF d   1       0.644  -1.491  -0.623  0.00  0.00    -0.107 A 
ATOM      5  C4  BZF d   1       0.295  -2.569  -1.386  0.00  0.00     0.055 A 
ATOM      6  C5  BZF d   1      -0.787  -2.478  -2.203  0.00  0.00    -0.016 A 
ATOM      7  C6  BZF d   1      -1.544  -1.327  -2.279  0.00  0.00     0.022 A 
ATOM      8  C7  BZF d   1      -1.234  -0.230  -1.546  0.00  0.00     0.029 A 
ATOM      9  C7A BZF d   1      -0.122  -0.309  -0.744  0.00  0.00     0.058 A 
ENDROOT
TORSDOF 0
ENDMDL
