MODEL 1
REMARK minimizedAffinity 10.8757334
REMARK minimizedRMSD -1
REMARK  0 active torsions:
REMARK  status: ('A' for Active; 'I' for Inactive)
ROOT
ATOM      1  O1  BZF d   1       3.340  -2.176  -0.961  0.00  0.00    -0.204 OA
ATOM      2  C2  BZF d   1       3.625  -3.056  -1.987  0.00  0.00     0.174 A 
ATOM      3  C3  BZF d   1       2.500  -3.404  -2.645  0.00  0.00    -0.012 A 
ATOM      4  C3A BZF d   1       1.459  -2.626  -2.047  0.00  0.00    -0.107 A 
ATOM      5  C4  BZF d   1       0.117  -2.516  -2.279  0.00  0.00     0.055 A 
ATOM      6  C5  BZF d   1      -0.630  -1.720  -1.470  0.00  0.00    -0.016 A 
ATOM      7  C6  BZF d   1      -0.070  -1.023  -0.419  0.00  0.00     0.022 A 
ATOM      8  C7  BZF d   1       1.257  -1.096  -0.153  0.00  0.00     0.029 A 
ATOM      9  C7A BZF d   1       2.020  -1.874  -0.989  0.00  0.00     0.058 A 
ENDROOT
TORSDOF 0
ENDMDL
