MODEL 1
REMARK minimizedAffinity 9.68698025
REMARK minimizedRMSD -1
REMARK  0 active torsions:
REMARK  status: ('A' for Active; 'I' for Inactive)
ROOT
ATOM      1  O1  BZF d   1       5.950   4.427   4.232  0.00  0.00    -0.204 OA
ATOM      2  C2  BZF d   1       5.844   3.124   3.786  0.00  0.00     0.174 A 
ATOM      3  C3  BZF d   1       4.656   2.592   4.141  0.00  0.00    -0.012 A 
ATOM      4  C3A BZF d   1       3.941   3.658   4.773  0.00  0.00    -0.107 A 
ATOM      5  C4  BZF d   1       2.695   3.755   5.325  0.00  0.00     0.055 A 
ATOM      6  C5  BZF d   1       2.328   4.917   5.925  0.00  0.00    -0.016 A 
ATOM      7  C6  BZF d   1       3.180   6.000   5.995  0.00  0.00     0.022 A 
ATOM      8  C7  BZF d   1       4.423   5.953   5.457  0.00  0.00     0.029 A 
ATOM      9  C7A BZF d   1       4.786   4.791   4.821  0.00  0.00     0.058 A 
ENDROOT
TORSDOF 0
ENDMDL
