MODEL 1
REMARK minimizedAffinity 6.38348341
REMARK minimizedRMSD -1
REMARK  1 active torsions:
REMARK  status: ('A' for Active; 'I' for Inactive)
REMARK    1  A    between atoms: N_2  and  C1_3 
ROOT
ATOM      1  C1  UNL d   1      -1.752   3.202   0.194  0.00  0.00     0.143 A 
ATOM      2  C2  UNL d   1      -1.845   2.241  -0.818  0.00  0.00    -0.057 A 
ATOM      3  C3  UNL d   1      -0.943   2.225  -1.889  0.00  0.00     0.033 A 
ATOM      4  C4  UNL d   1       0.053   3.191  -1.982  0.00  0.00    -0.042 A 
ATOM      5  C5  UNL d   1       0.149   4.171  -1.001  0.00  0.00     0.033 A 
ATOM      6  C6  UNL d   1      -0.750   4.177   0.070  0.00  0.00    -0.057 A 
ENDROOT
BRANCH   1   7
ATOM      7  N   UNL d   1      -2.677   3.331   1.232  0.00  0.00    -0.732 N 
ATOM      8  C   UNL d   1      -3.480   4.528   1.360  0.00  0.00     0.284 C 
ATOM      9  H3  UNL d   1      -3.187   2.468   1.407  0.00  0.00     0.395 HD
ENDBRANCH   1   7
TORSDOF 1
ENDMDL
