MODEL 1
REMARK minimizedAffinity 9.00268745
REMARK minimizedRMSD -1
REMARK  1 active torsions:
REMARK  status: ('A' for Active; 'I' for Inactive)
REMARK    1  A    between atoms: N_2  and  C1_3 
ROOT
ATOM      1  C1  UNL d   1      -1.771   2.427  -2.018  0.00  0.00     0.143 A 
ATOM      2  C2  UNL d   1      -0.387   2.250  -2.119  0.00  0.00    -0.057 A 
ATOM      3  C3  UNL d   1       0.450   2.425  -1.010  0.00  0.00     0.033 A 
ATOM      4  C4  UNL d   1      -0.082   2.810   0.217  0.00  0.00    -0.042 A 
ATOM      5  C5  UNL d   1      -1.452   3.015   0.334  0.00  0.00     0.033 A 
ATOM      6  C6  UNL d   1      -2.283   2.832  -0.776  0.00  0.00    -0.057 A 
ENDROOT
BRANCH   1   7
ATOM      7  N   UNL d   1      -2.644   2.364  -3.107  0.00  0.00    -0.732 N 
ATOM      8  C   UNL d   1      -3.425   1.172  -3.357  0.00  0.00     0.284 C 
ATOM      9  H3  UNL d   1      -3.155   3.233  -3.246  0.00  0.00     0.395 HD
ENDBRANCH   1   7
TORSDOF 1
ENDMDL
