MODEL 1
REMARK minimizedAffinity 10.4968166
REMARK minimizedRMSD -1
REMARK  1 active torsions:
REMARK  status: ('A' for Active; 'I' for Inactive)
REMARK    1  A    between atoms: N_2  and  C1_3 
ROOT
ATOM      1  C1  UNL d   1      -1.683   3.538  -3.583  0.00  0.00     0.143 A 
ATOM      2  C2  UNL d   1      -0.691   2.884  -2.845  0.00  0.00    -0.057 A 
ATOM      3  C3  UNL d   1      -1.012   1.865  -1.940  0.00  0.00     0.033 A 
ATOM      4  C4  UNL d   1      -2.339   1.501  -1.735  0.00  0.00    -0.042 A 
ATOM      5  C5  UNL d   1      -3.344   2.155  -2.440  0.00  0.00     0.033 A 
ATOM      6  C6  UNL d   1      -3.016   3.167  -3.347  0.00  0.00    -0.057 A 
ENDROOT
BRANCH   1   7
ATOM      7  N   UNL d   1      -1.436   4.625  -4.425  0.00  0.00    -0.732 N 
ATOM      8  C   UNL d   1      -0.201   5.373  -4.321  0.00  0.00     0.284 C 
ATOM      9  H3  UNL d   1      -1.738   4.453  -5.381  0.00  0.00     0.395 HD
ENDBRANCH   1   7
TORSDOF 1
ENDMDL
