MODEL 1
REMARK minimizedAffinity 6.72172689
REMARK minimizedRMSD -1
REMARK  1 active torsions:
REMARK  status: ('A' for Active; 'I' for Inactive)
REMARK    1  A    between atoms: N_2  and  C1_3 
ROOT
ATOM      1  C1  UNL d   1      -0.192   2.836   0.628  0.00  0.00     0.143 A 
ATOM      2  C2  UNL d   1      -0.868   2.055  -0.316  0.00  0.00    -0.057 A 
ATOM      3  C3  UNL d   1      -0.981   2.465  -1.650  0.00  0.00     0.033 A 
ATOM      4  C4  UNL d   1      -0.443   3.681  -2.058  0.00  0.00    -0.042 A 
ATOM      5  C5  UNL d   1       0.212   4.484  -1.132  0.00  0.00     0.033 A 
ATOM      6  C6  UNL d   1       0.327   4.067   0.198  0.00  0.00    -0.057 A 
ENDROOT
BRANCH   1   7
ATOM      7  N   UNL d   1      -0.131   2.530   1.990  0.00  0.00    -0.732 N 
ATOM      8  C   UNL d   1      -1.320   2.127   2.709  0.00  0.00     0.284 C 
ATOM      9  H3  UNL d   1       0.702   1.997   2.232  0.00  0.00     0.395 HD
ENDBRANCH   1   7
TORSDOF 1
ENDMDL
