MODEL 1
REMARK minimizedAffinity 6.5384798
REMARK minimizedRMSD -1
REMARK  1 active torsions:
REMARK  status: ('A' for Active; 'I' for Inactive)
REMARK    1  A    between atoms: N_2  and  C1_3 
ROOT
ATOM      1  C1  UNL d   1      -1.396   2.105  -1.216  0.00  0.00     0.143 A 
ATOM      2  C2  UNL d   1      -0.849   3.351  -1.539  0.00  0.00    -0.057 A 
ATOM      3  C3  UNL d   1       0.151   3.932  -0.750  0.00  0.00     0.033 A 
ATOM      4  C4  UNL d   1       0.603   3.288   0.396  0.00  0.00    -0.042 A 
ATOM      5  C5  UNL d   1       0.056   2.059   0.751  0.00  0.00     0.033 A 
ATOM      6  C6  UNL d   1      -0.938   1.481  -0.045  0.00  0.00    -0.057 A 
ENDROOT
BRANCH   1   7
ATOM      7  N   UNL d   1      -2.462   1.521  -1.905  0.00  0.00    -0.732 N 
ATOM      8  C   UNL d   1      -3.472   0.766  -1.196  0.00  0.00     0.284 C 
ATOM      9  H3  UNL d   1      -2.830   2.125  -2.635  0.00  0.00     0.395 HD
ENDBRANCH   1   7
TORSDOF 1
ENDMDL
