MODEL 1
REMARK minimizedAffinity 1.27800739
REMARK minimizedRMSD -1
REMARK  1 active torsions:
REMARK  status: ('A' for Active; 'I' for Inactive)
REMARK    1  A    between atoms: N_2  and  C1_3 
ROOT
ATOM      1  C1  UNL d   1      -5.629  -1.950   4.283  0.00  0.00     0.143 A 
ATOM      2  C2  UNL d   1      -5.288  -1.502   3.002  0.00  0.00    -0.057 A 
ATOM      3  C3  UNL d   1      -5.271  -0.137   2.690  0.00  0.00     0.033 A 
ATOM      4  C4  UNL d   1      -5.624   0.806   3.650  0.00  0.00    -0.042 A 
ATOM      5  C5  UNL d   1      -5.991   0.383   4.922  0.00  0.00     0.033 A 
ATOM      6  C6  UNL d   1      -6.000  -0.981   5.229  0.00  0.00    -0.057 A 
ENDROOT
BRANCH   1   7
ATOM      7  N   UNL d   1      -5.760  -3.297   4.627  0.00  0.00    -0.732 N 
ATOM      8  C   UNL d   1      -5.999  -3.688   6.000  0.00  0.00     0.284 C 
ATOM      9  H3  UNL d   1      -6.304  -3.821   3.945  0.00  0.00     0.395 HD
ENDBRANCH   1   7
TORSDOF 1
ENDMDL
