MODEL 1
REMARK minimizedAffinity 12.6159029
REMARK minimizedRMSD -1
REMARK  1 active torsions:
REMARK  status: ('A' for Active; 'I' for Inactive)
REMARK    1  A    between atoms: N_2  and  C1_3 
ROOT
ATOM      1  C1  UNL d   1      -4.421   4.139   0.430  0.00  0.00     0.143 A 
ATOM      2  C2  UNL d   1      -5.227   5.067  -0.238  0.00  0.00    -0.057 A 
ATOM      3  C3  UNL d   1      -5.998   5.999   0.468  0.00  0.00     0.033 A 
ATOM      4  C4  UNL d   1      -6.000   5.998   1.859  0.00  0.00    -0.042 A 
ATOM      5  C5  UNL d   1      -5.226   5.068   2.543  0.00  0.00     0.033 A 
ATOM      6  C6  UNL d   1      -4.452   4.145   1.833  0.00  0.00    -0.057 A 
ENDROOT
BRANCH   1   7
ATOM      7  N   UNL d   1      -3.708   3.124  -0.213  0.00  0.00    -0.732 N 
ATOM      8  C   UNL d   1      -4.250   1.785  -0.303  0.00  0.00     0.284 C 
ATOM      9  H3  UNL d   1      -3.255   3.447  -1.065  0.00  0.00     0.395 HD
ENDBRANCH   1   7
TORSDOF 1
ENDMDL
