MODEL 1
REMARK minimizedAffinity 7.15041161
REMARK minimizedRMSD -1
REMARK  1 active torsions:
REMARK  status: ('A' for Active; 'I' for Inactive)
REMARK    1  A    between atoms: N_2  and  C1_3 
ROOT
ATOM      1  C1  UNL d   1      -3.211  -2.382   1.315  0.00  0.00     0.143 A 
ATOM      2  C2  UNL d   1      -3.220  -1.210   0.552  0.00  0.00    -0.057 A 
ATOM      3  C3  UNL d   1      -2.073  -0.775  -0.124  0.00  0.00     0.033 A 
ATOM      4  C4  UNL d   1      -0.886  -1.492  -0.025  0.00  0.00    -0.042 A 
ATOM      5  C5  UNL d   1      -0.847  -2.647   0.749  0.00  0.00     0.033 A 
ATOM      6  C6  UNL d   1      -1.997  -3.080   1.416  0.00  0.00    -0.057 A 
ENDROOT
BRANCH   1   7
ATOM      7  N   UNL d   1      -4.290  -2.814   2.090  0.00  0.00    -0.732 N 
ATOM      8  C   UNL d   1      -5.641  -2.410   1.763  0.00  0.00     0.284 C 
ATOM      9  H3  UNL d   1      -4.204  -3.789   2.367  0.00  0.00     0.395 HD
ENDBRANCH   1   7
TORSDOF 1
ENDMDL
