MODEL 1
REMARK minimizedAffinity 2.240556
REMARK minimizedRMSD -1
REMARK  1 active torsions:
REMARK  status: ('A' for Active; 'I' for Inactive)
REMARK    1  A    between atoms: N_2  and  C1_3 
ROOT
ATOM      1  C1  UNL d   1       3.613   5.203   5.827  0.00  0.00     0.143 A 
ATOM      2  C2  UNL d   1       3.590   3.804   5.820  0.00  0.00    -0.057 A 
ATOM      3  C3  UNL d   1       4.752   3.060   5.580  0.00  0.00     0.033 A 
ATOM      4  C4  UNL d   1       5.955   3.705   5.312  0.00  0.00    -0.042 A 
ATOM      5  C5  UNL d   1       5.995   5.095   5.289  0.00  0.00     0.033 A 
ATOM      6  C6  UNL d   1       4.833   5.832   5.537  0.00  0.00    -0.057 A 
ENDROOT
BRANCH   1   7
ATOM      7  N   UNL d   1       2.472   5.998   5.962  0.00  0.00    -0.732 N 
ATOM      8  C   UNL d   1       1.448   5.998   4.940  0.00  0.00     0.284 C 
ATOM      9  H3  UNL d   1       2.111   6.000   6.913  0.00  0.00     0.395 HD
ENDBRANCH   1   7
TORSDOF 1
ENDMDL
