MODEL 1
REMARK minimizedAffinity 14.5872078
REMARK minimizedRMSD -1
REMARK  1 active torsions:
REMARK  status: ('A' for Active; 'I' for Inactive)
REMARK    1  A    between atoms: N_2  and  C1_3 
ROOT
ATOM      1  C1  UNL d   1       3.740   3.524   5.777  0.00  0.00     0.143 A 
ATOM      2  C2  UNL d   1       5.139   3.561   5.801  0.00  0.00    -0.057 A 
ATOM      3  C3  UNL d   1       5.831   4.772   5.923  0.00  0.00     0.033 A 
ATOM      4  C4  UNL d   1       5.135   5.974   5.996  0.00  0.00    -0.042 A 
ATOM      5  C5  UNL d   1       3.746   5.963   5.950  0.00  0.00     0.033 A 
ATOM      6  C6  UNL d   1       3.060   4.751   5.834  0.00  0.00    -0.057 A 
ENDROOT
BRANCH   1   7
ATOM      7  N   UNL d   1       2.996   2.363   5.558  0.00  0.00    -0.732 N 
ATOM      8  C   UNL d   1       3.657   1.106   5.278  0.00  0.00     0.284 C 
ATOM      9  H3  UNL d   1       2.204   2.284   6.192  0.00  0.00     0.395 HD
ENDBRANCH   1   7
TORSDOF 1
ENDMDL
