MODEL 1
REMARK minimizedAffinity 0.151749074
REMARK minimizedRMSD -1
REMARK  1 active torsions:
REMARK  status: ('A' for Active; 'I' for Inactive)
REMARK    1  A    between atoms: N_2  and  C1_3 
ROOT
ATOM      1  C1  UNL d   1       3.979   3.730   4.342  0.00  0.00     0.143 A 
ATOM      2  C2  UNL d   1       5.247   4.239   4.640  0.00  0.00    -0.057 A 
ATOM      3  C3  UNL d   1       5.404   5.354   5.473  0.00  0.00     0.033 A 
ATOM      4  C4  UNL d   1       4.290   5.999   6.000  0.00  0.00    -0.042 A 
ATOM      5  C5  UNL d   1       3.019   5.525   5.696  0.00  0.00     0.033 A 
ATOM      6  C6  UNL d   1       2.869   4.407   4.870  0.00  0.00    -0.057 A 
ENDROOT
BRANCH   1   7
ATOM      7  N   UNL d   1       3.752   2.686   3.442  0.00  0.00    -0.732 N 
ATOM      8  C   UNL d   1       3.029   2.918   2.210  0.00  0.00     0.284 C 
ATOM      9  H3  UNL d   1       4.562   2.078   3.341  0.00  0.00     0.395 HD
ENDBRANCH   1   7
TORSDOF 1
ENDMDL
