MODEL 1
REMARK minimizedAffinity 2.56303549
REMARK minimizedRMSD -1
REMARK  1 active torsions:
REMARK  status: ('A' for Active; 'I' for Inactive)
REMARK    1  A    between atoms: N_2  and  C1_3 
ROOT
ATOM      1  C1  UNL d   1       3.814   4.869   5.543  0.00  0.00     0.143 A 
ATOM      2  C2  UNL d   1       5.211   4.917   5.570  0.00  0.00    -0.057 A 
ATOM      3  C3  UNL d   1       5.974   3.761   5.778  0.00  0.00     0.033 A 
ATOM      4  C4  UNL d   1       5.349   2.537   5.992  0.00  0.00    -0.042 A 
ATOM      5  C5  UNL d   1       3.960   2.470   5.994  0.00  0.00     0.033 A 
ATOM      6  C6  UNL d   1       3.204   3.627   5.780  0.00  0.00    -0.057 A 
ENDROOT
BRANCH   1   7
ATOM      7  N   UNL d   1       2.998   5.998   5.440  0.00  0.00    -0.732 N 
ATOM      8  C   UNL d   1       1.660   5.995   5.992  0.00  0.00     0.284 C 
ATOM      9  H3  UNL d   1       3.511   6.863   5.597  0.00  0.00     0.395 HD
ENDBRANCH   1   7
TORSDOF 1
ENDMDL
