MODEL 1
REMARK minimizedAffinity 4.38186646
REMARK minimizedRMSD -1
REMARK  1 active torsions:
REMARK  status: ('A' for Active; 'I' for Inactive)
REMARK    1  A    between atoms: N_2  and  C1_3 
ROOT
ATOM      1  C1  UNL d   1       4.418   3.466   3.745  0.00  0.00     0.143 A 
ATOM      2  C2  UNL d   1       3.279   3.708   4.520  0.00  0.00    -0.057 A 
ATOM      3  C3  UNL d   1       3.323   4.563   5.628  0.00  0.00     0.033 A 
ATOM      4  C4  UNL d   1       4.518   5.169   5.999  0.00  0.00    -0.042 A 
ATOM      5  C5  UNL d   1       5.669   4.923   5.258  0.00  0.00     0.033 A 
ATOM      6  C6  UNL d   1       5.617   4.074   4.148  0.00  0.00    -0.057 A 
ENDROOT
BRANCH   1   7
ATOM      7  N   UNL d   1       4.461   2.550   2.690  0.00  0.00    -0.732 N 
ATOM      8  C   UNL d   1       3.887   2.880   1.403  0.00  0.00     0.284 C 
ATOM      9  H3  UNL d   1       5.352   2.062   2.635  0.00  0.00     0.395 HD
ENDBRANCH   1   7
TORSDOF 1
ENDMDL
