MODEL 1
REMARK minimizedAffinity 0.936361015
REMARK minimizedRMSD -1
REMARK  1 active torsions:
REMARK  status: ('A' for Active; 'I' for Inactive)
REMARK    1  A    between atoms: N_2  and  C1_3 
ROOT
ATOM      1  C1  UNL d   1       3.604   5.344   5.114  0.00  0.00     0.143 A 
ATOM      2  C2  UNL d   1       4.844   5.990   5.149  0.00  0.00    -0.057 A 
ATOM      3  C3  UNL d   1       6.000   5.321   5.569  0.00  0.00     0.033 A 
ATOM      4  C4  UNL d   1       5.930   3.997   5.992  0.00  0.00    -0.042 A 
ATOM      5  C5  UNL d   1       4.703   3.343   5.990  0.00  0.00     0.033 A 
ATOM      6  C6  UNL d   1       3.554   4.014   5.562  0.00  0.00    -0.057 A 
ENDROOT
BRANCH   1   7
ATOM      7  N   UNL d   1       2.402   5.983   4.800  0.00  0.00    -0.732 N 
ATOM      8  C   UNL d   1       1.307   6.000   5.745  0.00  0.00     0.284 C 
ATOM      9  H3  UNL d   1       2.547   6.867   4.316  0.00  0.00     0.395 HD
ENDBRANCH   1   7
TORSDOF 1
ENDMDL
