MODEL 1
REMARK minimizedAffinity 10.8405075
REMARK minimizedRMSD -1
REMARK  1 active torsions:
REMARK  status: ('A' for Active; 'I' for Inactive)
REMARK    1  A    between atoms: N_2  and  C1_3 
ROOT
ATOM      1  C1  UNL d   1       4.686   3.923   4.060  0.00  0.00     0.143 A 
ATOM      2  C2  UNL d   1       5.894   4.465   4.513  0.00  0.00    -0.057 A 
ATOM      3  C3  UNL d   1       5.918   5.480   5.477  0.00  0.00     0.033 A 
ATOM      4  C4  UNL d   1       4.729   5.993   5.985  0.00  0.00    -0.042 A 
ATOM      5  C5  UNL d   1       3.516   5.487   5.531  0.00  0.00     0.033 A 
ATOM      6  C6  UNL d   1       3.499   4.469   4.573  0.00  0.00    -0.057 A 
ENDROOT
BRANCH   1   7
ATOM      7  N   UNL d   1       4.594   2.982   3.031  0.00  0.00    -0.732 N 
ATOM      8  C   UNL d   1       4.182   3.381   1.702  0.00  0.00     0.284 C 
ATOM      9  H3  UNL d   1       5.361   2.314   3.046  0.00  0.00     0.395 HD
ENDBRANCH   1   7
TORSDOF 1
ENDMDL
