MODEL 1
REMARK minimizedAffinity 15.2332449
REMARK minimizedRMSD -1
REMARK  1 active torsions:
REMARK  status: ('A' for Active; 'I' for Inactive)
REMARK    1  A    between atoms: N_2  and  C1_3 
ROOT
ATOM      1  C1  UNL d   1       3.608   1.981  -1.834  0.00  0.00     0.143 A 
ATOM      2  C2  UNL d   1       3.591   2.762  -0.673  0.00  0.00    -0.057 A 
ATOM      3  C3  UNL d   1       4.743   3.419  -0.223  0.00  0.00     0.033 A 
ATOM      4  C4  UNL d   1       5.943   3.282  -0.912  0.00  0.00    -0.042 A 
ATOM      5  C5  UNL d   1       5.989   2.491  -2.055  0.00  0.00     0.033 A 
ATOM      6  C6  UNL d   1       4.834   1.844  -2.503  0.00  0.00    -0.057 A 
ENDROOT
BRANCH   1   7
ATOM      7  N   UNL d   1       2.521   1.224  -2.278  0.00  0.00    -0.732 N 
ATOM      8  C   UNL d   1       2.359  -0.150  -1.856  0.00  0.00     0.284 C 
ATOM      9  H3  UNL d   1       1.656   1.760  -2.294  0.00  0.00     0.395 HD
ENDBRANCH   1   7
TORSDOF 1
ENDMDL
