MODEL 1
REMARK minimizedAffinity 8.24192905
REMARK minimizedRMSD -1
REMARK  1 active torsions:
REMARK  status: ('A' for Active; 'I' for Inactive)
REMARK    1  A    between atoms: N_2  and  C1_3 
ROOT
ATOM      1  C1  UNL d   1       3.655   4.870   5.725  0.00  0.00     0.143 A 
ATOM      2  C2  UNL d   1       3.186   3.567   5.522  0.00  0.00    -0.057 A 
ATOM      3  C3  UNL d   1       4.069   2.487   5.410  0.00  0.00     0.033 A 
ATOM      4  C4  UNL d   1       5.443   2.695   5.469  0.00  0.00    -0.042 A 
ATOM      5  C5  UNL d   1       5.932   3.984   5.645  0.00  0.00     0.033 A 
ATOM      6  C6  UNL d   1       5.045   5.058   5.763  0.00  0.00    -0.057 A 
ENDROOT
BRANCH   1   7
ATOM      7  N   UNL d   1       2.832   5.998   5.746  0.00  0.00    -0.732 N 
ATOM      8  C   UNL d   1       1.407   5.868   5.963  0.00  0.00     0.284 C 
ATOM      9  H3  UNL d   1       3.257   6.780   6.238  0.00  0.00     0.395 HD
ENDBRANCH   1   7
TORSDOF 1
ENDMDL
