MODEL 1
REMARK minimizedAffinity 18.914196
REMARK minimizedRMSD -1
REMARK  1 active torsions:
REMARK  status: ('A' for Active; 'I' for Inactive)
REMARK    1  A    between atoms: N_2  and  C1_3 
ROOT
ATOM      1  C1  UNL d   1      -3.028   3.537  -3.610  0.00  0.00     0.143 A 
ATOM      2  C2  UNL d   1      -2.792   2.561  -4.584  0.00  0.00    -0.057 A 
ATOM      3  C3  UNL d   1      -2.971   1.200  -4.306  0.00  0.00     0.033 A 
ATOM      4  C4  UNL d   1      -3.361   0.789  -3.036  0.00  0.00    -0.042 A 
ATOM      5  C5  UNL d   1      -3.576   1.740  -2.045  0.00  0.00     0.033 A 
ATOM      6  C6  UNL d   1      -3.403   3.098  -2.330  0.00  0.00    -0.057 A 
ENDROOT
BRANCH   1   7
ATOM      7  N   UNL d   1      -2.773   4.898  -3.795  0.00  0.00    -0.732 N 
ATOM      8  C   UNL d   1      -3.855   5.859  -3.778  0.00  0.00     0.284 C 
ATOM      9  H3  UNL d   1      -1.935   5.207  -3.307  0.00  0.00     0.395 HD
ENDBRANCH   1   7
TORSDOF 1
ENDMDL
