MODEL 1
REMARK minimizedAffinity 2.27020931
REMARK minimizedRMSD -1
REMARK  1 active torsions:
REMARK  status: ('A' for Active; 'I' for Inactive)
REMARK    1  A    between atoms: N_2  and  C1_3 
ROOT
ATOM      1  C1  UNL d   1       4.294   3.184   5.870  0.00  0.00     0.143 A 
ATOM      2  C2  UNL d   1       3.172   4.010   6.000  0.00  0.00    -0.057 A 
ATOM      3  C3  UNL d   1       3.291   5.405   5.964  0.00  0.00     0.033 A 
ATOM      4  C4  UNL d   1       4.540   6.000   5.826  0.00  0.00    -0.042 A 
ATOM      5  C5  UNL d   1       5.671   5.198   5.721  0.00  0.00     0.033 A 
ATOM      6  C6  UNL d   1       5.546   3.806   5.750  0.00  0.00    -0.057 A 
ENDROOT
BRANCH   1   7
ATOM      7  N   UNL d   1       4.254   1.793   5.996  0.00  0.00    -0.732 N 
ATOM      8  C   UNL d   1       2.993   1.084   5.945  0.00  0.00     0.284 C 
ATOM      9  H3  UNL d   1       5.008   1.335   5.491  0.00  0.00     0.395 HD
ENDBRANCH   1   7
TORSDOF 1
ENDMDL
