MODEL 1
REMARK minimizedAffinity 12.2005987
REMARK minimizedRMSD -1
REMARK  1 active torsions:
REMARK  status: ('A' for Active; 'I' for Inactive)
REMARK    1  A    between atoms: N_2  and  C1_3 
ROOT
ATOM      1  C1  UNL d   1       5.126   3.672   4.889  0.00  0.00     0.143 A 
ATOM      2  C2  UNL d   1       5.552   4.905   5.395  0.00  0.00    -0.057 A 
ATOM      3  C3  UNL d   1       4.645   5.811   5.957  0.00  0.00     0.033 A 
ATOM      4  C4  UNL d   1       3.287   5.511   5.998  0.00  0.00    -0.042 A 
ATOM      5  C5  UNL d   1       2.838   4.302   5.478  0.00  0.00     0.033 A 
ATOM      6  C6  UNL d   1       3.749   3.399   4.923  0.00  0.00    -0.057 A 
ENDROOT
BRANCH   1   7
ATOM      7  N   UNL d   1       5.964   2.771   4.228  0.00  0.00    -0.732 N 
ATOM      8  C   UNL d   1       5.443   1.898   3.198  0.00  0.00     0.284 C 
ATOM      9  H3  UNL d   1       6.873   3.173   4.011  0.00  0.00     0.395 HD
ENDBRANCH   1   7
TORSDOF 1
ENDMDL
