MODEL 1
REMARK minimizedAffinity 3.25136018
REMARK minimizedRMSD -1
REMARK  1 active torsions:
REMARK  status: ('A' for Active; 'I' for Inactive)
REMARK    1  A    between atoms: N_2  and  C1_3 
ROOT
ATOM      1  C1  UNL d   1       3.625   4.956   5.642  0.00  0.00     0.143 A 
ATOM      2  C2  UNL d   1       3.238   3.846   4.885  0.00  0.00    -0.057 A 
ATOM      3  C3  UNL d   1       4.171   2.887   4.472  0.00  0.00     0.033 A 
ATOM      4  C4  UNL d   1       5.517   3.038   4.786  0.00  0.00    -0.042 A 
ATOM      5  C5  UNL d   1       5.929   4.147   5.517  0.00  0.00     0.033 A 
ATOM      6  C6  UNL d   1       4.991   5.098   5.932  0.00  0.00    -0.057 A 
ENDROOT
BRANCH   1   7
ATOM      7  N   UNL d   1       2.760   5.994   5.999  0.00  0.00    -0.732 N 
ATOM      8  C   UNL d   1       1.331   5.856   5.823  0.00  0.00     0.284 C 
ATOM      9  H3  UNL d   1       3.031   6.443   6.871  0.00  0.00     0.395 HD
ENDBRANCH   1   7
TORSDOF 1
ENDMDL
