MODEL 1
REMARK minimizedAffinity 4.91041279
REMARK minimizedRMSD -1
REMARK  0 active torsions:
REMARK  status: ('A' for Active; 'I' for Inactive)
ROOT
ATOM      1  C   UNL d   1       0.498   4.193  -0.634  0.00  0.00     0.020 A 
ATOM      2  C1  UNL d   1       1.536   5.106  -0.449  0.00  0.00     0.020 A 
ATOM      3  C2  UNL d   1       2.238   5.131   0.758  0.00  0.00     0.034 A 
ATOM      4  C3  UNL d   1       1.902   4.242   1.785  0.00  0.00     0.017 A 
ATOM      5  C4  UNL d   1       0.861   3.326   1.599  0.00  0.00     0.017 A 
ATOM      6  C5  UNL d   1       0.161   3.305   0.388  0.00  0.00     0.034 A 
ATOM      7 Cl   UNL d   1       0.389   2.198   2.821  0.00  0.00    -0.070 Cl
ATOM      8 Cl1  UNL d   1       2.812   4.328   3.252  0.00  0.00    -0.070 Cl
ENDROOT
TORSDOF 0
ENDMDL
