MODEL 1
REMARK minimizedAffinity 1.4311918
REMARK minimizedRMSD -1
REMARK  0 active torsions:
REMARK  status: ('A' for Active; 'I' for Inactive)
ROOT
ATOM      1  C   UNL d   1       0.442   1.382  -2.311  0.00  0.00     0.020 A 
ATOM      2  C1  UNL d   1      -0.342   2.227  -1.528  0.00  0.00     0.020 A 
ATOM      3  C2  UNL d   1      -1.360   1.696  -0.732  0.00  0.00     0.034 A 
ATOM      4  C3  UNL d   1      -1.595   0.317  -0.718  0.00  0.00     0.017 A 
ATOM      5  C4  UNL d   1      -0.807  -0.531  -1.504  0.00  0.00     0.017 A 
ATOM      6  C5  UNL d   1       0.211   0.006  -2.299  0.00  0.00     0.034 A 
ATOM      7 Cl   UNL d   1      -1.037  -2.243  -1.539  0.00  0.00    -0.070 Cl
ATOM      8 Cl1  UNL d   1      -2.869  -0.271   0.290  0.00  0.00    -0.070 Cl
ENDROOT
TORSDOF 0
ENDMDL
