MODEL 1
REMARK minimizedAffinity -2.06359601
REMARK minimizedRMSD -1
REMARK  0 active torsions:
REMARK  status: ('A' for Active; 'I' for Inactive)
ROOT
ATOM      1  C   UNL d   1      -4.088   3.018  -5.199  0.00  0.00     0.020 A 
ATOM      2  C1  UNL d   1      -5.423   3.382  -5.028  0.00  0.00     0.020 A 
ATOM      3  C2  UNL d   1      -5.993   3.365  -3.753  0.00  0.00     0.034 A 
ATOM      4  C3  UNL d   1      -5.228   2.984  -2.645  0.00  0.00     0.017 A 
ATOM      5  C4  UNL d   1      -3.888   2.619  -2.818  0.00  0.00     0.017 A 
ATOM      6  C5  UNL d   1      -3.323   2.638  -4.096  0.00  0.00     0.034 A 
ATOM      7 Cl   UNL d   1      -2.881   2.137  -1.498  0.00  0.00    -0.070 Cl
ATOM      8 Cl1  UNL d   1      -5.998   2.987  -1.098  0.00  0.00    -0.070 Cl
ENDROOT
TORSDOF 0
ENDMDL
