MODEL 1
REMARK minimizedAffinity -0.802333534
REMARK minimizedRMSD -1
REMARK  0 active torsions:
REMARK  status: ('A' for Active; 'I' for Inactive)
ROOT
ATOM      1  C   UNL d   1      -1.904  -0.574  -1.125  0.00  0.00     0.020 A 
ATOM      2  C1  UNL d   1      -1.423  -1.354  -2.175  0.00  0.00     0.020 A 
ATOM      3  C2  UNL d   1      -1.528  -0.896  -3.490  0.00  0.00     0.034 A 
ATOM      4  C3  UNL d   1      -2.115   0.346  -3.758  0.00  0.00     0.017 A 
ATOM      5  C4  UNL d   1      -2.598   1.129  -2.703  0.00  0.00     0.017 A 
ATOM      6  C5  UNL d   1      -2.490   0.665  -1.388  0.00  0.00     0.034 A 
ATOM      7 Cl   UNL d   1      -3.335   2.671  -2.955  0.00  0.00    -0.070 Cl
ATOM      8 Cl1  UNL d   1      -2.212   0.850  -5.408  0.00  0.00    -0.070 Cl
ENDROOT
TORSDOF 0
ENDMDL
