MODEL 1
REMARK minimizedAffinity 3.67529869
REMARK minimizedRMSD -1
REMARK  0 active torsions:
REMARK  status: ('A' for Active; 'I' for Inactive)
ROOT
ATOM      1  C   UNL d   1       0.144  -4.101  -0.658  0.00  0.00     0.020 A 
ATOM      2  C1  UNL d   1       1.096  -3.084  -0.705  0.00  0.00     0.020 A 
ATOM      3  C2  UNL d   1       1.154  -2.232  -1.811  0.00  0.00     0.034 A 
ATOM      4  C3  UNL d   1       0.258  -2.397  -2.874  0.00  0.00     0.017 A 
ATOM      5  C4  UNL d   1      -0.697  -3.419  -2.826  0.00  0.00     0.017 A 
ATOM      6  C5  UNL d   1      -0.750  -4.269  -1.716  0.00  0.00     0.034 A 
ATOM      7 Cl   UNL d   1      -1.835  -3.685  -4.099  0.00  0.00    -0.070 Cl
ATOM      8 Cl1  UNL d   1       0.387  -1.308  -4.209  0.00  0.00    -0.070 Cl
ENDROOT
TORSDOF 0
ENDMDL
