MODEL 1
REMARK minimizedAffinity 2.57902503
REMARK minimizedRMSD -1
REMARK  0 active torsions:
REMARK  status: ('A' for Active; 'I' for Inactive)
ROOT
ATOM      1  C   UNL d   1      -0.076   2.913  -0.599  0.00  0.00     0.020 A 
ATOM      2  C1  UNL d   1       0.134   1.911  -1.545  0.00  0.00     0.020 A 
ATOM      3  C2  UNL d   1       0.947   0.818  -1.236  0.00  0.00     0.034 A 
ATOM      4  C3  UNL d   1       1.553   0.726   0.022  0.00  0.00     0.017 A 
ATOM      5  C4  UNL d   1       1.342   1.733   0.971  0.00  0.00     0.017 A 
ATOM      6  C5  UNL d   1       0.526   2.824   0.656  0.00  0.00     0.034 A 
ATOM      7 Cl   UNL d   1       2.055   1.688   2.545  0.00  0.00    -0.070 Cl
ATOM      8 Cl1  UNL d   1       2.546  -0.653   0.337  0.00  0.00    -0.070 Cl
ENDROOT
TORSDOF 0
ENDMDL
