MODEL 1
REMARK minimizedAffinity 9.8340807
REMARK minimizedRMSD -1
REMARK  0 active torsions:
REMARK  status: ('A' for Active; 'I' for Inactive)
ROOT
ATOM      1  C   UNL d   1      -0.815  -4.495  -1.374  0.00  0.00     0.020 A 
ATOM      2  C1  UNL d   1       0.057  -5.436  -0.829  0.00  0.00     0.020 A 
ATOM      3  C2  UNL d   1       1.291  -5.030  -0.318  0.00  0.00     0.034 A 
ATOM      4  C3  UNL d   1       1.657  -3.679  -0.351  0.00  0.00     0.017 A 
ATOM      5  C4  UNL d   1       0.781  -2.735  -0.899  0.00  0.00     0.017 A 
ATOM      6  C5  UNL d   1      -0.454  -3.148  -1.409  0.00  0.00     0.034 A 
ATOM      7 Cl   UNL d   1       1.162  -1.051  -0.975  0.00  0.00    -0.070 Cl
ATOM      8 Cl1  UNL d   1       3.199  -3.248   0.299  0.00  0.00    -0.070 Cl
ENDROOT
TORSDOF 0
ENDMDL
