MODEL 1
REMARK minimizedAffinity 3.23210359
REMARK minimizedRMSD -1
REMARK  0 active torsions:
REMARK  status: ('A' for Active; 'I' for Inactive)
ROOT
ATOM      1  C   UNL d   1      -0.688  -4.107  -2.496  0.00  0.00     0.020 A 
ATOM      2  C1  UNL d   1      -0.041  -5.048  -1.696  0.00  0.00     0.020 A 
ATOM      3  C2  UNL d   1       0.994  -4.650  -0.847  0.00  0.00     0.034 A 
ATOM      4  C3  UNL d   1       1.386  -3.307  -0.797  0.00  0.00     0.017 A 
ATOM      5  C4  UNL d   1       0.736  -2.363  -1.600  0.00  0.00     0.017 A 
ATOM      6  C5  UNL d   1      -0.300  -2.767  -2.448  0.00  0.00     0.034 A 
ATOM      7 Cl   UNL d   1       1.164  -0.689  -1.593  0.00  0.00    -0.070 Cl
ATOM      8 Cl1  UNL d   1       2.673  -2.886   0.275  0.00  0.00    -0.070 Cl
ENDROOT
TORSDOF 0
ENDMDL
