MODEL 1
REMARK minimizedAffinity 5.90930796
REMARK minimizedRMSD -1
REMARK  0 active torsions:
REMARK  status: ('A' for Active; 'I' for Inactive)
ROOT
ATOM      1  C   UNL d   1       1.544   3.206   1.280  0.00  0.00     0.020 A 
ATOM      2  C1  UNL d   1       0.244   2.746   1.483  0.00  0.00     0.020 A 
ATOM      3  C2  UNL d   1      -0.772   3.106   0.595  0.00  0.00     0.034 A 
ATOM      4  C3  UNL d   1      -0.489   3.930  -0.500  0.00  0.00     0.017 A 
ATOM      5  C4  UNL d   1       0.817   4.392  -0.704  0.00  0.00     0.017 A 
ATOM      6  C5  UNL d   1       1.830   4.028   0.189  0.00  0.00     0.034 A 
ATOM      7 Cl   UNL d   1       1.243   5.411  -2.033  0.00  0.00    -0.070 Cl
ATOM      8 Cl1  UNL d   1      -1.793   4.336  -1.559  0.00  0.00    -0.070 Cl
ENDROOT
TORSDOF 0
ENDMDL
