MODEL 1
REMARK minimizedAffinity 13.6452303
REMARK minimizedRMSD -1
REMARK  0 active torsions:
REMARK  status: ('A' for Active; 'I' for Inactive)
ROOT
ATOM      1  C   UNL d   1       0.314   3.911  -0.011  0.00  0.00     0.020 A 
ATOM      2  C1  UNL d   1       1.606   3.729   0.482  0.00  0.00     0.020 A 
ATOM      3  C2  UNL d   1       1.807   3.025   1.671  0.00  0.00     0.034 A 
ATOM      4  C3  UNL d   1       0.714   2.500   2.372  0.00  0.00     0.017 A 
ATOM      5  C4  UNL d   1      -0.582   2.684   1.876  0.00  0.00     0.017 A 
ATOM      6  C5  UNL d   1      -0.777   3.389   0.685  0.00  0.00     0.034 A 
ATOM      7 Cl   UNL d   1      -1.979   2.066   2.684  0.00  0.00    -0.070 Cl
ATOM      8 Cl1  UNL d   1       1.036   1.640   3.835  0.00  0.00    -0.070 Cl
ENDROOT
TORSDOF 0
ENDMDL
