MODEL 1
REMARK minimizedAffinity 0.76784128
REMARK minimizedRMSD -1
REMARK  0 active torsions:
REMARK  status: ('A' for Active; 'I' for Inactive)
ROOT
ATOM      1  C   UNL d   1       0.123   2.022  -0.996  0.00  0.00     0.020 A 
ATOM      2  C1  UNL d   1       0.866   1.112  -1.747  0.00  0.00     0.020 A 
ATOM      3  C2  UNL d   1       0.366  -0.170  -1.985  0.00  0.00     0.034 A 
ATOM      4  C3  UNL d   1      -0.881  -0.546  -1.473  0.00  0.00     0.017 A 
ATOM      5  C4  UNL d   1      -1.627   0.368  -0.720  0.00  0.00     0.017 A 
ATOM      6  C5  UNL d   1      -1.121   1.650  -0.484  0.00  0.00     0.034 A 
ATOM      7 Cl   UNL d   1      -3.173  -0.023  -0.055  0.00  0.00    -0.070 Cl
ATOM      8 Cl1  UNL d   1      -1.437  -2.147  -1.808  0.00  0.00    -0.070 Cl
ENDROOT
TORSDOF 0
ENDMDL
