MODEL 1
REMARK minimizedAffinity 6.18374395
REMARK minimizedRMSD -1
REMARK  0 active torsions:
REMARK  status: ('A' for Active; 'I' for Inactive)
ROOT
ATOM      1  C   UNL d   1       0.863   5.423  -1.547  0.00  0.00     0.020 A 
ATOM      2  C1  UNL d   1       1.126   4.057  -1.444  0.00  0.00     0.020 A 
ATOM      3  C2  UNL d   1       0.383   3.268  -0.563  0.00  0.00     0.034 A 
ATOM      4  C3  UNL d   1      -0.625   3.844   0.219  0.00  0.00     0.017 A 
ATOM      5  C4  UNL d   1      -0.887   5.214   0.115  0.00  0.00     0.017 A 
ATOM      6  C5  UNL d   1      -0.141   6.000  -0.769  0.00  0.00     0.034 A 
ATOM      7 Cl   UNL d   1      -2.115   5.996   1.047  0.00  0.00    -0.070 Cl
ATOM      8 Cl1  UNL d   1      -1.503   2.808   1.287  0.00  0.00    -0.070 Cl
ENDROOT
TORSDOF 0
ENDMDL
