MODEL 1
REMARK minimizedAffinity 1.12760091
REMARK minimizedRMSD -1
REMARK  0 active torsions:
REMARK  status: ('A' for Active; 'I' for Inactive)
ROOT
ATOM      1  C   UNL d   1      -1.115   1.149   0.360  0.00  0.00     0.023 A 
ATOM      2  C1  UNL d   1      -1.002   2.425   0.913  0.00  0.00     0.003 A 
ATOM      3  C2  UNL d   1       0.228   2.867   1.406  0.00  0.00     0.048 A 
ATOM      4  C3  UNL d   1       1.340   2.029   1.341  0.00  0.00     0.023 A 
ATOM      5  C4  UNL d   1       1.232   0.752   0.788  0.00  0.00     0.048 A 
ATOM      6  C5  UNL d   1       0.000   0.314   0.298  0.00  0.00     0.003 A 
ATOM      7  I   UNL d   1       3.171   2.685   2.074  0.00  0.00    -0.146 I 
ENDROOT
TORSDOF 0
ENDMDL
