MODEL 1
REMARK minimizedAffinity -0.255822629
REMARK minimizedRMSD -1
REMARK  0 active torsions:
REMARK  status: ('A' for Active; 'I' for Inactive)
ROOT
ATOM      1  C   UNL d   1       2.705   0.052  -1.129  0.00  0.00     0.023 A 
ATOM      2  C1  UNL d   1       2.589   0.447   0.203  0.00  0.00     0.003 A 
ATOM      3  C2  UNL d   1       1.327   0.577   0.787  0.00  0.00     0.048 A 
ATOM      4  C3  UNL d   1       0.186   0.307   0.034  0.00  0.00     0.023 A 
ATOM      5  C4  UNL d   1       0.297  -0.090  -1.300  0.00  0.00     0.048 A 
ATOM      6  C5  UNL d   1       1.560  -0.216  -1.880  0.00  0.00     0.003 A 
ATOM      7  I   UNL d   1      -1.693   0.499   0.901  0.00  0.00    -0.146 I 
ENDROOT
TORSDOF 0
ENDMDL
