MODEL 1
REMARK minimizedAffinity -0.095276244
REMARK minimizedRMSD -1
REMARK  0 active torsions:
REMARK  status: ('A' for Active; 'I' for Inactive)
ROOT
ATOM      1  C   UNL d   1      -1.344   1.150   0.584  0.00  0.00     0.023 A 
ATOM      2  C1  UNL d   1      -1.263   2.440   1.108  0.00  0.00     0.003 A 
ATOM      3  C2  UNL d   1      -0.042   2.930   1.575  0.00  0.00     0.048 A 
ATOM      4  C3  UNL d   1       1.095   2.125   1.514  0.00  0.00     0.023 A 
ATOM      5  C4  UNL d   1       1.019   0.834   0.989  0.00  0.00     0.048 A 
ATOM      6  C5  UNL d   1      -0.205   0.348   0.524  0.00  0.00     0.003 A 
ATOM      7  I   UNL d   1       2.914   2.852   2.208  0.00  0.00    -0.146 I 
ENDROOT
TORSDOF 0
ENDMDL
