MODEL 1
REMARK minimizedAffinity 4.760602
REMARK minimizedRMSD -1
REMARK  0 active torsions:
REMARK  status: ('A' for Active; 'I' for Inactive)
ROOT
ATOM      1  C   UNL d   1      -2.703   1.320   1.455  0.00  0.00     0.023 A 
ATOM      2  C1  UNL d   1      -2.193   0.029   1.321  0.00  0.00     0.003 A 
ATOM      3  C2  UNL d   1      -0.858  -0.162   0.960  0.00  0.00     0.048 A 
ATOM      4  C3  UNL d   1      -0.037   0.944   0.737  0.00  0.00     0.023 A 
ATOM      5  C4  UNL d   1      -0.543   2.238   0.872  0.00  0.00     0.048 A 
ATOM      6  C5  UNL d   1      -1.879   2.423   1.231  0.00  0.00     0.003 A 
ATOM      7  I   UNL d   1       1.951   0.663   0.202  0.00  0.00    -0.146 I 
ENDROOT
TORSDOF 0
ENDMDL
