MODEL 1
REMARK minimizedAffinity 2.23839688
REMARK minimizedRMSD -1
REMARK  0 active torsions:
REMARK  status: ('A' for Active; 'I' for Inactive)
ROOT
ATOM      1  C   UNL d   1      -3.838   4.421  -5.980  0.00  0.00     0.023 A 
ATOM      2  C1  UNL d   1      -2.624   5.107  -5.977  0.00  0.00     0.003 A 
ATOM      3  C2  UNL d   1      -1.420   4.399  -5.982  0.00  0.00     0.048 A 
ATOM      4  C3  UNL d   1      -1.438   3.005  -5.992  0.00  0.00     0.023 A 
ATOM      5  C4  UNL d   1      -2.651   2.314  -5.996  0.00  0.00     0.048 A 
ATOM      6  C5  UNL d   1      -3.852   3.026  -5.990  0.00  0.00     0.003 A 
ATOM      7  I   UNL d   1       0.352   1.949  -6.000  0.00  0.00    -0.146 I 
ENDROOT
TORSDOF 0
ENDMDL
