MODEL 1
REMARK minimizedAffinity -0.436248004
REMARK minimizedRMSD -1
REMARK  0 active torsions:
REMARK  status: ('A' for Active; 'I' for Inactive)
ROOT
ATOM      1  C   UNL d   1      -2.372   1.770   1.138  0.00  0.00     0.023 A 
ATOM      2  C1  UNL d   1      -2.317   0.378   1.054  0.00  0.00     0.003 A 
ATOM      3  C2  UNL d   1      -1.099  -0.261   0.815  0.00  0.00     0.048 A 
ATOM      4  C3  UNL d   1       0.061   0.498   0.660  0.00  0.00     0.023 A 
ATOM      5  C4  UNL d   1       0.011   1.890   0.744  0.00  0.00     0.048 A 
ATOM      6  C5  UNL d   1      -1.209   2.525   0.983  0.00  0.00     0.003 A 
ATOM      7  I   UNL d   1       1.875  -0.451   0.303  0.00  0.00    -0.146 I 
ENDROOT
TORSDOF 0
ENDMDL
