MODEL 1
REMARK minimizedAffinity 3.99425673
REMARK minimizedRMSD -1
REMARK  0 active torsions:
REMARK  status: ('A' for Active; 'I' for Inactive)
ROOT
ATOM      1  C   UNL d   1      -2.539   1.947   0.985  0.00  0.00     0.023 A 
ATOM      2  C1  UNL d   1      -2.286   0.576   0.955  0.00  0.00     0.003 A 
ATOM      3  C2  UNL d   1      -1.015   0.106   0.620  0.00  0.00     0.048 A 
ATOM      4  C3  UNL d   1      -0.000   1.014   0.317  0.00  0.00     0.023 A 
ATOM      5  C4  UNL d   1      -0.248   2.387   0.347  0.00  0.00     0.048 A 
ATOM      6  C5  UNL d   1      -1.522   2.852   0.682  0.00  0.00     0.003 A 
ATOM      7  I   UNL d   1       1.894   0.318  -0.181  0.00  0.00    -0.146 I 
ENDROOT
TORSDOF 0
ENDMDL
