MODEL 1
REMARK minimizedAffinity 0.844667137
REMARK minimizedRMSD -1
REMARK  0 active torsions:
REMARK  status: ('A' for Active; 'I' for Inactive)
ROOT
ATOM      1  C   UNL d   1      -2.074   1.245   1.298  0.00  0.00     0.023 A 
ATOM      2  C1  UNL d   1      -1.083   2.209   1.115  0.00  0.00     0.003 A 
ATOM      3  C2  UNL d   1       0.232   1.820   0.849  0.00  0.00     0.048 A 
ATOM      4  C3  UNL d   1       0.547   0.464   0.766  0.00  0.00     0.023 A 
ATOM      5  C4  UNL d   1      -0.442  -0.504   0.947  0.00  0.00     0.048 A 
ATOM      6  C5  UNL d   1      -1.754  -0.110   1.214  0.00  0.00     0.003 A 
ATOM      7  I   UNL d   1       2.502  -0.119   0.369  0.00  0.00    -0.146 I 
ENDROOT
TORSDOF 0
ENDMDL
