MODEL 1
REMARK minimizedAffinity 2.70982409
REMARK minimizedRMSD -1
REMARK  0 active torsions:
REMARK  status: ('A' for Active; 'I' for Inactive)
ROOT
ATOM      1  C   UNL d   1      -1.136   1.575   0.442  0.00  0.00     0.023 A 
ATOM      2  C1  UNL d   1      -1.069   2.590   1.395  0.00  0.00     0.003 A 
ATOM      3  C2  UNL d   1       0.149   2.901   2.002  0.00  0.00     0.048 A 
ATOM      4  C3  UNL d   1       1.298   2.193   1.650  0.00  0.00     0.023 A 
ATOM      5  C4  UNL d   1       1.236   1.176   0.696  0.00  0.00     0.048 A 
ATOM      6  C5  UNL d   1       0.015   0.869   0.092  0.00  0.00     0.003 A 
ATOM      7  I   UNL d   1       3.113   2.654   2.552  0.00  0.00    -0.146 I 
ENDROOT
TORSDOF 0
ENDMDL
