MODEL 1
REMARK minimizedAffinity 2.49916983
REMARK minimizedRMSD -1
REMARK  0 active torsions:
REMARK  status: ('A' for Active; 'I' for Inactive)
ROOT
ATOM      1  C   UNL d   1      -2.236   1.148   1.310  0.00  0.00     0.023 A 
ATOM      2  C1  UNL d   1      -1.276   2.133   1.076  0.00  0.00     0.003 A 
ATOM      3  C2  UNL d   1       0.037   1.771   0.769  0.00  0.00     0.048 A 
ATOM      4  C3  UNL d   1       0.384   0.423   0.695  0.00  0.00     0.023 A 
ATOM      5  C4  UNL d   1      -0.573  -0.567   0.927  0.00  0.00     0.048 A 
ATOM      6  C5  UNL d   1      -1.885  -0.200   1.235  0.00  0.00     0.003 A 
ATOM      7  I   UNL d   1       2.338  -0.118   0.237  0.00  0.00    -0.146 I 
ENDROOT
TORSDOF 0
ENDMDL
