MODEL 1
REMARK minimizedAffinity 5.3649087
REMARK minimizedRMSD -1
REMARK  0 active torsions:
REMARK  status: ('A' for Active; 'I' for Inactive)
ROOT
ATOM      1  C   UNL d   1      -2.740   1.312   1.092  0.00  0.00     0.023 A 
ATOM      2  C1  UNL d   1      -2.263   0.004   1.182  0.00  0.00     0.003 A 
ATOM      3  C2  UNL d   1      -0.927  -0.275   0.891  0.00  0.00     0.048 A 
ATOM      4  C3  UNL d   1      -0.071   0.758   0.511  0.00  0.00     0.023 A 
ATOM      5  C4  UNL d   1      -0.543   2.069   0.420  0.00  0.00     0.048 A 
ATOM      6  C5  UNL d   1      -1.881   2.343   0.711  0.00  0.00     0.003 A 
ATOM      7  I   UNL d   1       1.919   0.345   0.077  0.00  0.00    -0.146 I 
ENDROOT
TORSDOF 0
ENDMDL
