MODEL 1
REMARK minimizedAffinity 8.74228477
REMARK minimizedRMSD -1
REMARK  0 active torsions:
REMARK  status: ('A' for Active; 'I' for Inactive)
ROOT
ATOM      1  C   UNL d   1      -3.035   1.569   1.130  0.00  0.00     0.023 A 
ATOM      2  C1  UNL d   1      -2.579   0.259   0.984  0.00  0.00     0.003 A 
ATOM      3  C2  UNL d   1      -1.230   0.013   0.722  0.00  0.00     0.048 A 
ATOM      4  C3  UNL d   1      -0.341   1.081   0.608  0.00  0.00     0.023 A 
ATOM      5  C4  UNL d   1      -0.793   2.394   0.753  0.00  0.00     0.048 A 
ATOM      6  C5  UNL d   1      -2.143   2.635   1.014  0.00  0.00     0.003 A 
ATOM      7  I   UNL d   1       1.668   0.718   0.218  0.00  0.00    -0.146 I 
ENDROOT
TORSDOF 0
ENDMDL
