MODEL 1
REMARK minimizedAffinity 12.03335
REMARK minimizedRMSD -1
REMARK  0 active torsions:
REMARK  status: ('A' for Active; 'I' for Inactive)
ROOT
ATOM      1  C   UNL d   1       0.421   2.969  -4.718  0.00  0.00     0.023 A 
ATOM      2  C1  UNL d   1       1.720   2.503  -4.926  0.00  0.00     0.003 A 
ATOM      3  C2  UNL d   1       2.228   1.470  -4.136  0.00  0.00     0.048 A 
ATOM      4  C3  UNL d   1       1.431   0.906  -3.140  0.00  0.00     0.023 A 
ATOM      5  C4  UNL d   1       0.131   1.368  -2.929  0.00  0.00     0.048 A 
ATOM      6  C5  UNL d   1      -0.372   2.401  -3.721  0.00  0.00     0.003 A 
ATOM      7  I   UNL d   1       2.185  -0.632  -1.963  0.00  0.00    -0.146 I 
ENDROOT
TORSDOF 0
ENDMDL
