MODEL 1
REMARK minimizedAffinity 15.4297466
REMARK minimizedRMSD -1
REMARK  0 active torsions:
REMARK  status: ('A' for Active; 'I' for Inactive)
ROOT
ATOM      1  C   UNL d   1       1.276  -0.004  -2.696  0.00  0.00     0.023 A 
ATOM      2  C1  UNL d   1       2.103   0.386  -3.749  0.00  0.00     0.003 A 
ATOM      3  C2  UNL d   1       3.459   0.054  -3.734  0.00  0.00     0.048 A 
ATOM      4  C3  UNL d   1       3.982  -0.671  -2.663  0.00  0.00     0.023 A 
ATOM      5  C4  UNL d   1       3.157  -1.065  -1.607  0.00  0.00     0.048 A 
ATOM      6  C5  UNL d   1       1.802  -0.729  -1.626  0.00  0.00     0.003 A 
ATOM      7  I   UNL d   1       6.000  -1.167  -2.638  0.00  0.00    -0.146 I 
ENDROOT
TORSDOF 0
ENDMDL
