MODEL 1
REMARK minimizedAffinity 2.38593125
REMARK minimizedRMSD -1
REMARK  0 active torsions:
REMARK  status: ('A' for Active; 'I' for Inactive)
ROOT
ATOM      1  C   UNL d   1       3.154  -1.255  -3.210  0.00  0.00     0.023 A 
ATOM      2  C1  UNL d   1       2.564  -0.005  -3.396  0.00  0.00     0.003 A 
ATOM      3  C2  UNL d   1       2.132   0.736  -2.294  0.00  0.00     0.048 A 
ATOM      4  C3  UNL d   1       2.295   0.221  -1.008  0.00  0.00     0.023 A 
ATOM      5  C4  UNL d   1       2.886  -1.029  -0.817  0.00  0.00     0.048 A 
ATOM      6  C5  UNL d   1       3.315  -1.766  -1.922  0.00  0.00     0.003 A 
ATOM      7  I   UNL d   1       1.654   1.322   0.634  0.00  0.00    -0.146 I 
ENDROOT
TORSDOF 0
ENDMDL
