MODEL 1
REMARK minimizedAffinity 19.3960667
REMARK minimizedRMSD -1
REMARK  0 active torsions:
REMARK  status: ('A' for Active; 'I' for Inactive)
ROOT
ATOM      1  C   UNL d   1       3.445   0.342  -2.966  0.00  0.00     0.124 A 
ATOM      2  C1  UNL d   1       2.133   0.765  -2.810  0.00  0.00     0.062 A 
ATOM      3  C2  UNL d   1       1.642   1.072  -1.545  0.00  0.00     0.162 A 
ATOM      4  C3  UNL d   1       2.464   0.957  -0.424  0.00  0.00    -0.034 A 
ATOM      5  C4  UNL d   1       3.783   0.529  -0.588  0.00  0.00     0.162 A 
ATOM      6  C5  UNL d   1       4.269   0.224  -1.855  0.00  0.00     0.062 A 
ATOM      7  F   UNL d   1       5.537  -0.185  -2.004  0.00  0.00    -0.097 F 
ATOM      8  F1  UNL d   1       4.601   0.408   0.468  0.00  0.00    -0.096 F 
ATOM      9  I   UNL d   1       1.734   1.414   1.470  0.00  0.00    -0.060 I 
ATOM     10  F2  UNL d   1       0.369   1.479  -1.424  0.00  0.00    -0.096 F 
ATOM     11  F3  UNL d   1       1.335   0.879  -3.882  0.00  0.00    -0.097 F 
ATOM     12  F4  UNL d   1       3.915   0.046  -4.185  0.00  0.00    -0.092 F 
ENDROOT
TORSDOF 0
ENDMDL
