MODEL 1
REMARK minimizedAffinity 20.5228748
REMARK minimizedRMSD -1
REMARK  0 active torsions:
REMARK  status: ('A' for Active; 'I' for Inactive)
ROOT
ATOM      1  C   UNL d   1       0.185   2.837   3.693  0.00  0.00     0.124 A 
ATOM      2  C1  UNL d   1       1.546   2.587   3.791  0.00  0.00     0.062 A 
ATOM      3  C2  UNL d   1       2.378   3.488   4.448  0.00  0.00     0.162 A 
ATOM      4  C3  UNL d   1       1.851   4.649   5.015  0.00  0.00    -0.034 A 
ATOM      5  C4  UNL d   1       0.480   4.894   4.912  0.00  0.00     0.162 A 
ATOM      6  C5  UNL d   1      -0.347   3.990   4.253  0.00  0.00     0.062 A 
ATOM      7  F   UNL d   1      -1.663   4.233   4.160  0.00  0.00    -0.097 F 
ATOM      8  F1  UNL d   1      -0.060   6.000   5.445  0.00  0.00    -0.096 F 
ATOM      9  I   UNL d   1       3.091   5.999   5.998  0.00  0.00    -0.060 I 
ATOM     10  F2  UNL d   1       3.690   3.221   4.527  0.00  0.00    -0.096 F 
ATOM     11  F3  UNL d   1       2.063   1.474   3.249  0.00  0.00    -0.097 F 
ATOM     12  F4  UNL d   1      -0.613   1.968   3.059  0.00  0.00    -0.092 F 
ENDROOT
TORSDOF 0
ENDMDL
