MODEL 1
REMARK minimizedAffinity 13.3778553
REMARK minimizedRMSD -1
REMARK  0 active torsions:
REMARK  status: ('A' for Active; 'I' for Inactive)
ROOT
ATOM      1  C   UNL d   1      -0.070  -0.689  -1.006  0.00  0.00     0.124 A 
ATOM      2  C1  UNL d   1       0.682   0.406  -1.410  0.00  0.00     0.062 A 
ATOM      3  C2  UNL d   1       0.051   1.562  -1.858  0.00  0.00     0.162 A 
ATOM      4  C3  UNL d   1      -1.342   1.631  -1.903  0.00  0.00    -0.034 A 
ATOM      5  C4  UNL d   1      -2.092   0.526  -1.496  0.00  0.00     0.162 A 
ATOM      6  C5  UNL d   1      -1.456  -0.627  -1.049  0.00  0.00     0.062 A 
ATOM      7  F   UNL d   1      -2.184  -1.684  -0.659  0.00  0.00    -0.097 F 
ATOM      8  F1  UNL d   1      -3.432   0.559  -1.527  0.00  0.00    -0.096 F 
ATOM      9  I   UNL d   1      -2.290   3.359  -2.573  0.00  0.00    -0.060 I 
ATOM     10  F2  UNL d   1       0.803   2.604  -2.243  0.00  0.00    -0.096 F 
ATOM     11  F3  UNL d   1       2.021   0.349  -1.370  0.00  0.00    -0.097 F 
ATOM     12  F4  UNL d   1       0.540  -1.801  -0.576  0.00  0.00    -0.092 F 
ENDROOT
TORSDOF 0
ENDMDL
