MODEL 1
REMARK minimizedAffinity 23.9671059
REMARK minimizedRMSD -1
REMARK  0 active torsions:
REMARK  status: ('A' for Active; 'I' for Inactive)
ROOT
ATOM      1  C   UNL d   1       4.897  -4.749   0.807  0.00  0.00     0.124 A 
ATOM      2  C1  UNL d   1       4.513  -4.207   2.026  0.00  0.00     0.062 A 
ATOM      3  C2  UNL d   1       3.368  -3.422   2.114  0.00  0.00     0.162 A 
ATOM      4  C3  UNL d   1       2.596  -3.174   0.979  0.00  0.00    -0.034 A 
ATOM      5  C4  UNL d   1       2.988  -3.721  -0.244  0.00  0.00     0.162 A 
ATOM      6  C5  UNL d   1       4.134  -4.506  -0.326  0.00  0.00     0.062 A 
ATOM      7  F   UNL d   1       4.502  -5.028  -1.505  0.00  0.00    -0.097 F 
ATOM      8  F1  UNL d   1       2.269  -3.503  -1.355  0.00  0.00    -0.096 F 
ATOM      9  I   UNL d   1       0.882  -2.000   1.106  0.00  0.00    -0.060 I 
ATOM     10  F2  UNL d   1       3.021  -2.911   3.305  0.00  0.00    -0.096 F 
ATOM     11  F3  UNL d   1       5.249  -4.440   3.123  0.00  0.00    -0.097 F 
ATOM     12  F4  UNL d   1       6.000  -5.504   0.725  0.00  0.00    -0.092 F 
ENDROOT
TORSDOF 0
ENDMDL
