MODEL 1
REMARK minimizedAffinity 15.9898233
REMARK minimizedRMSD -1
REMARK  0 active torsions:
REMARK  status: ('A' for Active; 'I' for Inactive)
ROOT
ATOM      1  C   UNL d   1      -2.804  -0.452   3.045  0.00  0.00     0.124 A 
ATOM      2  C1  UNL d   1      -1.926  -1.202   2.275  0.00  0.00     0.062 A 
ATOM      3  C2  UNL d   1      -2.174  -1.395   0.919  0.00  0.00     0.162 A 
ATOM      4  C3  UNL d   1      -3.304  -0.836   0.323  0.00  0.00    -0.034 A 
ATOM      5  C4  UNL d   1      -4.183  -0.084   1.104  0.00  0.00     0.162 A 
ATOM      6  C5  UNL d   1      -3.932   0.106   2.459  0.00  0.00     0.062 A 
ATOM      7  F   UNL d   1      -4.781   0.831   3.201  0.00  0.00    -0.097 F 
ATOM      8  F1  UNL d   1      -5.280   0.468   0.563  0.00  0.00    -0.096 F 
ATOM      9  I   UNL d   1      -3.678  -1.123  -1.704  0.00  0.00    -0.060 I 
ATOM     10  F2  UNL d   1      -1.308  -2.125   0.199  0.00  0.00    -0.096 F 
ATOM     11  F3  UNL d   1      -0.837  -1.743   2.838  0.00  0.00    -0.097 F 
ATOM     12  F4  UNL d   1      -2.564  -0.269   4.349  0.00  0.00    -0.092 F 
ENDROOT
TORSDOF 0
ENDMDL
