MODEL 1
REMARK minimizedAffinity 13.084897
REMARK minimizedRMSD -1
REMARK  0 active torsions:
REMARK  status: ('A' for Active; 'I' for Inactive)
ROOT
ATOM      1  C   UNL d   1       2.523  -2.770   2.415  0.00  0.00     0.124 A 
ATOM      2  C1  UNL d   1       3.821  -2.986   2.855  0.00  0.00     0.062 A 
ATOM      3  C2  UNL d   1       4.752  -3.594   2.018  0.00  0.00     0.162 A 
ATOM      4  C3  UNL d   1       4.389  -3.989   0.731  0.00  0.00    -0.034 A 
ATOM      5  C4  UNL d   1       3.081  -3.769   0.295  0.00  0.00     0.162 A 
ATOM      6  C5  UNL d   1       2.154  -3.161   1.136  0.00  0.00     0.062 A 
ATOM      7  F   UNL d   1       0.900  -2.953   0.708  0.00  0.00    -0.097 F 
ATOM      8  F1  UNL d   1       2.698  -4.137  -0.937  0.00  0.00    -0.096 F 
ATOM      9  I   UNL d   1       5.778  -4.898  -0.524  0.00  0.00    -0.060 I 
ATOM     10  F2  UNL d   1       6.000  -3.790   2.470  0.00  0.00    -0.096 F 
ATOM     11  F3  UNL d   1       4.180  -2.610   4.091  0.00  0.00    -0.097 F 
ATOM     12  F4  UNL d   1       1.629  -2.186   3.223  0.00  0.00    -0.092 F 
ENDROOT
TORSDOF 0
ENDMDL
