MODEL 1
REMARK minimizedAffinity 16.1281071
REMARK minimizedRMSD -1
REMARK  0 active torsions:
REMARK  status: ('A' for Active; 'I' for Inactive)
ROOT
ATOM      1  C   UNL d   1       1.149  -2.239   2.920  0.00  0.00     0.124 A 
ATOM      2  C1  UNL d   1       2.311  -2.595   3.590  0.00  0.00     0.062 A 
ATOM      3  C2  UNL d   1       3.314  -3.296   2.927  0.00  0.00     0.162 A 
ATOM      4  C3  UNL d   1       3.160  -3.644   1.585  0.00  0.00    -0.034 A 
ATOM      5  C4  UNL d   1       1.988  -3.283   0.918  0.00  0.00     0.162 A 
ATOM      6  C5  UNL d   1       0.989  -2.582   1.585  0.00  0.00     0.062 A 
ATOM      7  F   UNL d   1      -0.133  -2.239   0.936  0.00  0.00    -0.097 F 
ATOM      8  F1  UNL d   1       1.808  -3.601  -0.373  0.00  0.00    -0.096 F 
ATOM      9  I   UNL d   1       4.658  -4.692   0.590  0.00  0.00    -0.060 I 
ATOM     10  F2  UNL d   1       4.426  -3.627   3.599  0.00  0.00    -0.096 F 
ATOM     11  F3  UNL d   1       2.467  -2.265   4.880  0.00  0.00    -0.097 F 
ATOM     12  F4  UNL d   1       0.184  -1.565   3.560  0.00  0.00    -0.092 F 
ENDROOT
TORSDOF 0
ENDMDL
