MODEL 1
REMARK minimizedAffinity 11.6358824
REMARK minimizedRMSD -1
REMARK  0 active torsions:
REMARK  status: ('A' for Active; 'I' for Inactive)
ROOT
ATOM      1  C   UNL d   1       1.468  -4.167   1.867  0.00  0.00     0.124 A 
ATOM      2  C1  UNL d   1       1.710  -2.811   2.042  0.00  0.00     0.062 A 
ATOM      3  C2  UNL d   1       0.707  -1.978   2.527  0.00  0.00     0.162 A 
ATOM      4  C3  UNL d   1      -0.549  -2.498   2.842  0.00  0.00    -0.034 A 
ATOM      5  C4  UNL d   1      -0.785  -3.862   2.662  0.00  0.00     0.162 A 
ATOM      6  C5  UNL d   1       0.221  -4.691   2.177  0.00  0.00     0.062 A 
ATOM      7  F   UNL d   1      -0.015  -6.000   2.008  0.00  0.00    -0.097 F 
ATOM      8  F1  UNL d   1      -1.981  -4.395   2.955  0.00  0.00    -0.096 F 
ATOM      9  I   UNL d   1      -2.052  -1.255   3.567  0.00  0.00    -0.060 I 
ATOM     10  F2  UNL d   1       0.969  -0.672   2.686  0.00  0.00    -0.096 F 
ATOM     11  F3  UNL d   1       2.914  -2.303   1.742  0.00  0.00    -0.097 F 
ATOM     12  F4  UNL d   1       2.435  -4.966   1.399  0.00  0.00    -0.092 F 
ENDROOT
TORSDOF 0
ENDMDL
