MODEL 1
REMARK minimizedAffinity 12.2908287
REMARK minimizedRMSD -1
REMARK  0 active torsions:
REMARK  status: ('A' for Active; 'I' for Inactive)
ROOT
ATOM      1  C   UNL d   1       0.247  -3.695   2.354  0.00  0.00     0.124 A 
ATOM      2  C1  UNL d   1       0.788  -2.500   1.901  0.00  0.00     0.062 A 
ATOM      3  C2  UNL d   1       2.107  -2.450   1.462  0.00  0.00     0.162 A 
ATOM      4  C3  UNL d   1       2.896  -3.601   1.472  0.00  0.00    -0.034 A 
ATOM      5  C4  UNL d   1       2.345  -4.800   1.929  0.00  0.00     0.162 A 
ATOM      6  C5  UNL d   1       1.026  -4.844   2.367  0.00  0.00     0.062 A 
ATOM      7  F   UNL d   1       0.505  -6.000   2.803  0.00  0.00    -0.097 F 
ATOM      8  F1  UNL d   1       3.075  -5.925   1.952  0.00  0.00    -0.096 F 
ATOM      9  I   UNL d   1       4.870  -3.531   0.816  0.00  0.00    -0.060 I 
ATOM     10  F2  UNL d   1       2.604  -1.281   1.031  0.00  0.00    -0.096 F 
ATOM     11  F3  UNL d   1       0.037  -1.389   1.888  0.00  0.00    -0.097 F 
ATOM     12  F4  UNL d   1      -1.023  -3.740   2.777  0.00  0.00    -0.092 F 
ENDROOT
TORSDOF 0
ENDMDL
