MODEL 1
REMARK minimizedAffinity 25.2916012
REMARK minimizedRMSD -1
REMARK  0 active torsions:
REMARK  status: ('A' for Active; 'I' for Inactive)
ROOT
ATOM      1  C   UNL d   1      -4.168  -1.156  -3.109  0.00  0.00     0.124 A 
ATOM      2  C1  UNL d   1      -3.830  -0.364  -2.021  0.00  0.00     0.062 A 
ATOM      3  C2  UNL d   1      -3.840   1.023  -2.134  0.00  0.00     0.162 A 
ATOM      4  C3  UNL d   1      -4.191   1.628  -3.340  0.00  0.00    -0.034 A 
ATOM      5  C4  UNL d   1      -4.529   0.825  -4.431  0.00  0.00     0.162 A 
ATOM      6  C5  UNL d   1      -4.517  -0.561  -4.313  0.00  0.00     0.062 A 
ATOM      7  F   UNL d   1      -4.844  -1.324  -5.366  0.00  0.00    -0.097 F 
ATOM      8  F1  UNL d   1      -4.871   1.374  -5.606  0.00  0.00    -0.096 F 
ATOM      9  I   UNL d   1      -4.207   3.702  -3.514  0.00  0.00    -0.060 I 
ATOM     10  F2  UNL d   1      -3.509   1.763  -1.065  0.00  0.00    -0.096 F 
ATOM     11  F3  UNL d   1      -3.491  -0.937  -0.856  0.00  0.00    -0.097 F 
ATOM     12  F4  UNL d   1      -4.156  -2.491  -2.998  0.00  0.00    -0.092 F 
ENDROOT
TORSDOF 0
ENDMDL
