MODEL 1
REMARK minimizedAffinity 10.3173962
REMARK minimizedRMSD -1
REMARK  0 active torsions:
REMARK  status: ('A' for Active; 'I' for Inactive)
ROOT
ATOM      1  C   UNL d   1       1.622  -2.915   2.399  0.00  0.00     0.124 A 
ATOM      2  C1  UNL d   1       2.054  -4.234   2.406  0.00  0.00     0.062 A 
ATOM      3  C2  UNL d   1       2.871  -4.697   3.433  0.00  0.00     0.162 A 
ATOM      4  C3  UNL d   1       3.262  -3.841   4.463  0.00  0.00    -0.034 A 
ATOM      5  C4  UNL d   1       2.824  -2.515   4.448  0.00  0.00     0.162 A 
ATOM      6  C5  UNL d   1       2.007  -2.057   3.420  0.00  0.00     0.062 A 
ATOM      7  F   UNL d   1       1.591  -0.782   3.414  0.00  0.00    -0.097 F 
ATOM      8  F1  UNL d   1       3.180  -1.665   5.422  0.00  0.00    -0.096 F 
ATOM      9  I   UNL d   1       4.484  -4.530   6.000  0.00  0.00    -0.060 I 
ATOM     10  F2  UNL d   1       3.274  -5.976   3.414  0.00  0.00    -0.096 F 
ATOM     11  F3  UNL d   1       1.684  -5.064   1.421  0.00  0.00    -0.097 F 
ATOM     12  F4  UNL d   1       0.836  -2.471   1.409  0.00  0.00    -0.092 F 
ENDROOT
TORSDOF 0
ENDMDL
