MODEL 1
REMARK minimizedAffinity 5.7068367
REMARK minimizedRMSD -1
REMARK  2 active torsions:
REMARK  status: ('A' for Active; 'I' for Inactive)
REMARK    1  A    between atoms: C1_2  and  C2_3 
REMARK    2  A    between atoms: C2_3  and  C3_4 
ROOT
ATOM      1  C3  UNL d   1      -1.071   0.472   0.893  0.00  0.00    -0.075 A 
ATOM      2  C4  UNL d   1      -0.849   1.773   1.365  0.00  0.00     0.002 A 
ATOM      3  C5  UNL d   1      -1.799   2.773   1.159  0.00  0.00     0.002 A 
ATOM      4  C6  UNL d   1      -2.976   2.489   0.470  0.00  0.00    -0.004 A 
ATOM      5  C7  UNL d   1      -3.200   1.203  -0.018  0.00  0.00     0.002 A 
ATOM      6  C8  UNL d   1      -2.253   0.199   0.191  0.00  0.00     0.002 A 
ENDROOT
BRANCH   1   7
ATOM      7  C2  UNL d   1      -0.060  -0.623   1.139  0.00  0.00     0.056 C 
BRANCH   7   8
ATOM      8  C1  UNL d   1       1.358  -0.279   0.669  0.00  0.00     0.007 C 
ATOM      9  C   UNL d   1       2.320  -1.456   0.753  0.00  0.00     0.009 C 
ENDBRANCH   7   8
ENDBRANCH   1   7
TORSDOF 2
ENDMDL
