MODEL 1
REMARK minimizedAffinity 4.23141861
REMARK minimizedRMSD -1
REMARK  2 active torsions:
REMARK  status: ('A' for Active; 'I' for Inactive)
REMARK    1  A    between atoms: C1_2  and  C2_3 
REMARK    2  A    between atoms: C2_3  and  C3_4 
ROOT
ATOM      1  C3  UNL d   1      -1.406   1.726   1.296  0.00  0.00    -0.075 A 
ATOM      2  C4  UNL d   1      -2.303   2.170   0.314  0.00  0.00     0.002 A 
ATOM      3  C5  UNL d   1      -3.074   1.257  -0.405  0.00  0.00     0.002 A 
ATOM      4  C6  UNL d   1      -2.951  -0.109  -0.160  0.00  0.00    -0.004 A 
ATOM      5  C7  UNL d   1      -2.051  -0.562   0.801  0.00  0.00     0.002 A 
ATOM      6  C8  UNL d   1      -1.281   0.350   1.526  0.00  0.00     0.002 A 
ENDROOT
BRANCH   1   7
ATOM      7  C2  UNL d   1      -0.589   2.711   2.099  0.00  0.00     0.056 C 
BRANCH   7   8
ATOM      8  C1  UNL d   1      -1.029   2.839   3.561  0.00  0.00     0.007 C 
ATOM      9  C   UNL d   1      -2.516   3.128   3.719  0.00  0.00     0.009 C 
ENDBRANCH   7   8
ENDBRANCH   1   7
TORSDOF 2
ENDMDL
