MODEL 1
REMARK minimizedAffinity 6.07830906
REMARK minimizedRMSD -1
REMARK  2 active torsions:
REMARK  status: ('A' for Active; 'I' for Inactive)
REMARK    1  A    between atoms: C1_2  and  C2_3 
REMARK    2  A    between atoms: C2_3  and  C3_4 
ROOT
ATOM      1  C3  UNL d   1       2.456   0.381  -1.911  0.00  0.00    -0.075 A 
ATOM      2  C4  UNL d   1       3.298  -0.739  -1.859  0.00  0.00     0.002 A 
ATOM      3  C5  UNL d   1       3.389  -1.503  -0.695  0.00  0.00     0.002 A 
ATOM      4  C6  UNL d   1       2.649  -1.151   0.432  0.00  0.00    -0.004 A 
ATOM      5  C7  UNL d   1       1.822  -0.031   0.396  0.00  0.00     0.002 A 
ATOM      6  C8  UNL d   1       1.725   0.733  -0.768  0.00  0.00     0.002 A 
ENDROOT
BRANCH   1   7
ATOM      7  C2  UNL d   1       2.330   1.195  -3.178  0.00  0.00     0.056 C 
BRANCH   7   8
ATOM      8  C1  UNL d   1       0.935   1.153  -3.810  0.00  0.00     0.007 C 
ATOM      9  C   UNL d   1       0.945   0.678  -5.257  0.00  0.00     0.009 C 
ENDBRANCH   7   8
ENDBRANCH   1   7
TORSDOF 2
ENDMDL
