MODEL 1
REMARK minimizedAffinity 18.9443951
REMARK minimizedRMSD -1
REMARK  2 active torsions:
REMARK  status: ('A' for Active; 'I' for Inactive)
REMARK    1  A    between atoms: C1_2  and  C2_3 
REMARK    2  A    between atoms: C2_3  and  C3_4 
ROOT
ATOM      1  C3  UNL d   1      -3.245  -1.475   2.103  0.00  0.00    -0.075 A 
ATOM      2  C4  UNL d   1      -2.593  -0.300   2.506  0.00  0.00     0.002 A 
ATOM      3  C5  UNL d   1      -2.212   0.657   1.564  0.00  0.00     0.002 A 
ATOM      4  C6  UNL d   1      -2.468   0.448   0.211  0.00  0.00    -0.004 A 
ATOM      5  C7  UNL d   1      -3.100  -0.723  -0.202  0.00  0.00     0.002 A 
ATOM      6  C8  UNL d   1      -3.487  -1.680   0.738  0.00  0.00     0.002 A 
ENDROOT
BRANCH   1   7
ATOM      7  C2  UNL d   1      -3.686  -2.501   3.119  0.00  0.00     0.056 C 
BRANCH   7   8
ATOM      8  C1  UNL d   1      -5.201  -2.728   3.159  0.00  0.00     0.007 C 
ATOM      9  C   UNL d   1      -5.997  -1.440   3.323  0.00  0.00     0.009 C 
ENDBRANCH   7   8
ENDBRANCH   1   7
TORSDOF 2
ENDMDL
