MODEL 1
REMARK minimizedAffinity 11.0715618
REMARK minimizedRMSD -1
REMARK  2 active torsions:
REMARK  status: ('A' for Active; 'I' for Inactive)
REMARK    1  A    between atoms: C1_2  and  C2_3 
REMARK    2  A    between atoms: C2_3  and  C3_4 
ROOT
ATOM      1  C3  UNL d   1       3.601   3.919   2.978  0.00  0.00    -0.075 A 
ATOM      2  C4  UNL d   1       4.463   3.937   4.084  0.00  0.00     0.002 A 
ATOM      3  C5  UNL d   1       4.391   4.969   5.020  0.00  0.00     0.002 A 
ATOM      4  C6  UNL d   1       3.466   5.998   4.858  0.00  0.00    -0.004 A 
ATOM      5  C7  UNL d   1       2.616   5.999   3.754  0.00  0.00     0.002 A 
ATOM      6  C8  UNL d   1       2.683   4.965   2.818  0.00  0.00     0.002 A 
ENDROOT
BRANCH   1   7
ATOM      7  C2  UNL d   1       3.653   2.790   1.976  0.00  0.00     0.056 C 
BRANCH   7   8
ATOM      8  C1  UNL d   1       3.513   3.242   0.519  0.00  0.00     0.007 C 
ATOM      9  C   UNL d   1       4.722   2.889  -0.337  0.00  0.00     0.009 C 
ENDBRANCH   7   8
ENDBRANCH   1   7
TORSDOF 2
ENDMDL
