MODEL 1
REMARK minimizedAffinity -5.48641205
REMARK minimizedRMSD -1
REMARK  2 active torsions:
REMARK  status: ('A' for Active; 'I' for Inactive)
REMARK    1  A    between atoms: C1_2  and  C2_3 
REMARK    2  A    between atoms: C2_3  and  C3_4 
ROOT
ATOM      1  C3  UNL d   1      -1.231  -3.633  -1.163  0.00  0.00    -0.075 A 
ATOM      2  C4  UNL d   1      -1.106  -2.980   0.072  0.00  0.00     0.002 A 
ATOM      3  C5  UNL d   1      -0.155  -1.975   0.248  0.00  0.00     0.002 A 
ATOM      4  C6  UNL d   1       0.688  -1.617  -0.801  0.00  0.00    -0.004 A 
ATOM      5  C7  UNL d   1       0.585  -2.271  -2.027  0.00  0.00     0.002 A 
ATOM      6  C8  UNL d   1      -0.369  -3.274  -2.208  0.00  0.00     0.002 A 
ENDROOT
BRANCH   1   7
ATOM      7  C2  UNL d   1      -2.278  -4.702  -1.370  0.00  0.00     0.056 C 
BRANCH   7   8
ATOM      8  C1  UNL d   1      -3.660  -4.335  -0.821  0.00  0.00     0.007 C 
ATOM      9  C   UNL d   1      -4.037  -5.118   0.429  0.00  0.00     0.009 C 
ENDBRANCH   7   8
ENDBRANCH   1   7
TORSDOF 2
ENDMDL
