MODEL 1
REMARK minimizedAffinity -4.36224699
REMARK minimizedRMSD -1
REMARK  2 active torsions:
REMARK  status: ('A' for Active; 'I' for Inactive)
REMARK    1  A    between atoms: C1_2  and  C2_3 
REMARK    2  A    between atoms: C2_3  and  C3_4 
ROOT
ATOM      1  C3  UNL d   1      -0.356  -1.066   0.097  0.00  0.00    -0.075 A 
ATOM      2  C4  UNL d   1      -1.167   0.069  -0.046  0.00  0.00     0.002 A 
ATOM      3  C5  UNL d   1      -0.663   1.340   0.233  0.00  0.00     0.002 A 
ATOM      4  C6  UNL d   1       0.652   1.491   0.668  0.00  0.00    -0.004 A 
ATOM      5  C7  UNL d   1       1.462   0.369   0.829  0.00  0.00     0.002 A 
ATOM      6  C8  UNL d   1       0.961  -0.903   0.546  0.00  0.00     0.002 A 
ENDROOT
BRANCH   1   7
ATOM      7  C2  UNL d   1      -0.887  -2.441  -0.232  0.00  0.00     0.056 C 
BRANCH   7   8
ATOM      8  C1  UNL d   1      -2.406  -2.574  -0.088  0.00  0.00     0.007 C 
ATOM      9  C   UNL d   1      -3.070  -3.220  -1.297  0.00  0.00     0.009 C 
ENDBRANCH   7   8
ENDBRANCH   1   7
TORSDOF 2
ENDMDL
