MODEL 1
REMARK minimizedAffinity -5.0005126
REMARK minimizedRMSD -1
REMARK  2 active torsions:
REMARK  status: ('A' for Active; 'I' for Inactive)
REMARK    1  A    between atoms: C1_2  and  C2_3 
REMARK    2  A    between atoms: C2_3  and  C3_4 
ROOT
ATOM      1  C3  UNL d   1      -1.171   0.035  -0.749  0.00  0.00    -0.075 A 
ATOM      2  C4  UNL d   1      -0.047  -0.529  -0.128  0.00  0.00     0.002 A 
ATOM      3  C5  UNL d   1       0.194  -1.901  -0.211  0.00  0.00     0.002 A 
ATOM      4  C6  UNL d   1      -0.688  -2.726  -0.905  0.00  0.00    -0.004 A 
ATOM      5  C7  UNL d   1      -1.816  -2.178  -1.512  0.00  0.00     0.002 A 
ATOM      6  C8  UNL d   1      -2.058  -0.806  -1.435  0.00  0.00     0.002 A 
ENDROOT
BRANCH   1   7
ATOM      7  C2  UNL d   1      -1.422   1.523  -0.688  0.00  0.00     0.056 C 
BRANCH   7   8
ATOM      8  C1  UNL d   1      -1.373   2.106   0.728  0.00  0.00     0.007 C 
ATOM      9  C   UNL d   1      -0.098   2.890   1.010  0.00  0.00     0.009 C 
ENDBRANCH   7   8
ENDBRANCH   1   7
TORSDOF 2
ENDMDL
