MODEL 1
REMARK minimizedAffinity -2.69416904
REMARK minimizedRMSD -1
REMARK  2 active torsions:
REMARK  status: ('A' for Active; 'I' for Inactive)
REMARK    1  A    between atoms: C1_2  and  C2_3 
REMARK    2  A    between atoms: C2_3  and  C3_4 
ROOT
ATOM      1  C3  UNL d   1      -4.059   1.359  -0.474  0.00  0.00    -0.075 A 
ATOM      2  C4  UNL d   1      -3.831   1.722  -1.809  0.00  0.00     0.002 A 
ATOM      3  C5  UNL d   1      -4.412   2.875  -2.339  0.00  0.00     0.002 A 
ATOM      4  C6  UNL d   1      -5.234   3.671  -1.545  0.00  0.00    -0.004 A 
ATOM      5  C7  UNL d   1      -5.481   3.311  -0.222  0.00  0.00     0.002 A 
ATOM      6  C8  UNL d   1      -4.897   2.161   0.312  0.00  0.00     0.002 A 
ENDROOT
BRANCH   1   7
ATOM      7  C2  UNL d   1      -3.409   0.129   0.114  0.00  0.00     0.056 C 
BRANCH   7   8
ATOM      8  C1  UNL d   1      -1.956   0.340   0.553  0.00  0.00     0.007 C 
ATOM      9  C   UNL d   1      -0.980  -0.615  -0.121  0.00  0.00     0.009 C 
ENDBRANCH   7   8
ENDBRANCH   1   7
TORSDOF 2
ENDMDL
