MODEL 1
REMARK minimizedAffinity -3.98001504
REMARK minimizedRMSD -1
REMARK  3 active torsions:
REMARK  status: ('A' for Active; 'I' for Inactive)
REMARK    1  A    between atoms: C3'_2  and  C2'_3 
REMARK    2  A    between atoms: C2'_3  and  C1'_4 
REMARK    3  A    between atoms: C1'_4  and  C1_5 
ROOT
ATOM      1  C1  N4B d   1      -0.077   1.352  -0.498  0.00  0.00    -0.075 A 
ATOM      2  C2  N4B d   1      -0.397   2.470  -1.300  0.00  0.00     0.002 A 
ATOM      3  C3  N4B d   1      -1.678   2.634  -1.768  0.00  0.00     0.002 A 
ATOM      4  C4  N4B d   1      -2.646   1.689  -1.465  0.00  0.00    -0.004 A 
ATOM      5  C5  N4B d   1      -2.334   0.625  -0.669  0.00  0.00     0.002 A 
ATOM      6  C6  N4B d   1      -1.052   0.449  -0.188  0.00  0.00     0.002 A 
ENDROOT
BRANCH   1   7
ATOM      7  C1' N4B d   1       1.329   1.084  -0.035  0.00  0.00     0.057 C 
BRANCH   7   8
ATOM      8  C2' N4B d   1       1.716  -0.344  -0.407  0.00  0.00     0.009 C 
BRANCH   8   9
ATOM      9  C3' N4B d   1       2.249  -1.118   0.786  0.00  0.00     0.004 C 
ATOM     10  C4' N4B d   1       1.392  -2.296   1.144  0.00  0.00     0.003 C 
ENDBRANCH   8   9
ENDBRANCH   7   8
ENDBRANCH   1   7
TORSDOF 3
ENDMDL
