MODEL 1
REMARK minimizedAffinity -4.2404089
REMARK minimizedRMSD -1
REMARK  3 active torsions:
REMARK  status: ('A' for Active; 'I' for Inactive)
REMARK    1  A    between atoms: C3'_2  and  C2'_3 
REMARK    2  A    between atoms: C2'_3  and  C1'_4 
REMARK    3  A    between atoms: C1'_4  and  C1_5 
ROOT
ATOM      1  C1  N4B d   1       0.820  -0.409  -0.370  0.00  0.00    -0.075 A 
ATOM      2  C2  N4B d   1       2.020  -0.438   0.374  0.00  0.00     0.002 A 
ATOM      3  C3  N4B d   1       2.314  -1.524   1.162  0.00  0.00     0.002 A 
ATOM      4  C4  N4B d   1       1.418  -2.580   1.236  0.00  0.00    -0.004 A 
ATOM      5  C5  N4B d   1       0.273  -2.556   0.494  0.00  0.00     0.002 A 
ATOM      6  C6  N4B d   1      -0.033  -1.472  -0.305  0.00  0.00     0.002 A 
ENDROOT
BRANCH   1   7
ATOM      7  C1' N4B d   1       0.415   0.793  -1.177  0.00  0.00     0.057 C 
BRANCH   7   8
ATOM      8  C2' N4B d   1      -0.974   1.247  -0.739  0.00  0.00     0.009 C 
BRANCH   8   9
ATOM      9  C3' N4B d   1      -1.729   1.935  -1.864  0.00  0.00     0.004 C 
ATOM     10  C4' N4B d   1      -0.889   2.936  -2.599  0.00  0.00     0.003 C 
ENDBRANCH   8   9
ENDBRANCH   7   8
ENDBRANCH   1   7
TORSDOF 3
ENDMDL
