MODEL 1
REMARK minimizedAffinity -3.92534661
REMARK minimizedRMSD -1
REMARK  3 active torsions:
REMARK  status: ('A' for Active; 'I' for Inactive)
REMARK    1  A    between atoms: C3'_2  and  C2'_3 
REMARK    2  A    between atoms: C2'_3  and  C1'_4 
REMARK    3  A    between atoms: C1'_4  and  C1_5 
ROOT
ATOM      1  C1  N4B d   1      -0.295  -0.134  -0.140  0.00  0.00    -0.075 A 
ATOM      2  C2  N4B d   1      -0.429  -1.090   0.892  0.00  0.00     0.002 A 
ATOM      3  C3  N4B d   1       0.647  -1.863   1.255  0.00  0.00     0.002 A 
ATOM      4  C4  N4B d   1       1.855  -1.712   0.591  0.00  0.00    -0.004 A 
ATOM      5  C5  N4B d   1       1.982  -0.769  -0.387  0.00  0.00     0.002 A 
ATOM      6  C6  N4B d   1       0.911   0.017  -0.760  0.00  0.00     0.002 A 
ENDROOT
BRANCH   1   7
ATOM      7  C1' N4B d   1      -1.466   0.674  -0.630  0.00  0.00     0.057 C 
BRANCH   7   8
ATOM      8  C2' N4B d   1      -1.038   1.488  -1.847  0.00  0.00     0.009 C 
BRANCH   8   9
ATOM      9  C3' N4B d   1      -2.228   2.075  -2.586  0.00  0.00     0.004 C 
ATOM     10  C4' N4B d   1      -2.119   1.927  -4.074  0.00  0.00     0.003 C 
ENDBRANCH   8   9
ENDBRANCH   7   8
ENDBRANCH   1   7
TORSDOF 3
ENDMDL
