MODEL 1
REMARK minimizedAffinity -4.29898691
REMARK minimizedRMSD -1
REMARK  3 active torsions:
REMARK  status: ('A' for Active; 'I' for Inactive)
REMARK    1  A    between atoms: C3'_2  and  C2'_3 
REMARK    2  A    between atoms: C2'_3  and  C1'_4 
REMARK    3  A    between atoms: C1'_4  and  C1_5 
ROOT
ATOM      1  C1  N4B d   1       0.514  -1.081   0.334  0.00  0.00    -0.075 A 
ATOM      2  C2  N4B d   1       1.466  -2.123   0.311  0.00  0.00     0.002 A 
ATOM      3  C3  N4B d   1       1.548  -3.001   1.364  0.00  0.00     0.002 A 
ATOM      4  C4  N4B d   1       0.705  -2.846   2.454  0.00  0.00    -0.004 A 
ATOM      5  C5  N4B d   1      -0.230  -1.852   2.457  0.00  0.00     0.002 A 
ATOM      6  C6  N4B d   1      -0.326  -0.965   1.404  0.00  0.00     0.002 A 
ENDROOT
BRANCH   1   7
ATOM      7  C1' N4B d   1       0.444  -0.045  -0.755  0.00  0.00     0.057 C 
BRANCH   7   8
ATOM      8  C2' N4B d   1      -0.549   1.040  -0.351  0.00  0.00     0.009 C 
BRANCH   8   9
ATOM      9  C3' N4B d   1      -1.100   1.784  -1.555  0.00  0.00     0.004 C 
ATOM     10  C4' N4B d   1      -2.291   1.104  -2.163  0.00  0.00     0.003 C 
ENDBRANCH   8   9
ENDBRANCH   7   8
ENDBRANCH   1   7
TORSDOF 3
ENDMDL
