MODEL 1
REMARK minimizedAffinity -1.9842267
REMARK minimizedRMSD -1
REMARK  3 active torsions:
REMARK  status: ('A' for Active; 'I' for Inactive)
REMARK    1  A    between atoms: C3'_2  and  C2'_3 
REMARK    2  A    between atoms: C2'_3  and  C1'_4 
REMARK    3  A    between atoms: C1'_4  and  C1_5 
ROOT
ATOM      1  C1  N4B d   1       0.186   0.332   0.079  0.00  0.00    -0.075 A 
ATOM      2  C2  N4B d   1       1.487   0.359  -0.469  0.00  0.00     0.002 A 
ATOM      3  C3  N4B d   1       2.351  -0.684  -0.238  0.00  0.00     0.002 A 
ATOM      4  C4  N4B d   1       1.944  -1.750   0.550  0.00  0.00    -0.004 A 
ATOM      5  C5  N4B d   1       0.677  -1.781   1.054  0.00  0.00     0.002 A 
ATOM      6  C6  N4B d   1      -0.203  -0.742   0.827  0.00  0.00     0.002 A 
ENDROOT
BRANCH   1   7
ATOM      7  C1' N4B d   1      -0.765   1.487  -0.075  0.00  0.00     0.057 C 
BRANCH   7   8
ATOM      8  C2' N4B d   1      -1.568   1.308  -1.360  0.00  0.00     0.009 C 
BRANCH   8   9
ATOM      9  C3' N4B d   1      -1.393   2.483  -2.307  0.00  0.00     0.004 C 
ATOM     10  C4' N4B d   1      -1.872   2.184  -3.697  0.00  0.00     0.003 C 
ENDBRANCH   8   9
ENDBRANCH   7   8
ENDBRANCH   1   7
TORSDOF 3
ENDMDL
