MODEL 1
REMARK minimizedAffinity 1.06980908
REMARK minimizedRMSD -1
REMARK  0 active torsions:
REMARK  status: ('A' for Active; 'I' for Inactive)
ROOT
ATOM      1  C   UNL d   1      -2.014   0.982   1.143  0.00  0.00     0.124 A 
ATOM      2  C1  UNL d   1      -3.238   1.060   1.793  0.00  0.00     0.062 A 
ATOM      3  C2  UNL d   1      -4.377   0.514   1.209  0.00  0.00     0.162 A 
ATOM      4  C3  UNL d   1      -4.298  -0.117  -0.032  0.00  0.00    -0.034 A 
ATOM      5  C4  UNL d   1      -3.064  -0.191  -0.680  0.00  0.00     0.162 A 
ATOM      6  C5  UNL d   1      -1.928   0.356  -0.093  0.00  0.00     0.062 A 
ATOM      7  F   UNL d   1      -0.746   0.280  -0.722  0.00  0.00    -0.097 F 
ATOM      8  F1  UNL d   1      -2.952  -0.791  -1.875  0.00  0.00    -0.096 F 
ATOM      9  I   UNL d   1      -5.999  -0.936  -0.909  0.00  0.00    -0.060 I 
ATOM     10  F2  UNL d   1      -5.546   0.604   1.860  0.00  0.00    -0.096 F 
ATOM     11  F3  UNL d   1      -3.324   1.665   2.987  0.00  0.00    -0.097 F 
ATOM     12  F4  UNL d   1      -0.920   1.510   1.707  0.00  0.00    -0.092 F 
ENDROOT
TORSDOF 0
ENDMDL
