MODEL 1
REMARK minimizedAffinity -0.981463492
REMARK minimizedRMSD -1
REMARK  0 active torsions:
REMARK  status: ('A' for Active; 'I' for Inactive)
ROOT
ATOM      1  C   UNL d   1      -1.842   0.988  -0.036  0.00  0.00     0.124 A 
ATOM      2  C1  UNL d   1      -0.632   1.580  -0.371  0.00  0.00     0.062 A 
ATOM      3  C2  UNL d   1       0.567   0.950  -0.054  0.00  0.00     0.162 A 
ATOM      4  C3  UNL d   1       0.563  -0.282   0.601  0.00  0.00    -0.034 A 
ATOM      5  C4  UNL d   1      -0.658  -0.871   0.935  0.00  0.00     0.162 A 
ATOM      6  C5  UNL d   1      -1.854  -0.237   0.616  0.00  0.00     0.062 A 
ATOM      7  F   UNL d   1      -3.022  -0.811   0.940  0.00  0.00    -0.097 F 
ATOM      8  F1  UNL d   1      -0.698  -2.055   1.565  0.00  0.00    -0.096 F 
ATOM      9  I   UNL d   1       2.355  -1.228   1.077  0.00  0.00    -0.060 I 
ATOM     10  F2  UNL d   1       1.721   1.545  -0.389  0.00  0.00    -0.096 F 
ATOM     11  F3  UNL d   1      -0.619   2.764  -1.000  0.00  0.00    -0.097 F 
ATOM     12  F4  UNL d   1      -2.995   1.597  -0.342  0.00  0.00    -0.092 F 
ENDROOT
TORSDOF 0
ENDMDL
