MODEL 1
REMARK minimizedAffinity -0.785139084
REMARK minimizedRMSD -1
REMARK  0 active torsions:
REMARK  status: ('A' for Active; 'I' for Inactive)
ROOT
ATOM      1  C   UNL d   1       2.295  -1.671   0.589  0.00  0.00     0.124 A 
ATOM      2  C1  UNL d   1       1.674  -0.928   1.584  0.00  0.00     0.062 A 
ATOM      3  C2  UNL d   1       0.500  -0.233   1.309  0.00  0.00     0.162 A 
ATOM      4  C3  UNL d   1      -0.062  -0.278   0.033  0.00  0.00    -0.034 A 
ATOM      5  C4  UNL d   1       0.568  -1.026  -0.962  0.00  0.00     0.162 A 
ATOM      6  C5  UNL d   1       1.742  -1.719  -0.683  0.00  0.00     0.062 A 
ATOM      7  F   UNL d   1       2.340  -2.436  -1.646  0.00  0.00    -0.097 F 
ATOM      8  F1  UNL d   1       0.055  -1.091  -2.200  0.00  0.00    -0.096 F 
ATOM      9  I   UNL d   1      -1.818   0.760  -0.381  0.00  0.00    -0.060 I 
ATOM     10  F2  UNL d   1      -0.078   0.476   2.290  0.00  0.00    -0.096 F 
ATOM     11  F3  UNL d   1       2.208  -0.880   2.813  0.00  0.00    -0.097 F 
ATOM     12  F4  UNL d   1       3.425  -2.338   0.855  0.00  0.00    -0.092 F 
ENDROOT
TORSDOF 0
ENDMDL
