MODEL 1
REMARK minimizedAffinity -1.76541758
REMARK minimizedRMSD -1
REMARK  0 active torsions:
REMARK  status: ('A' for Active; 'I' for Inactive)
ROOT
ATOM      1  C   UNL d   1      -4.703   0.370   0.414  0.00  0.00     0.124 A 
ATOM      2  C1  UNL d   1      -4.091   0.933   1.525  0.00  0.00     0.062 A 
ATOM      3  C2  UNL d   1      -2.743   1.276   1.484  0.00  0.00     0.162 A 
ATOM      4  C3  UNL d   1      -1.996   1.057   0.326  0.00  0.00    -0.034 A 
ATOM      5  C4  UNL d   1      -2.618   0.490  -0.788  0.00  0.00     0.162 A 
ATOM      6  C5  UNL d   1      -3.966   0.149  -0.741  0.00  0.00     0.062 A 
ATOM      7  F   UNL d   1      -4.555  -0.395  -1.816  0.00  0.00    -0.097 F 
ATOM      8  F1  UNL d   1      -1.930   0.266  -1.917  0.00  0.00    -0.096 F 
ATOM      9  I   UNL d   1       0.020   1.568   0.260  0.00  0.00    -0.060 I 
ATOM     10  F2  UNL d   1      -2.178   1.818   2.573  0.00  0.00    -0.096 F 
ATOM     11  F3  UNL d   1      -4.800   1.147   2.643  0.00  0.00    -0.097 F 
ATOM     12  F4  UNL d   1      -6.000   0.040   0.457  0.00  0.00    -0.092 F 
ENDROOT
TORSDOF 0
ENDMDL
