MODEL 1
REMARK minimizedAffinity -2.62712359
REMARK minimizedRMSD -1
REMARK  0 active torsions:
REMARK  status: ('A' for Active; 'I' for Inactive)
ROOT
ATOM      1  C   UNL d   1       3.182  -0.088   0.440  0.00  0.00     0.124 A 
ATOM      2  C1  UNL d   1       2.338  -1.184   0.553  0.00  0.00     0.062 A 
ATOM      3  C2  UNL d   1       0.959  -1.020   0.456  0.00  0.00     0.162 A 
ATOM      4  C3  UNL d   1       0.415   0.247   0.244  0.00  0.00    -0.034 A 
ATOM      5  C4  UNL d   1       1.270   1.345   0.131  0.00  0.00     0.162 A 
ATOM      6  C5  UNL d   1       2.647   1.175   0.229  0.00  0.00     0.062 A 
ATOM      7  F   UNL d   1       3.461   2.235   0.119  0.00  0.00    -0.097 F 
ATOM      8  F1  UNL d   1       0.781   2.577  -0.074  0.00  0.00    -0.096 F 
ATOM      9  I   UNL d   1      -1.646   0.498   0.098  0.00  0.00    -0.060 I 
ATOM     10  F2  UNL d   1       0.168  -2.097   0.570  0.00  0.00    -0.096 F 
ATOM     11  F3  UNL d   1       2.852  -2.406   0.758  0.00  0.00    -0.097 F 
ATOM     12  F4  UNL d   1       4.508  -0.250   0.534  0.00  0.00    -0.092 F 
ENDROOT
TORSDOF 0
ENDMDL
