MODEL 1
REMARK minimizedAffinity -0.512166798
REMARK minimizedRMSD -1
REMARK  0 active torsions:
REMARK  status: ('A' for Active; 'I' for Inactive)
ROOT
ATOM      1  C   UNL d   1      -4.630   0.434   1.701  0.00  0.00     0.124 A 
ATOM      2  C1  UNL d   1      -4.729  -0.357   0.565  0.00  0.00     0.062 A 
ATOM      3  C2  UNL d   1      -3.703  -0.363  -0.376  0.00  0.00     0.162 A 
ATOM      4  C3  UNL d   1      -2.567   0.424  -0.183  0.00  0.00    -0.034 A 
ATOM      5  C4  UNL d   1      -2.475   1.217   0.962  0.00  0.00     0.162 A 
ATOM      6  C5  UNL d   1      -3.504   1.220   1.899  0.00  0.00     0.062 A 
ATOM      7  F   UNL d   1      -3.406   1.984   2.996  0.00  0.00    -0.097 F 
ATOM      8  F1  UNL d   1      -1.398   1.986   1.179  0.00  0.00    -0.096 F 
ATOM      9  I   UNL d   1      -1.031   0.418  -1.586  0.00  0.00    -0.060 I 
ATOM     10  F2  UNL d   1      -3.826  -1.136  -1.465  0.00  0.00    -0.096 F 
ATOM     11  F3  UNL d   1      -5.817  -1.116   0.371  0.00  0.00    -0.097 F 
ATOM     12  F4  UNL d   1      -5.620   0.438   2.604  0.00  0.00    -0.092 F 
ENDROOT
TORSDOF 0
ENDMDL
