MODEL 1
REMARK minimizedAffinity 3.31079626
REMARK minimizedRMSD -1
REMARK  0 active torsions:
REMARK  status: ('A' for Active; 'I' for Inactive)
ROOT
ATOM      1  C   UNL d   1       2.450  -0.125  -0.614  0.00  0.00     0.124 A 
ATOM      2  C1  UNL d   1       2.014   1.191  -0.549  0.00  0.00     0.062 A 
ATOM      3  C2  UNL d   1       0.673   1.473  -0.307  0.00  0.00     0.162 A 
ATOM      4  C3  UNL d   1      -0.243   0.436  -0.127  0.00  0.00    -0.034 A 
ATOM      5  C4  UNL d   1       0.203  -0.885  -0.195  0.00  0.00     0.162 A 
ATOM      6  C5  UNL d   1       1.545  -1.161  -0.437  0.00  0.00     0.062 A 
ATOM      7  F   UNL d   1       1.964  -2.433  -0.500  0.00  0.00    -0.097 F 
ATOM      8  F1  UNL d   1      -0.651  -1.906  -0.027  0.00  0.00    -0.096 F 
ATOM      9  I   UNL d   1      -2.250   0.853   0.234  0.00  0.00    -0.060 I 
ATOM     10  F2  UNL d   1       0.279   2.754  -0.249  0.00  0.00    -0.096 F 
ATOM     11  F3  UNL d   1       2.887   2.195  -0.720  0.00  0.00    -0.097 F 
ATOM     12  F4  UNL d   1       3.741  -0.393  -0.848  0.00  0.00    -0.092 F 
ENDROOT
TORSDOF 0
ENDMDL
