MODEL 1
REMARK minimizedAffinity -1.0478512
REMARK minimizedRMSD -1
REMARK  0 active torsions:
REMARK  status: ('A' for Active; 'I' for Inactive)
ROOT
ATOM      1  C   UNL d   1      -4.420  -0.091   0.029  0.00  0.00     0.124 A 
ATOM      2  C1  UNL d   1      -3.989   0.568   1.173  0.00  0.00     0.062 A 
ATOM      3  C2  UNL d   1      -2.718   1.132   1.219  0.00  0.00     0.162 A 
ATOM      4  C3  UNL d   1      -1.867   1.041   0.117  0.00  0.00    -0.034 A 
ATOM      5  C4  UNL d   1      -2.307   0.376  -1.029  0.00  0.00     0.162 A 
ATOM      6  C5  UNL d   1      -3.579  -0.186  -1.070  0.00  0.00     0.062 A 
ATOM      7  F   UNL d   1      -3.993  -0.823  -2.176  0.00  0.00    -0.097 F 
ATOM      8  F1  UNL d   1      -1.515   0.270  -2.107  0.00  0.00    -0.096 F 
ATOM      9  I   UNL d   1       0.035   1.883   0.181  0.00  0.00    -0.060 I 
ATOM     10  F2  UNL d   1      -2.328   1.762   2.336  0.00  0.00    -0.096 F 
ATOM     11  F3  UNL d   1      -4.800   0.660   2.237  0.00  0.00    -0.097 F 
ATOM     12  F4  UNL d   1      -5.644  -0.634  -0.012  0.00  0.00    -0.092 F 
ENDROOT
TORSDOF 0
ENDMDL
