MODEL 1
REMARK minimizedAffinity -0.585223019
REMARK minimizedRMSD -1
REMARK  0 active torsions:
REMARK  status: ('A' for Active; 'I' for Inactive)
ROOT
ATOM      1  C1  BNZ d   1       1.544   0.391  -0.720  0.00  0.00     0.000 A 
ATOM      2  C2  BNZ d   1       0.518   1.296  -0.794  0.00  0.00     0.000 A 
ATOM      3  C3  BNZ d   1      -0.654   1.081  -0.125  0.00  0.00     0.000 A 
ATOM      4  C4  BNZ d   1      -0.815  -0.055   0.584  0.00  0.00     0.000 A 
ATOM      5  C5  BNZ d   1       0.206  -0.981   0.661  0.00  0.00     0.000 A 
ATOM      6  C6  BNZ d   1       1.399  -0.744   0.018  0.00  0.00     0.000 A 
ENDROOT
TORSDOF 0
ENDMDL
