MODEL 1
REMARK minimizedAffinity -4.87062883
REMARK minimizedRMSD -1
REMARK  0 active torsions:
REMARK  status: ('A' for Active; 'I' for Inactive)
ROOT
ATOM      1  C1  BNZ d   1       1.127  -2.039   2.214  0.00  0.00     0.000 A 
ATOM      2  C2  BNZ d   1       1.750  -1.550   1.097  0.00  0.00     0.000 A 
ATOM      3  C3  BNZ d   1       1.221  -0.497   0.405  0.00  0.00     0.000 A 
ATOM      4  C4  BNZ d   1       0.050   0.039   0.806  0.00  0.00     0.000 A 
ATOM      5  C5  BNZ d   1      -0.595  -0.449   1.925  0.00  0.00     0.000 A 
ATOM      6  C6  BNZ d   1      -0.040  -1.484   2.642  0.00  0.00     0.000 A 
ENDROOT
TORSDOF 0
ENDMDL
