MODEL 1
REMARK minimizedAffinity -5.32524824
REMARK minimizedRMSD -1
REMARK  0 active torsions:
REMARK  status: ('A' for Active; 'I' for Inactive)
ROOT
ATOM      1  C1  BNZ d   1       1.085  -2.482   1.720  0.00  0.00     0.000 A 
ATOM      2  C2  BNZ d   1       1.667  -1.899   0.626  0.00  0.00     0.000 A 
ATOM      3  C3  BNZ d   1       1.136  -0.769   0.070  0.00  0.00     0.000 A 
ATOM      4  C4  BNZ d   1       0.003  -0.246   0.582  0.00  0.00     0.000 A 
ATOM      5  C5  BNZ d   1      -0.601  -0.828   1.679  0.00  0.00     0.000 A 
ATOM      6  C6  BNZ d   1      -0.042  -1.943   2.260  0.00  0.00     0.000 A 
ENDROOT
TORSDOF 0
ENDMDL
