MODEL 1
REMARK minimizedAffinity -4.54907465
REMARK minimizedRMSD -1
REMARK  0 active torsions:
REMARK  status: ('A' for Active; 'I' for Inactive)
ROOT
ATOM      1  C1  BNZ d   1       1.677  -2.438   0.677  0.00  0.00     0.000 A 
ATOM      2  C2  BNZ d   1       1.168  -2.845   1.882  0.00  0.00     0.000 A 
ATOM      3  C3  BNZ d   1       0.050  -2.257   2.404  0.00  0.00     0.000 A 
ATOM      4  C4  BNZ d   1      -0.533  -1.237   1.742  0.00  0.00     0.000 A 
ATOM      5  C5  BNZ d   1      -0.026  -0.808   0.532  0.00  0.00     0.000 A 
ATOM      6  C6  BNZ d   1       1.076  -1.429  -0.010  0.00  0.00     0.000 A 
ENDROOT
TORSDOF 0
ENDMDL
