MODEL 1
REMARK minimizedAffinity -3.5808146
REMARK minimizedRMSD -1
REMARK  0 active torsions:
REMARK  status: ('A' for Active; 'I' for Inactive)
ROOT
ATOM      1  C1  BNZ d   1      -0.154  -0.811   0.510  0.00  0.00     0.000 A 
ATOM      2  C2  BNZ d   1       1.043  -1.181  -0.044  0.00  0.00     0.000 A 
ATOM      3  C3  BNZ d   1       1.867  -2.064   0.597  0.00  0.00     0.000 A 
ATOM      4  C4  BNZ d   1       1.512  -2.544   1.806  0.00  0.00     0.000 A 
ATOM      5  C5  BNZ d   1       0.313  -2.174   2.381  0.00  0.00     0.000 A 
ATOM      6  C6  BNZ d   1      -0.532  -1.315   1.716  0.00  0.00     0.000 A 
ENDROOT
TORSDOF 0
ENDMDL
