MODEL 1
REMARK minimizedAffinity -4.7310338
REMARK minimizedRMSD -1
REMARK  0 active torsions:
REMARK  status: ('A' for Active; 'I' for Inactive)
ROOT
ATOM      1  C1  BNZ d   1       0.469  -1.839   1.797  0.00  0.00     0.000 A 
ATOM      2  C2  BNZ d   1      -0.164  -0.882   1.049  0.00  0.00     0.000 A 
ATOM      3  C3  BNZ d   1       0.544  -0.071   0.207  0.00  0.00     0.000 A 
ATOM      4  C4  BNZ d   1       1.885  -0.190   0.143  0.00  0.00     0.000 A 
ATOM      5  C5  BNZ d   1       2.539  -1.144   0.898  0.00  0.00     0.000 A 
ATOM      6  C6  BNZ d   1       1.819  -1.985   1.715  0.00  0.00     0.000 A 
ENDROOT
TORSDOF 0
ENDMDL
