MODEL 1
REMARK minimizedAffinity -4.78366327
REMARK minimizedRMSD -1
REMARK  0 active torsions:
REMARK  status: ('A' for Active; 'I' for Inactive)
ROOT
ATOM      1  C1  BNZ d   1       1.319  -1.306   0.349  0.00  0.00     0.000 A 
ATOM      2  C2  BNZ d   1       1.160  -0.124  -0.323  0.00  0.00     0.000 A 
ATOM      3  C3  BNZ d   1       0.081   0.679  -0.081  0.00  0.00     0.000 A 
ATOM      4  C4  BNZ d   1      -0.858   0.281   0.801  0.00  0.00     0.000 A 
ATOM      5  C5  BNZ d   1      -0.717  -0.913   1.480  0.00  0.00     0.000 A 
ATOM      6  C6  BNZ d   1       0.390  -1.701   1.263  0.00  0.00     0.000 A 
ENDROOT
TORSDOF 0
ENDMDL
