MODEL 1
REMARK minimizedAffinity -3.82607865
REMARK minimizedRMSD -1
REMARK  0 active torsions:
REMARK  status: ('A' for Active; 'I' for Inactive)
ROOT
ATOM      1  C1  BNZ d   1       1.236  -2.148   0.663  0.00  0.00     0.000 A 
ATOM      2  C2  BNZ d   1       2.097  -1.457  -0.148  0.00  0.00     0.000 A 
ATOM      3  C3  BNZ d   1       1.743  -0.246  -0.673  0.00  0.00     0.000 A 
ATOM      4  C4  BNZ d   1       0.516   0.254  -0.420  0.00  0.00     0.000 A 
ATOM      5  C5  BNZ d   1      -0.366  -0.435   0.388  0.00  0.00     0.000 A 
ATOM      6  C6  BNZ d   1       0.008  -1.636   0.947  0.00  0.00     0.000 A 
ENDROOT
TORSDOF 0
ENDMDL
