MODEL 1
REMARK minimizedAffinity -4.21133566
REMARK minimizedRMSD -1
REMARK  0 active torsions:
REMARK  status: ('A' for Active; 'I' for Inactive)
ROOT
ATOM      1  C1  BNZ d   1      -0.106  -1.915   2.459  0.00  0.00     0.000 A 
ATOM      2  C2  BNZ d   1      -0.654  -0.975   1.628  0.00  0.00     0.000 A 
ATOM      3  C3  BNZ d   1       0.097  -0.376   0.655  0.00  0.00     0.000 A 
ATOM      4  C4  BNZ d   1       1.404  -0.689   0.541  0.00  0.00     0.000 A 
ATOM      5  C5  BNZ d   1       1.974  -1.628   1.377  0.00  0.00     0.000 A 
ATOM      6  C6  BNZ d   1       1.205  -2.257   2.329  0.00  0.00     0.000 A 
ENDROOT
TORSDOF 0
ENDMDL
