MODEL 1
REMARK minimizedAffinity -3.40299702
REMARK minimizedRMSD -1
REMARK  0 active torsions:
REMARK  status: ('A' for Active; 'I' for Inactive)
ROOT
ATOM      1  C1  BNZ d   1      -0.360   0.171   0.092  0.00  0.00     0.000 A 
ATOM      2  C2  BNZ d   1      -0.330  -1.030   0.748  0.00  0.00     0.000 A 
ATOM      3  C3  BNZ d   1       0.797  -1.803   0.742  0.00  0.00     0.000 A 
ATOM      4  C4  BNZ d   1       1.877  -1.394   0.046  0.00  0.00     0.000 A 
ATOM      5  C5  BNZ d   1       1.859  -0.190  -0.629  0.00  0.00     0.000 A 
ATOM      6  C6  BNZ d   1       0.736   0.604  -0.588  0.00  0.00     0.000 A 
ENDROOT
TORSDOF 0
ENDMDL
