MODEL 1
REMARK minimizedAffinity -5.6309104
REMARK minimizedRMSD -1
REMARK  0 active torsions:
REMARK  status: ('A' for Active; 'I' for Inactive)
ROOT
ATOM      1  C1  BNZ d   1      -0.359  -0.939   0.864  0.00  0.00     0.000 A 
ATOM      2  C2  BNZ d   1       0.747  -1.459   0.247  0.00  0.00     0.000 A 
ATOM      3  C3  BNZ d   1       1.505  -2.418   0.860  0.00  0.00     0.000 A 
ATOM      4  C4  BNZ d   1       1.179  -2.825   2.104  0.00  0.00     0.000 A 
ATOM      5  C5  BNZ d   1       0.072  -2.303   2.743  0.00  0.00     0.000 A 
ATOM      6  C6  BNZ d   1      -0.711  -1.367   2.108  0.00  0.00     0.000 A 
ENDROOT
TORSDOF 0
ENDMDL
