MODEL 1
REMARK minimizedAffinity -3.61644411
REMARK minimizedRMSD -1
REMARK  0 active torsions:
REMARK  status: ('A' for Active; 'I' for Inactive)
ROOT
ATOM      1  C1  BNZ d   1      -1.826   0.204   1.447  0.00  0.00     0.000 A 
ATOM      2  C2  BNZ d   1      -1.272   1.184   0.668  0.00  0.00     0.000 A 
ATOM      3  C3  BNZ d   1      -0.200   0.915  -0.138  0.00  0.00     0.000 A 
ATOM      4  C4  BNZ d   1       0.340  -0.320  -0.132  0.00  0.00     0.000 A 
ATOM      5  C5  BNZ d   1      -0.202  -1.317   0.655  0.00  0.00     0.000 A 
ATOM      6  C6  BNZ d   1      -1.304  -1.053   1.435  0.00  0.00     0.000 A 
ENDROOT
TORSDOF 0
ENDMDL
