MODEL 1
REMARK minimizedAffinity -4.21593714
REMARK minimizedRMSD -1
REMARK  0 active torsions:
REMARK  status: ('A' for Active; 'I' for Inactive)
ROOT
ATOM      1  C1  BNZ d   1       0.872  -2.400   2.219  0.00  0.00     0.000 A 
ATOM      2  C2  BNZ d   1      -0.342  -1.862   2.553  0.00  0.00     0.000 A 
ATOM      3  C3  BNZ d   1      -1.031  -1.085   1.664  0.00  0.00     0.000 A 
ATOM      4  C4  BNZ d   1      -0.488  -0.815   0.460  0.00  0.00     0.000 A 
ATOM      5  C5  BNZ d   1       0.740  -1.342   0.112  0.00  0.00     0.000 A 
ATOM      6  C6  BNZ d   1       1.413  -2.156   0.995  0.00  0.00     0.000 A 
ENDROOT
TORSDOF 0
ENDMDL
