MODEL 1
REMARK minimizedAffinity -4.75167322
REMARK minimizedRMSD -1
REMARK  0 active torsions:
REMARK  status: ('A' for Active; 'I' for Inactive)
ROOT
ATOM      1  C1  BNZ d   1      -0.424  -0.659   0.367  0.00  0.00     0.000 A 
ATOM      2  C2  BNZ d   1      -0.168  -1.801   1.078  0.00  0.00     0.000 A 
ATOM      3  C3  BNZ d   1       1.068  -2.384   1.046  0.00  0.00     0.000 A 
ATOM      4  C4  BNZ d   1       2.034  -1.847   0.272  0.00  0.00     0.000 A 
ATOM      5  C5  BNZ d   1       1.789  -0.700  -0.457  0.00  0.00     0.000 A 
ATOM      6  C6  BNZ d   1       0.555  -0.095  -0.392  0.00  0.00     0.000 A 
ENDROOT
TORSDOF 0
ENDMDL
