MODEL 1
REMARK minimizedAffinity 0.841588497
REMARK minimizedRMSD -1
REMARK  0 active torsions:
REMARK  status: ('A' for Active; 'I' for Inactive)
ROOT
ATOM      1  C   UNL d   1       0.621  -4.838   5.323  0.00  0.00     0.077 C 
ATOM      2  C1  UNL d   1       1.504  -4.024   4.426  0.00  0.00    -0.074 A 
ATOM      3  C2  UNL d   1       2.682  -4.561   3.896  0.00  0.00    -0.005 A 
ATOM      4  C3  UNL d   1       3.488  -3.795   3.055  0.00  0.00     0.006 A 
ATOM      5  C4  UNL d   1       3.127  -2.485   2.736  0.00  0.00    -0.005 A 
ATOM      6  C5  UNL d   1       1.953  -1.931   3.256  0.00  0.00    -0.074 A 
ATOM      7  C6  UNL d   1       1.544  -0.529   2.916  0.00  0.00     0.077 C 
ATOM      8  C7  UNL d   1       1.144  -2.710   4.095  0.00  0.00    -0.001 A 
ENDROOT
TORSDOF 0
ENDMDL
