MODEL 1
REMARK minimizedAffinity 2.79462719
REMARK minimizedRMSD -1
REMARK  0 active torsions:
REMARK  status: ('A' for Active; 'I' for Inactive)
ROOT
ATOM      1  C   UNL d   1       5.999  -2.646   3.558  0.00  0.00     0.077 C 
ATOM      2  C1  UNL d   1       4.584  -3.117   3.712  0.00  0.00    -0.074 A 
ATOM      3  C2  UNL d   1       3.582  -2.684   2.838  0.00  0.00    -0.005 A 
ATOM      4  C3  UNL d   1       2.272  -3.138   2.988  0.00  0.00     0.006 A 
ATOM      5  C4  UNL d   1       1.951  -4.028   4.013  0.00  0.00    -0.005 A 
ATOM      6  C5  UNL d   1       2.939  -4.474   4.897  0.00  0.00    -0.074 A 
ATOM      7  C6  UNL d   1       2.612  -5.438   5.998  0.00  0.00     0.077 C 
ATOM      8  C7  UNL d   1       4.254  -4.018   4.735  0.00  0.00    -0.001 A 
ENDROOT
TORSDOF 0
ENDMDL
