MODEL 1
REMARK minimizedAffinity -0.916785955
REMARK minimizedRMSD -1
REMARK  0 active torsions:
REMARK  status: ('A' for Active; 'I' for Inactive)
ROOT
ATOM      1  C   UNL d   1       4.270  -5.622  -1.607  0.00  0.00     0.077 C 
ATOM      2  C1  UNL d   1       4.321  -5.735  -3.102  0.00  0.00    -0.074 A 
ATOM      3  C2  UNL d   1       5.544  -5.784  -3.778  0.00  0.00    -0.005 A 
ATOM      4  C3  UNL d   1       5.575  -5.899  -5.168  0.00  0.00     0.006 A 
ATOM      5  C4  UNL d   1       4.385  -5.966  -5.894  0.00  0.00    -0.005 A 
ATOM      6  C5  UNL d   1       3.153  -5.919  -5.235  0.00  0.00    -0.074 A 
ATOM      7  C6  UNL d   1       1.865  -5.999  -6.000  0.00  0.00     0.077 C 
ATOM      8  C7  UNL d   1       3.130  -5.810  -3.838  0.00  0.00    -0.001 A 
ENDROOT
TORSDOF 0
ENDMDL
