MODEL 1
REMARK minimizedAffinity 2.91673708
REMARK minimizedRMSD -1
REMARK  0 active torsions:
REMARK  status: ('A' for Active; 'I' for Inactive)
ROOT
ATOM      1  C   UNL d   1       5.646  -2.864   3.839  0.00  0.00     0.077 C 
ATOM      2  C1  UNL d   1       4.170  -2.961   3.596  0.00  0.00    -0.074 A 
ATOM      3  C2  UNL d   1       3.431  -4.045   4.080  0.00  0.00    -0.005 A 
ATOM      4  C3  UNL d   1       2.056  -4.117   3.854  0.00  0.00     0.006 A 
ATOM      5  C4  UNL d   1       1.408  -3.107   3.143  0.00  0.00    -0.005 A 
ATOM      6  C5  UNL d   1       2.130  -2.015   2.651  0.00  0.00    -0.074 A 
ATOM      7  C6  UNL d   1       1.447  -0.915   1.893  0.00  0.00     0.077 C 
ATOM      8  C7  UNL d   1       3.509  -1.946   2.889  0.00  0.00    -0.001 A 
ENDROOT
TORSDOF 0
ENDMDL
