MODEL 1
REMARK minimizedAffinity 2.91890359
REMARK minimizedRMSD -1
REMARK  0 active torsions:
REMARK  status: ('A' for Active; 'I' for Inactive)
ROOT
ATOM      1  C   UNL d   1       1.367   0.232   3.705  0.00  0.00     0.077 C 
ATOM      2  C1  UNL d   1       1.637  -1.229   3.495  0.00  0.00    -0.074 A 
ATOM      3  C2  UNL d   1       2.349  -1.675   2.377  0.00  0.00    -0.005 A 
ATOM      4  C3  UNL d   1       2.600  -3.035   2.200  0.00  0.00     0.006 A 
ATOM      5  C4  UNL d   1       2.143  -3.962   3.138  0.00  0.00    -0.005 A 
ATOM      6  C5  UNL d   1       1.430  -3.535   4.262  0.00  0.00    -0.074 A 
ATOM      7  C6  UNL d   1       0.939  -4.517   5.284  0.00  0.00     0.077 C 
ATOM      8  C7  UNL d   1       1.187  -2.165   4.436  0.00  0.00    -0.001 A 
ENDROOT
TORSDOF 0
ENDMDL
