MODEL 1
REMARK minimizedAffinity 2.71248651
REMARK minimizedRMSD -1
REMARK  0 active torsions:
REMARK  status: ('A' for Active; 'I' for Inactive)
ROOT
ATOM      1  C   UNL d   1       1.238  -4.050   5.990  0.00  0.00     0.077 C 
ATOM      2  C1  UNL d   1       1.513  -3.709   4.556  0.00  0.00    -0.074 A 
ATOM      3  C2  UNL d   1       1.889  -4.698   3.641  0.00  0.00    -0.005 A 
ATOM      4  C3  UNL d   1       2.132  -4.367   2.308  0.00  0.00     0.006 A 
ATOM      5  C4  UNL d   1       2.002  -3.046   1.877  0.00  0.00    -0.005 A 
ATOM      6  C5  UNL d   1       1.626  -2.044   2.777  0.00  0.00    -0.074 A 
ATOM      7  C6  UNL d   1       1.472  -0.622   2.328  0.00  0.00     0.077 C 
ATOM      8  C7  UNL d   1       1.377  -2.386   4.113  0.00  0.00    -0.001 A 
ENDROOT
TORSDOF 0
ENDMDL
