MODEL 1
REMARK minimizedAffinity 11.8318758
REMARK minimizedRMSD -1
REMARK  0 active torsions:
REMARK  status: ('A' for Active; 'I' for Inactive)
ROOT
ATOM      1  C   UNL d   1       1.608  -0.868   2.305  0.00  0.00     0.077 C 
ATOM      2  C1  UNL d   1       2.110  -2.114   2.973  0.00  0.00    -0.074 A 
ATOM      3  C2  UNL d   1       1.376  -3.303   2.922  0.00  0.00    -0.005 A 
ATOM      4  C3  UNL d   1       1.860  -4.456   3.540  0.00  0.00     0.006 A 
ATOM      5  C4  UNL d   1       3.081  -4.431   4.214  0.00  0.00    -0.005 A 
ATOM      6  C5  UNL d   1       3.830  -3.252   4.276  0.00  0.00    -0.074 A 
ATOM      7  C6  UNL d   1       5.149  -3.211   4.988  0.00  0.00     0.077 C 
ATOM      8  C7  UNL d   1       3.340  -2.099   3.646  0.00  0.00    -0.001 A 
ENDROOT
TORSDOF 0
ENDMDL
