MODEL 1
REMARK minimizedAffinity 4.83791733
REMARK minimizedRMSD -1
REMARK  0 active torsions:
REMARK  status: ('A' for Active; 'I' for Inactive)
ROOT
ATOM      1  C   UNL d   1       1.915  -4.873   2.991  0.00  0.00     0.077 C 
ATOM      2  C1  UNL d   1       1.862  -3.383   3.155  0.00  0.00    -0.074 A 
ATOM      3  C2  UNL d   1       1.846  -2.538   2.041  0.00  0.00    -0.005 A 
ATOM      4  C3  UNL d   1       1.787  -1.154   2.208  0.00  0.00     0.006 A 
ATOM      5  C4  UNL d   1       1.743  -0.603   3.490  0.00  0.00    -0.005 A 
ATOM      6  C5  UNL d   1       1.758  -1.432   4.615  0.00  0.00    -0.074 A 
ATOM      7  C6  UNL d   1       1.702  -0.857   5.999  0.00  0.00     0.077 C 
ATOM      8  C7  UNL d   1       1.810  -2.822   4.439  0.00  0.00    -0.001 A 
ENDROOT
TORSDOF 0
ENDMDL
