MODEL 1
REMARK minimizedAffinity 2.5360291
REMARK minimizedRMSD -1
REMARK  0 active torsions:
REMARK  status: ('A' for Active; 'I' for Inactive)
ROOT
ATOM      1  C   UNL d   1       1.062  -5.927  -2.245  0.00  0.00     0.077 C 
ATOM      2  C1  UNL d   1       1.980  -5.946  -3.431  0.00  0.00    -0.074 A 
ATOM      3  C2  UNL d   1       1.471  -5.955  -4.734  0.00  0.00    -0.005 A 
ATOM      4  C3  UNL d   1       2.338  -5.963  -5.827  0.00  0.00     0.006 A 
ATOM      5  C4  UNL d   1       3.719  -5.963  -5.628  0.00  0.00    -0.005 A 
ATOM      6  C5  UNL d   1       4.246  -5.953  -4.333  0.00  0.00    -0.074 A 
ATOM      7  C6  UNL d   1       5.728  -5.943  -4.102  0.00  0.00     0.077 C 
ATOM      8  C7  UNL d   1       3.369  -5.938  -3.240  0.00  0.00    -0.001 A 
ENDROOT
TORSDOF 0
ENDMDL
