MODEL 1
REMARK minimizedAffinity 3.56486082
REMARK minimizedRMSD -1
REMARK  0 active torsions:
REMARK  status: ('A' for Active; 'I' for Inactive)
ROOT
ATOM      1  C   UNL d   1      -0.000  -6.000   5.997  0.00  0.00     0.077 C 
ATOM      2  C1  UNL d   1       1.110  -5.174   5.419  0.00  0.00    -0.074 A 
ATOM      3  C2  UNL d   1       2.443  -5.420   5.763  0.00  0.00    -0.005 A 
ATOM      4  C3  UNL d   1       3.466  -4.649   5.209  0.00  0.00     0.006 A 
ATOM      5  C4  UNL d   1       3.166  -3.626   4.309  0.00  0.00    -0.005 A 
ATOM      6  C5  UNL d   1       1.839  -3.366   3.952  0.00  0.00    -0.074 A 
ATOM      7  C6  UNL d   1       1.500  -2.277   2.978  0.00  0.00     0.077 C 
ATOM      8  C7  UNL d   1       0.817  -4.150   4.507  0.00  0.00    -0.001 A 
ENDROOT
TORSDOF 0
ENDMDL
