MODEL 1
REMARK minimizedAffinity 17.6039028
REMARK minimizedRMSD -1
REMARK  0 active torsions:
REMARK  status: ('A' for Active; 'I' for Inactive)
ROOT
ATOM      1  C   UNL d   1      -5.497  -3.422  -6.000  0.00  0.00     0.077 C 
ATOM      2  C1  UNL d   1      -5.228  -2.898  -4.620  0.00  0.00    -0.074 A 
ATOM      3  C2  UNL d   1      -6.000  -3.313  -3.530  0.00  0.00    -0.005 A 
ATOM      4  C3  UNL d   1      -5.731  -2.824  -2.252  0.00  0.00     0.006 A 
ATOM      5  C4  UNL d   1      -4.690  -1.918  -2.050  0.00  0.00    -0.005 A 
ATOM      6  C5  UNL d   1      -3.906  -1.493  -3.128  0.00  0.00    -0.074 A 
ATOM      7  C6  UNL d   1      -2.776  -0.527  -2.927  0.00  0.00     0.077 C 
ATOM      8  C7  UNL d   1      -4.178  -1.993  -4.408  0.00  0.00    -0.001 A 
ENDROOT
TORSDOF 0
ENDMDL
