MODEL 1
REMARK minimizedAffinity 6.26436138
REMARK minimizedRMSD -1
REMARK  0 active torsions:
REMARK  status: ('A' for Active; 'I' for Inactive)
ROOT
ATOM      1  C   UNL d   1       1.287  -1.971   2.526  0.00  0.00     0.077 C 
ATOM      2  C1  UNL d   1       1.718  -0.544   2.687  0.00  0.00    -0.074 A 
ATOM      3  C2  UNL d   1       1.418   0.171   3.851  0.00  0.00    -0.005 A 
ATOM      4  C3  UNL d   1       1.834   1.495   3.990  0.00  0.00     0.006 A 
ATOM      5  C4  UNL d   1       2.552   2.117   2.968  0.00  0.00    -0.005 A 
ATOM      6  C5  UNL d   1       2.862   1.418   1.797  0.00  0.00    -0.074 A 
ATOM      7  C6  UNL d   1       3.642   2.068   0.694  0.00  0.00     0.077 C 
ATOM      8  C7  UNL d   1       2.447   0.085   1.668  0.00  0.00    -0.001 A 
ENDROOT
TORSDOF 0
ENDMDL
