MODEL 1
REMARK minimizedAffinity 13.6595478
REMARK minimizedRMSD -1
REMARK  0 active torsions:
REMARK  status: ('A' for Active; 'I' for Inactive)
ROOT
ATOM      1  C   UNL d   1      -1.549  -1.555  -1.724  0.00  0.00    -0.002 A 
ATOM      2  C1  UNL d   1      -2.337  -2.138  -2.706  0.00  0.00     0.010 A 
ATOM      3  C2  UNL d   1      -2.026  -1.974  -4.057  0.00  0.00     0.041 A 
ATOM      4  C3  UNL d   1      -0.898  -1.207  -4.408  0.00  0.00    -0.075 A 
ATOM      5  S   UNL d   1      -0.323  -0.870  -5.999  0.00  0.00     0.015 SA
ATOM      6  C4  UNL d   1       0.982   0.055  -5.412  0.00  0.00     0.022 A 
ATOM      7  C5  UNL d   1       0.995   0.116  -4.039  0.00  0.00     0.026 A 
ATOM      8  C6  UNL d   1      -0.088  -0.610  -3.437  0.00  0.00    -0.082 A 
ATOM      9  C7  UNL d   1      -0.431  -0.795  -2.076  0.00  0.00     0.045 A 
ENDROOT
TORSDOF 0
ENDMDL
