MODEL 1
REMARK minimizedAffinity 22.0005455
REMARK minimizedRMSD -1
REMARK  0 active torsions:
REMARK  status: ('A' for Active; 'I' for Inactive)
ROOT
ATOM      1  C   UNL d   1       0.614   0.288   2.476  0.00  0.00    -0.002 A 
ATOM      2  C1  UNL d   1       1.216  -0.316   1.380  0.00  0.00     0.010 A 
ATOM      3  C2  UNL d   1       0.450  -1.011   0.443  0.00  0.00     0.041 A 
ATOM      4  C3  UNL d   1      -0.945  -1.089   0.625  0.00  0.00    -0.075 A 
ATOM      5  S   UNL d   1      -2.084  -1.886  -0.394  0.00  0.00     0.015 SA
ATOM      6  C4  UNL d   1      -3.396  -1.444   0.599  0.00  0.00     0.022 A 
ATOM      7  C5  UNL d   1      -2.993  -0.706   1.687  0.00  0.00     0.026 A 
ATOM      8  C6  UNL d   1      -1.574  -0.489   1.720  0.00  0.00    -0.082 A 
ATOM      9  C7  UNL d   1      -0.770   0.208   2.653  0.00  0.00     0.045 A 
ENDROOT
TORSDOF 0
ENDMDL
