MODEL 1
REMARK minimizedAffinity 18.5790119
REMARK minimizedRMSD -1
REMARK  0 active torsions:
REMARK  status: ('A' for Active; 'I' for Inactive)
ROOT
ATOM      1  C   UNL d   1      -0.146   2.772   5.069  0.00  0.00    -0.002 A 
ATOM      2  C1  UNL d   1       0.546   1.921   5.920  0.00  0.00     0.010 A 
ATOM      3  C2  UNL d   1       0.946   0.655   5.487  0.00  0.00     0.041 A 
ATOM      4  C3  UNL d   1       0.637   0.255   4.172  0.00  0.00    -0.075 A 
ATOM      5  S   UNL d   1       1.027  -1.249   3.424  0.00  0.00     0.015 SA
ATOM      6  C4  UNL d   1       0.285  -0.797   1.958  0.00  0.00     0.022 A 
ATOM      7  C5  UNL d   1      -0.252   0.467   2.020  0.00  0.00     0.026 A 
ATOM      8  C6  UNL d   1      -0.058   1.095   3.297  0.00  0.00    -0.082 A 
ATOM      9  C7  UNL d   1      -0.450   2.372   3.765  0.00  0.00     0.045 A 
ENDROOT
TORSDOF 0
ENDMDL
