MODEL 1
REMARK minimizedAffinity -3.97106433
REMARK minimizedRMSD -1
REMARK  0 active torsions:
REMARK  status: ('A' for Active; 'I' for Inactive)
ROOT
ATOM      1  C   UNL d   1      -0.273   1.683   2.894  0.00  0.00     0.077 C 
ATOM      2  C1  UNL d   1      -0.687   0.910   1.678  0.00  0.00    -0.074 A 
ATOM      3  C2  UNL d   1      -2.019   0.528   1.488  0.00  0.00    -0.005 A 
ATOM      4  C3  UNL d   1      -2.391  -0.183   0.347  0.00  0.00     0.006 A 
ATOM      5  C4  UNL d   1      -1.436  -0.519  -0.614  0.00  0.00    -0.005 A 
ATOM      6  C5  UNL d   1      -0.100  -0.145  -0.442  0.00  0.00    -0.074 A 
ATOM      7  C6  UNL d   1       0.937  -0.489  -1.470  0.00  0.00     0.077 C 
ATOM      8  C7  UNL d   1       0.265   0.576   0.704  0.00  0.00    -0.001 A 
ENDROOT
TORSDOF 0
ENDMDL
