MODEL 1
REMARK minimizedAffinity -4.68580866
REMARK minimizedRMSD -1
REMARK  0 active torsions:
REMARK  status: ('A' for Active; 'I' for Inactive)
ROOT
ATOM      1  C   UNL d   1       0.277  -0.538  -1.225  0.00  0.00     0.077 C 
ATOM      2  C1  UNL d   1      -0.084  -0.097   0.162  0.00  0.00    -0.074 A 
ATOM      3  C2  UNL d   1      -1.363   0.388   0.452  0.00  0.00    -0.005 A 
ATOM      4  C3  UNL d   1      -1.687   0.785   1.750  0.00  0.00     0.006 A 
ATOM      5  C4  UNL d   1      -0.737   0.702   2.768  0.00  0.00    -0.005 A 
ATOM      6  C5  UNL d   1       0.547   0.219   2.497  0.00  0.00    -0.074 A 
ATOM      7  C6  UNL d   1       1.577   0.114   3.582  0.00  0.00     0.077 C 
ATOM      8  C7  UNL d   1       0.863  -0.185   1.193  0.00  0.00    -0.001 A 
ENDROOT
TORSDOF 0
ENDMDL
