MODEL 1
REMARK minimizedAffinity -6.75612354
REMARK minimizedRMSD -1
REMARK  0 active torsions:
REMARK  status: ('A' for Active; 'I' for Inactive)
ROOT
ATOM      1  C   UNL d   1       1.159   0.051   3.648  0.00  0.00     0.077 C 
ATOM      2  C1  UNL d   1       0.293   0.277   2.444  0.00  0.00    -0.074 A 
ATOM      3  C2  UNL d   1      -0.997   0.801   2.575  0.00  0.00    -0.005 A 
ATOM      4  C3  UNL d   1      -1.788   1.015   1.446  0.00  0.00     0.006 A 
ATOM      5  C4  UNL d   1      -1.297   0.707   0.177  0.00  0.00    -0.005 A 
ATOM      6  C5  UNL d   1      -0.009   0.184   0.026  0.00  0.00    -0.074 A 
ATOM      7  C6  UNL d   1       0.537  -0.143  -1.332  0.00  0.00     0.077 C 
ATOM      8  C7  UNL d   1       0.782  -0.022   1.165  0.00  0.00    -0.001 A 
ENDROOT
TORSDOF 0
ENDMDL
