MODEL 1
REMARK minimizedAffinity -6.21047211
REMARK minimizedRMSD -1
REMARK  0 active torsions:
REMARK  status: ('A' for Active; 'I' for Inactive)
ROOT
ATOM      1  C   UNL d   1       0.791   0.413   3.182  0.00  0.00     0.077 C 
ATOM      2  C1  UNL d   1      -0.049   0.230   1.953  0.00  0.00    -0.074 A 
ATOM      3  C2  UNL d   1      -1.417   0.519   1.969  0.00  0.00    -0.005 A 
ATOM      4  C3  UNL d   1      -2.184   0.353   0.815  0.00  0.00     0.006 A 
ATOM      5  C4  UNL d   1      -1.592  -0.104  -0.363  0.00  0.00    -0.005 A 
ATOM      6  C5  UNL d   1      -0.225  -0.397  -0.397  0.00  0.00    -0.074 A 
ATOM      7  C6  UNL d   1       0.430  -0.880  -1.657  0.00  0.00     0.077 C 
ATOM      8  C7  UNL d   1       0.540  -0.221   0.764  0.00  0.00    -0.001 A 
ENDROOT
TORSDOF 0
ENDMDL
