MODEL 1
REMARK minimizedAffinity -5.50913286
REMARK minimizedRMSD -1
REMARK  0 active torsions:
REMARK  status: ('A' for Active; 'I' for Inactive)
ROOT
ATOM      1  C   UNL d   1       1.525  -0.030   3.340  0.00  0.00     0.077 C 
ATOM      2  C1  UNL d   1       0.529   0.078   2.224  0.00  0.00    -0.074 A 
ATOM      3  C2  UNL d   1      -0.753   0.589   2.452  0.00  0.00    -0.005 A 
ATOM      4  C3  UNL d   1      -1.666   0.692   1.403  0.00  0.00     0.006 A 
ATOM      5  C4  UNL d   1      -1.307   0.287   0.117  0.00  0.00    -0.005 A 
ATOM      6  C5  UNL d   1      -0.030  -0.225  -0.131  0.00  0.00    -0.074 A 
ATOM      7  C6  UNL d   1       0.376  -0.656  -1.509  0.00  0.00     0.077 C 
ATOM      8  C7  UNL d   1       0.884  -0.319   0.928  0.00  0.00    -0.001 A 
ENDROOT
TORSDOF 0
ENDMDL
