MODEL 1
REMARK minimizedAffinity -5.08938646
REMARK minimizedRMSD -1
REMARK  0 active torsions:
REMARK  status: ('A' for Active; 'I' for Inactive)
ROOT
ATOM      1  C   UNL d   1       1.167  -0.960  -0.987  0.00  0.00     0.077 C 
ATOM      2  C1  UNL d   1       0.102  -0.457  -0.058  0.00  0.00    -0.074 A 
ATOM      3  C2  UNL d   1      -1.217  -0.910  -0.164  0.00  0.00    -0.005 A 
ATOM      4  C3  UNL d   1      -2.195  -0.441   0.713  0.00  0.00     0.006 A 
ATOM      5  C4  UNL d   1      -1.864   0.485   1.703  0.00  0.00    -0.005 A 
ATOM      6  C5  UNL d   1      -0.550   0.949   1.825  0.00  0.00    -0.074 A 
ATOM      7  C6  UNL d   1      -0.176   1.936   2.891  0.00  0.00     0.077 C 
ATOM      8  C7  UNL d   1       0.428   0.467   0.945  0.00  0.00    -0.001 A 
ENDROOT
TORSDOF 0
ENDMDL
