MODEL 1
REMARK minimizedAffinity -3.72989559
REMARK minimizedRMSD -1
REMARK  0 active torsions:
REMARK  status: ('A' for Active; 'I' for Inactive)
ROOT
ATOM      1  C4' PXY d   1       1.798  -0.341   2.452  0.00  0.00     0.077 C 
ATOM      2  C1' PXY d   1      -0.974   0.653  -2.523  0.00  0.00     0.077 C 
ATOM      3  C1  PXY d   1      -0.240   0.383  -1.224  0.00  0.00    -0.082 A 
ATOM      4  C2  PXY d   1      -0.818   0.682  -0.072  0.00  0.00     0.003 A 
ATOM      5  C3  PXY d   1      -0.155   0.474   1.111  0.00  0.00     0.003 A 
ATOM      6  C4  PXY d   1       1.090  -0.095   1.116  0.00  0.00    -0.082 A 
ATOM      7  C5  PXY d   1       1.682  -0.412  -0.055  0.00  0.00     0.003 A 
ATOM      8  C6  PXY d   1       1.010  -0.155  -1.246  0.00  0.00     0.003 A 
ENDROOT
TORSDOF 0
ENDMDL
