MODEL 1
REMARK minimizedAffinity -0.609743118
REMARK minimizedRMSD -1
REMARK  0 active torsions:
REMARK  status: ('A' for Active; 'I' for Inactive)
ROOT
ATOM      1  C4' PXY d   1       3.150  -0.305   0.409  0.00  0.00     0.077 C 
ATOM      2  C1' PXY d   1      -2.619  -0.393   0.771  0.00  0.00     0.077 C 
ATOM      3  C1  PXY d   1      -1.105  -0.368   0.689  0.00  0.00    -0.082 A 
ATOM      4  C2  PXY d   1      -0.517  -0.065  -0.457  0.00  0.00     0.003 A 
ATOM      5  C3  PXY d   1       0.850  -0.069  -0.558  0.00  0.00     0.003 A 
ATOM      6  C4  PXY d   1       1.625  -0.333   0.540  0.00  0.00    -0.082 A 
ATOM      7  C5  PXY d   1       1.032  -0.632   1.716  0.00  0.00     0.003 A 
ATOM      8  C6  PXY d   1      -0.357  -0.663   1.786  0.00  0.00     0.003 A 
ENDROOT
TORSDOF 0
ENDMDL
