MODEL 1
REMARK minimizedAffinity -3.57330656
REMARK minimizedRMSD -1
REMARK  0 active torsions:
REMARK  status: ('A' for Active; 'I' for Inactive)
ROOT
ATOM      1  C4' PXY d   1       1.763  -0.950   3.089  0.00  0.00     0.077 C 
ATOM      2  C1' PXY d   1      -0.645   0.412  -1.987  0.00  0.00     0.077 C 
ATOM      3  C1  PXY d   1      -0.004   0.047  -0.662  0.00  0.00    -0.082 A 
ATOM      4  C2  PXY d   1      -0.710   0.143   0.454  0.00  0.00     0.003 A 
ATOM      5  C3  PXY d   1      -0.137  -0.153   1.664  0.00  0.00     0.003 A 
ATOM      6  C4  PXY d   1       1.155  -0.601   1.728  0.00  0.00    -0.082 A 
ATOM      7  C5  PXY d   1       1.878  -0.712   0.593  0.00  0.00     0.003 A 
ATOM      8  C6  PXY d   1       1.291  -0.368  -0.621  0.00  0.00     0.003 A 
ENDROOT
TORSDOF 0
ENDMDL
