MODEL 1
REMARK minimizedAffinity -2.86611986
REMARK minimizedRMSD -1
REMARK  0 active torsions:
REMARK  status: ('A' for Active; 'I' for Inactive)
ROOT
ATOM      1  C4' PXY d   1      -1.488   0.180  -2.058  0.00  0.00     0.077 C 
ATOM      2  C1' PXY d   1       1.581  -0.841   2.733  0.00  0.00     0.077 C 
ATOM      3  C1  PXY d   1       0.765  -0.579   1.482  0.00  0.00    -0.082 A 
ATOM      4  C2  PXY d   1       1.381  -0.411   0.323  0.00  0.00     0.003 A 
ATOM      5  C3  PXY d   1       0.661  -0.142  -0.812  0.00  0.00     0.003 A 
ATOM      6  C4  PXY d   1      -0.706  -0.096  -0.771  0.00  0.00    -0.082 A 
ATOM      7  C5  PXY d   1      -1.343  -0.276   0.406  0.00  0.00     0.003 A 
ATOM      8  C6  PXY d   1      -0.592  -0.508   1.555  0.00  0.00     0.003 A 
ENDROOT
TORSDOF 0
ENDMDL
