MODEL 1
REMARK minimizedAffinity -2.88608789
REMARK minimizedRMSD -1
REMARK  0 active torsions:
REMARK  status: ('A' for Active; 'I' for Inactive)
ROOT
ATOM      1  C4' PXY d   1       5.697   5.982   3.057  0.00  0.00     0.077 C 
ATOM      2  C1' PXY d   1       0.213   5.977   4.884  0.00  0.00     0.077 C 
ATOM      3  C1  PXY d   1       1.647   5.973   4.393  0.00  0.00    -0.082 A 
ATOM      4  C2  PXY d   1       2.638   5.971   5.270  0.00  0.00     0.003 A 
ATOM      5  C3  PXY d   1       3.941   6.000   4.844  0.00  0.00     0.003 A 
ATOM      6  C4  PXY d   1       4.233   5.977   3.506  0.00  0.00    -0.082 A 
ATOM      7  C5  PXY d   1       3.228   5.968   2.606  0.00  0.00     0.003 A 
ATOM      8  C6  PXY d   1       1.912   5.981   3.059  0.00  0.00     0.003 A 
ENDROOT
TORSDOF 0
ENDMDL
