MODEL 1
REMARK minimizedAffinity -2.94789481
REMARK minimizedRMSD -1
REMARK  0 active torsions:
REMARK  status: ('A' for Active; 'I' for Inactive)
ROOT
ATOM      1  C4' PXY d   1       0.304  -1.008   2.892  0.00  0.00     0.077 C 
ATOM      2  C1' PXY d   1      -0.706   1.044  -2.417  0.00  0.00     0.077 C 
ATOM      3  C1  PXY d   1      -0.452   0.512  -1.020  0.00  0.00    -0.082 A 
ATOM      4  C2  PXY d   1       0.775   0.167  -0.664  0.00  0.00     0.003 A 
ATOM      5  C3  PXY d   1       1.017  -0.346   0.584  0.00  0.00     0.003 A 
ATOM      6  C4  PXY d   1       0.002  -0.457   1.496  0.00  0.00    -0.082 A 
ATOM      7  C5  PXY d   1      -1.251  -0.098   1.144  0.00  0.00     0.003 A 
ATOM      8  C6  PXY d   1      -1.483   0.382  -0.141  0.00  0.00     0.003 A 
ENDROOT
TORSDOF 0
ENDMDL
