MODEL 1
REMARK minimizedAffinity -4.65141535
REMARK minimizedRMSD -1
REMARK  0 active torsions:
REMARK  status: ('A' for Active; 'I' for Inactive)
ROOT
ATOM      1  C4' PXY d   1      -2.850   2.722  -2.007  0.00  0.00     0.077 C 
ATOM      2  C1' PXY d   1       2.000  -0.238  -0.942  0.00  0.00     0.077 C 
ATOM      3  C1  PXY d   1       0.735   0.549  -1.225  0.00  0.00    -0.082 A 
ATOM      4  C2  PXY d   1      -0.384   0.238  -0.592  0.00  0.00     0.003 A 
ATOM      5  C3  PXY d   1      -1.544   0.918  -0.859  0.00  0.00     0.003 A 
ATOM      6  C4  PXY d   1      -1.547   1.962  -1.746  0.00  0.00    -0.082 A 
ATOM      7  C5  PXY d   1      -0.407   2.292  -2.388  0.00  0.00     0.003 A 
ATOM      8  C6  PXY d   1       0.751   1.562  -2.133  0.00  0.00     0.003 A 
ENDROOT
TORSDOF 0
ENDMDL
