MODEL 1
REMARK minimizedAffinity -2.13900542
REMARK minimizedRMSD -1
REMARK  0 active torsions:
REMARK  status: ('A' for Active; 'I' for Inactive)
ROOT
ATOM      1  C4' PXY d   1       2.262  -1.237  -0.803  0.00  0.00     0.077 C 
ATOM      2  C1' PXY d   1      -2.240   0.237   2.510  0.00  0.00     0.077 C 
ATOM      3  C1  PXY d   1      -1.067  -0.151   1.631  0.00  0.00    -0.082 A 
ATOM      4  C2  PXY d   1       0.032  -0.638   2.184  0.00  0.00     0.003 A 
ATOM      5  C3  PXY d   1       1.113  -0.964   1.407  0.00  0.00     0.003 A 
ATOM      6  C4  PXY d   1       1.050  -0.840   0.045  0.00  0.00    -0.082 A 
ATOM      7  C5  PXY d   1      -0.071  -0.355  -0.528  0.00  0.00     0.003 A 
ATOM      8  C6  PXY d   1      -1.143   0.009   0.282  0.00  0.00     0.003 A 
ENDROOT
TORSDOF 0
ENDMDL
