MODEL 1
REMARK minimizedAffinity -2.57173395
REMARK minimizedRMSD -1
REMARK  0 active torsions:
REMARK  status: ('A' for Active; 'I' for Inactive)
ROOT
ATOM      1  C4' PXY d   1      -0.768   1.130  -2.126  0.00  0.00     0.077 C 
ATOM      2  C1' PXY d   1       0.289  -1.919   2.669  0.00  0.00     0.077 C 
ATOM      3  C1  PXY d   1       0.024  -1.120   1.409  0.00  0.00    -0.082 A 
ATOM      4  C2  PXY d   1      -1.047  -0.347   1.337  0.00  0.00     0.003 A 
ATOM      5  C3  PXY d   1      -1.319   0.358   0.193  0.00  0.00     0.003 A 
ATOM      6  C4  PXY d   1      -0.456   0.313  -0.870  0.00  0.00    -0.082 A 
ATOM      7  C5  PXY d   1       0.645  -0.465  -0.801  0.00  0.00     0.003 A 
ATOM      8  C6  PXY d   1       0.881  -1.205   0.355  0.00  0.00     0.003 A 
ENDROOT
TORSDOF 0
ENDMDL
