MODEL 1
REMARK minimizedAffinity 17.4841137
REMARK minimizedRMSD -1
REMARK  0 active torsions:
REMARK  status: ('A' for Active; 'I' for Inactive)
ROOT
ATOM      1  C   UNL d   1      -2.794   0.645   3.384  0.00  0.00     0.124 A 
ATOM      2  C1  UNL d   1      -1.671  -0.170   3.414  0.00  0.00     0.062 A 
ATOM      3  C2  UNL d   1      -1.434  -1.073   2.381  0.00  0.00     0.162 A 
ATOM      4  C3  UNL d   1      -2.322  -1.166   1.310  0.00  0.00    -0.034 A 
ATOM      5  C4  UNL d   1      -3.450  -0.344   1.287  0.00  0.00     0.162 A 
ATOM      6  C5  UNL d   1      -3.683   0.557   2.321  0.00  0.00     0.062 A 
ATOM      7  F   UNL d   1      -4.769   1.343   2.291  0.00  0.00    -0.097 F 
ATOM      8  F1  UNL d   1      -4.324  -0.407   0.272  0.00  0.00    -0.096 F 
ATOM      9  I   UNL d   1      -1.971  -2.515  -0.236  0.00  0.00    -0.060 I 
ATOM     10  F2  UNL d   1      -0.340  -1.848   2.436  0.00  0.00    -0.096 F 
ATOM     11  F3  UNL d   1      -0.812  -0.088   4.440  0.00  0.00    -0.097 F 
ATOM     12  F4  UNL d   1      -3.021   1.512   4.379  0.00  0.00    -0.092 F 
ENDROOT
TORSDOF 0
ENDMDL
