MODEL 1
REMARK minimizedAffinity 9.8130703
REMARK minimizedRMSD -1
REMARK  0 active torsions:
REMARK  status: ('A' for Active; 'I' for Inactive)
ROOT
ATOM      1  C   UNL d   1      -2.575   0.038   2.965  0.00  0.00     0.124 A 
ATOM      2  C1  UNL d   1      -2.970   0.768   4.077  0.00  0.00     0.062 A 
ATOM      3  C2  UNL d   1      -3.948   0.268   4.932  0.00  0.00     0.162 A 
ATOM      4  C3  UNL d   1      -4.537  -0.971   4.679  0.00  0.00    -0.034 A 
ATOM      5  C4  UNL d   1      -4.136  -1.699   3.557  0.00  0.00     0.162 A 
ATOM      6  C5  UNL d   1      -3.158  -1.194   2.706  0.00  0.00     0.062 A 
ATOM      7  F   UNL d   1      -2.778  -1.901   1.632  0.00  0.00    -0.097 F 
ATOM      8  F1  UNL d   1      -4.682  -2.893   3.284  0.00  0.00    -0.096 F 
ATOM      9  I   UNL d   1      -5.999  -1.723   5.955  0.00  0.00    -0.060 I 
ATOM     10  F2  UNL d   1      -4.310   0.995   6.000  0.00  0.00    -0.096 F 
ATOM     11  F3  UNL d   1      -2.409   1.960   4.329  0.00  0.00    -0.097 F 
ATOM     12  F4  UNL d   1      -1.635   0.523   2.144  0.00  0.00    -0.092 F 
ENDROOT
TORSDOF 0
ENDMDL
