MODEL 1
REMARK minimizedAffinity 3.70138812
REMARK minimizedRMSD -1
REMARK  0 active torsions:
REMARK  status: ('A' for Active; 'I' for Inactive)
ROOT
ATOM      1  C   UNL d   1      -2.306   0.567   3.495  0.00  0.00     0.124 A 
ATOM      2  C1  UNL d   1      -1.384  -0.233   4.154  0.00  0.00     0.062 A 
ATOM      3  C2  UNL d   1      -0.749  -1.272   3.479  0.00  0.00     0.162 A 
ATOM      4  C3  UNL d   1      -1.034  -1.515   2.135  0.00  0.00    -0.034 A 
ATOM      5  C4  UNL d   1      -1.964  -0.707   1.479  0.00  0.00     0.162 A 
ATOM      6  C5  UNL d   1      -2.595   0.330   2.159  0.00  0.00     0.062 A 
ATOM      7  F   UNL d   1      -3.487   1.102   1.520  0.00  0.00    -0.097 F 
ATOM      8  F1  UNL d   1      -2.261  -0.913   0.188  0.00  0.00    -0.096 F 
ATOM      9  I   UNL d   1      -0.087  -3.067   1.122  0.00  0.00    -0.060 I 
ATOM     10  F2  UNL d   1       0.139  -2.029   4.141  0.00  0.00    -0.096 F 
ATOM     11  F3  UNL d   1      -1.103  -0.007   5.445  0.00  0.00    -0.097 F 
ATOM     12  F4  UNL d   1      -2.916   1.565   4.147  0.00  0.00    -0.092 F 
ENDROOT
TORSDOF 0
ENDMDL
