MODEL 1
REMARK minimizedAffinity 19.2239609
REMARK minimizedRMSD -1
REMARK  0 active torsions:
REMARK  status: ('A' for Active; 'I' for Inactive)
ROOT
ATOM      1  C   UNL d   1      -3.755   0.804   1.512  0.00  0.00     0.124 A 
ATOM      2  C1  UNL d   1      -3.298   0.002   0.475  0.00  0.00     0.062 A 
ATOM      3  C2  UNL d   1      -2.121  -0.727   0.621  0.00  0.00     0.162 A 
ATOM      4  C3  UNL d   1      -1.394  -0.658   1.809  0.00  0.00    -0.034 A 
ATOM      5  C4  UNL d   1      -1.859   0.151   2.847  0.00  0.00     0.162 A 
ATOM      6  C5  UNL d   1      -3.036   0.878   2.696  0.00  0.00     0.062 A 
ATOM      7  F   UNL d   1      -3.476   1.652   3.699  0.00  0.00    -0.097 F 
ATOM      8  F1  UNL d   1      -1.184   0.241   4.003  0.00  0.00    -0.096 F 
ATOM      9  I   UNL d   1       0.366  -1.747   2.031  0.00  0.00    -0.060 I 
ATOM     10  F2  UNL d   1      -1.703  -1.493  -0.397  0.00  0.00    -0.096 F 
ATOM     11  F3  UNL d   1      -3.991  -0.070  -0.670  0.00  0.00    -0.097 F 
ATOM     12  F4  UNL d   1      -4.887   1.505   1.369  0.00  0.00    -0.092 F 
ENDROOT
TORSDOF 0
ENDMDL
