MODEL 1
REMARK minimizedAffinity 26.8970165
REMARK minimizedRMSD -1
REMARK  0 active torsions:
REMARK  status: ('A' for Active; 'I' for Inactive)
ROOT
ATOM      1  C   UNL d   1       0.824   3.933  -3.626  0.00  0.00     0.124 A 
ATOM      2  C1  UNL d   1       1.277   4.743  -4.658  0.00  0.00     0.062 A 
ATOM      3  C2  UNL d   1       2.627   4.754  -4.998  0.00  0.00     0.162 A 
ATOM      4  C3  UNL d   1       3.533   3.951  -4.306  0.00  0.00    -0.034 A 
ATOM      5  C4  UNL d   1       3.070   3.140  -3.269  0.00  0.00     0.162 A 
ATOM      6  C5  UNL d   1       1.721   3.133  -2.933  0.00  0.00     0.062 A 
ATOM      7  F   UNL d   1       1.285   2.349  -1.935  0.00  0.00    -0.097 F 
ATOM      8  F1  UNL d   1       3.915   2.356  -2.583  0.00  0.00    -0.096 F 
ATOM      9  I   UNL d   1       5.552   3.965  -4.812  0.00  0.00    -0.060 I 
ATOM     10  F2  UNL d   1       3.036   5.546  -6.000  0.00  0.00    -0.096 F 
ATOM     11  F3  UNL d   1       0.413   5.518  -5.329  0.00  0.00    -0.097 F 
ATOM     12  F4  UNL d   1      -0.475   3.925  -3.300  0.00  0.00    -0.092 F 
ENDROOT
TORSDOF 0
ENDMDL
