MODEL 1
REMARK minimizedAffinity 7.32924461
REMARK minimizedRMSD -1
REMARK  0 active torsions:
REMARK  status: ('A' for Active; 'I' for Inactive)
ROOT
ATOM      1  C   UNL d   1      -3.203  -0.003   4.219  0.00  0.00     0.124 A 
ATOM      2  C1  UNL d   1      -2.645  -0.647   3.124  0.00  0.00     0.062 A 
ATOM      3  C2  UNL d   1      -3.150  -1.873   2.700  0.00  0.00     0.162 A 
ATOM      4  C3  UNL d   1      -4.220  -2.464   3.371  0.00  0.00    -0.034 A 
ATOM      5  C4  UNL d   1      -4.776  -1.810   4.473  0.00  0.00     0.162 A 
ATOM      6  C5  UNL d   1      -4.268  -0.585   4.893  0.00  0.00     0.062 A 
ATOM      7  F   UNL d   1      -4.809   0.035   5.951  0.00  0.00    -0.097 F 
ATOM      8  F1  UNL d   1      -5.806  -2.350   5.141  0.00  0.00    -0.096 F 
ATOM      9  I   UNL d   1      -4.978  -4.297   2.741  0.00  0.00    -0.060 I 
ATOM     10  F2  UNL d   1      -2.590  -2.473   1.638  0.00  0.00    -0.096 F 
ATOM     11  F3  UNL d   1      -1.616  -0.087   2.472  0.00  0.00    -0.097 F 
ATOM     12  F4  UNL d   1      -2.715   1.176   4.625  0.00  0.00    -0.092 F 
ENDROOT
TORSDOF 0
ENDMDL
