MODEL 1
REMARK minimizedAffinity 17.6193676
REMARK minimizedRMSD -1
REMARK  0 active torsions:
REMARK  status: ('A' for Active; 'I' for Inactive)
ROOT
ATOM      1  C   UNL d   1      -1.313  -0.535   2.391  0.00  0.00     0.124 A 
ATOM      2  C1  UNL d   1      -1.224  -0.204   3.736  0.00  0.00     0.062 A 
ATOM      3  C2  UNL d   1      -2.144   0.674   4.302  0.00  0.00     0.162 A 
ATOM      4  C3  UNL d   1      -3.162   1.226   3.524  0.00  0.00    -0.034 A 
ATOM      5  C4  UNL d   1      -3.244   0.889   2.172  0.00  0.00     0.162 A 
ATOM      6  C5  UNL d   1      -2.322   0.011   1.610  0.00  0.00     0.062 A 
ATOM      7  F   UNL d   1      -2.409  -0.307   0.311  0.00  0.00    -0.097 F 
ATOM      8  F1  UNL d   1      -4.209   1.402   1.395  0.00  0.00    -0.096 F 
ATOM      9  I   UNL d   1      -4.539   2.539   4.368  0.00  0.00    -0.060 I 
ATOM     10  F2  UNL d   1      -2.035   0.976   5.605  0.00  0.00    -0.096 F 
ATOM     11  F3  UNL d   1      -0.250  -0.730   4.491  0.00  0.00    -0.097 F 
ATOM     12  F4  UNL d   1      -0.426  -1.379   1.848  0.00  0.00    -0.092 F 
ENDROOT
TORSDOF 0
ENDMDL
