MODEL 1
REMARK minimizedAffinity 16.1350136
REMARK minimizedRMSD -1
REMARK  0 active torsions:
REMARK  status: ('A' for Active; 'I' for Inactive)
ROOT
ATOM      1  C   UNL d   1       3.911   2.721   1.422  0.00  0.00     0.124 A 
ATOM      2  C1  UNL d   1       3.424   2.039   0.316  0.00  0.00     0.062 A 
ATOM      3  C2  UNL d   1       3.552   2.588  -0.957  0.00  0.00     0.162 A 
ATOM      4  C3  UNL d   1       4.171   3.826  -1.130  0.00  0.00    -0.034 A 
ATOM      5  C4  UNL d   1       4.657   4.506  -0.012  0.00  0.00     0.162 A 
ATOM      6  C5  UNL d   1       4.526   3.953   1.257  0.00  0.00     0.062 A 
ATOM      7  F   UNL d   1       4.997   4.614   2.325  0.00  0.00    -0.097 F 
ATOM      8  F1  UNL d   1       5.257   5.699  -0.143  0.00  0.00    -0.096 F 
ATOM      9  I   UNL d   1       4.364   4.650  -3.031  0.00  0.00    -0.060 I 
ATOM     10  F2  UNL d   1       3.073   1.906  -2.008  0.00  0.00    -0.096 F 
ATOM     11  F3  UNL d   1       2.828   0.848   0.473  0.00  0.00    -0.097 F 
ATOM     12  F4  UNL d   1       3.785   2.191   2.646  0.00  0.00    -0.092 F 
ENDROOT
TORSDOF 0
ENDMDL
