MODEL 1
REMARK minimizedAffinity 19.8762779
REMARK minimizedRMSD -1
REMARK  0 active torsions:
REMARK  status: ('A' for Active; 'I' for Inactive)
ROOT
ATOM      1  C   UNL d   1       2.663   1.834  -1.327  0.00  0.00     0.124 A 
ATOM      2  C1  UNL d   1       2.263   2.310  -2.568  0.00  0.00     0.062 A 
ATOM      3  C2  UNL d   1       3.110   3.127  -3.310  0.00  0.00     0.162 A 
ATOM      4  C3  UNL d   1       4.367   3.473  -2.814  0.00  0.00    -0.034 A 
ATOM      5  C4  UNL d   1       4.762   2.991  -1.565  0.00  0.00     0.162 A 
ATOM      6  C5  UNL d   1       3.911   2.175  -0.827  0.00  0.00     0.062 A 
ATOM      7  F   UNL d   1       4.299   1.716   0.372  0.00  0.00    -0.097 F 
ATOM      8  F1  UNL d   1       5.964   3.305  -1.058  0.00  0.00    -0.096 F 
ATOM      9  I   UNL d   1       5.637   4.695  -3.921  0.00  0.00    -0.060 I 
ATOM     10  F2  UNL d   1       2.698   3.572  -4.506  0.00  0.00    -0.096 F 
ATOM     11  F3  UNL d   1       1.057   1.982  -3.053  0.00  0.00    -0.097 F 
ATOM     12  F4  UNL d   1       1.845   1.048  -0.614  0.00  0.00    -0.092 F 
ENDROOT
TORSDOF 0
ENDMDL
