MODEL 1
REMARK minimizedAffinity 20.9815388
REMARK minimizedRMSD -1
REMARK  0 active torsions:
REMARK  status: ('A' for Active; 'I' for Inactive)
ROOT
ATOM      1  C   UNL d   1       3.652   2.580  -3.442  0.00  0.00     0.124 A 
ATOM      2  C1  UNL d   1       4.232   3.442  -4.363  0.00  0.00     0.062 A 
ATOM      3  C2  UNL d   1       3.463   4.419  -4.988  0.00  0.00     0.162 A 
ATOM      4  C3  UNL d   1       2.104   4.540  -4.695  0.00  0.00    -0.034 A 
ATOM      5  C4  UNL d   1       1.528   3.669  -3.769  0.00  0.00     0.162 A 
ATOM      6  C5  UNL d   1       2.301   2.694  -3.147  0.00  0.00     0.062 A 
ATOM      7  F   UNL d   1       1.738   1.862  -2.258  0.00  0.00    -0.097 F 
ATOM      8  F1  UNL d   1       0.224   3.757  -3.464  0.00  0.00    -0.096 F 
ATOM      9  I   UNL d   1       0.951   5.999  -5.629  0.00  0.00    -0.060 I 
ATOM     10  F2  UNL d   1       4.050   5.239  -5.873  0.00  0.00    -0.096 F 
ATOM     11  F3  UNL d   1       5.537   3.334  -4.651  0.00  0.00    -0.097 F 
ATOM     12  F4  UNL d   1       4.394   1.641  -2.843  0.00  0.00    -0.092 F 
ENDROOT
TORSDOF 0
ENDMDL
