MODEL 1
REMARK minimizedAffinity 5.16576195
REMARK minimizedRMSD -1
REMARK  0 active torsions:
REMARK  status: ('A' for Active; 'I' for Inactive)
ROOT
ATOM      1  C   UNL d   1      -0.498  -2.475   2.532  0.00  0.00     0.124 A 
ATOM      2  C1  UNL d   1      -1.594  -2.275   1.705  0.00  0.00     0.062 A 
ATOM      3  C2  UNL d   1      -2.422  -1.172   1.893  0.00  0.00     0.162 A 
ATOM      4  C3  UNL d   1      -2.156  -0.258   2.913  0.00  0.00    -0.034 A 
ATOM      5  C4  UNL d   1      -1.052  -0.466   3.741  0.00  0.00     0.162 A 
ATOM      6  C5  UNL d   1      -0.228  -1.570   3.549  0.00  0.00     0.062 A 
ATOM      7  F   UNL d   1       0.831  -1.762   4.350  0.00  0.00    -0.097 F 
ATOM      8  F1  UNL d   1      -0.767   0.393   4.732  0.00  0.00    -0.096 F 
ATOM      9  I   UNL d   1      -3.390   1.393   3.197  0.00  0.00    -0.060 I 
ATOM     10  F2  UNL d   1      -3.474  -1.004   1.078  0.00  0.00    -0.096 F 
ATOM     11  F3  UNL d   1      -1.858  -3.148   0.721  0.00  0.00    -0.097 F 
ATOM     12  F4  UNL d   1       0.296  -3.538   2.350  0.00  0.00    -0.092 F 
ENDROOT
TORSDOF 0
ENDMDL
