MODEL 1
REMARK minimizedAffinity 21.0434074
REMARK minimizedRMSD -1
REMARK  0 active torsions:
REMARK  status: ('A' for Active; 'I' for Inactive)
ROOT
ATOM      1  C   UNL d   1      -2.697   0.743   3.016  0.00  0.00     0.124 A 
ATOM      2  C1  UNL d   1      -1.680  -0.102   3.438  0.00  0.00     0.062 A 
ATOM      3  C2  UNL d   1      -1.353  -1.231   2.693  0.00  0.00     0.162 A 
ATOM      4  C3  UNL d   1      -2.044  -1.522   1.517  0.00  0.00    -0.034 A 
ATOM      5  C4  UNL d   1      -3.067  -0.669   1.099  0.00  0.00     0.162 A 
ATOM      6  C5  UNL d   1      -3.389   0.459   1.847  0.00  0.00     0.062 A 
ATOM      7  F   UNL d   1      -4.373   1.273   1.437  0.00  0.00    -0.097 F 
ATOM      8  F1  UNL d   1      -3.751  -0.919  -0.027  0.00  0.00    -0.096 F 
ATOM      9  I   UNL d   1      -1.558  -3.210   0.400  0.00  0.00    -0.060 I 
ATOM     10  F2  UNL d   1      -0.366  -2.030   3.125  0.00  0.00    -0.096 F 
ATOM     11  F3  UNL d   1      -1.011   0.170   4.568  0.00  0.00    -0.097 F 
ATOM     12  F4  UNL d   1      -3.011   1.828   3.735  0.00  0.00    -0.092 F 
ENDROOT
TORSDOF 0
ENDMDL
