MODEL 1
REMARK minimizedAffinity 22.7139034
REMARK minimizedRMSD -1
REMARK  0 active torsions:
REMARK  status: ('A' for Active; 'I' for Inactive)
ROOT
ATOM      1  C   UNL d   1      -2.840  -0.131   1.064  0.00  0.00     0.124 A 
ATOM      2  C1  UNL d   1      -4.109   0.413   0.915  0.00  0.00     0.062 A 
ATOM      3  C2  UNL d   1      -4.762   0.975   2.008  0.00  0.00     0.162 A 
ATOM      4  C3  UNL d   1      -4.147   0.997   3.260  0.00  0.00    -0.034 A 
ATOM      5  C4  UNL d   1      -2.872   0.447   3.402  0.00  0.00     0.162 A 
ATOM      6  C5  UNL d   1      -2.223  -0.113   2.306  0.00  0.00     0.062 A 
ATOM      7  F   UNL d   1      -0.998  -0.638   2.452  0.00  0.00    -0.097 F 
ATOM      8  F1  UNL d   1      -2.252   0.452   4.591  0.00  0.00    -0.096 F 
ATOM      9  I   UNL d   1      -5.121   1.836   4.897  0.00  0.00    -0.060 I 
ATOM     10  F2  UNL d   1      -5.987   1.493   1.835  0.00  0.00    -0.096 F 
ATOM     11  F3  UNL d   1      -4.708   0.396  -0.285  0.00  0.00    -0.097 F 
ATOM     12  F4  UNL d   1      -2.215  -0.672   0.010  0.00  0.00    -0.092 F 
ENDROOT
TORSDOF 0
ENDMDL
