MODEL 1
REMARK minimizedAffinity 24.4090252
REMARK minimizedRMSD -1
REMARK  0 active torsions:
REMARK  status: ('A' for Active; 'I' for Inactive)
ROOT
ATOM      1  C   UNL d   1      -2.250  -1.961   1.226  0.00  0.00     0.124 A 
ATOM      2  C1  UNL d   1      -2.089  -0.942   2.155  0.00  0.00     0.062 A 
ATOM      3  C2  UNL d   1      -1.024  -0.974   3.051  0.00  0.00     0.162 A 
ATOM      4  C3  UNL d   1      -0.111  -2.029   3.021  0.00  0.00    -0.034 A 
ATOM      5  C4  UNL d   1      -0.281  -3.050   2.085  0.00  0.00     0.162 A 
ATOM      6  C5  UNL d   1      -1.347  -3.013   1.191  0.00  0.00     0.062 A 
ATOM      7  F   UNL d   1      -1.501  -3.998   0.294  0.00  0.00    -0.097 F 
ATOM      8  F1  UNL d   1       0.578  -4.078   2.029  0.00  0.00    -0.096 F 
ATOM      9  I   UNL d   1       1.482  -2.080   4.359  0.00  0.00    -0.060 I 
ATOM     10  F2  UNL d   1      -0.893   0.023   3.938  0.00  0.00    -0.096 F 
ATOM     11  F3  UNL d   1      -2.961   0.075   2.190  0.00  0.00    -0.097 F 
ATOM     12  F4  UNL d   1      -3.276  -1.928   0.365  0.00  0.00    -0.092 F 
ENDROOT
TORSDOF 0
ENDMDL
