MODEL 1
REMARK minimizedAffinity 30.8466358
REMARK minimizedRMSD -1
REMARK  0 active torsions:
REMARK  status: ('A' for Active; 'I' for Inactive)
ROOT
ATOM      1  C   UNL d   1      -1.415  -1.801   2.017  0.00  0.00     0.124 A 
ATOM      2  C1  UNL d   1      -1.758  -0.471   1.812  0.00  0.00     0.062 A 
ATOM      3  C2  UNL d   1      -0.784   0.456   1.453  0.00  0.00     0.162 A 
ATOM      4  C3  UNL d   1       0.543   0.057   1.296  0.00  0.00    -0.034 A 
ATOM      5  C4  UNL d   1       0.881  -1.282   1.504  0.00  0.00     0.162 A 
ATOM      6  C5  UNL d   1      -0.097  -2.205   1.863  0.00  0.00     0.062 A 
ATOM      7  F   UNL d   1       0.237  -3.488   2.060  0.00  0.00    -0.097 F 
ATOM      8  F1  UNL d   1       2.147  -1.700   1.361  0.00  0.00    -0.096 F 
ATOM      9  I   UNL d   1       2.003   1.440   0.759  0.00  0.00    -0.060 I 
ATOM     10  F2  UNL d   1      -1.144   1.734   1.262  0.00  0.00    -0.096 F 
ATOM     11  F3  UNL d   1      -3.031  -0.078   1.962  0.00  0.00    -0.097 F 
ATOM     12  F4  UNL d   1      -2.354  -2.690   2.363  0.00  0.00    -0.092 F 
ENDROOT
TORSDOF 0
ENDMDL
