MODEL 1
REMARK minimizedAffinity 30.6484566
REMARK minimizedRMSD -1
REMARK  0 active torsions:
REMARK  status: ('A' for Active; 'I' for Inactive)
ROOT
ATOM      1  C   UNL d   1      -0.893  -4.203  -2.185  0.00  0.00     0.124 A 
ATOM      2  C1  UNL d   1      -0.622  -4.100  -0.828  0.00  0.00     0.062 A 
ATOM      3  C2  UNL d   1       0.695  -4.071  -0.377  0.00  0.00     0.162 A 
ATOM      4  C3  UNL d   1       1.751  -4.145  -1.285  0.00  0.00    -0.034 A 
ATOM      5  C4  UNL d   1       1.471  -4.250  -2.648  0.00  0.00     0.162 A 
ATOM      6  C5  UNL d   1       0.154  -4.278  -3.094  0.00  0.00     0.062 A 
ATOM      7  F   UNL d   1      -0.106  -4.378  -4.406  0.00  0.00    -0.097 F 
ATOM      8  F1  UNL d   1       2.463  -4.323  -3.548  0.00  0.00    -0.096 F 
ATOM      9  I   UNL d   1       3.721  -4.102  -0.614  0.00  0.00    -0.060 I 
ATOM     10  F2  UNL d   1       0.927  -3.970   0.940  0.00  0.00    -0.096 F 
ATOM     11  F3  UNL d   1      -1.631  -4.028   0.052  0.00  0.00    -0.097 F 
ATOM     12  F4  UNL d   1      -2.160  -4.232  -2.617  0.00  0.00    -0.092 F 
ENDROOT
TORSDOF 0
ENDMDL
