MODEL 1
REMARK minimizedAffinity -2.58903027
REMARK minimizedRMSD -1
REMARK  1 active torsions:
REMARK  status: ('A' for Active; 'I' for Inactive)
REMARK    1  A    between atoms: C1_2  and  C2_3 
ROOT
ATOM      1  C2  UNL d   1      -3.378   2.230   3.776  0.00  0.00    -0.077 A 
ATOM      2  C3  UNL d   1      -3.810   2.900   4.929  0.00  0.00     0.002 A 
ATOM      3  C4  UNL d   1      -5.115   2.732   5.396  0.00  0.00     0.002 A 
ATOM      4  C5  UNL d   1      -5.996   1.892   4.719  0.00  0.00    -0.004 A 
ATOM      5  C6  UNL d   1      -5.577   1.222   3.570  0.00  0.00     0.002 A 
ATOM      6  C7  UNL d   1      -4.273   1.390   3.101  0.00  0.00     0.002 A 
ENDROOT
BRANCH   1   7
ATOM      7  C1  UNL d   1      -1.956   2.371   3.298  0.00  0.00     0.055 C 
ATOM      8  C   UNL d   1      -1.456   1.083   2.659  0.00  0.00     0.019 C 
ENDBRANCH   1   7
TORSDOF 1
ENDMDL
