MODEL 1
REMARK minimizedAffinity 3.85185838
REMARK minimizedRMSD -1
REMARK  1 active torsions:
REMARK  status: ('A' for Active; 'I' for Inactive)
REMARK    1  A    between atoms: C1_2  and  C2_3 
ROOT
ATOM      1  C2  UNL d   1      -3.755   1.757   4.420  0.00  0.00    -0.077 A 
ATOM      2  C3  UNL d   1      -2.588   2.239   3.811  0.00  0.00     0.002 A 
ATOM      3  C4  UNL d   1      -1.802   1.396   3.023  0.00  0.00     0.002 A 
ATOM      4  C5  UNL d   1      -2.177   0.068   2.833  0.00  0.00    -0.004 A 
ATOM      5  C6  UNL d   1      -3.335  -0.422   3.435  0.00  0.00     0.002 A 
ATOM      6  C7  UNL d   1      -4.121   0.419   4.225  0.00  0.00     0.002 A 
ENDROOT
BRANCH   1   7
ATOM      7  C1  UNL d   1      -4.630   2.677   5.230  0.00  0.00     0.055 C 
ATOM      8  C   UNL d   1      -5.689   1.900   5.999  0.00  0.00     0.019 C 
ENDBRANCH   1   7
TORSDOF 1
ENDMDL
