MODEL 1
REMARK minimizedAffinity 2.21282315
REMARK minimizedRMSD -1
REMARK  1 active torsions:
REMARK  status: ('A' for Active; 'I' for Inactive)
REMARK    1  A    between atoms: C1_2  and  C2_3 
ROOT
ATOM      1  C2  UNL d   1      -3.518   2.003   4.033  0.00  0.00    -0.077 A 
ATOM      2  C3  UNL d   1      -3.778   0.637   3.858  0.00  0.00     0.002 A 
ATOM      3  C4  UNL d   1      -2.973  -0.134   3.017  0.00  0.00     0.002 A 
ATOM      4  C5  UNL d   1      -1.900   0.452   2.348  0.00  0.00    -0.004 A 
ATOM      5  C6  UNL d   1      -1.634   1.811   2.514  0.00  0.00     0.002 A 
ATOM      6  C7  UNL d   1      -2.439   2.583   3.353  0.00  0.00     0.002 A 
ENDROOT
BRANCH   1   7
ATOM      7  C1  UNL d   1      -4.355   2.825   4.977  0.00  0.00     0.055 C 
ATOM      8  C   UNL d   1      -5.063   1.946   5.997  0.00  0.00     0.019 C 
ENDBRANCH   1   7
TORSDOF 1
ENDMDL
