MODEL 1
REMARK minimizedAffinity 1.20788479
REMARK minimizedRMSD -1
REMARK  1 active torsions:
REMARK  status: ('A' for Active; 'I' for Inactive)
REMARK    1  A    between atoms: C1_2  and  C2_3 
ROOT
ATOM      1  C2  UNL d   1      -3.362   1.795   3.822  0.00  0.00    -0.077 A 
ATOM      2  C3  UNL d   1      -2.248   2.644   3.859  0.00  0.00     0.002 A 
ATOM      3  C4  UNL d   1      -1.082   2.311   3.165  0.00  0.00     0.002 A 
ATOM      4  C5  UNL d   1      -1.022   1.131   2.427  0.00  0.00    -0.004 A 
ATOM      5  C6  UNL d   1      -2.125   0.278   2.386  0.00  0.00     0.002 A 
ATOM      6  C7  UNL d   1      -3.290   0.609   3.079  0.00  0.00     0.002 A 
ENDROOT
BRANCH   1   7
ATOM      7  C1  UNL d   1      -4.637   2.176   4.529  0.00  0.00     0.055 C 
ATOM      8  C   UNL d   1      -4.383   2.491   5.996  0.00  0.00     0.019 C 
ENDBRANCH   1   7
TORSDOF 1
ENDMDL
