MODEL 1
REMARK minimizedAffinity -1.72641671
REMARK minimizedRMSD -1
REMARK  1 active torsions:
REMARK  status: ('A' for Active; 'I' for Inactive)
REMARK    1  A    between atoms: C1_2  and  C2_3 
ROOT
ATOM      1  C2  UNL d   1      -3.179   2.245   3.654  0.00  0.00    -0.077 A 
ATOM      2  C3  UNL d   1      -1.942   1.803   4.144  0.00  0.00     0.002 A 
ATOM      3  C4  UNL d   1      -0.817   1.792   3.318  0.00  0.00     0.002 A 
ATOM      4  C5  UNL d   1      -0.916   2.227   1.998  0.00  0.00    -0.004 A 
ATOM      5  C6  UNL d   1      -2.142   2.667   1.500  0.00  0.00     0.002 A 
ATOM      6  C7  UNL d   1      -3.268   2.677   2.324  0.00  0.00     0.002 A 
ENDROOT
BRANCH   1   7
ATOM      7  C1  UNL d   1      -4.382   2.304   4.558  0.00  0.00     0.055 C 
ATOM      8  C   UNL d   1      -3.978   2.576   6.000  0.00  0.00     0.019 C 
ENDBRANCH   1   7
TORSDOF 1
ENDMDL
