MODEL 1
REMARK minimizedAffinity 3.53634572
REMARK minimizedRMSD -1
REMARK  1 active torsions:
REMARK  status: ('A' for Active; 'I' for Inactive)
REMARK    1  A    between atoms: C1_2  and  C2_3 
ROOT
ATOM      1  C2  UNL d   1      -4.127   1.490   4.011  0.00  0.00    -0.077 A 
ATOM      2  C3  UNL d   1      -3.913   0.184   3.547  0.00  0.00     0.002 A 
ATOM      3  C4  UNL d   1      -2.836  -0.098   2.705  0.00  0.00     0.002 A 
ATOM      4  C5  UNL d   1      -1.962   0.918   2.324  0.00  0.00    -0.004 A 
ATOM      5  C6  UNL d   1      -2.167   2.220   2.778  0.00  0.00     0.002 A 
ATOM      6  C7  UNL d   1      -3.244   2.504   3.619  0.00  0.00     0.002 A 
ENDROOT
BRANCH   1   7
ATOM      7  C1  UNL d   1      -5.260   1.787   4.958  0.00  0.00     0.055 C 
ATOM      8  C   UNL d   1      -5.069   3.133   5.643  0.00  0.00     0.019 C 
ENDBRANCH   1   7
TORSDOF 1
ENDMDL
