MODEL 1
REMARK minimizedAffinity 6.11202717
REMARK minimizedRMSD -1
REMARK  1 active torsions:
REMARK  status: ('A' for Active; 'I' for Inactive)
REMARK    1  A    between atoms: C1_2  and  C2_3 
ROOT
ATOM      1  C2  UNL d   1      -3.916   2.715   4.051  0.00  0.00    -0.077 A 
ATOM      2  C3  UNL d   1      -4.274   3.745   4.932  0.00  0.00     0.002 A 
ATOM      3  C4  UNL d   1      -5.258   3.536   5.901  0.00  0.00     0.002 A 
ATOM      4  C5  UNL d   1      -5.889   2.298   6.000  0.00  0.00    -0.004 A 
ATOM      5  C6  UNL d   1      -5.541   1.267   5.127  0.00  0.00     0.002 A 
ATOM      6  C7  UNL d   1      -4.559   1.475   4.158  0.00  0.00     0.002 A 
ENDROOT
BRANCH   1   7
ATOM      7  C1  UNL d   1      -2.821   2.923   3.039  0.00  0.00     0.055 C 
ATOM      8  C   UNL d   1      -1.586   2.102   3.382  0.00  0.00     0.019 C 
ENDBRANCH   1   7
TORSDOF 1
ENDMDL
