MODEL 1
REMARK minimizedAffinity 3.98305583
REMARK minimizedRMSD -1
REMARK  1 active torsions:
REMARK  status: ('A' for Active; 'I' for Inactive)
REMARK    1  A    between atoms: C1_2  and  C2_3 
ROOT
ATOM      1  C2  UNL d   1      -4.076  -1.420  -0.368  0.00  0.00    -0.077 A 
ATOM      2  C3  UNL d   1      -3.862  -2.571  -1.140  0.00  0.00     0.002 A 
ATOM      3  C4  UNL d   1      -3.377  -2.466  -2.445  0.00  0.00     0.002 A 
ATOM      4  C5  UNL d   1      -3.098  -1.214  -2.988  0.00  0.00    -0.004 A 
ATOM      5  C6  UNL d   1      -3.309  -0.063  -2.229  0.00  0.00     0.002 A 
ATOM      6  C7  UNL d   1      -3.795  -0.166  -0.925  0.00  0.00     0.002 A 
ENDROOT
BRANCH   1   7
ATOM      7  C1  UNL d   1      -4.552  -1.534   1.057  0.00  0.00     0.055 C 
ATOM      8  C   UNL d   1      -5.994  -2.017   1.121  0.00  0.00     0.019 C 
ENDBRANCH   1   7
TORSDOF 1
ENDMDL
