MODEL 1
REMARK minimizedAffinity 3.50855923
REMARK minimizedRMSD -1
REMARK  1 active torsions:
REMARK  status: ('A' for Active; 'I' for Inactive)
REMARK    1  A    between atoms: C1_2  and  C2_3 
ROOT
ATOM      1  C2  UNL d   1       3.303   2.298  -3.864  0.00  0.00    -0.077 A 
ATOM      2  C3  UNL d   1       2.198   3.040  -3.424  0.00  0.00     0.002 A 
ATOM      3  C4  UNL d   1       2.104   4.403  -3.710  0.00  0.00     0.002 A 
ATOM      4  C5  UNL d   1       3.108   5.035  -4.440  0.00  0.00    -0.004 A 
ATOM      5  C6  UNL d   1       4.212   4.306  -4.881  0.00  0.00     0.002 A 
ATOM      6  C7  UNL d   1       4.308   2.943  -4.595  0.00  0.00     0.002 A 
ENDROOT
BRANCH   1   7
ATOM      7  C1  UNL d   1       3.382   0.817  -3.599  0.00  0.00     0.055 C 
ATOM      8  C   UNL d   1       4.819   0.319  -3.665  0.00  0.00     0.019 C 
ENDBRANCH   1   7
TORSDOF 1
ENDMDL
