MODEL 1
REMARK minimizedAffinity 7.90294027
REMARK minimizedRMSD -1
REMARK  0 active torsions:
REMARK  status: ('A' for Active; 'I' for Inactive)
ROOT
ATOM      1  C   UNL d   1       5.210   4.082  -5.713  0.00  0.00     0.023 A 
ATOM      2  C1  UNL d   1       5.014   5.433  -6.000  0.00  0.00     0.003 A 
ATOM      3  C2  UNL d   1       3.732   5.982  -5.938  0.00  0.00     0.048 A 
ATOM      4  C3  UNL d   1       2.650   5.175  -5.587  0.00  0.00     0.023 A 
ATOM      5  C4  UNL d   1       2.842   3.823  -5.297  0.00  0.00     0.048 A 
ATOM      6  C5  UNL d   1       4.125   3.278  -5.362  0.00  0.00     0.003 A 
ATOM      7  I   UNL d   1       0.741   5.991  -5.493  0.00  0.00    -0.146 I 
ENDROOT
TORSDOF 0
ENDMDL
