MODEL 1
REMARK minimizedAffinity 8.38996315
REMARK minimizedRMSD -1
REMARK  0 active torsions:
REMARK  status: ('A' for Active; 'I' for Inactive)
ROOT
ATOM      1  C   UNL d   1       2.405   6.000  -5.750  0.00  0.00     0.023 A 
ATOM      2  C1  UNL d   1       1.752   4.874  -5.249  0.00  0.00     0.003 A 
ATOM      3  C2  UNL d   1       2.471   3.704  -4.994  0.00  0.00     0.048 A 
ATOM      4  C3  UNL d   1       3.842   3.667  -5.244  0.00  0.00     0.023 A 
ATOM      5  C4  UNL d   1       4.500   4.791  -5.745  0.00  0.00     0.048 A 
ATOM      6  C5  UNL d   1       3.777   5.959  -5.998  0.00  0.00     0.003 A 
ATOM      7  I   UNL d   1       4.914   1.927  -4.866  0.00  0.00    -0.146 I 
ENDROOT
TORSDOF 0
ENDMDL
