MODEL 1
REMARK minimizedAffinity 1.18267119
REMARK minimizedRMSD -1
REMARK  0 active torsions:
REMARK  status: ('A' for Active; 'I' for Inactive)
ROOT
ATOM      1  C   UNL d   1       5.985   3.556  -5.899  0.00  0.00     0.023 A 
ATOM      2  C1  UNL d   1       5.984   4.948  -6.000  0.00  0.00     0.003 A 
ATOM      3  C2  UNL d   1       4.778   5.650  -5.977  0.00  0.00     0.048 A 
ATOM      4  C3  UNL d   1       3.575   4.956  -5.852  0.00  0.00     0.023 A 
ATOM      5  C4  UNL d   1       3.571   3.564  -5.750  0.00  0.00     0.048 A 
ATOM      6  C5  UNL d   1       4.779   2.865  -5.774  0.00  0.00     0.003 A 
ATOM      7  I   UNL d   1       1.778   5.999  -5.818  0.00  0.00    -0.146 I 
ENDROOT
TORSDOF 0
ENDMDL
