MODEL 1
REMARK minimizedAffinity 9.20668507
REMARK minimizedRMSD -1
REMARK  0 active torsions:
REMARK  status: ('A' for Active; 'I' for Inactive)
ROOT
ATOM      1  C   UNL d   1       4.884   4.220  -5.422  0.00  0.00     0.023 A 
ATOM      2  C1  UNL d   1       3.841   3.482  -4.863  0.00  0.00     0.003 A 
ATOM      3  C2  UNL d   1       2.541   3.991  -4.870  0.00  0.00     0.048 A 
ATOM      4  C3  UNL d   1       2.291   5.240  -5.439  0.00  0.00     0.023 A 
ATOM      5  C4  UNL d   1       3.331   5.982  -6.000  0.00  0.00     0.048 A 
ATOM      6  C5  UNL d   1       4.630   5.469  -5.989  0.00  0.00     0.003 A 
ATOM      7  I   UNL d   1       0.357   6.000  -5.451  0.00  0.00    -0.146 I 
ENDROOT
TORSDOF 0
ENDMDL
