MODEL 1
REMARK minimizedAffinity -4.13394547
REMARK minimizedRMSD -1
REMARK  1 active torsions:
REMARK  status: ('A' for Active; 'I' for Inactive)
REMARK    1  A    between atoms: C1_2  and  C2_3 
ROOT
ATOM      1  C2  UNL d   1      -0.071   0.007   0.072  0.00  0.00    -0.076 A 
ATOM      2  C3  UNL d   1       0.385   1.066  -0.731  0.00  0.00     0.004 A 
ATOM      3  C4  UNL d   1       0.561   2.344  -0.202  0.00  0.00    -0.003 A 
ATOM      4  C5  UNL d   1       0.284   2.582   1.140  0.00  0.00     0.000 A 
ATOM      5  C6  UNL d   1      -0.152   1.539   1.956  0.00  0.00     0.000 A 
ATOM      6  C7  UNL d   1      -0.319   0.241   1.442  0.00  0.00    -0.073 A 
ATOM      7  C8  UNL d   1      -0.798  -0.845   2.366  0.00  0.00     0.078 C 
ENDROOT
BRANCH   1   8
ATOM      8  C1  UNL d   1      -0.270  -1.351  -0.563  0.00  0.00     0.053 C 
ATOM      9  C   UNL d   1      -1.608  -1.471  -1.276  0.00  0.00     0.018 C 
ENDBRANCH   1   8
TORSDOF 1
ENDMDL
