MODEL 1
REMARK minimizedAffinity -4.35059023
REMARK minimizedRMSD -1
REMARK  1 active torsions:
REMARK  status: ('A' for Active; 'I' for Inactive)
REMARK    1  A    between atoms: C1_2  and  C2_3 
ROOT
ATOM      1  C2  UNL d   1      -0.527  -0.037   1.088  0.00  0.00    -0.076 A 
ATOM      2  C3  UNL d   1      -0.609  -1.238   0.363  0.00  0.00     0.004 A 
ATOM      3  C4  UNL d   1       0.391  -1.602  -0.538  0.00  0.00    -0.003 A 
ATOM      4  C5  UNL d   1       1.490  -0.771  -0.726  0.00  0.00     0.000 A 
ATOM      5  C6  UNL d   1       1.596   0.416  -0.002  0.00  0.00     0.000 A 
ATOM      6  C7  UNL d   1       0.605   0.790   0.921  0.00  0.00    -0.073 A 
ATOM      7  C8  UNL d   1       0.767   2.084   1.670  0.00  0.00     0.078 C 
ENDROOT
BRANCH   1   8
ATOM      8  C1  UNL d   1      -1.655   0.319   2.030  0.00  0.00     0.053 C 
ATOM      9  C   UNL d   1      -2.025  -0.830   2.956  0.00  0.00     0.018 C 
ENDBRANCH   1   8
TORSDOF 1
ENDMDL
