MODEL 1
REMARK minimizedAffinity -3.98923612
REMARK minimizedRMSD -1
REMARK  1 active torsions:
REMARK  status: ('A' for Active; 'I' for Inactive)
REMARK    1  A    between atoms: C1_2  and  C2_3 
ROOT
ATOM      1  C2  UNL d   1      -0.400  -0.732  -0.456  0.00  0.00    -0.076 A 
ATOM      2  C3  UNL d   1      -1.011   0.488  -0.119  0.00  0.00     0.004 A 
ATOM      3  C4  UNL d   1      -0.247   1.593   0.255  0.00  0.00    -0.003 A 
ATOM      4  C5  UNL d   1       1.139   1.495   0.297  0.00  0.00     0.000 A 
ATOM      5  C6  UNL d   1       1.762   0.297  -0.051  0.00  0.00     0.000 A 
ATOM      6  C7  UNL d   1       1.008  -0.821  -0.446  0.00  0.00    -0.073 A 
ATOM      7  C8  UNL d   1       1.732  -2.090  -0.805  0.00  0.00     0.078 C 
ENDROOT
BRANCH   1   8
ATOM      8  C1  UNL d   1      -1.281  -1.904  -0.827  0.00  0.00     0.053 C 
ATOM      9  C   UNL d   1      -1.726  -1.861  -2.281  0.00  0.00     0.018 C 
ENDBRANCH   1   8
TORSDOF 1
ENDMDL
