MODEL 1
REMARK minimizedAffinity -4.84206581
REMARK minimizedRMSD -1
REMARK  1 active torsions:
REMARK  status: ('A' for Active; 'I' for Inactive)
REMARK    1  A    between atoms: C1_2  and  C2_3 
ROOT
ATOM      1  C2  UNL d   1       0.397  -0.194   0.109  0.00  0.00    -0.076 A 
ATOM      2  C3  UNL d   1       1.256   0.555  -0.712  0.00  0.00     0.004 A 
ATOM      3  C4  UNL d   1       1.673   1.832  -0.338  0.00  0.00    -0.003 A 
ATOM      4  C5  UNL d   1       1.238   2.379   0.864  0.00  0.00     0.000 A 
ATOM      5  C6  UNL d   1       0.399   1.642   1.699  0.00  0.00     0.000 A 
ATOM      6  C7  UNL d   1      -0.018   0.348   1.345  0.00  0.00    -0.073 A 
ATOM      7  C8  UNL d   1      -0.927  -0.400   2.281  0.00  0.00     0.078 C 
ENDROOT
BRANCH   1   8
ATOM      8  C1  UNL d   1      -0.044  -1.562  -0.361  0.00  0.00     0.053 C 
ATOM      9  C   UNL d   1      -1.082  -1.491  -1.471  0.00  0.00     0.018 C 
ENDBRANCH   1   8
TORSDOF 1
ENDMDL
