MODEL 1
REMARK minimizedAffinity -4.25153923
REMARK minimizedRMSD -1
REMARK  1 active torsions:
REMARK  status: ('A' for Active; 'I' for Inactive)
REMARK    1  A    between atoms: C1_2  and  C2_3 
ROOT
ATOM      1  C2  UNL d   1      -0.085   0.726   2.106  0.00  0.00    -0.076 A 
ATOM      2  C3  UNL d   1      -0.725  -0.476   1.758  0.00  0.00     0.004 A 
ATOM      3  C4  UNL d   1      -0.655  -0.977   0.459  0.00  0.00    -0.003 A 
ATOM      4  C5  UNL d   1       0.058  -0.283  -0.513  0.00  0.00     0.000 A 
ATOM      5  C6  UNL d   1       0.713   0.902  -0.182  0.00  0.00     0.000 A 
ATOM      6  C7  UNL d   1       0.666   1.412   1.127  0.00  0.00    -0.073 A 
ATOM      7  C8  UNL d   1       1.387   2.697   1.428  0.00  0.00     0.078 C 
ENDROOT
BRANCH   1   8
ATOM      8  C1  UNL d   1      -0.219   1.234   3.524  0.00  0.00     0.053 C 
ATOM      9  C   UNL d   1       0.925   0.778   4.416  0.00  0.00     0.018 C 
ENDBRANCH   1   8
TORSDOF 1
ENDMDL
