MODEL 1
REMARK minimizedAffinity -1.65176189
REMARK minimizedRMSD -1
REMARK  1 active torsions:
REMARK  status: ('A' for Active; 'I' for Inactive)
REMARK    1  A    between atoms: C1_2  and  C2_3 
ROOT
ATOM      1  C2  UNL d   1       0.181  -0.300  -0.067  0.00  0.00    -0.076 A 
ATOM      2  C3  UNL d   1      -0.958   0.005   0.698  0.00  0.00     0.004 A 
ATOM      3  C4  UNL d   1      -0.938   1.037   1.634  0.00  0.00    -0.003 A 
ATOM      4  C5  UNL d   1       0.221   1.782   1.820  0.00  0.00     0.000 A 
ATOM      5  C6  UNL d   1       1.355   1.505   1.056  0.00  0.00     0.000 A 
ATOM      6  C7  UNL d   1       1.346   0.479   0.097  0.00  0.00    -0.073 A 
ATOM      7  C8  UNL d   1       2.599   0.219  -0.694  0.00  0.00     0.078 C 
ENDROOT
BRANCH   1   8
ATOM      8  C1  UNL d   1       0.108  -1.449  -1.048  0.00  0.00     0.053 C 
ATOM      9  C   UNL d   1      -1.192  -1.460  -1.837  0.00  0.00     0.018 C 
ENDBRANCH   1   8
TORSDOF 1
ENDMDL
