MODEL 1
REMARK minimizedAffinity -2.13450384
REMARK minimizedRMSD -1
REMARK  1 active torsions:
REMARK  status: ('A' for Active; 'I' for Inactive)
REMARK    1  A    between atoms: C1_2  and  C2_3 
ROOT
ATOM      1  C2  UNL d   1      -2.408  -2.652  -1.476  0.00  0.00    -0.076 A 
ATOM      2  C3  UNL d   1      -1.569  -2.220  -0.435  0.00  0.00     0.004 A 
ATOM      3  C4  UNL d   1      -0.554  -1.294  -0.669  0.00  0.00    -0.003 A 
ATOM      4  C5  UNL d   1      -0.362  -0.784  -1.948  0.00  0.00     0.000 A 
ATOM      5  C6  UNL d   1      -1.196  -1.189  -2.990  0.00  0.00     0.000 A 
ATOM      6  C7  UNL d   1      -2.235  -2.109  -2.768  0.00  0.00    -0.073 A 
ATOM      7  C8  UNL d   1      -3.101  -2.515  -3.929  0.00  0.00     0.078 C 
ENDROOT
BRANCH   1   8
ATOM      8  C1  UNL d   1      -3.475  -3.678  -1.168  0.00  0.00     0.053 C 
ATOM      9  C   UNL d   1      -4.869  -3.073  -1.120  0.00  0.00     0.018 C 
ENDBRANCH   1   8
TORSDOF 1
ENDMDL
