MODEL 1
REMARK minimizedAffinity -3.25978112
REMARK minimizedRMSD -1
REMARK  1 active torsions:
REMARK  status: ('A' for Active; 'I' for Inactive)
REMARK    1  A    between atoms: C1_2  and  C2_3 
ROOT
ATOM      1  C2  UNL d   1      -0.737  -1.312  -0.102  0.00  0.00    -0.076 A 
ATOM      2  C3  UNL d   1       0.069  -0.561  -0.975  0.00  0.00     0.004 A 
ATOM      3  C4  UNL d   1       0.759   0.564  -0.526  0.00  0.00    -0.003 A 
ATOM      4  C5  UNL d   1       0.653   0.956   0.804  0.00  0.00     0.000 A 
ATOM      5  C6  UNL d   1      -0.128   0.213   1.688  0.00  0.00     0.000 A 
ATOM      6  C7  UNL d   1      -0.817  -0.933   1.255  0.00  0.00    -0.073 A 
ATOM      7  C8  UNL d   1      -1.651  -1.693   2.250  0.00  0.00     0.078 C 
ENDROOT
BRANCH   1   8
ATOM      8  C1  UNL d   1      -1.483  -2.506  -0.652  0.00  0.00     0.053 C 
ATOM      9  C   UNL d   1      -2.181  -2.202  -1.969  0.00  0.00     0.018 C 
ENDBRANCH   1   8
TORSDOF 1
ENDMDL
