MODEL 1
REMARK minimizedAffinity -3.22063398
REMARK minimizedRMSD -1
REMARK  1 active torsions:
REMARK  status: ('A' for Active; 'I' for Inactive)
REMARK    1  A    between atoms: C1_2  and  C2_3 
ROOT
ATOM      1  C2  UNL d   1       0.238   0.707   1.456  0.00  0.00    -0.076 A 
ATOM      2  C3  UNL d   1      -0.373  -0.545   1.262  0.00  0.00     0.004 A 
ATOM      3  C4  UNL d   1      -0.499  -1.091  -0.014  0.00  0.00    -0.003 A 
ATOM      4  C5  UNL d   1      -0.016  -0.396  -1.117  0.00  0.00     0.000 A 
ATOM      5  C6  UNL d   1       0.609   0.839  -0.941  0.00  0.00     0.000 A 
ATOM      6  C7  UNL d   1       0.759   1.396   0.340  0.00  0.00    -0.073 A 
ATOM      7  C8  UNL d   1       1.435   2.734   0.471  0.00  0.00     0.078 C 
ENDROOT
BRANCH   1   8
ATOM      8  C1  UNL d   1       0.322   1.262   2.860  0.00  0.00     0.053 C 
ATOM      9  C   UNL d   1       0.856   0.245   3.857  0.00  0.00     0.018 C 
ENDBRANCH   1   8
TORSDOF 1
ENDMDL
