MODEL 1
REMARK minimizedAffinity -4.78363228
REMARK minimizedRMSD -1
REMARK  1 active torsions:
REMARK  status: ('A' for Active; 'I' for Inactive)
REMARK    1  A    between atoms: C1_2  and  C2_3 
ROOT
ATOM      1  C2  UNL d   1       0.680   0.043   0.201  0.00  0.00    -0.076 A 
ATOM      2  C3  UNL d   1       1.912   0.509  -0.292  0.00  0.00     0.004 A 
ATOM      3  C4  UNL d   1       2.543   1.611   0.282  0.00  0.00    -0.003 A 
ATOM      4  C5  UNL d   1       1.954   2.264   1.359  0.00  0.00     0.000 A 
ATOM      5  C6  UNL d   1       0.742   1.804   1.872  0.00  0.00     0.000 A 
ATOM      6  C7  UNL d   1       0.100   0.685   1.315  0.00  0.00    -0.073 A 
ATOM      7  C8  UNL d   1      -1.209   0.236   1.905  0.00  0.00     0.078 C 
ENDROOT
BRANCH   1   8
ATOM      8  C1  UNL d   1       0.029  -1.140  -0.480  0.00  0.00     0.053 C 
ATOM      9  C   UNL d   1      -0.894  -0.724  -1.615  0.00  0.00     0.018 C 
ENDBRANCH   1   8
TORSDOF 1
ENDMDL
