MODEL 1
REMARK minimizedAffinity -5.99037218
REMARK minimizedRMSD -1
REMARK  1 active torsions:
REMARK  status: ('A' for Active; 'I' for Inactive)
REMARK    1  A    between atoms: C1_2  and  C2_3 
ROOT
ATOM      1  C2  UNL d   1       0.621   0.087   0.388  0.00  0.00    -0.076 A 
ATOM      2  C3  UNL d   1       1.883  -0.104  -0.202  0.00  0.00     0.004 A 
ATOM      3  C4  UNL d   1       2.910   0.818  -0.011  0.00  0.00    -0.003 A 
ATOM      4  C5  UNL d   1       2.693   1.946   0.773  0.00  0.00     0.000 A 
ATOM      5  C6  UNL d   1       1.453   2.142   1.380  0.00  0.00     0.000 A 
ATOM      6  C7  UNL d   1       0.411   1.214   1.211  0.00  0.00    -0.073 A 
ATOM      7  C8  UNL d   1      -0.908   1.479   1.883  0.00  0.00     0.078 C 
ENDROOT
BRANCH   1   8
ATOM      8  C1  UNL d   1      -0.464  -0.933   0.123  0.00  0.00     0.053 C 
ATOM      9  C   UNL d   1      -0.880  -0.975  -1.339  0.00  0.00     0.018 C 
ENDBRANCH   1   8
TORSDOF 1
ENDMDL
