MODEL 1
REMARK minimizedAffinity -3.99767256
REMARK minimizedRMSD -1
REMARK  1 active torsions:
REMARK  status: ('A' for Active; 'I' for Inactive)
REMARK    1  A    between atoms: C1_2  and  C2_3 
ROOT
ATOM      1  C2  UNL d   1       0.262  -0.053  -0.247  0.00  0.00    -0.076 A 
ATOM      2  C3  UNL d   1       1.341   0.602  -0.865  0.00  0.00     0.004 A 
ATOM      3  C4  UNL d   1       1.772   1.851  -0.420  0.00  0.00    -0.003 A 
ATOM      4  C5  UNL d   1       1.131   2.464   0.651  0.00  0.00     0.000 A 
ATOM      5  C6  UNL d   1       0.070   1.820   1.287  0.00  0.00     0.000 A 
ATOM      6  C7  UNL d   1      -0.366   0.554   0.861  0.00  0.00    -0.073 A 
ATOM      7  C8  UNL d   1      -1.519  -0.092   1.580  0.00  0.00     0.078 C 
ENDROOT
BRANCH   1   8
ATOM      8  C1  UNL d   1      -0.178  -1.394  -0.790  0.00  0.00     0.053 C 
ATOM      9  C   UNL d   1      -1.222  -1.263  -1.888  0.00  0.00     0.018 C 
ENDBRANCH   1   8
TORSDOF 1
ENDMDL
