MODEL 1
REMARK minimizedAffinity -2.39493394
REMARK minimizedRMSD -1
REMARK  1 active torsions:
REMARK  status: ('A' for Active; 'I' for Inactive)
REMARK    1  A    between atoms: C1_2  and  C2_3 
ROOT
ATOM      1  C2  UNL d   1      -0.539   0.400   0.838  0.00  0.00    -0.076 A 
ATOM      2  C3  UNL d   1      -0.487  -0.990   1.037  0.00  0.00     0.004 A 
ATOM      3  C4  UNL d   1      -0.774  -1.875  -0.001  0.00  0.00    -0.003 A 
ATOM      4  C5  UNL d   1      -1.118  -1.383  -1.255  0.00  0.00     0.000 A 
ATOM      5  C6  UNL d   1      -1.158  -0.006  -1.475  0.00  0.00     0.000 A 
ATOM      6  C7  UNL d   1      -0.855   0.899  -0.444  0.00  0.00    -0.073 A 
ATOM      7  C8  UNL d   1      -0.919   2.373  -0.735  0.00  0.00     0.078 C 
ENDROOT
BRANCH   1   8
ATOM      8  C1  UNL d   1      -0.243   1.311   2.009  0.00  0.00     0.053 C 
ATOM      9  C   UNL d   1       1.227   1.691   2.094  0.00  0.00     0.018 C 
ENDBRANCH   1   8
TORSDOF 1
ENDMDL
