MODEL 1
REMARK minimizedAffinity -4.76653814
REMARK minimizedRMSD -1
REMARK  1 active torsions:
REMARK  status: ('A' for Active; 'I' for Inactive)
REMARK    1  A    between atoms: C1_2  and  C2_3 
ROOT
ATOM      1  C2  UNL d   1       0.496   0.102   0.120  0.00  0.00    -0.076 A 
ATOM      2  C3  UNL d   1      -0.540   0.529   0.969  0.00  0.00     0.004 A 
ATOM      3  C4  UNL d   1      -0.391   1.659   1.771  0.00  0.00    -0.003 A 
ATOM      4  C5  UNL d   1       0.797   2.382   1.737  0.00  0.00     0.000 A 
ATOM      5  C6  UNL d   1       1.829   1.983   0.887  0.00  0.00     0.000 A 
ATOM      6  C7  UNL d   1       1.688   0.856   0.060  0.00  0.00    -0.073 A 
ATOM      7  C8  UNL d   1       2.836   0.468  -0.832  0.00  0.00     0.078 C 
ENDROOT
BRANCH   1   8
ATOM      8  C1  UNL d   1       0.288  -1.146  -0.706  0.00  0.00     0.053 C 
ATOM      9  C   UNL d   1      -1.099  -1.209  -1.327  0.00  0.00     0.018 C 
ENDBRANCH   1   8
TORSDOF 1
ENDMDL
