MODEL 1
REMARK minimizedAffinity 1.55625677
REMARK minimizedRMSD -1
REMARK  1 active torsions:
REMARK  status: ('A' for Active; 'I' for Inactive)
REMARK    1  A    between atoms: C1_2  and  C2_3 
ROOT
ATOM      1  C2  UNL d   1       3.085  -5.983   2.681  0.00  0.00    -0.073 A 
ATOM      2  C3  UNL d   1       4.035  -5.994   1.653  0.00  0.00    -0.002 A 
ATOM      3  C4  UNL d   1       5.397  -5.998   1.953  0.00  0.00     0.004 A 
ATOM      4  C5  UNL d   1       5.824  -5.999   3.281  0.00  0.00    -0.004 A 
ATOM      5  C6  UNL d   1       4.890  -6.000   4.322  0.00  0.00    -0.075 A 
ATOM      6  C7  UNL d   1       5.333  -5.998   5.756  0.00  0.00     0.076 C 
ATOM      7  C8  UNL d   1       3.523  -5.993   4.013  0.00  0.00     0.001 A 
ENDROOT
BRANCH   1   8
ATOM      8  C1  UNL d   1       1.612  -5.984   2.362  0.00  0.00     0.053 C 
ATOM      9  C   UNL d   1       1.156  -4.661   1.768  0.00  0.00     0.018 C 
ENDBRANCH   1   8
TORSDOF 1
ENDMDL
