MODEL 1
REMARK minimizedAffinity -0.554419279
REMARK minimizedRMSD -1
REMARK  1 active torsions:
REMARK  status: ('A' for Active; 'I' for Inactive)
REMARK    1  A    between atoms: C1_2  and  C2_3 
ROOT
ATOM      1  C2  UNL d   1       5.788  -4.053   3.961  0.00  0.00    -0.073 A 
ATOM      2  C3  UNL d   1       6.000  -3.943   5.340  0.00  0.00    -0.002 A 
ATOM      3  C4  UNL d   1       5.992  -2.691   5.956  0.00  0.00     0.004 A 
ATOM      4  C5  UNL d   1       5.766  -1.539   5.203  0.00  0.00    -0.004 A 
ATOM      5  C6  UNL d   1       5.540  -1.630   3.826  0.00  0.00    -0.075 A 
ATOM      6  C7  UNL d   1       5.297  -0.400   3.001  0.00  0.00     0.076 C 
ATOM      7  C8  UNL d   1       5.552  -2.890   3.214  0.00  0.00     0.001 A 
ENDROOT
BRANCH   1   8
ATOM      8  C1  UNL d   1       5.789  -5.404   3.292  0.00  0.00     0.053 C 
ATOM      9  C   UNL d   1       4.380  -5.909   3.027  0.00  0.00     0.018 C 
ENDBRANCH   1   8
TORSDOF 1
ENDMDL
