MODEL 1
REMARK minimizedAffinity 17.5998478
REMARK minimizedRMSD -1
REMARK  1 active torsions:
REMARK  status: ('A' for Active; 'I' for Inactive)
REMARK    1  A    between atoms: C1_2  and  C2_3 
ROOT
ATOM      1  C2  UNL d   1       2.715   0.484  -3.594  0.00  0.00    -0.073 A 
ATOM      2  C3  UNL d   1       2.775  -0.779  -4.195  0.00  0.00    -0.002 A 
ATOM      3  C4  UNL d   1       3.491  -0.963  -5.378  0.00  0.00     0.004 A 
ATOM      4  C5  UNL d   1       4.159   0.109  -5.968  0.00  0.00    -0.004 A 
ATOM      5  C6  UNL d   1       4.122   1.376  -5.376  0.00  0.00    -0.075 A 
ATOM      6  C7  UNL d   1       4.834   2.540  -6.000  0.00  0.00     0.076 C 
ATOM      7  C8  UNL d   1       3.398   1.554  -4.189  0.00  0.00     0.001 A 
ENDROOT
BRANCH   1   8
ATOM      8  C1  UNL d   1       1.948   0.686  -2.312  0.00  0.00     0.053 C 
ATOM      9  C   UNL d   1       2.419   1.917  -1.555  0.00  0.00     0.018 C 
ENDBRANCH   1   8
TORSDOF 1
ENDMDL
