MODEL 1
REMARK minimizedAffinity 2.0290792
REMARK minimizedRMSD -1
REMARK  1 active torsions:
REMARK  status: ('A' for Active; 'I' for Inactive)
REMARK    1  A    between atoms: C1_2  and  C2_3 
ROOT
ATOM      1  C2  UNL d   1      -4.492  -2.530   3.826  0.00  0.00    -0.073 A 
ATOM      2  C3  UNL d   1      -5.022  -3.590   3.082  0.00  0.00    -0.002 A 
ATOM      3  C4  UNL d   1      -5.237  -3.451   1.710  0.00  0.00     0.004 A 
ATOM      4  C5  UNL d   1      -4.919  -2.254   1.068  0.00  0.00    -0.004 A 
ATOM      5  C6  UNL d   1      -4.378  -1.187   1.792  0.00  0.00    -0.075 A 
ATOM      6  C7  UNL d   1      -4.033   0.107   1.116  0.00  0.00     0.076 C 
ATOM      7  C8  UNL d   1      -4.168  -1.334   3.169  0.00  0.00     0.001 A 
ENDROOT
BRANCH   1   8
ATOM      8  C1  UNL d   1      -4.252  -2.678   5.306  0.00  0.00     0.053 C 
ATOM      9  C   UNL d   1      -4.117  -1.331   5.999  0.00  0.00     0.018 C 
ENDBRANCH   1   8
TORSDOF 1
ENDMDL
