MODEL 1
REMARK minimizedAffinity -2.95184731
REMARK minimizedRMSD -1
REMARK  1 active torsions:
REMARK  status: ('A' for Active; 'I' for Inactive)
REMARK    1  A    between atoms: C1_2  and  C2_3 
ROOT
ATOM      1  C2  UNL d   1       1.813  -5.617   1.780  0.00  0.00    -0.073 A 
ATOM      2  C3  UNL d   1       1.634  -6.000   3.114  0.00  0.00    -0.002 A 
ATOM      3  C4  UNL d   1       0.360  -6.000   3.683  0.00  0.00     0.004 A 
ATOM      4  C5  UNL d   1      -0.748  -5.624   2.923  0.00  0.00    -0.004 A 
ATOM      5  C6  UNL d   1      -0.591  -5.249   1.585  0.00  0.00    -0.075 A 
ATOM      6  C7  UNL d   1      -1.773  -4.840   0.755  0.00  0.00     0.076 C 
ATOM      7  C8  UNL d   1       0.692  -5.250   1.022  0.00  0.00     0.001 A 
ENDROOT
BRANCH   1   8
ATOM      8  C1  UNL d   1       3.186  -5.622   1.160  0.00  0.00     0.053 C 
ATOM      9  C   UNL d   1       4.204  -4.895   2.024  0.00  0.00     0.018 C 
ENDBRANCH   1   8
TORSDOF 1
ENDMDL
