MODEL 1
REMARK minimizedAffinity 3.47391105
REMARK minimizedRMSD -1
REMARK  1 active torsions:
REMARK  status: ('A' for Active; 'I' for Inactive)
REMARK    1  A    between atoms: C1_2  and  C2_3 
ROOT
ATOM      1  C2  UNL d   1      -3.966  -5.506   1.252  0.00  0.00    -0.073 A 
ATOM      2  C3  UNL d   1      -3.599  -5.640  -0.092  0.00  0.00    -0.002 A 
ATOM      3  C4  UNL d   1      -2.269  -5.882  -0.438  0.00  0.00     0.004 A 
ATOM      4  C5  UNL d   1      -1.295  -5.998   0.554  0.00  0.00    -0.004 A 
ATOM      5  C6  UNL d   1      -1.644  -5.879   1.903  0.00  0.00    -0.075 A 
ATOM      6  C7  UNL d   1      -0.608  -5.999   2.982  0.00  0.00     0.076 C 
ATOM      7  C8  UNL d   1      -2.982  -5.634   2.242  0.00  0.00     0.001 A 
ENDROOT
BRANCH   1   8
ATOM      8  C1  UNL d   1      -5.402  -5.252   1.631  0.00  0.00     0.053 C 
ATOM      9  C   UNL d   1      -5.891  -3.900   1.137  0.00  0.00     0.018 C 
ENDBRANCH   1   8
TORSDOF 1
ENDMDL
