MODEL 1
REMARK minimizedAffinity 5.52380371
REMARK minimizedRMSD -1
REMARK  1 active torsions:
REMARK  status: ('A' for Active; 'I' for Inactive)
REMARK    1  A    between atoms: C1_2  and  C2_3 
ROOT
ATOM      1  C2  UNL d   1      -1.656   0.933   1.159  0.00  0.00    -0.073 A 
ATOM      2  C3  UNL d   1      -2.881   1.330   1.706  0.00  0.00    -0.002 A 
ATOM      3  C4  UNL d   1      -2.917   2.134   2.846  0.00  0.00     0.004 A 
ATOM      4  C5  UNL d   1      -1.730   2.554   3.446  0.00  0.00    -0.004 A 
ATOM      5  C6  UNL d   1      -0.495   2.177   2.908  0.00  0.00    -0.075 A 
ATOM      6  C7  UNL d   1       0.791   2.618   3.543  0.00  0.00     0.076 C 
ATOM      7  C8  UNL d   1      -0.468   1.367   1.764  0.00  0.00     0.001 A 
ENDROOT
BRANCH   1   8
ATOM      8  C1  UNL d   1      -1.613   0.070  -0.076  0.00  0.00     0.053 C 
ATOM      9  C   UNL d   1      -2.318  -1.261   0.134  0.00  0.00     0.018 C 
ENDBRANCH   1   8
TORSDOF 1
ENDMDL
