MODEL 1
REMARK minimizedAffinity 3.96479297
REMARK minimizedRMSD -1
REMARK  1 active torsions:
REMARK  status: ('A' for Active; 'I' for Inactive)
REMARK    1  A    between atoms: C1_2  and  C2_3 
ROOT
ATOM      1  C2  UNL d   1      -0.830  -4.846   1.011  0.00  0.00    -0.073 A 
ATOM      2  C3  UNL d   1      -2.063  -5.468   0.784  0.00  0.00    -0.002 A 
ATOM      3  C4  UNL d   1      -3.178  -4.711   0.421  0.00  0.00     0.004 A 
ATOM      4  C5  UNL d   1      -3.070  -3.329   0.274  0.00  0.00    -0.004 A 
ATOM      5  C6  UNL d   1      -1.844  -2.690   0.485  0.00  0.00    -0.075 A 
ATOM      6  C7  UNL d   1      -1.713  -1.203   0.334  0.00  0.00     0.076 C 
ATOM      7  C8  UNL d   1      -0.730  -3.456   0.852  0.00  0.00     0.001 A 
ENDROOT
BRANCH   1   8
ATOM      8  C1  UNL d   1       0.378  -5.659   1.397  0.00  0.00     0.053 C 
ATOM      9  C   UNL d   1       0.403  -5.974   2.884  0.00  0.00     0.018 C 
ENDBRANCH   1   8
TORSDOF 1
ENDMDL
