MODEL 1
REMARK minimizedAffinity 11.4798717
REMARK minimizedRMSD -1
REMARK  1 active torsions:
REMARK  status: ('A' for Active; 'I' for Inactive)
REMARK    1  A    between atoms: C1_2  and  C2_3 
ROOT
ATOM      1  C2  UNL d   1      -0.714   2.270   2.556  0.00  0.00    -0.073 A 
ATOM      2  C3  UNL d   1      -0.254   1.455   1.516  0.00  0.00    -0.002 A 
ATOM      3  C4  UNL d   1      -1.156   0.727   0.739  0.00  0.00     0.004 A 
ATOM      4  C5  UNL d   1      -2.526   0.813   0.989  0.00  0.00    -0.004 A 
ATOM      5  C6  UNL d   1      -3.006   1.631   2.016  0.00  0.00    -0.075 A 
ATOM      6  C7  UNL d   1      -4.476   1.732   2.299  0.00  0.00     0.076 C 
ATOM      7  C8  UNL d   1      -2.093   2.357   2.794  0.00  0.00     0.001 A 
ENDROOT
BRANCH   1   8
ATOM      8  C1  UNL d   1       0.256   3.063   3.394  0.00  0.00     0.053 C 
ATOM      9  C   UNL d   1       1.662   2.486   3.337  0.00  0.00     0.018 C 
ENDBRANCH   1   8
TORSDOF 1
ENDMDL
