MODEL 1
REMARK minimizedAffinity 5.25313711
REMARK minimizedRMSD -1
REMARK  1 active torsions:
REMARK  status: ('A' for Active; 'I' for Inactive)
REMARK    1  A    between atoms: C1_2  and  C2_3 
ROOT
ATOM      1  C2  UNL d   1      -1.552   0.185   1.132  0.00  0.00    -0.073 A 
ATOM      2  C3  UNL d   1      -1.096  -0.816   1.998  0.00  0.00    -0.002 A 
ATOM      3  C4  UNL d   1       0.221  -0.803   2.458  0.00  0.00     0.004 A 
ATOM      4  C5  UNL d   1       1.092   0.212   2.065  0.00  0.00    -0.004 A 
ATOM      5  C6  UNL d   1       0.652   1.227   1.210  0.00  0.00    -0.075 A 
ATOM      6  C7  UNL d   1       1.578   2.326   0.775  0.00  0.00     0.076 C 
ATOM      7  C8  UNL d   1      -0.671   1.206   0.749  0.00  0.00     0.001 A 
ENDROOT
BRANCH   1   8
ATOM      8  C1  UNL d   1      -2.975   0.179   0.637  0.00  0.00     0.053 C 
ATOM      9  C   UNL d   1      -3.357  -1.155   0.014  0.00  0.00     0.018 C 
ENDBRANCH   1   8
TORSDOF 1
ENDMDL
