MODEL 1
REMARK minimizedAffinity 8.70150757
REMARK minimizedRMSD -1
REMARK  1 active torsions:
REMARK  status: ('A' for Active; 'I' for Inactive)
REMARK    1  A    between atoms: C1_2  and  C2_3 
ROOT
ATOM      1  C2  UNL d   1       4.519   2.694   0.153  0.00  0.00    -0.073 A 
ATOM      2  C3  UNL d   1       3.121   2.675   0.096  0.00  0.00    -0.002 A 
ATOM      3  C4  UNL d   1       2.400   1.723   0.818  0.00  0.00     0.004 A 
ATOM      4  C5  UNL d   1       3.067   0.788   1.609  0.00  0.00    -0.004 A 
ATOM      5  C6  UNL d   1       4.463   0.800   1.689  0.00  0.00    -0.075 A 
ATOM      6  C7  UNL d   1       5.196  -0.201   2.533  0.00  0.00     0.076 C 
ATOM      7  C8  UNL d   1       5.181   1.756   0.958  0.00  0.00     0.001 A 
ENDROOT
BRANCH   1   8
ATOM      8  C1  UNL d   1       5.302   3.724  -0.621  0.00  0.00     0.053 C 
ATOM      9  C   UNL d   1       5.248   5.094   0.037  0.00  0.00     0.018 C 
ENDBRANCH   1   8
TORSDOF 1
ENDMDL
