MODEL 1
REMARK minimizedAffinity -5.21778488
REMARK minimizedRMSD -1
REMARK  0 active torsions:
REMARK  status: ('A' for Active; 'I' for Inactive)
ROOT
ATOM      1  N1  IND d   1      -0.501   0.489   0.238  0.00  0.00    -0.196 N 
ATOM      2  C2  IND d   1       0.412   0.860  -0.709  0.00  0.00     0.054 A 
ATOM      3  C3  IND d   1       1.459   0.005  -0.714  0.00  0.00    -0.031 A 
ATOM      4  C4  IND d   1       1.832  -2.131   0.674  0.00  0.00     0.051 A 
ATOM      5  C5  IND d   1       1.291  -2.860   1.696  0.00  0.00    -0.031 A 
ATOM      6  C6  IND d   1       0.099  -2.505   2.294  0.00  0.00     0.015 A 
ATOM      7  C7  IND d   1      -0.605  -1.408   1.883  0.00  0.00    -0.016 A 
ATOM      8  C8  IND d   1      -0.054  -0.661   0.851  0.00  0.00    -0.047 A 
ATOM      9  C9  IND d   1       1.176  -0.993   0.269  0.00  0.00    -0.096 A 
ATOM     10  HN1 IND d   1      -1.232   0.903   0.420  0.00  0.00     0.298 HD
ENDROOT
TORSDOF 0
ENDMDL
