MODEL 1
REMARK minimizedAffinity -5.84055948
REMARK minimizedRMSD -1
REMARK  0 active torsions:
REMARK  status: ('A' for Active; 'I' for Inactive)
ROOT
ATOM      1  N1  IND d   1      -0.985   0.342   0.377  0.00  0.00    -0.196 N 
ATOM      2  C2  IND d   1      -0.188   0.800  -0.635  0.00  0.00     0.054 A 
ATOM      3  C3  IND d   1       0.968   0.101  -0.676  0.00  0.00    -0.031 A 
ATOM      4  C4  IND d   1       1.720  -1.903   0.755  0.00  0.00     0.051 A 
ATOM      5  C5  IND d   1       1.346  -2.658   1.831  0.00  0.00    -0.031 A 
ATOM      6  C6  IND d   1       0.151  -2.450   2.488  0.00  0.00     0.015 A 
ATOM      7  C7  IND d   1      -0.724  -1.482   2.086  0.00  0.00    -0.016 A 
ATOM      8  C8  IND d   1      -0.345  -0.708   0.998  0.00  0.00    -0.047 A 
ATOM      9  C9  IND d   1       0.886  -0.886   0.353  0.00  0.00    -0.096 A 
ATOM     10  HN1 IND d   1      -1.757   0.657   0.589  0.00  0.00     0.298 HD
ENDROOT
TORSDOF 0
ENDMDL
