MODEL 1
REMARK minimizedAffinity -5.31413269
REMARK minimizedRMSD -1
REMARK  0 active torsions:
REMARK  status: ('A' for Active; 'I' for Inactive)
ROOT
ATOM      1  N1  IND d   1      -1.009   0.341   0.573  0.00  0.00    -0.196 N 
ATOM      2  C2  IND d   1      -0.167   0.755  -0.421  0.00  0.00     0.054 A 
ATOM      3  C3  IND d   1       0.943  -0.017  -0.449  0.00  0.00    -0.031 A 
ATOM      4  C4  IND d   1       1.539  -2.076   0.978  0.00  0.00     0.051 A 
ATOM      5  C5  IND d   1       1.099  -2.814   2.041  0.00  0.00    -0.031 A 
ATOM      6  C6  IND d   1      -0.092  -2.534   2.679  0.00  0.00     0.015 A 
ATOM      7  C7  IND d   1      -0.896  -1.508   2.270  0.00  0.00    -0.016 A 
ATOM      8  C8  IND d   1      -0.449  -0.752   1.196  0.00  0.00    -0.047 A 
ATOM      9  C9  IND d   1       0.779  -1.004   0.571  0.00  0.00    -0.096 A 
ATOM     10  HN1 IND d   1      -1.762   0.703   0.775  0.00  0.00     0.298 HD
ENDROOT
TORSDOF 0
ENDMDL
