MODEL 1
REMARK minimizedAffinity -5.96772671
REMARK minimizedRMSD -1
REMARK  0 active torsions:
REMARK  status: ('A' for Active; 'I' for Inactive)
ROOT
ATOM      1  N1  IND d   1      -0.795   0.137   0.463  0.00  0.00    -0.196 N 
ATOM      2  C2  IND d   1       0.072   0.755  -0.394  0.00  0.00     0.054 A 
ATOM      3  C3  IND d   1       1.267   0.123  -0.391  0.00  0.00    -0.031 A 
ATOM      4  C4  IND d   1       1.989  -2.004   0.867  0.00  0.00     0.051 A 
ATOM      5  C5  IND d   1       1.555  -2.904   1.798  0.00  0.00    -0.031 A 
ATOM      6  C6  IND d   1       0.288  -2.837   2.342  0.00  0.00     0.015 A 
ATOM      7  C7  IND d   1      -0.599  -1.870   1.963  0.00  0.00    -0.016 A 
ATOM      8  C8  IND d   1      -0.159  -0.949   1.022  0.00  0.00    -0.047 A 
ATOM      9  C9  IND d   1       1.140  -0.987   0.499  0.00  0.00    -0.096 A 
ATOM     10  HN1 IND d   1      -1.602   0.385   0.626  0.00  0.00     0.298 HD
ENDROOT
TORSDOF 0
ENDMDL
