MODEL 1
REMARK minimizedAffinity -4.69270897
REMARK minimizedRMSD -1
REMARK  0 active torsions:
REMARK  status: ('A' for Active; 'I' for Inactive)
ROOT
ATOM      1  N1  IND d   1      -1.189   0.479   0.298  0.00  0.00    -0.196 N 
ATOM      2  C2  IND d   1      -0.304   0.798  -0.693  0.00  0.00     0.054 A 
ATOM      3  C3  IND d   1       0.794   0.012  -0.614  0.00  0.00    -0.031 A 
ATOM      4  C4  IND d   1       1.302  -1.929   1.000  0.00  0.00     0.051 A 
ATOM      5  C5  IND d   1       0.811  -2.570   2.101  0.00  0.00    -0.031 A 
ATOM      6  C6  IND d   1      -0.399  -2.223   2.668  0.00  0.00     0.015 A 
ATOM      7  C7  IND d   1      -1.170  -1.225   2.145  0.00  0.00    -0.016 A 
ATOM      8  C8  IND d   1      -0.670  -0.566   1.031  0.00  0.00    -0.047 A 
ATOM      9  C9  IND d   1       0.576  -0.885   0.476  0.00  0.00    -0.096 A 
ATOM     10  HN1 IND d   1      -1.944   0.866   0.440  0.00  0.00     0.298 HD
ENDROOT
TORSDOF 0
ENDMDL
