MODEL 1
REMARK minimizedAffinity -5.36634588
REMARK minimizedRMSD -1
REMARK  0 active torsions:
REMARK  status: ('A' for Active; 'I' for Inactive)
ROOT
ATOM      1  N1  IND d   1      -1.279   0.611   1.013  0.00  0.00    -0.196 N 
ATOM      2  C2  IND d   1      -0.757   1.264  -0.069  0.00  0.00     0.054 A 
ATOM      3  C3  IND d   1       0.332   0.610  -0.533  0.00  0.00    -0.031 A 
ATOM      4  C4  IND d   1       1.374  -1.604   0.267  0.00  0.00     0.051 A 
ATOM      5  C5  IND d   1       1.269  -2.552   1.247  0.00  0.00    -0.031 A 
ATOM      6  C6  IND d   1       0.289  -2.494   2.216  0.00  0.00     0.015 A 
ATOM      7  C7  IND d   1      -0.635  -1.487   2.235  0.00  0.00    -0.016 A 
ATOM      8  C8  IND d   1      -0.528  -0.519   1.247  0.00  0.00    -0.047 A 
ATOM      9  C9  IND d   1       0.491  -0.550   0.286  0.00  0.00    -0.096 A 
ATOM     10  HN1 IND d   1      -1.961   0.865   1.470  0.00  0.00     0.298 HD
ENDROOT
TORSDOF 0
ENDMDL
