MODEL 1
REMARK minimizedAffinity -6.19985533
REMARK minimizedRMSD -1
REMARK  0 active torsions:
REMARK  status: ('A' for Active; 'I' for Inactive)
ROOT
ATOM      1  N1  IND d   1      -0.921   0.515   0.503  0.00  0.00    -0.196 N 
ATOM      2  C2  IND d   1      -0.179   0.835  -0.599  0.00  0.00     0.054 A 
ATOM      3  C3  IND d   1       0.804  -0.075  -0.784  0.00  0.00    -0.031 A 
ATOM      4  C4  IND d   1       1.315  -2.223   0.540  0.00  0.00     0.051 A 
ATOM      5  C5  IND d   1       0.934  -2.919   1.652  0.00  0.00    -0.031 A 
ATOM      6  C6  IND d   1      -0.109  -2.499   2.453  0.00  0.00     0.015 A 
ATOM      7  C7  IND d   1      -0.819  -1.368   2.164  0.00  0.00    -0.016 A 
ATOM      8  C8  IND d   1      -0.429  -0.655   1.039  0.00  0.00    -0.047 A 
ATOM      9  C9  IND d   1       0.655  -1.053   0.246  0.00  0.00    -0.096 A 
ATOM     10  HN1 IND d   1      -1.584   0.968   0.810  0.00  0.00     0.298 HD
ENDROOT
TORSDOF 0
ENDMDL
