MODEL 1
REMARK minimizedAffinity -4.27743149
REMARK minimizedRMSD -1
REMARK  0 active torsions:
REMARK  status: ('A' for Active; 'I' for Inactive)
ROOT
ATOM      1  N1  IND d   1      -1.305   0.340   0.995  0.00  0.00    -0.196 N 
ATOM      2  C2  IND d   1      -1.011   1.503   0.339  0.00  0.00     0.054 A 
ATOM      3  C3  IND d   1       0.197   1.412  -0.262  0.00  0.00    -0.031 A 
ATOM      4  C4  IND d   1       1.815  -0.586  -0.385  0.00  0.00     0.051 A 
ATOM      5  C5  IND d   1       1.999  -1.855   0.089  0.00  0.00    -0.031 A 
ATOM      6  C6  IND d   1       1.070  -2.470   0.903  0.00  0.00     0.015 A 
ATOM      7  C7  IND d   1      -0.087  -1.841   1.266  0.00  0.00    -0.016 A 
ATOM      8  C8  IND d   1      -0.273  -0.550   0.793  0.00  0.00    -0.047 A 
ATOM      9  C9  IND d   1       0.685   0.095   0.000  0.00  0.00    -0.096 A 
ATOM     10  HN1 IND d   1      -2.015   0.189   1.455  0.00  0.00     0.298 HD
ENDROOT
TORSDOF 0
ENDMDL
