MODEL 1
REMARK minimizedAffinity -5.55031204
REMARK minimizedRMSD -1
REMARK  0 active torsions:
REMARK  status: ('A' for Active; 'I' for Inactive)
ROOT
ATOM      1  N1  IND d   1       0.819   0.617  -1.156  0.00  0.00    -0.196 N 
ATOM      2  C2  IND d   1      -0.386   1.225  -0.941  0.00  0.00     0.054 A 
ATOM      3  C3  IND d   1      -1.075   0.577   0.025  0.00  0.00    -0.031 A 
ATOM      4  C4  IND d   1      -0.374  -1.443   1.458  0.00  0.00     0.051 A 
ATOM      5  C5  IND d   1       0.623  -2.366   1.604  0.00  0.00    -0.031 A 
ATOM      6  C6  IND d   1       1.761  -2.340   0.823  0.00  0.00     0.015 A 
ATOM      7  C7  IND d   1       1.949  -1.379  -0.129  0.00  0.00    -0.016 A 
ATOM      8  C8  IND d   1       0.936  -0.444  -0.285  0.00  0.00    -0.047 A 
ATOM      9  C9  IND d   1      -0.240  -0.490   0.476  0.00  0.00    -0.096 A 
ATOM     10  HN1 IND d   1       1.405   0.856  -1.738  0.00  0.00     0.298 HD
ENDROOT
TORSDOF 0
ENDMDL
