MODEL 1
REMARK minimizedAffinity -6.58556843
REMARK minimizedRMSD -1
REMARK  0 active torsions:
REMARK  status: ('A' for Active; 'I' for Inactive)
ROOT
ATOM      1  N1  IND d   1      -0.644   0.438   0.621  0.00  0.00    -0.196 N 
ATOM      2  C2  IND d   1       0.213   0.791  -0.384  0.00  0.00     0.054 A 
ATOM      3  C3  IND d   1       1.221  -0.104  -0.480  0.00  0.00    -0.031 A 
ATOM      4  C4  IND d   1       1.610  -2.277   0.844  0.00  0.00     0.051 A 
ATOM      5  C5  IND d   1       1.116  -3.003   1.892  0.00  0.00    -0.031 A 
ATOM      6  C6  IND d   1      -0.014  -2.613   2.581  0.00  0.00     0.015 A 
ATOM      7  C7  IND d   1      -0.702  -1.483   2.240  0.00  0.00    -0.016 A 
ATOM      8  C8  IND d   1      -0.199  -0.740   1.181  0.00  0.00    -0.047 A 
ATOM      9  C9  IND d   1       0.971  -1.108   0.505  0.00  0.00    -0.096 A 
ATOM     10  HN1 IND d   1      -1.342   0.877   0.862  0.00  0.00     0.298 HD
ENDROOT
TORSDOF 0
ENDMDL
