MODEL 1
REMARK minimizedAffinity -4.75526857
REMARK minimizedRMSD -1
REMARK  0 active torsions:
REMARK  status: ('A' for Active; 'I' for Inactive)
ROOT
ATOM      1  N1  IND d   1      -0.856   0.240   0.014  0.00  0.00    -0.196 N 
ATOM      2  C2  IND d   1       0.087   1.051  -0.554  0.00  0.00     0.054 A 
ATOM      3  C3  IND d   1       1.328   0.576  -0.303  0.00  0.00    -0.031 A 
ATOM      4  C4  IND d   1       2.039  -1.570   0.930  0.00  0.00     0.051 A 
ATOM      5  C5  IND d   1       1.536  -2.613   1.654  0.00  0.00    -0.031 A 
ATOM      6  C6  IND d   1       0.181  -2.764   1.870  0.00  0.00     0.015 A 
ATOM      7  C7  IND d   1      -0.725  -1.878   1.359  0.00  0.00    -0.016 A 
ATOM      8  C8  IND d   1      -0.216  -0.813   0.629  0.00  0.00    -0.047 A 
ATOM      9  C9  IND d   1       1.160  -0.632   0.442  0.00  0.00    -0.096 A 
ATOM     10  HN1 IND d   1      -1.706   0.367  -0.010  0.00  0.00     0.298 HD
ENDROOT
TORSDOF 0
ENDMDL
