MODEL 1
REMARK minimizedAffinity -6.19318199
REMARK minimizedRMSD -1
REMARK  0 active torsions:
REMARK  status: ('A' for Active; 'I' for Inactive)
ROOT
ATOM      1  N1  IND d   1      -0.785   0.329   0.966  0.00  0.00    -0.196 N 
ATOM      2  C2  IND d   1      -0.228   1.002  -0.086  0.00  0.00     0.054 A 
ATOM      3  C3  IND d   1       0.848   0.331  -0.556  0.00  0.00    -0.031 A 
ATOM      4  C4  IND d   1       1.811  -1.939   0.181  0.00  0.00     0.051 A 
ATOM      5  C5  IND d   1       1.665  -2.916   1.126  0.00  0.00    -0.031 A 
ATOM      6  C6  IND d   1       0.672  -2.861   2.083  0.00  0.00     0.015 A 
ATOM      7  C7  IND d   1      -0.222  -1.829   2.125  0.00  0.00    -0.016 A 
ATOM      8  C8  IND d   1      -0.071  -0.832   1.171  0.00  0.00    -0.047 A 
ATOM      9  C9  IND d   1       0.960  -0.860   0.224  0.00  0.00    -0.096 A 
ATOM     10  HN1 IND d   1      -1.466   0.587   1.422  0.00  0.00     0.298 HD
ENDROOT
TORSDOF 0
ENDMDL
