MODEL 1
REMARK minimizedAffinity -6.08185101
REMARK minimizedRMSD -1
REMARK  0 active torsions:
REMARK  status: ('A' for Active; 'I' for Inactive)
ROOT
ATOM      1  N1  IND d   1      -0.746   0.353   0.433  0.00  0.00    -0.196 N 
ATOM      2  C2  IND d   1       0.105   0.969  -0.443  0.00  0.00     0.054 A 
ATOM      3  C3  IND d   1       1.301   0.340  -0.456  0.00  0.00    -0.031 A 
ATOM      4  C4  IND d   1       2.050  -1.778   0.802  0.00  0.00     0.051 A 
ATOM      5  C5  IND d   1       1.633  -2.674   1.746  0.00  0.00    -0.031 A 
ATOM      6  C6  IND d   1       0.375  -2.608   2.309  0.00  0.00     0.015 A 
ATOM      7  C7  IND d   1      -0.521  -1.644   1.940  0.00  0.00    -0.016 A 
ATOM      8  C8  IND d   1      -0.098  -0.728   0.987  0.00  0.00    -0.047 A 
ATOM      9  C9  IND d   1       1.192  -0.765   0.443  0.00  0.00    -0.096 A 
ATOM     10  HN1 IND d   1      -1.551   0.601   0.607  0.00  0.00     0.298 HD
ENDROOT
TORSDOF 0
ENDMDL
