MODEL 1
REMARK minimizedAffinity -6.00746965
REMARK minimizedRMSD -1
REMARK  0 active torsions:
REMARK  status: ('A' for Active; 'I' for Inactive)
ROOT
ATOM      1  N1  IND d   1      -0.689   0.574   0.837  0.00  0.00    -0.196 N 
ATOM      2  C2  IND d   1       0.059   1.076  -0.191  0.00  0.00     0.054 A 
ATOM      3  C3  IND d   1       1.087   0.244  -0.474  0.00  0.00    -0.031 A 
ATOM      4  C4  IND d   1       1.673  -2.041   0.556  0.00  0.00     0.051 A 
ATOM      5  C5  IND d   1       1.303  -2.900   1.552  0.00  0.00    -0.031 A 
ATOM      6  C6  IND d   1       0.227  -2.641   2.376  0.00  0.00     0.015 A 
ATOM      7  C7  IND d   1      -0.530  -1.514   2.226  0.00  0.00    -0.016 A 
ATOM      8  C8  IND d   1      -0.153  -0.636   1.220  0.00  0.00    -0.047 A 
ATOM      9  C9  IND d   1       0.964  -0.872   0.408  0.00  0.00    -0.096 A 
ATOM     10  HN1 IND d   1      -1.379   0.951   1.186  0.00  0.00     0.298 HD
ENDROOT
TORSDOF 0
ENDMDL
