MODEL 1
REMARK minimizedAffinity -5.70666981
REMARK minimizedRMSD -1
REMARK  0 active torsions:
REMARK  status: ('A' for Active; 'I' for Inactive)
ROOT
ATOM      1  N1  IND d   1      -0.861   0.271   0.125  0.00  0.00    -0.196 N 
ATOM      2  C2  IND d   1      -0.094   0.870  -0.835  0.00  0.00     0.054 A 
ATOM      3  C3  IND d   1       1.109   0.260  -0.925  0.00  0.00    -0.031 A 
ATOM      4  C4  IND d   1       1.993  -1.804   0.335  0.00  0.00     0.051 A 
ATOM      5  C5  IND d   1       1.670  -2.675   1.337  0.00  0.00    -0.031 A 
ATOM      6  C6  IND d   1       0.460  -2.609   1.998  0.00  0.00     0.015 A 
ATOM      7  C7  IND d   1      -0.479  -1.672   1.672  0.00  0.00    -0.016 A 
ATOM      8  C8  IND d   1      -0.151  -0.781   0.660  0.00  0.00    -0.047 A 
ATOM      9  C9  IND d   1       1.092  -0.817   0.014  0.00  0.00    -0.096 A 
ATOM     10  HN1 IND d   1      -1.654   0.511   0.356  0.00  0.00     0.298 HD
ENDROOT
TORSDOF 0
ENDMDL
