MODEL 1
REMARK minimizedAffinity -3.79259562
REMARK minimizedRMSD -1
REMARK  0 active torsions:
REMARK  status: ('A' for Active; 'I' for Inactive)
ROOT
ATOM      1  N1  IND d   1      -1.095   0.128   0.646  0.00  0.00    -0.196 N 
ATOM      2  C2  IND d   1      -0.311   0.494  -0.413  0.00  0.00     0.054 A 
ATOM      3  C3  IND d   1       0.802  -0.273  -0.461  0.00  0.00    -0.031 A 
ATOM      4  C4  IND d   1       1.491  -2.251   1.036  0.00  0.00     0.051 A 
ATOM      5  C5  IND d   1       1.116  -2.935   2.158  0.00  0.00    -0.031 A 
ATOM      6  C6  IND d   1      -0.041  -2.629   2.845  0.00  0.00     0.015 A 
ATOM      7  C7  IND d   1      -0.874  -1.630   2.428  0.00  0.00    -0.016 A 
ATOM      8  C8  IND d   1      -0.492  -0.928   1.293  0.00  0.00    -0.047 A 
ATOM      9  C9  IND d   1       0.702  -1.206   0.616  0.00  0.00    -0.096 A 
ATOM     10  HN1 IND d   1      -1.839   0.496   0.870  0.00  0.00     0.298 HD
ENDROOT
TORSDOF 0
ENDMDL
