MODEL 1
REMARK minimizedAffinity -5.30557585
REMARK minimizedRMSD -1
REMARK  0 active torsions:
REMARK  status: ('A' for Active; 'I' for Inactive)
ROOT
ATOM      1  N1  IND d   1      -0.584   0.178   0.478  0.00  0.00    -0.196 N 
ATOM      2  C2  IND d   1       0.251   0.588  -0.524  0.00  0.00     0.054 A 
ATOM      3  C3  IND d   1       1.361  -0.182  -0.556  0.00  0.00    -0.031 A 
ATOM      4  C4  IND d   1       1.970  -2.234   0.875  0.00  0.00     0.051 A 
ATOM      5  C5  IND d   1       1.538  -2.969   1.943  0.00  0.00    -0.031 A 
ATOM      6  C6  IND d   1       0.352  -2.688   2.589  0.00  0.00     0.015 A 
ATOM      7  C7  IND d   1      -0.456  -1.664   2.182  0.00  0.00    -0.016 A 
ATOM      8  C8  IND d   1      -0.018  -0.912   1.102  0.00  0.00    -0.047 A 
ATOM      9  C9  IND d   1       1.206  -1.166   0.469  0.00  0.00    -0.096 A 
ATOM     10  HN1 IND d   1      -1.336   0.540   0.684  0.00  0.00     0.298 HD
ENDROOT
TORSDOF 0
ENDMDL
