MODEL 1
REMARK minimizedAffinity 10.2931252
REMARK minimizedRMSD -1
REMARK  1 active torsions:
REMARK  status: ('A' for Active; 'I' for Inactive)
REMARK    1  A    between atoms: C1_2  and  C2_3 
ROOT
ATOM      1  C2  UNL d   1      -4.770  -2.707   4.357  0.00  0.00    -0.081 A 
ATOM      2  C3  UNL d   1      -5.320  -2.828   3.075  0.00  0.00     0.006 A 
ATOM      3  C4  UNL d   1      -4.492  -2.880   1.951  0.00  0.00     0.002 A 
ATOM      4  C5  UNL d   1      -3.101  -2.819   2.090  0.00  0.00    -0.080 A 
ATOM      5  C6  UNL d   1      -2.200  -2.905   0.894  0.00  0.00     0.076 C 
ATOM      6  C7  UNL d   1      -2.552  -2.681   3.370  0.00  0.00     0.002 A 
ATOM      7  C8  UNL d   1      -3.379  -2.628   4.494  0.00  0.00     0.006 A 
ENDROOT
BRANCH   1   8
ATOM      8  C1  UNL d   1      -5.657  -2.716   5.576  0.00  0.00     0.054 C 
ATOM      9  C   UNL d   1      -6.000  -4.137   6.000  0.00  0.00     0.018 C 
ENDBRANCH   1   8
TORSDOF 1
ENDMDL
