MODEL 1
REMARK minimizedAffinity 10.6187172
REMARK minimizedRMSD -1
REMARK  1 active torsions:
REMARK  status: ('A' for Active; 'I' for Inactive)
REMARK    1  A    between atoms: C1_2  and  C2_3 
ROOT
ATOM      1  C2  UNL d   1       3.516  -3.493  -5.154  0.00  0.00    -0.081 A 
ATOM      2  C3  UNL d   1       3.427  -4.606  -5.999  0.00  0.00     0.006 A 
ATOM      3  C4  UNL d   1       2.297  -5.426  -5.973  0.00  0.00     0.002 A 
ATOM      4  C5  UNL d   1       1.234  -5.144  -5.108  0.00  0.00    -0.080 A 
ATOM      5  C6  UNL d   1       0.002  -5.999  -5.092  0.00  0.00     0.076 C 
ATOM      6  C7  UNL d   1       1.331  -4.042  -4.251  0.00  0.00     0.002 A 
ATOM      7  C8  UNL d   1       2.460  -3.222  -4.276  0.00  0.00     0.006 A 
ENDROOT
BRANCH   1   8
ATOM      8  C1  UNL d   1       4.705  -2.569  -5.225  0.00  0.00     0.054 C 
ATOM      9  C   UNL d   1       4.942  -1.869  -3.895  0.00  0.00     0.018 C 
ENDBRANCH   1   8
TORSDOF 1
ENDMDL
