MODEL 1
REMARK minimizedAffinity 16.3379765
REMARK minimizedRMSD -1
REMARK  1 active torsions:
REMARK  status: ('A' for Active; 'I' for Inactive)
REMARK    1  A    between atoms: C1_2  and  C2_3 
ROOT
ATOM      1  C2  UNL d   1      -0.260   3.739  -2.467  0.00  0.00    -0.081 A 
ATOM      2  C3  UNL d   1      -1.122   3.109  -3.372  0.00  0.00     0.006 A 
ATOM      3  C4  UNL d   1      -1.733   3.840  -4.394  0.00  0.00     0.002 A 
ATOM      4  C5  UNL d   1      -1.486   5.210  -4.532  0.00  0.00    -0.080 A 
ATOM      5  C6  UNL d   1      -2.112   6.000  -5.642  0.00  0.00     0.076 C 
ATOM      6  C7  UNL d   1      -0.639   5.843  -3.616  0.00  0.00     0.002 A 
ATOM      7  C8  UNL d   1      -0.028   5.113  -2.594  0.00  0.00     0.006 A 
ENDROOT
BRANCH   1   8
ATOM      8  C1  UNL d   1       0.451   2.941  -1.404  0.00  0.00     0.054 C 
ATOM      9  C   UNL d   1       1.284   3.840  -0.501  0.00  0.00     0.018 C 
ENDBRANCH   1   8
TORSDOF 1
ENDMDL
