MODEL 1
REMARK minimizedAffinity 6.77118731
REMARK minimizedRMSD -1
REMARK  1 active torsions:
REMARK  status: ('A' for Active; 'I' for Inactive)
REMARK    1  A    between atoms: C1_2  and  C2_3 
ROOT
ATOM      1  C2  UNL d   1       1.638   0.640   0.484  0.00  0.00    -0.081 A 
ATOM      2  C3  UNL d   1       2.851   0.060   0.877  0.00  0.00     0.006 A 
ATOM      3  C4  UNL d   1       2.909  -1.292   1.226  0.00  0.00     0.002 A 
ATOM      4  C5  UNL d   1       1.758  -2.086   1.180  0.00  0.00    -0.080 A 
ATOM      5  C6  UNL d   1       1.813  -3.546   1.523  0.00  0.00     0.076 C 
ATOM      6  C7  UNL d   1       0.544  -1.502   0.805  0.00  0.00     0.002 A 
ATOM      7  C8  UNL d   1       0.485  -0.151   0.457  0.00  0.00     0.006 A 
ENDROOT
BRANCH   1   8
ATOM      8  C1  UNL d   1       1.585   2.082   0.046  0.00  0.00     0.054 C 
ATOM      9  C   UNL d   1       0.806   2.236  -1.252  0.00  0.00     0.018 C 
ENDBRANCH   1   8
TORSDOF 1
ENDMDL
