MODEL 1
REMARK minimizedAffinity 9.83461761
REMARK minimizedRMSD -1
REMARK  1 active torsions:
REMARK  status: ('A' for Active; 'I' for Inactive)
REMARK    1  A    between atoms: C1_2  and  C2_3 
ROOT
ATOM      1  C2  UNL d   1       3.384  -2.359  -4.347  0.00  0.00    -0.081 A 
ATOM      2  C3  UNL d   1       2.257  -2.930  -3.744  0.00  0.00     0.006 A 
ATOM      3  C4  UNL d   1       1.692  -4.098  -4.262  0.00  0.00     0.002 A 
ATOM      4  C5  UNL d   1       2.248  -4.717  -5.386  0.00  0.00    -0.080 A 
ATOM      5  C6  UNL d   1       1.669  -5.987  -5.935  0.00  0.00     0.076 C 
ATOM      6  C7  UNL d   1       3.363  -4.137  -6.000  0.00  0.00     0.002 A 
ATOM      7  C8  UNL d   1       3.929  -2.969  -5.482  0.00  0.00     0.006 A 
ENDROOT
BRANCH   1   8
ATOM      8  C1  UNL d   1       4.035  -1.136  -3.752  0.00  0.00     0.054 C 
ATOM      9  C   UNL d   1       4.871  -1.493  -2.532  0.00  0.00     0.018 C 
ENDBRANCH   1   8
TORSDOF 1
ENDMDL
