MODEL 1
REMARK minimizedAffinity 19.0702267
REMARK minimizedRMSD -1
REMARK  1 active torsions:
REMARK  status: ('A' for Active; 'I' for Inactive)
REMARK    1  A    between atoms: C1_2  and  C2_3 
ROOT
ATOM      1  C2  UNL d   1       0.066  -3.806   0.161  0.00  0.00    -0.081 A 
ATOM      2  C3  UNL d   1       1.146  -4.143  -0.664  0.00  0.00     0.006 A 
ATOM      3  C4  UNL d   1       2.241  -4.840  -0.148  0.00  0.00     0.002 A 
ATOM      4  C5  UNL d   1       2.271  -5.218   1.198  0.00  0.00    -0.080 A 
ATOM      5  C6  UNL d   1       3.426  -5.993   1.758  0.00  0.00     0.076 C 
ATOM      6  C7  UNL d   1       1.200  -4.866   2.027  0.00  0.00     0.002 A 
ATOM      7  C8  UNL d   1       0.105  -4.169   1.511  0.00  0.00     0.006 A 
ENDROOT
BRANCH   1   8
ATOM      8  C1  UNL d   1      -1.145  -3.111  -0.407  0.00  0.00     0.054 C 
ATOM      9  C   UNL d   1      -2.433  -3.772   0.062  0.00  0.00     0.018 C 
ENDBRANCH   1   8
TORSDOF 1
ENDMDL
