MODEL 1
REMARK minimizedAffinity 17.8525848
REMARK minimizedRMSD -1
REMARK  1 active torsions:
REMARK  status: ('A' for Active; 'I' for Inactive)
REMARK    1  A    between atoms: C1_2  and  C2_3 
ROOT
ATOM      1  C2  UNL d   1       1.094  -2.776   1.386  0.00  0.00    -0.081 A 
ATOM      2  C3  UNL d   1       2.375  -2.797   0.822  0.00  0.00     0.006 A 
ATOM      3  C4  UNL d   1       3.184  -1.658   0.859  0.00  0.00     0.002 A 
ATOM      4  C5  UNL d   1       2.729  -0.484   1.468  0.00  0.00    -0.080 A 
ATOM      5  C6  UNL d   1       3.599   0.735   1.542  0.00  0.00     0.076 C 
ATOM      6  C7  UNL d   1       1.443  -0.458   2.017  0.00  0.00     0.002 A 
ATOM      7  C8  UNL d   1       0.633  -1.596   1.979  0.00  0.00     0.006 A 
ENDROOT
BRANCH   1   8
ATOM      8  C1  UNL d   1       0.245  -4.021   1.405  0.00  0.00     0.054 C 
ATOM      9  C   UNL d   1       1.056  -5.238   1.825  0.00  0.00     0.018 C 
ENDBRANCH   1   8
TORSDOF 1
ENDMDL
