MODEL 1
REMARK minimizedAffinity 22.9252167
REMARK minimizedRMSD -1
REMARK  1 active torsions:
REMARK  status: ('A' for Active; 'I' for Inactive)
REMARK    1  A    between atoms: C1_2  and  C2_3 
ROOT
ATOM      1  C2  UNL d   1       2.693   0.215   2.986  0.00  0.00    -0.081 A 
ATOM      2  C3  UNL d   1       1.885  -0.181   1.914  0.00  0.00     0.006 A 
ATOM      3  C4  UNL d   1       0.532  -0.468   2.114  0.00  0.00     0.002 A 
ATOM      4  C5  UNL d   1      -0.036  -0.355   3.387  0.00  0.00    -0.080 A 
ATOM      5  C6  UNL d   1      -1.493  -0.630   3.610  0.00  0.00     0.076 C 
ATOM      6  C7  UNL d   1       0.775   0.023   4.462  0.00  0.00     0.002 A 
ATOM      7  C8  UNL d   1       2.128   0.309   4.263  0.00  0.00     0.006 A 
ENDROOT
BRANCH   1   8
ATOM      8  C1  UNL d   1       4.137   0.586   2.762  0.00  0.00     0.054 C 
ATOM      9  C   UNL d   1       4.283   1.564   1.605  0.00  0.00     0.018 C 
ENDBRANCH   1   8
TORSDOF 1
ENDMDL
