MODEL 1
REMARK minimizedAffinity 12.9755087
REMARK minimizedRMSD -1
REMARK  1 active torsions:
REMARK  status: ('A' for Active; 'I' for Inactive)
REMARK    1  A    between atoms: C1_2  and  C2_3 
ROOT
ATOM      1  C2  UNL d   1      -0.997   2.682  -2.199  0.00  0.00    -0.081 A 
ATOM      2  C3  UNL d   1       0.256   2.646  -2.823  0.00  0.00     0.006 A 
ATOM      3  C4  UNL d   1       1.400   2.310  -2.095  0.00  0.00     0.002 A 
ATOM      4  C5  UNL d   1       1.310   1.997  -0.735  0.00  0.00    -0.080 A 
ATOM      5  C6  UNL d   1       2.526   1.605   0.051  0.00  0.00     0.076 C 
ATOM      6  C7  UNL d   1       0.061   2.050  -0.107  0.00  0.00     0.002 A 
ATOM      7  C8  UNL d   1      -1.083   2.387  -0.834  0.00  0.00     0.006 A 
ENDROOT
BRANCH   1   8
ATOM      8  C1  UNL d   1      -2.241   2.981  -2.995  0.00  0.00     0.054 C 
ATOM      9  C   UNL d   1      -3.479   2.979  -2.110  0.00  0.00     0.018 C 
ENDBRANCH   1   8
TORSDOF 1
ENDMDL
