MODEL 1
REMARK minimizedAffinity 9.96191883
REMARK minimizedRMSD -1
REMARK  1 active torsions:
REMARK  status: ('A' for Active; 'I' for Inactive)
REMARK    1  A    between atoms: C1_2  and  C2_3 
ROOT
ATOM      1  C2  UNL d   1       1.698   1.512   0.413  0.00  0.00    -0.081 A 
ATOM      2  C3  UNL d   1       1.594   0.186   0.851  0.00  0.00     0.006 A 
ATOM      3  C4  UNL d   1       2.677  -0.441   1.473  0.00  0.00     0.002 A 
ATOM      4  C5  UNL d   1       3.877   0.249   1.674  0.00  0.00    -0.080 A 
ATOM      5  C6  UNL d   1       5.036  -0.403   2.367  0.00  0.00     0.076 C 
ATOM      6  C7  UNL d   1       3.987   1.568   1.220  0.00  0.00     0.002 A 
ATOM      7  C8  UNL d   1       2.906   2.195   0.598  0.00  0.00     0.006 A 
ENDROOT
BRANCH   1   8
ATOM      8  C1  UNL d   1       0.512   2.212  -0.200  0.00  0.00     0.054 C 
ATOM      9  C   UNL d   1       0.773   2.572  -1.655  0.00  0.00     0.018 C 
ENDBRANCH   1   8
TORSDOF 1
ENDMDL
