MODEL 1
REMARK minimizedAffinity 13.0884838
REMARK minimizedRMSD -1
REMARK  1 active torsions:
REMARK  status: ('A' for Active; 'I' for Inactive)
REMARK    1  A    between atoms: C1_2  and  C2_3 
ROOT
ATOM      1  C2  UNL d   1       1.553  -5.256  -4.733  0.00  0.00    -0.081 A 
ATOM      2  C3  UNL d   1       1.005  -6.000  -3.681  0.00  0.00     0.006 A 
ATOM      3  C4  UNL d   1       0.399  -5.356  -2.600  0.00  0.00     0.002 A 
ATOM      4  C5  UNL d   1       0.323  -3.959  -2.557  0.00  0.00    -0.080 A 
ATOM      5  C6  UNL d   1      -0.353  -3.257  -1.417  0.00  0.00     0.076 C 
ATOM      6  C7  UNL d   1       0.886  -3.216  -3.600  0.00  0.00     0.002 A 
ATOM      7  C8  UNL d   1       1.493  -3.859  -4.680  0.00  0.00     0.006 A 
ENDROOT
BRANCH   1   8
ATOM      8  C1  UNL d   1       2.150  -5.949  -5.931  0.00  0.00     0.054 C 
ATOM      9  C   UNL d   1       3.665  -5.800  -5.959  0.00  0.00     0.018 C 
ENDBRANCH   1   8
TORSDOF 1
ENDMDL
