MODEL 1
REMARK minimizedAffinity 11.058382
REMARK minimizedRMSD -1
REMARK  1 active torsions:
REMARK  status: ('A' for Active; 'I' for Inactive)
REMARK    1  A    between atoms: C1_2  and  C2_3 
ROOT
ATOM      1  C2  UNL d   1      -4.508  -4.078   2.169  0.00  0.00    -0.081 A 
ATOM      2  C3  UNL d   1      -3.988  -3.467   1.021  0.00  0.00     0.006 A 
ATOM      3  C4  UNL d   1      -4.095  -4.092  -0.223  0.00  0.00     0.002 A 
ATOM      4  C5  UNL d   1      -4.730  -5.333  -0.343  0.00  0.00    -0.080 A 
ATOM      5  C6  UNL d   1      -4.878  -6.000  -1.678  0.00  0.00     0.076 C 
ATOM      6  C7  UNL d   1      -5.234  -5.951   0.806  0.00  0.00     0.002 A 
ATOM      7  C8  UNL d   1      -5.127  -5.328   2.051  0.00  0.00     0.006 A 
ENDROOT
BRANCH   1   8
ATOM      8  C1  UNL d   1      -4.452  -3.378   3.503  0.00  0.00     0.054 C 
ATOM      9  C   UNL d   1      -5.846  -3.158   4.071  0.00  0.00     0.018 C 
ENDBRANCH   1   8
TORSDOF 1
ENDMDL
