MODEL 1
REMARK minimizedAffinity 0.439887732
REMARK minimizedRMSD -1
REMARK  1 active torsions:
REMARK  status: ('A' for Active; 'I' for Inactive)
REMARK    1  A    between atoms: C1_2  and  C2_3 
ROOT
ATOM      1  C2  UNL d   1      -5.033  -4.061   4.630  0.00  0.00    -0.081 A 
ATOM      2  C3  UNL d   1      -4.722  -3.390   3.442  0.00  0.00     0.006 A 
ATOM      3  C4  UNL d   1      -4.903  -4.016   2.206  0.00  0.00     0.002 A 
ATOM      4  C5  UNL d   1      -5.405  -5.320   2.138  0.00  0.00    -0.080 A 
ATOM      5  C6  UNL d   1      -5.632  -5.992   0.817  0.00  0.00     0.076 C 
ATOM      6  C7  UNL d   1      -5.699  -5.997   3.326  0.00  0.00     0.002 A 
ATOM      7  C8  UNL d   1      -5.518  -5.372   4.562  0.00  0.00     0.006 A 
ENDROOT
BRANCH   1   8
ATOM      8  C1  UNL d   1      -4.900  -3.366   5.961  0.00  0.00     0.054 C 
ATOM      9  C   UNL d   1      -5.642  -2.037   5.967  0.00  0.00     0.018 C 
ENDBRANCH   1   8
TORSDOF 1
ENDMDL
