MODEL 1
REMARK minimizedAffinity 13.0632057
REMARK minimizedRMSD -1
REMARK  1 active torsions:
REMARK  status: ('A' for Active; 'I' for Inactive)
REMARK    1  A    between atoms: N_2  and  C1_3 
ROOT
ATOM      1  C1  UNL d   1      -0.676  -1.532  -5.419  0.00  0.00     0.143 A 
ATOM      2  C2  UNL d   1      -1.812  -0.716  -5.430  0.00  0.00    -0.057 A 
ATOM      3  C3  UNL d   1      -1.723   0.649  -5.732  0.00  0.00     0.033 A 
ATOM      4  C4  UNL d   1      -0.487   1.228  -6.000  0.00  0.00    -0.042 A 
ATOM      5  C5  UNL d   1       0.659   0.441  -5.969  0.00  0.00     0.033 A 
ATOM      6  C6  UNL d   1       0.562  -0.922  -5.674  0.00  0.00    -0.057 A 
ENDROOT
BRANCH   1   7
ATOM      7  N   UNL d   1      -0.687  -2.874  -5.030  0.00  0.00    -0.732 N 
ATOM      8  C   UNL d   1      -0.927  -3.920  -6.000  0.00  0.00     0.284 C 
ATOM      9  H3  UNL d   1       0.047  -3.089  -4.359  0.00  0.00     0.395 HD
ENDBRANCH   1   7
TORSDOF 1
ENDMDL
