MODEL 1
REMARK minimizedAffinity 11.9984627
REMARK minimizedRMSD -1
REMARK  1 active torsions:
REMARK  status: ('A' for Active; 'I' for Inactive)
REMARK    1  A    between atoms: N_2  and  C1_3 
ROOT
ATOM      1  C1  UNL d   1       0.775   0.149   5.160  0.00  0.00     0.143 A 
ATOM      2  C2  UNL d   1       0.392   0.162   3.814  0.00  0.00    -0.057 A 
ATOM      3  C3  UNL d   1       0.579  -0.958   2.995  0.00  0.00     0.033 A 
ATOM      4  C4  UNL d   1       1.182  -2.104   3.501  0.00  0.00    -0.042 A 
ATOM      5  C5  UNL d   1       1.594  -2.132   4.829  0.00  0.00     0.033 A 
ATOM      6  C6  UNL d   1       1.398  -1.013   5.644  0.00  0.00    -0.057 A 
ENDROOT
BRANCH   1   7
ATOM      7  N   UNL d   1       0.705   1.263   5.999  0.00  0.00    -0.732 N 
ATOM      8  C   UNL d   1      -0.465   2.115   5.999  0.00  0.00     0.284 C 
ATOM      9  H3  UNL d   1       1.082   1.075   6.926  0.00  0.00     0.395 HD
ENDBRANCH   1   7
TORSDOF 1
ENDMDL
