MODEL 1
REMARK minimizedAffinity -3.11829114
REMARK minimizedRMSD -1
REMARK  1 active torsions:
REMARK  status: ('A' for Active; 'I' for Inactive)
REMARK    1  A    between atoms: N_2  and  C1_3 
ROOT
ATOM      1  C1  UNL d   1       0.240  -3.413  -3.126  0.00  0.00     0.143 A 
ATOM      2  C2  UNL d   1       1.126  -2.453  -2.626  0.00  0.00    -0.057 A 
ATOM      3  C3  UNL d   1       0.955  -1.091  -2.907  0.00  0.00     0.033 A 
ATOM      4  C4  UNL d   1      -0.092  -0.669  -3.718  0.00  0.00    -0.042 A 
ATOM      5  C5  UNL d   1      -0.970  -1.608  -4.246  0.00  0.00     0.033 A 
ATOM      6  C6  UNL d   1      -0.798  -2.965  -3.957  0.00  0.00    -0.057 A 
ENDROOT
BRANCH   1   7
ATOM      7  N   UNL d   1       0.413  -4.790  -2.964  0.00  0.00    -0.732 N 
ATOM      8  C   UNL d   1       1.630  -5.437  -3.405  0.00  0.00     0.284 C 
ATOM      9  H3  UNL d   1       0.068  -5.122  -2.066  0.00  0.00     0.395 HD
ENDBRANCH   1   7
TORSDOF 1
ENDMDL
