MODEL 1
REMARK minimizedAffinity -3.01829791
REMARK minimizedRMSD -1
REMARK  1 active torsions:
REMARK  status: ('A' for Active; 'I' for Inactive)
REMARK    1  A    between atoms: N_2  and  C1_3 
ROOT
ATOM      1  C1  UNL d   1       0.961  -1.902  -2.417  0.00  0.00     0.143 A 
ATOM      2  C2  UNL d   1       1.382  -0.943  -3.346  0.00  0.00    -0.057 A 
ATOM      3  C3  UNL d   1       0.487  -0.009  -3.881  0.00  0.00     0.033 A 
ATOM      4  C4  UNL d   1      -0.856  -0.036  -3.519  0.00  0.00    -0.042 A 
ATOM      5  C5  UNL d   1      -1.302  -0.996  -2.617  0.00  0.00     0.033 A 
ATOM      6  C6  UNL d   1      -0.402  -1.922  -2.080  0.00  0.00    -0.057 A 
ENDROOT
BRANCH   1   7
ATOM      7  N   UNL d   1       1.781  -2.919  -1.923  0.00  0.00    -0.732 N 
ATOM      8  C   UNL d   1       1.739  -4.245  -2.501  0.00  0.00     0.284 C 
ATOM      9  H3  UNL d   1       2.719  -2.590  -1.705  0.00  0.00     0.395 HD
ENDBRANCH   1   7
TORSDOF 1
ENDMDL
