MODEL 1
REMARK minimizedAffinity 5.04524851
REMARK minimizedRMSD -1
REMARK  1 active torsions:
REMARK  status: ('A' for Active; 'I' for Inactive)
REMARK    1  A    between atoms: N_2  and  C1_3 
ROOT
ATOM      1  C1  UNL d   1       1.797  -2.569  -3.958  0.00  0.00     0.143 A 
ATOM      2  C2  UNL d   1       0.721  -2.254  -4.795  0.00  0.00    -0.057 A 
ATOM      3  C3  UNL d   1       0.847  -1.298  -5.811  0.00  0.00     0.033 A 
ATOM      4  C4  UNL d   1       2.047  -0.617  -5.989  0.00  0.00    -0.042 A 
ATOM      5  C5  UNL d   1       3.122  -0.896  -5.152  0.00  0.00     0.033 A 
ATOM      6  C6  UNL d   1       2.992  -1.856  -4.145  0.00  0.00    -0.057 A 
ENDROOT
BRANCH   1   7
ATOM      7  N   UNL d   1       1.706  -3.438  -2.868  0.00  0.00    -0.732 N 
ATOM      8  C   UNL d   1       0.478  -4.152  -2.596  0.00  0.00     0.284 C 
ATOM      9  H3  UNL d   1       2.548  -3.997  -2.746  0.00  0.00     0.395 HD
ENDBRANCH   1   7
TORSDOF 1
ENDMDL
