MODEL 1
REMARK minimizedAffinity 6.89115667
REMARK minimizedRMSD -1
REMARK  1 active torsions:
REMARK  status: ('A' for Active; 'I' for Inactive)
REMARK    1  A    between atoms: N_2  and  C1_3 
ROOT
ATOM      1  C1  UNL d   1      -0.981   5.276   0.539  0.00  0.00     0.143 A 
ATOM      2  C2  UNL d   1      -0.562   5.999  -0.583  0.00  0.00    -0.057 A 
ATOM      3  C3  UNL d   1      -0.935   5.613  -1.877  0.00  0.00     0.033 A 
ATOM      4  C4  UNL d   1      -1.711   4.476  -2.073  0.00  0.00    -0.042 A 
ATOM      5  C5  UNL d   1      -2.118   3.727  -0.974  0.00  0.00     0.033 A 
ATOM      6  C6  UNL d   1      -1.749   4.122   0.316  0.00  0.00    -0.057 A 
ENDROOT
BRANCH   1   7
ATOM      7  N   UNL d   1      -0.563   5.552   1.843  0.00  0.00    -0.732 N 
ATOM      8  C   UNL d   1      -1.510   5.998   2.842  0.00  0.00     0.284 C 
ATOM      9  H3  UNL d   1       0.114   4.875   2.185  0.00  0.00     0.395 HD
ENDBRANCH   1   7
TORSDOF 1
ENDMDL
