MODEL 1
REMARK minimizedAffinity 7.62708998
REMARK minimizedRMSD -1
REMARK  1 active torsions:
REMARK  status: ('A' for Active; 'I' for Inactive)
REMARK    1  A    between atoms: N_2  and  C1_3 
ROOT
ATOM      1  C1  UNL d   1      -0.251  -0.374   2.455  0.00  0.00     0.143 A 
ATOM      2  C2  UNL d   1      -0.039  -1.073   3.648  0.00  0.00    -0.057 A 
ATOM      3  C3  UNL d   1       1.208  -1.635   3.948  0.00  0.00     0.033 A 
ATOM      4  C4  UNL d   1       2.260  -1.533   3.043  0.00  0.00    -0.042 A 
ATOM      5  C5  UNL d   1       2.064  -0.865   1.840  0.00  0.00     0.033 A 
ATOM      6  C6  UNL d   1       0.819  -0.299   1.549  0.00  0.00    -0.057 A 
ENDROOT
BRANCH   1   7
ATOM      7  N   UNL d   1      -1.494   0.123   2.056  0.00  0.00    -0.732 N 
ATOM      8  C   UNL d   1      -2.587  -0.778   1.756  0.00  0.00     0.284 C 
ATOM      9  H3  UNL d   1      -1.769   0.949   2.581  0.00  0.00     0.395 HD
ENDBRANCH   1   7
TORSDOF 1
ENDMDL
