MODEL 1
REMARK minimizedAffinity 1.95519125
REMARK minimizedRMSD -1
REMARK  1 active torsions:
REMARK  status: ('A' for Active; 'I' for Inactive)
REMARK    1  A    between atoms: N_2  and  C1_3 
ROOT
ATOM      1  C1  UNL d   1       1.357  -2.004   3.927  0.00  0.00     0.143 A 
ATOM      2  C2  UNL d   1       1.401  -0.734   3.341  0.00  0.00    -0.057 A 
ATOM      3  C3  UNL d   1       0.313  -0.228   2.621  0.00  0.00     0.033 A 
ATOM      4  C4  UNL d   1      -0.833  -0.998   2.448  0.00  0.00    -0.042 A 
ATOM      5  C5  UNL d   1      -0.889  -2.273   3.000  0.00  0.00     0.033 A 
ATOM      6  C6  UNL d   1       0.198  -2.770   3.724  0.00  0.00    -0.057 A 
ENDROOT
BRANCH   1   7
ATOM      7  N   UNL d   1       2.443  -2.601   4.572  0.00  0.00    -0.732 N 
ATOM      8  C   UNL d   1       3.050  -1.976   5.727  0.00  0.00     0.284 C 
ATOM      9  H3  UNL d   1       2.340  -3.610   4.651  0.00  0.00     0.395 HD
ENDBRANCH   1   7
TORSDOF 1
ENDMDL
