MODEL 1
REMARK minimizedAffinity 0.818538368
REMARK minimizedRMSD -1
REMARK  1 active torsions:
REMARK  status: ('A' for Active; 'I' for Inactive)
REMARK    1  A    between atoms: N_2  and  C1_3 
ROOT
ATOM      1  C1  UNL d   1      -0.044  -0.878   2.957  0.00  0.00     0.143 A 
ATOM      2  C2  UNL d   1      -0.482   0.362   2.478  0.00  0.00    -0.057 A 
ATOM      3  C3  UNL d   1      -1.817   0.568   2.109  0.00  0.00     0.033 A 
ATOM      4  C4  UNL d   1      -2.735  -0.475   2.187  0.00  0.00    -0.042 A 
ATOM      5  C5  UNL d   1      -2.317  -1.722   2.637  0.00  0.00     0.033 A 
ATOM      6  C6  UNL d   1      -0.984  -1.919   3.010  0.00  0.00    -0.057 A 
ENDROOT
BRANCH   1   7
ATOM      7  N   UNL d   1       1.290  -1.173   3.246  0.00  0.00    -0.732 N 
ATOM      8  C   UNL d   1       1.653  -1.793   4.502  0.00  0.00     0.284 C 
ATOM      9  H3  UNL d   1       1.789  -1.542   2.440  0.00  0.00     0.395 HD
ENDBRANCH   1   7
TORSDOF 1
ENDMDL
