MODEL 1
REMARK minimizedAffinity 1.81172645
REMARK minimizedRMSD -1
REMARK  1 active torsions:
REMARK  status: ('A' for Active; 'I' for Inactive)
REMARK    1  A    between atoms: N_2  and  C1_3 
ROOT
ATOM      1  C1  UNL d   1       5.415  -2.399  -4.827  0.00  0.00     0.143 A 
ATOM      2  C2  UNL d   1       5.726  -1.036  -4.786  0.00  0.00    -0.057 A 
ATOM      3  C3  UNL d   1       5.967  -0.382  -3.571  0.00  0.00     0.033 A 
ATOM      4  C4  UNL d   1       5.872  -1.077  -2.370  0.00  0.00    -0.042 A 
ATOM      5  C5  UNL d   1       5.539  -2.427  -2.385  0.00  0.00     0.033 A 
ATOM      6  C6  UNL d   1       5.306  -3.075  -3.601  0.00  0.00    -0.057 A 
ENDROOT
BRANCH   1   7
ATOM      7  N   UNL d   1       5.068  -3.083  -5.995  0.00  0.00    -0.732 N 
ATOM      8  C   UNL d   1       3.968  -4.023  -5.999  0.00  0.00     0.284 C 
ATOM      9  H3  UNL d   1       5.111  -2.489  -6.820  0.00  0.00     0.395 HD
ENDBRANCH   1   7
TORSDOF 1
ENDMDL
