MODEL 1
REMARK minimizedAffinity -4.64083862
REMARK minimizedRMSD -1
REMARK  1 active torsions:
REMARK  status: ('A' for Active; 'I' for Inactive)
REMARK    1  A    between atoms: N_2  and  C1_3 
ROOT
ATOM      1  C1  UNL d   1       0.007  -3.137  -3.741  0.00  0.00     0.143 A 
ATOM      2  C2  UNL d   1      -0.049  -3.616  -2.428  0.00  0.00    -0.057 A 
ATOM      3  C3  UNL d   1       0.105  -4.979  -2.145  0.00  0.00     0.033 A 
ATOM      4  C4  UNL d   1       0.288  -5.893  -3.177  0.00  0.00    -0.042 A 
ATOM      5  C5  UNL d   1       0.321  -5.443  -4.492  0.00  0.00     0.033 A 
ATOM      6  C6  UNL d   1       0.174  -4.080  -4.767  0.00  0.00    -0.057 A 
ENDROOT
BRANCH   1   7
ATOM      7  N   UNL d   1      -0.237  -1.808  -4.095  0.00  0.00    -0.732 N 
ATOM      8  C   UNL d   1      -0.734  -1.475  -5.413  0.00  0.00     0.284 C 
ATOM      9  H3  UNL d   1      -0.670  -1.278  -3.342  0.00  0.00     0.395 HD
ENDBRANCH   1   7
TORSDOF 1
ENDMDL
