MODEL 1
REMARK minimizedAffinity 1.24340796
REMARK minimizedRMSD -1
REMARK  1 active torsions:
REMARK  status: ('A' for Active; 'I' for Inactive)
REMARK    1  A    between atoms: N_2  and  C1_3 
ROOT
ATOM      1  C1  UNL d   1       1.347  -3.265  -2.184  0.00  0.00     0.143 A 
ATOM      2  C2  UNL d   1       1.870  -4.448  -2.716  0.00  0.00    -0.057 A 
ATOM      3  C3  UNL d   1       1.044  -5.539  -3.013  0.00  0.00     0.033 A 
ATOM      4  C4  UNL d   1      -0.321  -5.475  -2.755  0.00  0.00    -0.042 A 
ATOM      5  C5  UNL d   1      -0.860  -4.318  -2.203  0.00  0.00     0.033 A 
ATOM      6  C6  UNL d   1      -0.031  -3.230  -1.915  0.00  0.00    -0.057 A 
ENDROOT
BRANCH   1   7
ATOM      7  N   UNL d   1       2.130  -2.183  -1.775  0.00  0.00    -0.732 N 
ATOM      8  C   UNL d   1       2.528  -2.041  -0.391  0.00  0.00     0.284 C 
ATOM      9  H3  UNL d   1       2.864  -1.960  -2.443  0.00  0.00     0.395 HD
ENDBRANCH   1   7
TORSDOF 1
ENDMDL
