MODEL 1
REMARK minimizedAffinity -3.71866775
REMARK minimizedRMSD -1
REMARK  3 active torsions:
REMARK  status: ('A' for Active; 'I' for Inactive)
REMARK    1  A    between atoms: C3'_2  and  C2'_3 
REMARK    2  A    between atoms: C2'_3  and  C1'_4 
REMARK    3  A    between atoms: C1'_4  and  C1_5 
ROOT
ATOM      1  C1  N4B d   1       0.408   0.571  -0.223  0.00  0.00    -0.075 A 
ATOM      2  C2  N4B d   1       0.271   1.965  -0.405  0.00  0.00     0.002 A 
ATOM      3  C3  N4B d   1      -0.330   2.729   0.565  0.00  0.00     0.002 A 
ATOM      4  C4  N4B d   1      -0.816   2.121   1.713  0.00  0.00    -0.004 A 
ATOM      5  C5  N4B d   1      -0.657   0.779   1.893  0.00  0.00     0.002 A 
ATOM      6  C6  N4B d   1      -0.052  -0.001   0.928  0.00  0.00     0.002 A 
ENDROOT
BRANCH   1   7
ATOM      7  C1' N4B d   1       0.980  -0.318  -1.293  0.00  0.00     0.057 C 
BRANCH   7   8
ATOM      8  C2' N4B d   1       0.710  -1.775  -0.931  0.00  0.00     0.009 C 
BRANCH   8   9
ATOM      9  C3' N4B d   1       1.075  -2.719  -2.063  0.00  0.00     0.004 C 
ATOM     10  C4' N4B d   1       0.109  -2.653  -3.209  0.00  0.00     0.003 C 
ENDBRANCH   8   9
ENDBRANCH   7   8
ENDBRANCH   1   7
TORSDOF 3
ENDMDL
