MODEL 1
REMARK minimizedAffinity -3.82291937
REMARK minimizedRMSD -1
REMARK  3 active torsions:
REMARK  status: ('A' for Active; 'I' for Inactive)
REMARK    1  A    between atoms: C3'_2  and  C2'_3 
REMARK    2  A    between atoms: C2'_3  and  C1'_4 
REMARK    3  A    between atoms: C1'_4  and  C1_5 
ROOT
ATOM      1  C1  N4B d   1       0.344  -0.208  -0.149  0.00  0.00    -0.075 A 
ATOM      2  C2  N4B d   1      -0.346   0.998  -0.400  0.00  0.00     0.002 A 
ATOM      3  C3  N4B d   1      -1.073   1.594   0.600  0.00  0.00     0.002 A 
ATOM      4  C4  N4B d   1      -1.140   0.996   1.850  0.00  0.00    -0.004 A 
ATOM      5  C5  N4B d   1      -0.449  -0.155   2.092  0.00  0.00     0.002 A 
ATOM      6  C6  N4B d   1       0.289  -0.764   1.097  0.00  0.00     0.002 A 
ENDROOT
BRANCH   1   7
ATOM      7  C1' N4B d   1       1.082  -0.943  -1.235  0.00  0.00     0.057 C 
BRANCH   7   8
ATOM      8  C2' N4B d   1       1.291  -2.392  -0.806  0.00  0.00     0.009 C 
BRANCH   8   9
ATOM      9  C3' N4B d   1       0.627  -3.368  -1.762  0.00  0.00     0.004 C 
ATOM     10  C4' N4B d   1       0.326  -2.759  -3.099  0.00  0.00     0.003 C 
ENDBRANCH   8   9
ENDBRANCH   7   8
ENDBRANCH   1   7
TORSDOF 3
ENDMDL
