MODEL 1
REMARK minimizedAffinity -1.78531122
REMARK minimizedRMSD -1
REMARK  3 active torsions:
REMARK  status: ('A' for Active; 'I' for Inactive)
REMARK    1  A    between atoms: C3'_2  and  C2'_3 
REMARK    2  A    between atoms: C2'_3  and  C1'_4 
REMARK    3  A    between atoms: C1'_4  and  C1_5 
ROOT
ATOM      1  C1  N4B d   1       0.333  -0.475  -0.809  0.00  0.00    -0.075 A 
ATOM      2  C2  N4B d   1       0.426   0.773  -1.463  0.00  0.00     0.002 A 
ATOM      3  C3  N4B d   1      -0.114   1.894  -0.881  0.00  0.00     0.002 A 
ATOM      4  C4  N4B d   1      -0.766   1.788   0.338  0.00  0.00    -0.004 A 
ATOM      5  C5  N4B d   1      -0.829   0.583   0.975  0.00  0.00     0.002 A 
ATOM      6  C6  N4B d   1      -0.287  -0.551   0.404  0.00  0.00     0.002 A 
ENDROOT
BRANCH   1   7
ATOM      7  C1' N4B d   1       0.834  -1.743  -1.445  0.00  0.00     0.057 C 
BRANCH   7   8
ATOM      8  C2' N4B d   1      -0.112  -2.145  -2.573  0.00  0.00     0.009 C 
BRANCH   8   9
ATOM      9  C3' N4B d   1      -0.212  -3.653  -2.721  0.00  0.00     0.004 C 
ATOM     10  C4' N4B d   1       0.610  -4.392  -1.707  0.00  0.00     0.003 C 
ENDBRANCH   8   9
ENDBRANCH   7   8
ENDBRANCH   1   7
TORSDOF 3
ENDMDL
