MODEL 1
REMARK minimizedAffinity -3.98187542
REMARK minimizedRMSD -1
REMARK  3 active torsions:
REMARK  status: ('A' for Active; 'I' for Inactive)
REMARK    1  A    between atoms: C3'_2  and  C2'_3 
REMARK    2  A    between atoms: C2'_3  and  C1'_4 
REMARK    3  A    between atoms: C1'_4  and  C1_5 
ROOT
ATOM      1  C1  N4B d   1       0.005  -0.158  -0.029  0.00  0.00    -0.075 A 
ATOM      2  C2  N4B d   1      -0.610  -1.091   0.834  0.00  0.00     0.002 A 
ATOM      3  C3  N4B d   1      -1.299  -0.655   1.938  0.00  0.00     0.002 A 
ATOM      4  C4  N4B d   1      -1.371   0.704   2.209  0.00  0.00    -0.004 A 
ATOM      5  C5  N4B d   1      -0.796   1.600   1.356  0.00  0.00     0.002 A 
ATOM      6  C6  N4B d   1      -0.103   1.175   0.241  0.00  0.00     0.002 A 
ENDROOT
BRANCH   1   7
ATOM      7  C1' N4B d   1       0.842  -0.592  -1.202  0.00  0.00     0.057 C 
BRANCH   7   8
ATOM      8  C2' N4B d   1       1.048  -2.102  -1.138  0.00  0.00     0.009 C 
BRANCH   8   9
ATOM      9  C3' N4B d   1       0.524  -2.800  -2.382  0.00  0.00     0.004 C 
ATOM     10  C4' N4B d   1      -0.943  -2.579  -2.597  0.00  0.00     0.003 C 
ENDBRANCH   8   9
ENDBRANCH   7   8
ENDBRANCH   1   7
TORSDOF 3
ENDMDL
