MODEL 1
REMARK minimizedAffinity -3.4444809
REMARK minimizedRMSD -1
REMARK  3 active torsions:
REMARK  status: ('A' for Active; 'I' for Inactive)
REMARK    1  A    between atoms: C3'_2  and  C2'_3 
REMARK    2  A    between atoms: C2'_3  and  C1'_4 
REMARK    3  A    between atoms: C1'_4  and  C1_5 
ROOT
ATOM      1  C1  N4B d   1       0.102  -0.422  -0.019  0.00  0.00    -0.075 A 
ATOM      2  C2  N4B d   1      -0.552   0.830   0.011  0.00  0.00     0.002 A 
ATOM      3  C3  N4B d   1      -1.271   1.202   1.120  0.00  0.00     0.002 A 
ATOM      4  C4  N4B d   1      -1.366   0.335   2.199  0.00  0.00    -0.004 A 
ATOM      5  C5  N4B d   1      -0.710  -0.860   2.172  0.00  0.00     0.002 A 
ATOM      6  C6  N4B d   1       0.020  -1.246   1.065  0.00  0.00     0.002 A 
ENDROOT
BRANCH   1   7
ATOM      7  C1' N4B d   1       0.829  -0.908  -1.243  0.00  0.00     0.057 C 
BRANCH   7   8
ATOM      8  C2' N4B d   1      -0.184  -1.470  -2.237  0.00  0.00     0.009 C 
BRANCH   8   9
ATOM      9  C3' N4B d   1      -0.055  -2.976  -2.389  0.00  0.00     0.004 C 
ATOM     10  C4' N4B d   1       1.018  -3.558  -1.518  0.00  0.00     0.003 C 
ENDBRANCH   8   9
ENDBRANCH   7   8
ENDBRANCH   1   7
TORSDOF 3
ENDMDL
