MODEL 1
REMARK minimizedAffinity -4.07774353
REMARK minimizedRMSD -1
REMARK  3 active torsions:
REMARK  status: ('A' for Active; 'I' for Inactive)
REMARK    1  A    between atoms: C3'_2  and  C2'_3 
REMARK    2  A    between atoms: C2'_3  and  C1'_4 
REMARK    3  A    between atoms: C1'_4  and  C1_5 
ROOT
ATOM      1  C1  N4B d   1       0.477  -0.474   0.105  0.00  0.00    -0.075 A 
ATOM      2  C2  N4B d   1       0.039  -0.867   1.389  0.00  0.00     0.002 A 
ATOM      3  C3  N4B d   1      -0.717  -0.009   2.148  0.00  0.00     0.002 A 
ATOM      4  C4  N4B d   1      -1.031   1.249   1.655  0.00  0.00    -0.004 A 
ATOM      5  C5  N4B d   1      -0.625   1.611   0.404  0.00  0.00     0.002 A 
ATOM      6  C6  N4B d   1       0.132   0.757  -0.372  0.00  0.00     0.002 A 
ENDROOT
BRANCH   1   7
ATOM      7  C1' N4B d   1       1.378  -1.345  -0.728  0.00  0.00     0.057 C 
BRANCH   7   8
ATOM      8  C2' N4B d   1       0.769  -2.740  -0.832  0.00  0.00     0.009 C 
BRANCH   8   9
ATOM      9  C3' N4B d   1       0.281  -3.044  -2.238  0.00  0.00     0.004 C 
ATOM     10  C4' N4B d   1      -0.252  -1.832  -2.942  0.00  0.00     0.003 C 
ENDBRANCH   8   9
ENDBRANCH   7   8
ENDBRANCH   1   7
TORSDOF 3
ENDMDL
