MODEL 1
REMARK minimizedAffinity -1.55446422
REMARK minimizedRMSD -1
REMARK  0 active torsions:
REMARK  status: ('A' for Active; 'I' for Inactive)
ROOT
ATOM      1  C1  BNZ d   1      -2.814   3.750  -5.647  0.00  0.00     0.000 A 
ATOM      2  C2  BNZ d   1      -3.770   4.713  -5.829  0.00  0.00     0.000 A 
ATOM      3  C3  BNZ d   1      -5.085   4.373  -5.985  0.00  0.00     0.000 A 
ATOM      4  C4  BNZ d   1      -5.436   3.070  -5.999  0.00  0.00     0.000 A 
ATOM      5  C5  BNZ d   1      -4.482   2.088  -5.826  0.00  0.00     0.000 A 
ATOM      6  C6  BNZ d   1      -3.165   2.435  -5.630  0.00  0.00     0.000 A 
ENDROOT
TORSDOF 0
ENDMDL
