MODEL 1
REMARK minimizedAffinity -1.59863722
REMARK minimizedRMSD -1
REMARK  0 active torsions:
REMARK  status: ('A' for Active; 'I' for Inactive)
ROOT
ATOM      1  C1  BNZ d   1      -3.027   1.849  -4.537  0.00  0.00     0.000 A 
ATOM      2  C2  BNZ d   1      -1.911   2.642  -4.539  0.00  0.00     0.000 A 
ATOM      3  C3  BNZ d   1      -1.884   3.811  -5.247  0.00  0.00     0.000 A 
ATOM      4  C4  BNZ d   1      -2.957   4.164  -5.984  0.00  0.00     0.000 A 
ATOM      5  C5  BNZ d   1      -4.087   3.370  -5.999  0.00  0.00     0.000 A 
ATOM      6  C6  BNZ d   1      -4.124   2.214  -5.254  0.00  0.00     0.000 A 
ENDROOT
TORSDOF 0
ENDMDL
