MODEL 1
REMARK minimizedAffinity -4.07354736
REMARK minimizedRMSD -1
REMARK  0 active torsions:
REMARK  status: ('A' for Active; 'I' for Inactive)
ROOT
ATOM      1  C1  BNZ d   1       3.449  -2.073  -1.769  0.00  0.00     0.000 A 
ATOM      2  C2  BNZ d   1       2.215  -1.607  -1.403  0.00  0.00     0.000 A 
ATOM      3  C3  BNZ d   1       2.024  -0.285  -1.114  0.00  0.00     0.000 A 
ATOM      4  C4  BNZ d   1       3.074   0.561  -1.152  0.00  0.00     0.000 A 
ATOM      5  C5  BNZ d   1       4.327   0.104  -1.510  0.00  0.00     0.000 A 
ATOM      6  C6  BNZ d   1       4.507  -1.220  -1.838  0.00  0.00     0.000 A 
ENDROOT
TORSDOF 0
ENDMDL
