MODEL 1
REMARK minimizedAffinity -2.88671088
REMARK minimizedRMSD -1
REMARK  0 active torsions:
REMARK  status: ('A' for Active; 'I' for Inactive)
ROOT
ATOM      1  C1  BNZ d   1      -3.023   3.393  -5.448  0.00  0.00     0.000 A 
ATOM      2  C2  BNZ d   1      -3.148   2.029  -5.437  0.00  0.00     0.000 A 
ATOM      3  C3  BNZ d   1      -4.343   1.434  -5.731  0.00  0.00     0.000 A 
ATOM      4  C4  BNZ d   1      -5.419   2.202  -5.994  0.00  0.00     0.000 A 
ATOM      5  C5  BNZ d   1      -5.311   3.578  -5.999  0.00  0.00     0.000 A 
ATOM      6  C6  BNZ d   1      -4.098   4.173  -5.742  0.00  0.00     0.000 A 
ENDROOT
TORSDOF 0
ENDMDL
