MODEL 1
REMARK minimizedAffinity -2.64061832
REMARK minimizedRMSD -1
REMARK  0 active torsions:
REMARK  status: ('A' for Active; 'I' for Inactive)
ROOT
ATOM      1  C1  BNZ d   1      -0.411  -1.218   0.007  0.00  0.00     0.000 A 
ATOM      2  C2  BNZ d   1      -0.963  -1.497  -1.215  0.00  0.00     0.000 A 
ATOM      3  C3  BNZ d   1      -0.506  -0.883  -2.347  0.00  0.00     0.000 A 
ATOM      4  C4  BNZ d   1       0.474   0.039  -2.251  0.00  0.00     0.000 A 
ATOM      5  C5  BNZ d   1       1.034   0.339  -1.025  0.00  0.00     0.000 A 
ATOM      6  C6  BNZ d   1       0.598  -0.310   0.107  0.00  0.00     0.000 A 
ENDROOT
TORSDOF 0
ENDMDL
