MODEL 1
REMARK minimizedAffinity -1.92055106
REMARK minimizedRMSD -1
REMARK  0 active torsions:
REMARK  status: ('A' for Active; 'I' for Inactive)
ROOT
ATOM      1  C1  BNZ d   1      -3.593   3.461  -5.974  0.00  0.00     0.000 A 
ATOM      2  C2  BNZ d   1      -4.816   2.844  -5.984  0.00  0.00     0.000 A 
ATOM      3  C3  BNZ d   1      -5.969   3.577  -5.999  0.00  0.00     0.000 A 
ATOM      4  C4  BNZ d   1      -5.900   4.923  -5.964  0.00  0.00     0.000 A 
ATOM      5  C5  BNZ d   1      -4.675   5.560  -5.945  0.00  0.00     0.000 A 
ATOM      6  C6  BNZ d   1      -3.516   4.820  -5.969  0.00  0.00     0.000 A 
ENDROOT
TORSDOF 0
ENDMDL
