MODEL 1
REMARK minimizedAffinity -3.22244835
REMARK minimizedRMSD -1
REMARK  0 active torsions:
REMARK  status: ('A' for Active; 'I' for Inactive)
ROOT
ATOM      1  C1  BNZ d   1      -5.598   2.541  -5.998  0.00  0.00     0.000 A 
ATOM      2  C2  BNZ d   1      -4.306   2.087  -5.999  0.00  0.00     0.000 A 
ATOM      3  C3  BNZ d   1      -3.257   2.961  -5.935  0.00  0.00     0.000 A 
ATOM      4  C4  BNZ d   1      -3.499   4.287  -5.912  0.00  0.00     0.000 A 
ATOM      5  C5  BNZ d   1      -4.796   4.761  -5.920  0.00  0.00     0.000 A 
ATOM      6  C6  BNZ d   1      -5.850   3.877  -5.945  0.00  0.00     0.000 A 
ENDROOT
TORSDOF 0
ENDMDL
