MODEL 1
REMARK minimizedAffinity 3.13609362
REMARK minimizedRMSD -1
REMARK  0 active torsions:
REMARK  status: ('A' for Active; 'I' for Inactive)
ROOT
ATOM      1  C1  BNZ d   1       5.989   0.767  -1.198  0.00  0.00     0.000 A 
ATOM      2  C2  BNZ d   1       4.867   0.057  -1.534  0.00  0.00     0.000 A 
ATOM      3  C3  BNZ d   1       3.640   0.659  -1.561  0.00  0.00     0.000 A 
ATOM      4  C4  BNZ d   1       3.531   1.958  -1.212  0.00  0.00     0.000 A 
ATOM      5  C5  BNZ d   1       4.652   2.684  -0.862  0.00  0.00     0.000 A 
ATOM      6  C6  BNZ d   1       5.890   2.085  -0.874  0.00  0.00     0.000 A 
ENDROOT
TORSDOF 0
ENDMDL
