MODEL 1
REMARK minimizedAffinity -0.821306109
REMARK minimizedRMSD -1
REMARK  0 active torsions:
REMARK  status: ('A' for Active; 'I' for Inactive)
ROOT
ATOM      1  C1  BNZ d   1      -3.164   4.172  -5.633  0.00  0.00     0.000 A 
ATOM      2  C2  BNZ d   1      -4.282   4.875  -5.995  0.00  0.00     0.000 A 
ATOM      3  C3  BNZ d   1      -5.513   4.280  -5.996  0.00  0.00     0.000 A 
ATOM      4  C4  BNZ d   1      -5.618   2.975  -5.673  0.00  0.00     0.000 A 
ATOM      5  C5  BNZ d   1      -4.499   2.251  -5.313  0.00  0.00     0.000 A 
ATOM      6  C6  BNZ d   1      -3.267   2.863  -5.277  0.00  0.00     0.000 A 
ENDROOT
TORSDOF 0
ENDMDL
