MODEL 1
REMARK minimizedAffinity -2.88411784
REMARK minimizedRMSD -1
REMARK  0 active torsions:
REMARK  status: ('A' for Active; 'I' for Inactive)
ROOT
ATOM      1  C1  BNZ d   1      -5.350  -2.075  -5.986  0.00  0.00     0.000 A 
ATOM      2  C2  BNZ d   1      -4.975  -3.391  -5.950  0.00  0.00     0.000 A 
ATOM      3  C3  BNZ d   1      -3.654  -3.742  -5.913  0.00  0.00     0.000 A 
ATOM      4  C4  BNZ d   1      -2.711  -2.779  -5.954  0.00  0.00     0.000 A 
ATOM      5  C5  BNZ d   1      -3.073  -1.448  -5.999  0.00  0.00     0.000 A 
ATOM      6  C6  BNZ d   1      -4.404  -1.097  -5.997  0.00  0.00     0.000 A 
ENDROOT
TORSDOF 0
ENDMDL
