MODEL 1
REMARK minimizedAffinity -1.7646358
REMARK minimizedRMSD -1
REMARK  0 active torsions:
REMARK  status: ('A' for Active; 'I' for Inactive)
ROOT
ATOM      1  C1  BNZ d   1      -5.103  -2.465  -5.977  0.00  0.00     0.000 A 
ATOM      2  C2  BNZ d   1      -3.864  -3.029  -5.826  0.00  0.00     0.000 A 
ATOM      3  C3  BNZ d   1      -2.751  -2.247  -5.687  0.00  0.00     0.000 A 
ATOM      4  C4  BNZ d   1      -2.874  -0.905  -5.739  0.00  0.00     0.000 A 
ATOM      5  C5  BNZ d   1      -4.115  -0.322  -5.899  0.00  0.00     0.000 A 
ATOM      6  C6  BNZ d   1      -5.237  -1.111  -6.000  0.00  0.00     0.000 A 
ENDROOT
TORSDOF 0
ENDMDL
