MODEL 1
REMARK minimizedAffinity -2.78862119
REMARK minimizedRMSD -1
REMARK  0 active torsions:
REMARK  status: ('A' for Active; 'I' for Inactive)
ROOT
ATOM      1  C1  BNZ d   1      -4.915   4.330  -5.750  0.00  0.00     0.000 A 
ATOM      2  C2  BNZ d   1      -4.872   2.969  -5.900  0.00  0.00     0.000 A 
ATOM      3  C3  BNZ d   1      -3.677   2.314  -6.000  0.00  0.00     0.000 A 
ATOM      4  C4  BNZ d   1      -2.529   3.022  -5.990  0.00  0.00     0.000 A 
ATOM      5  C5  BNZ d   1      -2.556   4.395  -5.849  0.00  0.00     0.000 A 
ATOM      6  C6  BNZ d   1      -3.760   5.048  -5.709  0.00  0.00     0.000 A 
ENDROOT
TORSDOF 0
ENDMDL
