MODEL 1
REMARK minimizedAffinity -1.60030127
REMARK minimizedRMSD -1
REMARK  0 active torsions:
REMARK  status: ('A' for Active; 'I' for Inactive)
ROOT
ATOM      1  C1  BNZ d   1      -0.683   0.039  -2.435  0.00  0.00     0.000 A 
ATOM      2  C2  BNZ d   1      -0.347  -1.283  -2.549  0.00  0.00     0.000 A 
ATOM      3  C3  BNZ d   1      -1.125  -2.143  -3.274  0.00  0.00     0.000 A 
ATOM      4  C4  BNZ d   1      -2.257  -1.688  -3.848  0.00  0.00     0.000 A 
ATOM      5  C5  BNZ d   1      -2.614  -0.359  -3.734  0.00  0.00     0.000 A 
ATOM      6  C6  BNZ d   1      -1.808   0.511  -3.037  0.00  0.00     0.000 A 
ENDROOT
TORSDOF 0
ENDMDL
