MODEL 1
REMARK minimizedAffinity 1.89464438
REMARK minimizedRMSD -1
REMARK  3 active torsions:
REMARK  status: ('A' for Active; 'I' for Inactive)
REMARK    1  A    between atoms: C3'_2  and  C2'_3 
REMARK    2  A    between atoms: C2'_3  and  C1'_4 
REMARK    3  A    between atoms: C1'_4  and  C1_5 
ROOT
ATOM      1  C1  N4B d   1      -1.988   1.246   3.066  0.00  0.00    -0.075 A 
ATOM      2  C2  N4B d   1      -0.654   0.803   3.197  0.00  0.00     0.002 A 
ATOM      3  C3  N4B d   1       0.006   0.282   2.110  0.00  0.00     0.002 A 
ATOM      4  C4  N4B d   1      -0.651   0.178   0.894  0.00  0.00    -0.004 A 
ATOM      5  C5  N4B d   1      -1.931   0.632   0.770  0.00  0.00     0.002 A 
ATOM      6  C6  N4B d   1      -2.606   1.161   1.852  0.00  0.00     0.002 A 
ENDROOT
BRANCH   1   7
ATOM      7  C1' N4B d   1      -2.779   1.743   4.245  0.00  0.00     0.057 C 
BRANCH   7   8
ATOM      8  C2' N4B d   1      -3.116   0.565   5.154  0.00  0.00     0.009 C 
BRANCH   8   9
ATOM      9  C3' N4B d   1      -4.354   0.831   5.994  0.00  0.00     0.004 C 
ATOM     10  C4' N4B d   1      -5.313  -0.322   5.995  0.00  0.00     0.003 C 
ENDBRANCH   8   9
ENDBRANCH   7   8
ENDBRANCH   1   7
TORSDOF 3
ENDMDL
