MODEL 1
REMARK minimizedAffinity 6.99100685
REMARK minimizedRMSD -1
REMARK  3 active torsions:
REMARK  status: ('A' for Active; 'I' for Inactive)
REMARK    1  A    between atoms: C3'_2  and  C2'_3 
REMARK    2  A    between atoms: C2'_3  and  C1'_4 
REMARK    3  A    between atoms: C1'_4  and  C1_5 
ROOT
ATOM      1  C1  N4B d   1      -1.952   1.091   3.177  0.00  0.00    -0.075 A 
ATOM      2  C2  N4B d   1      -0.669   0.705   3.624  0.00  0.00     0.002 A 
ATOM      3  C3  N4B d   1       0.294   0.341   2.715  0.00  0.00     0.002 A 
ATOM      4  C4  N4B d   1      -0.007   0.339   1.361  0.00  0.00    -0.004 A 
ATOM      5  C5  N4B d   1      -1.240   0.738   0.936  0.00  0.00     0.002 A 
ATOM      6  C6  N4B d   1      -2.217   1.110   1.838  0.00  0.00     0.002 A 
ENDROOT
BRANCH   1   7
ATOM      7  C1' N4B d   1      -3.064   1.414   4.137  0.00  0.00     0.057 C 
BRANCH   7   8
ATOM      8  C2' N4B d   1      -3.417   0.161   4.933  0.00  0.00     0.009 C 
BRANCH   8   9
ATOM      9  C3' N4B d   1      -4.510   0.427   5.955  0.00  0.00     0.004 C 
ATOM     10  C4' N4B d   1      -5.592  -0.612   5.931  0.00  0.00     0.003 C 
ENDBRANCH   8   9
ENDBRANCH   7   8
ENDBRANCH   1   7
TORSDOF 3
ENDMDL
