MODEL 1
REMARK minimizedAffinity -1.2529875
REMARK minimizedRMSD -1
REMARK  3 active torsions:
REMARK  status: ('A' for Active; 'I' for Inactive)
REMARK    1  A    between atoms: C3'_2  and  C2'_3 
REMARK    2  A    between atoms: C2'_3  and  C1'_4 
REMARK    3  A    between atoms: C1'_4  and  C1_5 
ROOT
ATOM      1  C1  N4B d   1       1.653   0.364   2.083  0.00  0.00    -0.075 A 
ATOM      2  C2  N4B d   1       2.635  -0.320   2.833  0.00  0.00     0.002 A 
ATOM      3  C3  N4B d   1       3.962  -0.201   2.499  0.00  0.00     0.002 A 
ATOM      4  C4  N4B d   1       4.328   0.579   1.413  0.00  0.00    -0.004 A 
ATOM      5  C5  N4B d   1       3.376   1.258   0.709  0.00  0.00     0.002 A 
ATOM      6  C6  N4B d   1       2.039   1.150   1.036  0.00  0.00     0.002 A 
ENDROOT
BRANCH   1   7
ATOM      7  C1' N4B d   1       0.184   0.196   2.357  0.00  0.00     0.057 C 
BRANCH   7   8
ATOM      8  C2' N4B d   1      -0.573   1.386   1.776  0.00  0.00     0.009 C 
BRANCH   8   9
ATOM      9  C3' N4B d   1      -1.919   0.978   1.202  0.00  0.00     0.004 C 
ATOM     10  C4' N4B d   1      -3.074   1.575   1.949  0.00  0.00     0.003 C 
ENDBRANCH   8   9
ENDBRANCH   7   8
ENDBRANCH   1   7
TORSDOF 3
ENDMDL
