MODEL 1
REMARK minimizedAffinity 4.15702057
REMARK minimizedRMSD -1
REMARK  3 active torsions:
REMARK  status: ('A' for Active; 'I' for Inactive)
REMARK    1  A    between atoms: C3'_2  and  C2'_3 
REMARK    2  A    between atoms: C2'_3  and  C1'_4 
REMARK    3  A    between atoms: C1'_4  and  C1_5 
ROOT
ATOM      1  C1  N4B d   1       2.421   0.867  -4.829  0.00  0.00    -0.075 A 
ATOM      2  C2  N4B d   1       1.851  -0.377  -5.178  0.00  0.00     0.002 A 
ATOM      3  C3  N4B d   1       2.194  -1.509  -4.480  0.00  0.00     0.002 A 
ATOM      4  C4  N4B d   1       3.114  -1.425  -3.446  0.00  0.00    -0.004 A 
ATOM      5  C5  N4B d   1       3.641  -0.216  -3.099  0.00  0.00     0.002 A 
ATOM      6  C6  N4B d   1       3.302   0.931  -3.789  0.00  0.00     0.002 A 
ENDROOT
BRANCH   1   7
ATOM      7  C1' N4B d   1       2.142   2.117  -5.618  0.00  0.00     0.057 C 
BRANCH   7   8
ATOM      8  C2' N4B d   1       1.786   3.247  -4.657  0.00  0.00     0.009 C 
BRANCH   8   9
ATOM      9  C3' N4B d   1       0.591   2.897  -3.787  0.00  0.00     0.004 C 
ATOM     10  C4' N4B d   1       0.278   3.958  -2.775  0.00  0.00     0.003 C 
ENDBRANCH   8   9
ENDBRANCH   7   8
ENDBRANCH   1   7
TORSDOF 3
ENDMDL
