MODEL 1
REMARK minimizedAffinity -0.159329325
REMARK minimizedRMSD -1
REMARK  3 active torsions:
REMARK  status: ('A' for Active; 'I' for Inactive)
REMARK    1  A    between atoms: C3'_2  and  C2'_3 
REMARK    2  A    between atoms: C2'_3  and  C1'_4 
REMARK    3  A    between atoms: C1'_4  and  C1_5 
ROOT
ATOM      1  C1  N4B d   1       0.644   0.412   2.188  0.00  0.00    -0.075 A 
ATOM      2  C2  N4B d   1       1.375  -0.768   2.447  0.00  0.00     0.002 A 
ATOM      3  C3  N4B d   1       2.704  -0.840   2.110  0.00  0.00     0.002 A 
ATOM      4  C4  N4B d   1       3.316   0.244   1.498  0.00  0.00    -0.004 A 
ATOM      5  C5  N4B d   1       2.610   1.389   1.275  0.00  0.00     0.002 A 
ATOM      6  C6  N4B d   1       1.274   1.477   1.612  0.00  0.00     0.002 A 
ENDROOT
BRANCH   1   7
ATOM      7  C1' N4B d   1      -0.833   0.508   2.461  0.00  0.00     0.057 C 
BRANCH   7   8
ATOM      8  C2' N4B d   1      -1.537   1.045   1.219  0.00  0.00     0.009 C 
BRANCH   8   9
ATOM      9  C3' N4B d   1      -2.975   1.440   1.508  0.00  0.00     0.004 C 
ATOM     10  C4' N4B d   1      -3.360   1.226   2.942  0.00  0.00     0.003 C 
ENDBRANCH   8   9
ENDBRANCH   7   8
ENDBRANCH   1   7
TORSDOF 3
ENDMDL
