MODEL 1
REMARK minimizedAffinity 8.07562923
REMARK minimizedRMSD -1
REMARK  3 active torsions:
REMARK  status: ('A' for Active; 'I' for Inactive)
REMARK    1  A    between atoms: C3'_2  and  C2'_3 
REMARK    2  A    between atoms: C2'_3  and  C1'_4 
REMARK    3  A    between atoms: C1'_4  and  C1_5 
ROOT
ATOM      1  C1  N4B d   1      -0.210   0.408   1.857  0.00  0.00    -0.075 A 
ATOM      2  C2  N4B d   1      -0.697   1.158   2.950  0.00  0.00     0.002 A 
ATOM      3  C3  N4B d   1      -1.986   1.629   2.939  0.00  0.00     0.002 A 
ATOM      4  C4  N4B d   1      -2.799   1.380   1.843  0.00  0.00    -0.004 A 
ATOM      5  C5  N4B d   1      -2.329   0.633   0.803  0.00  0.00     0.002 A 
ATOM      6  C6  N4B d   1      -1.036   0.150   0.802  0.00  0.00     0.002 A 
ENDROOT
BRANCH   1   7
ATOM      7  C1' N4B d   1       1.219  -0.055   1.784  0.00  0.00     0.057 C 
BRANCH   7   8
ATOM      8  C2' N4B d   1       1.989   0.843   0.820  0.00  0.00     0.009 C 
BRANCH   8   9
ATOM      9  C3' N4B d   1       3.252   0.174   0.306  0.00  0.00     0.004 C 
ATOM     10  C4' N4B d   1       4.013  -0.537   1.385  0.00  0.00     0.003 C 
ENDBRANCH   8   9
ENDBRANCH   7   8
ENDBRANCH   1   7
TORSDOF 3
ENDMDL
