MODEL 1
REMARK minimizedAffinity 13.0412846
REMARK minimizedRMSD -1
REMARK  3 active torsions:
REMARK  status: ('A' for Active; 'I' for Inactive)
REMARK    1  A    between atoms: C3'_2  and  C2'_3 
REMARK    2  A    between atoms: C2'_3  and  C1'_4 
REMARK    3  A    between atoms: C1'_4  and  C1_5 
ROOT
ATOM      1  C1  N4B d   1      -5.663   0.378   3.451  0.00  0.00    -0.075 A 
ATOM      2  C2  N4B d   1      -5.138   1.676   3.638  0.00  0.00     0.002 A 
ATOM      3  C3  N4B d   1      -4.964   2.170   4.907  0.00  0.00     0.002 A 
ATOM      4  C4  N4B d   1      -5.325   1.395   6.000  0.00  0.00    -0.004 A 
ATOM      5  C5  N4B d   1      -5.808   0.133   5.811  0.00  0.00     0.002 A 
ATOM      6  C6  N4B d   1      -5.983  -0.378   4.541  0.00  0.00     0.002 A 
ENDROOT
BRANCH   1   7
ATOM      7  C1' N4B d   1      -5.951  -0.172   2.081  0.00  0.00     0.057 C 
BRANCH   7   8
ATOM      8  C2' N4B d   1      -5.946  -1.697   2.142  0.00  0.00     0.009 C 
BRANCH   8   9
ATOM      9  C3' N4B d   1      -5.029  -2.305   1.095  0.00  0.00     0.004 C 
ATOM     10  C4' N4B d   1      -4.142  -1.289   0.439  0.00  0.00     0.003 C 
ENDBRANCH   8   9
ENDBRANCH   7   8
ENDBRANCH   1   7
TORSDOF 3
ENDMDL
