MODEL 1
REMARK minimizedAffinity 2.29943728
REMARK minimizedRMSD -1
REMARK  3 active torsions:
REMARK  status: ('A' for Active; 'I' for Inactive)
REMARK    1  A    between atoms: C3'_2  and  C2'_3 
REMARK    2  A    between atoms: C2'_3  and  C1'_4 
REMARK    3  A    between atoms: C1'_4  and  C1_5 
ROOT
ATOM      1  C1  N4B d   1      -2.472   1.418   2.781  0.00  0.00    -0.075 A 
ATOM      2  C2  N4B d   1      -1.105   1.120   2.971  0.00  0.00     0.002 A 
ATOM      3  C3  N4B d   1      -0.350   0.658   1.921  0.00  0.00     0.002 A 
ATOM      4  C4  N4B d   1      -0.942   0.469   0.681  0.00  0.00    -0.004 A 
ATOM      5  C5  N4B d   1      -2.257   0.784   0.499  0.00  0.00     0.002 A 
ATOM      6  C6  N4B d   1      -3.027   1.252   1.545  0.00  0.00     0.002 A 
ENDROOT
BRANCH   1   7
ATOM      7  C1' N4B d   1      -3.358   1.844   3.919  0.00  0.00     0.057 C 
BRANCH   7   8
ATOM      8  C2' N4B d   1      -3.616   0.646   4.828  0.00  0.00     0.009 C 
BRANCH   8   9
ATOM      9  C3' N4B d   1      -4.562   0.989   5.966  0.00  0.00     0.004 C 
ATOM     10  C4' N4B d   1      -5.777   0.111   5.997  0.00  0.00     0.003 C 
ENDBRANCH   8   9
ENDBRANCH   7   8
ENDBRANCH   1   7
TORSDOF 3
ENDMDL
