MODEL 1
REMARK minimizedAffinity -5.09203291
REMARK minimizedRMSD -1
REMARK  1 active torsions:
REMARK  status: ('A' for Active; 'I' for Inactive)
REMARK    1  A    between atoms: C1_2  and  C2_3 
ROOT
ATOM      1  C2  UNL d   1      -0.082   0.022   0.283  0.00  0.00    -0.076 A 
ATOM      2  C3  UNL d   1       0.780   0.921   0.934  0.00  0.00     0.004 A 
ATOM      3  C4  UNL d   1       0.295   1.822   1.880  0.00  0.00    -0.003 A 
ATOM      4  C5  UNL d   1      -1.060   1.838   2.191  0.00  0.00     0.000 A 
ATOM      5  C6  UNL d   1      -1.927   0.941   1.567  0.00  0.00     0.000 A 
ATOM      6  C7  UNL d   1      -1.451   0.015   0.623  0.00  0.00    -0.073 A 
ATOM      7  C8  UNL d   1      -2.432  -0.925  -0.023  0.00  0.00     0.078 C 
ENDROOT
BRANCH   1   8
ATOM      8  C1  UNL d   1       0.497  -0.914  -0.754  0.00  0.00     0.053 C 
ATOM      9  C   UNL d   1       0.901  -0.192  -2.030  0.00  0.00     0.018 C 
ENDBRANCH   1   8
TORSDOF 1
ENDMDL
