MODEL 1
REMARK minimizedAffinity -2.83753514
REMARK minimizedRMSD -1
REMARK  1 active torsions:
REMARK  status: ('A' for Active; 'I' for Inactive)
REMARK    1  A    between atoms: C1_2  and  C2_3 
ROOT
ATOM      1  C2  UNL d   1       0.212  -0.652  -2.571  0.00  0.00    -0.076 A 
ATOM      2  C3  UNL d   1      -0.976  -1.086  -3.184  0.00  0.00     0.004 A 
ATOM      3  C4  UNL d   1      -1.299  -0.693  -4.482  0.00  0.00    -0.003 A 
ATOM      4  C5  UNL d   1      -0.439   0.141  -5.188  0.00  0.00     0.000 A 
ATOM      5  C6  UNL d   1       0.752   0.568  -4.602  0.00  0.00     0.000 A 
ATOM      6  C7  UNL d   1       1.101   0.167  -3.301  0.00  0.00    -0.073 A 
ATOM      7  C8  UNL d   1       2.396   0.662  -2.715  0.00  0.00     0.078 C 
ENDROOT
BRANCH   1   8
ATOM      8  C1  UNL d   1       0.497  -1.089  -1.152  0.00  0.00     0.053 C 
ATOM      9  C   UNL d   1      -0.301  -0.299  -0.128  0.00  0.00     0.018 C 
ENDBRANCH   1   8
TORSDOF 1
ENDMDL
