MODEL 1
REMARK minimizedAffinity -4.29629326
REMARK minimizedRMSD -1
REMARK  1 active torsions:
REMARK  status: ('A' for Active; 'I' for Inactive)
REMARK    1  A    between atoms: C1_2  and  C2_3 
ROOT
ATOM      1  C2  UNL d   1      -0.798   0.064  -0.457  0.00  0.00    -0.076 A 
ATOM      2  C3  UNL d   1       0.189  -0.301   0.475  0.00  0.00     0.004 A 
ATOM      3  C4  UNL d   1       0.059   0.027   1.823  0.00  0.00    -0.003 A 
ATOM      4  C5  UNL d   1      -1.061   0.725   2.262  0.00  0.00     0.000 A 
ATOM      5  C6  UNL d   1      -2.058   1.080   1.354  0.00  0.00     0.000 A 
ATOM      6  C7  UNL d   1      -1.950   0.743  -0.006  0.00  0.00    -0.073 A 
ATOM      7  C8  UNL d   1      -3.053   1.156  -0.942  0.00  0.00     0.078 C 
ENDROOT
BRANCH   1   8
ATOM      8  C1  UNL d   1      -0.589  -0.295  -1.911  0.00  0.00     0.053 C 
ATOM      9  C   UNL d   1       0.833  -0.028  -2.379  0.00  0.00     0.018 C 
ENDBRANCH   1   8
TORSDOF 1
ENDMDL
