MODEL 1
REMARK minimizedAffinity -5.82415485
REMARK minimizedRMSD -1
REMARK  1 active torsions:
REMARK  status: ('A' for Active; 'I' for Inactive)
REMARK    1  A    between atoms: C1_2  and  C2_3 
ROOT
ATOM      1  C2  UNL d   1       0.098  -0.385   0.458  0.00  0.00    -0.076 A 
ATOM      2  C3  UNL d   1      -1.285  -0.213   0.275  0.00  0.00     0.004 A 
ATOM      3  C4  UNL d   1      -2.024   0.610   1.123  0.00  0.00    -0.003 A 
ATOM      4  C5  UNL d   1      -1.391   1.275   2.168  0.00  0.00     0.000 A 
ATOM      5  C6  UNL d   1      -0.017   1.130   2.353  0.00  0.00     0.000 A 
ATOM      6  C7  UNL d   1       0.745   0.317   1.498  0.00  0.00    -0.073 A 
ATOM      7  C8  UNL d   1       2.223   0.191   1.748  0.00  0.00     0.078 C 
ENDROOT
BRANCH   1   8
ATOM      8  C1  UNL d   1       0.842  -1.312  -0.476  0.00  0.00     0.053 C 
ATOM      9  C   UNL d   1       0.587  -0.991  -1.941  0.00  0.00     0.018 C 
ENDBRANCH   1   8
TORSDOF 1
ENDMDL
