MODEL 1
REMARK minimizedAffinity -4.73533726
REMARK minimizedRMSD -1
REMARK  1 active torsions:
REMARK  status: ('A' for Active; 'I' for Inactive)
REMARK    1  A    between atoms: C1_2  and  C2_3 
ROOT
ATOM      1  C2  UNL d   1       0.486   0.532   1.258  0.00  0.00    -0.076 A 
ATOM      2  C3  UNL d   1       1.765   0.078   1.625  0.00  0.00     0.004 A 
ATOM      3  C4  UNL d   1       2.473  -0.807   0.814  0.00  0.00    -0.003 A 
ATOM      4  C5  UNL d   1       1.913  -1.253  -0.378  0.00  0.00     0.000 A 
ATOM      5  C6  UNL d   1       0.653  -0.800  -0.767  0.00  0.00     0.000 A 
ATOM      6  C7  UNL d   1      -0.067   0.106   0.032  0.00  0.00    -0.073 A 
ATOM      7  C8  UNL d   1      -1.425   0.557  -0.433  0.00  0.00     0.078 C 
ENDROOT
BRANCH   1   8
ATOM      8  C1  UNL d   1      -0.246   1.470   2.191  0.00  0.00     0.053 C 
ATOM      9  C   UNL d   1      -1.380   0.783   2.937  0.00  0.00     0.018 C 
ENDBRANCH   1   8
TORSDOF 1
ENDMDL
