MODEL 1
REMARK minimizedAffinity 14.8113718
REMARK minimizedRMSD -1
REMARK  1 active torsions:
REMARK  status: ('A' for Active; 'I' for Inactive)
REMARK    1  A    between atoms: C3_4  and  O_7 
ROOT
ATOM      1  C   UNL d   1      -1.631  -2.179  -3.651  0.00  0.00    -0.033 A 
ATOM      2  C1  UNL d   1      -1.024  -1.799  -4.850  0.00  0.00     0.039 A 
ATOM      3  C2  UNL d   1       0.161  -1.061  -4.831  0.00  0.00    -0.080 A 
ATOM      4  C3  UNL d   1       0.728  -0.710  -3.609  0.00  0.00     0.150 A 
ATOM      5  C4  UNL d   1       0.131  -1.088  -2.411  0.00  0.00    -0.007 A 
ATOM      6  C5  UNL d   1      -1.053  -1.824  -2.432  0.00  0.00     0.039 A 
ENDROOT
BRANCH   4   7
ATOM      7  O   UNL d   1       1.881   0.014  -3.541  0.00  0.00    -0.526 OA
ATOM      8  H5  UNL d   1       2.164   0.228  -4.445  0.00  0.00     0.418 HD
ENDBRANCH   4   7
TORSDOF 1
ENDMDL
