MODEL 1
REMARK minimizedAffinity 13.638133
REMARK minimizedRMSD -1
REMARK  1 active torsions:
REMARK  status: ('A' for Active; 'I' for Inactive)
REMARK    1  A    between atoms: C3_4  and  O_7 
ROOT
ATOM      1  C   UNL d   1      -1.300  -2.511  -4.490  0.00  0.00    -0.033 A 
ATOM      2  C1  UNL d   1      -0.924  -2.266  -3.168  0.00  0.00     0.039 A 
ATOM      3  C2  UNL d   1      -0.109  -1.175  -2.862  0.00  0.00    -0.080 A 
ATOM      4  C3  UNL d   1       0.322  -0.336  -3.886  0.00  0.00     0.150 A 
ATOM      5  C4  UNL d   1      -0.051  -0.572  -5.206  0.00  0.00    -0.007 A 
ATOM      6  C5  UNL d   1      -0.865  -1.663  -5.509  0.00  0.00     0.039 A 
ENDROOT
BRANCH   4   7
ATOM      7  O   UNL d   1       1.123   0.739  -3.638  0.00  0.00    -0.526 OA
ATOM      8  H5  UNL d   1       1.323   0.760  -2.687  0.00  0.00     0.418 HD
ENDBRANCH   4   7
TORSDOF 1
ENDMDL
