MODEL 1
REMARK minimizedAffinity 2.98885036
REMARK minimizedRMSD -1
REMARK  1 active torsions:
REMARK  status: ('A' for Active; 'I' for Inactive)
REMARK    1  A    between atoms: C3_4  and  O_7 
ROOT
ATOM      1  C   UNL d   1      -0.120  -4.522  -5.998  0.00  0.00    -0.033 A 
ATOM      2  C1  UNL d   1       0.316  -5.610  -5.239  0.00  0.00     0.039 A 
ATOM      3  C2  UNL d   1      -0.394  -5.998  -4.101  0.00  0.00    -0.080 A 
ATOM      4  C3  UNL d   1      -1.536  -5.292  -3.734  0.00  0.00     0.150 A 
ATOM      5  C4  UNL d   1      -1.978  -4.210  -4.488  0.00  0.00    -0.007 A 
ATOM      6  C5  UNL d   1      -1.268  -3.824  -5.624  0.00  0.00     0.039 A 
ENDROOT
BRANCH   4   7
ATOM      7  O   UNL d   1      -2.259  -5.631  -2.629  0.00  0.00    -0.526 OA
ATOM      8  H5  UNL d   1      -1.819  -6.378  -2.191  0.00  0.00     0.418 HD
ENDBRANCH   4   7
TORSDOF 1
ENDMDL
