MODEL 1
REMARK minimizedAffinity -0.166399345
REMARK minimizedRMSD -1
REMARK  1 active torsions:
REMARK  status: ('A' for Active; 'I' for Inactive)
REMARK    1  A    between atoms: C3_4  and  O_7 
ROOT
ATOM      1  C   UNL d   1       1.482  -1.312   3.296  0.00  0.00    -0.033 A 
ATOM      2  C1  UNL d   1       2.568  -0.563   3.752  0.00  0.00     0.039 A 
ATOM      3  C2  UNL d   1       3.469  -1.119   4.662  0.00  0.00    -0.080 A 
ATOM      4  C3  UNL d   1       3.274  -2.424   5.106  0.00  0.00     0.150 A 
ATOM      5  C4  UNL d   1       2.196  -3.177   4.654  0.00  0.00    -0.007 A 
ATOM      6  C5  UNL d   1       1.297  -2.620   3.746  0.00  0.00     0.039 A 
ENDROOT
BRANCH   4   7
ATOM      7  O   UNL d   1       4.124  -3.007   5.998  0.00  0.00    -0.526 OA
ATOM      8  H5  UNL d   1       4.805  -2.359   6.244  0.00  0.00     0.418 HD
ENDBRANCH   4   7
TORSDOF 1
ENDMDL
