MODEL 1
REMARK minimizedAffinity 14.3552094
REMARK minimizedRMSD -1
REMARK  1 active torsions:
REMARK  status: ('A' for Active; 'I' for Inactive)
REMARK    1  A    between atoms: C3_4  and  O_7 
ROOT
ATOM      1  C   UNL d   1      -0.503  -0.856   1.691  0.00  0.00    -0.033 A 
ATOM      2  C1  UNL d   1       0.465  -1.835   1.925  0.00  0.00     0.039 A 
ATOM      3  C2  UNL d   1       1.575  -1.546   2.720  0.00  0.00    -0.080 A 
ATOM      4  C3  UNL d   1       1.705  -0.276   3.276  0.00  0.00     0.150 A 
ATOM      5  C4  UNL d   1       0.743   0.703   3.050  0.00  0.00    -0.007 A 
ATOM      6  C5  UNL d   1      -0.365   0.412   2.255  0.00  0.00     0.039 A 
ENDROOT
BRANCH   4   7
ATOM      7  O   UNL d   1       2.774   0.055   4.055  0.00  0.00    -0.526 OA
ATOM      8  H5  UNL d   1       3.371  -0.711   4.100  0.00  0.00     0.418 HD
ENDBRANCH   4   7
TORSDOF 1
ENDMDL
