MODEL 1
REMARK minimizedAffinity 6.54771328
REMARK minimizedRMSD -1
REMARK  1 active torsions:
REMARK  status: ('A' for Active; 'I' for Inactive)
REMARK    1  A    between atoms: C3_4  and  O_7 
ROOT
ATOM      1  C   UNL d   1       4.925  -1.291   5.425  0.00  0.00    -0.033 A 
ATOM      2  C1  UNL d   1       4.532  -2.625   5.545  0.00  0.00     0.039 A 
ATOM      3  C2  UNL d   1       3.371  -3.073   4.911  0.00  0.00    -0.080 A 
ATOM      4  C3  UNL d   1       2.615  -2.178   4.160  0.00  0.00     0.150 A 
ATOM      5  C4  UNL d   1       3.003  -0.848   4.032  0.00  0.00    -0.007 A 
ATOM      6  C5  UNL d   1       4.161  -0.403   4.667  0.00  0.00     0.039 A 
ENDROOT
BRANCH   4   7
ATOM      7  O   UNL d   1       1.472  -2.567   3.526  0.00  0.00    -0.526 OA
ATOM      8  H5  UNL d   1       1.313  -3.505   3.727  0.00  0.00     0.418 HD
ENDBRANCH   4   7
TORSDOF 1
ENDMDL
