MODEL 1
REMARK minimizedAffinity 8.17319965
REMARK minimizedRMSD -1
REMARK  1 active torsions:
REMARK  status: ('A' for Active; 'I' for Inactive)
REMARK    1  A    between atoms: C3_4  and  O_7 
ROOT
ATOM      1  C   UNL d   1      -0.406  -1.240  -5.829  0.00  0.00    -0.033 A 
ATOM      2  C1  UNL d   1       0.371  -0.345  -5.090  0.00  0.00     0.039 A 
ATOM      3  C2  UNL d   1       1.572  -0.768  -4.518  0.00  0.00    -0.080 A 
ATOM      4  C3  UNL d   1       1.985  -2.086  -4.692  0.00  0.00     0.150 A 
ATOM      5  C4  UNL d   1       1.218  -2.982  -5.430  0.00  0.00    -0.007 A 
ATOM      6  C5  UNL d   1       0.019  -2.558  -6.000  0.00  0.00     0.039 A 
ENDROOT
BRANCH   4   7
ATOM      7  O   UNL d   1       3.148  -2.546  -4.149  0.00  0.00    -0.526 OA
ATOM      8  H5  UNL d   1       3.558  -1.825  -3.643  0.00  0.00     0.418 HD
ENDBRANCH   4   7
TORSDOF 1
ENDMDL
