MODEL 1
REMARK minimizedAffinity 3.95515251
REMARK minimizedRMSD -1
REMARK  1 active torsions:
REMARK  status: ('A' for Active; 'I' for Inactive)
REMARK    1  A    between atoms: C3_4  and  O_7 
ROOT
ATOM      1  C   UNL d   1      -1.492  -3.533  -5.181  0.00  0.00    -0.033 A 
ATOM      2  C1  UNL d   1      -1.851  -2.889  -3.995  0.00  0.00     0.039 A 
ATOM      3  C2  UNL d   1      -1.213  -1.704  -3.622  0.00  0.00    -0.080 A 
ATOM      4  C3  UNL d   1      -0.220  -1.175  -4.441  0.00  0.00     0.150 A 
ATOM      5  C4  UNL d   1       0.140  -1.810  -5.626  0.00  0.00    -0.007 A 
ATOM      6  C5  UNL d   1      -0.498  -2.993  -5.996  0.00  0.00     0.039 A 
ENDROOT
BRANCH   4   7
ATOM      7  O   UNL d   1       0.435  -0.025  -4.116  0.00  0.00    -0.526 OA
ATOM      8  H5  UNL d   1       0.102   0.287  -3.258  0.00  0.00     0.418 HD
ENDBRANCH   4   7
TORSDOF 1
ENDMDL
