MODEL 1
REMARK minimizedAffinity 9.85813808
REMARK minimizedRMSD -1
REMARK  1 active torsions:
REMARK  status: ('A' for Active; 'I' for Inactive)
REMARK    1  A    between atoms: C1_2  and  C2_3 
ROOT
ATOM      1  C2  UNL d   1       0.525  -2.399   1.506  0.00  0.00    -0.073 A 
ATOM      2  C3  UNL d   1       1.619  -1.613   1.885  0.00  0.00    -0.002 A 
ATOM      3  C4  UNL d   1       2.913  -1.979   1.511  0.00  0.00     0.004 A 
ATOM      4  C5  UNL d   1       3.126  -3.129   0.751  0.00  0.00    -0.004 A 
ATOM      5  C6  UNL d   1       2.044  -3.921   0.353  0.00  0.00    -0.075 A 
ATOM      6  C7  UNL d   1       2.256  -5.162  -0.463  0.00  0.00     0.076 C 
ATOM      7  C8  UNL d   1       0.748  -3.549   0.734  0.00  0.00     0.001 A 
ENDROOT
BRANCH   1   8
ATOM      8  C1  UNL d   1      -0.875  -2.005   1.901  0.00  0.00     0.053 C 
ATOM      9  C   UNL d   1      -0.913  -1.329   3.263  0.00  0.00     0.018 C 
ENDBRANCH   1   8
TORSDOF 1
ENDMDL
