MODEL 1
REMARK minimizedAffinity 10.5954685
REMARK minimizedRMSD -1
REMARK  1 active torsions:
REMARK  status: ('A' for Active; 'I' for Inactive)
REMARK    1  A    between atoms: C1_2  and  C2_3 
ROOT
ATOM      1  C2  UNL d   1       3.676  -3.577   3.502  0.00  0.00    -0.073 A 
ATOM      2  C3  UNL d   1       3.877  -2.355   4.153  0.00  0.00    -0.002 A 
ATOM      3  C4  UNL d   1       4.507  -2.315   5.398  0.00  0.00     0.004 A 
ATOM      4  C5  UNL d   1       4.948  -3.493   6.000  0.00  0.00    -0.004 A 
ATOM      5  C6  UNL d   1       4.767  -4.723   5.359  0.00  0.00    -0.075 A 
ATOM      6  C7  UNL d   1       5.234  -6.000   5.995  0.00  0.00     0.076 C 
ATOM      7  C8  UNL d   1       4.131  -4.756   4.111  0.00  0.00     0.001 A 
ENDROOT
BRANCH   1   8
ATOM      8  C1  UNL d   1       3.002  -3.625   2.155  0.00  0.00     0.053 C 
ATOM      9  C   UNL d   1       2.685  -2.235   1.627  0.00  0.00     0.018 C 
ENDBRANCH   1   8
TORSDOF 1
ENDMDL
