MODEL 1
REMARK minimizedAffinity 10.151618
REMARK minimizedRMSD -1
REMARK  1 active torsions:
REMARK  status: ('A' for Active; 'I' for Inactive)
REMARK    1  A    between atoms: C1_2  and  C2_3 
ROOT
ATOM      1  C2  UNL d   1       2.248  -4.352  -0.012  0.00  0.00    -0.073 A 
ATOM      2  C3  UNL d   1       3.298  -3.499   0.344  0.00  0.00    -0.002 A 
ATOM      3  C4  UNL d   1       3.033  -2.206   0.796  0.00  0.00     0.004 A 
ATOM      4  C5  UNL d   1       1.717  -1.755   0.902  0.00  0.00    -0.004 A 
ATOM      5  C6  UNL d   1       0.654  -2.597   0.561  0.00  0.00    -0.075 A 
ATOM      6  C7  UNL d   1      -0.767  -2.127   0.667  0.00  0.00     0.076 C 
ATOM      7  C8  UNL d   1       0.928  -3.894   0.106  0.00  0.00     0.001 A 
ENDROOT
BRANCH   1   8
ATOM      8  C1  UNL d   1       2.529  -5.752  -0.494  0.00  0.00     0.053 C 
ATOM      9  C   UNL d   1       4.013  -5.987  -0.729  0.00  0.00     0.018 C 
ENDBRANCH   1   8
TORSDOF 1
ENDMDL
