MODEL 1
REMARK minimizedAffinity 16.007843
REMARK minimizedRMSD -1
REMARK  1 active torsions:
REMARK  status: ('A' for Active; 'I' for Inactive)
REMARK    1  A    between atoms: C1_2  and  C2_3 
ROOT
ATOM      1  C2  UNL d   1      -2.816   0.416  -2.012  0.00  0.00    -0.073 A 
ATOM      2  C3  UNL d   1      -1.420   0.355  -1.941  0.00  0.00    -0.002 A 
ATOM      3  C4  UNL d   1      -0.641   1.373  -2.495  0.00  0.00     0.004 A 
ATOM      4  C5  UNL d   1      -1.249   2.463  -3.117  0.00  0.00    -0.004 A 
ATOM      5  C6  UNL d   1      -2.643   2.548  -3.186  0.00  0.00    -0.075 A 
ATOM      6  C7  UNL d   1      -3.313   3.713  -3.854  0.00  0.00     0.076 C 
ATOM      7  C8  UNL d   1      -3.418   1.521  -2.631  0.00  0.00     0.001 A 
ENDROOT
BRANCH   1   8
ATOM      8  C1  UNL d   1      -3.661  -0.676  -1.410  0.00  0.00     0.053 C 
ATOM      9  C   UNL d   1      -4.614  -1.285  -2.426  0.00  0.00     0.018 C 
ENDBRANCH   1   8
TORSDOF 1
ENDMDL
