MODEL 1
REMARK minimizedAffinity 8.96722889
REMARK minimizedRMSD -1
REMARK  2 active torsions:
REMARK  status: ('A' for Active; 'I' for Inactive)
REMARK    1  A    between atoms: C1_2  and  C2_3 
REMARK    2  A    between atoms: C2_3  and  C3_4 
ROOT
ATOM      1  C3  UNL d   1       3.977  -4.125   2.768  0.00  0.00    -0.075 A 
ATOM      2  C4  UNL d   1       5.004  -4.492   1.886  0.00  0.00     0.002 A 
ATOM      3  C5  UNL d   1       4.866  -4.284   0.513  0.00  0.00     0.002 A 
ATOM      4  C6  UNL d   1       3.699  -3.717   0.005  0.00  0.00    -0.004 A 
ATOM      5  C7  UNL d   1       2.666  -3.365   0.870  0.00  0.00     0.002 A 
ATOM      6  C8  UNL d   1       2.803  -3.568   2.245  0.00  0.00     0.002 A 
ENDROOT
BRANCH   1   7
ATOM      7  C2  UNL d   1       4.132  -4.321   4.257  0.00  0.00     0.056 C 
BRANCH   7   8
ATOM      8  C1  UNL d   1       3.848  -3.062   5.084  0.00  0.00     0.007 C 
ATOM      9  C   UNL d   1       5.004  -2.669   5.994  0.00  0.00     0.009 C 
ENDBRANCH   7   8
ENDBRANCH   1   7
TORSDOF 2
ENDMDL
