MODEL 1
REMARK minimizedAffinity -1.76519752
REMARK minimizedRMSD -1
REMARK  2 active torsions:
REMARK  status: ('A' for Active; 'I' for Inactive)
REMARK    1  A    between atoms: C1_2  and  C2_3 
REMARK    2  A    between atoms: C2_3  and  C3_4 
ROOT
ATOM      1  C3  UNL d   1       5.030  -4.006   3.333  0.00  0.00    -0.075 A 
ATOM      2  C4  UNL d   1       5.855  -2.916   3.649  0.00  0.00     0.002 A 
ATOM      3  C5  UNL d   1       6.000  -2.498   4.972  0.00  0.00     0.002 A 
ATOM      4  C6  UNL d   1       5.317  -3.155   5.993  0.00  0.00    -0.004 A 
ATOM      5  C7  UNL d   1       4.482  -4.229   5.689  0.00  0.00     0.002 A 
ATOM      6  C8  UNL d   1       4.338  -4.652   4.367  0.00  0.00     0.002 A 
ENDROOT
BRANCH   1   7
ATOM      7  C2  UNL d   1       4.892  -4.483   1.907  0.00  0.00     0.056 C 
BRANCH   7   8
ATOM      8  C1  UNL d   1       4.505  -3.380   0.916  0.00  0.00     0.007 C 
ATOM      9  C   UNL d   1       3.015  -3.065   0.919  0.00  0.00     0.009 C 
ENDBRANCH   7   8
ENDBRANCH   1   7
TORSDOF 2
ENDMDL
