MODEL 1
REMARK minimizedAffinity 6.11963367
REMARK minimizedRMSD -1
REMARK  2 active torsions:
REMARK  status: ('A' for Active; 'I' for Inactive)
REMARK    1  A    between atoms: C1_2  and  C2_3 
REMARK    2  A    between atoms: C2_3  and  C3_4 
ROOT
ATOM      1  C3  UNL d   1       3.338  -0.401   0.059  0.00  0.00    -0.075 A 
ATOM      2  C4  UNL d   1       3.145   0.960  -0.222  0.00  0.00     0.002 A 
ATOM      3  C5  UNL d   1       4.206   1.860  -0.129  0.00  0.00     0.002 A 
ATOM      4  C6  UNL d   1       5.470   1.415   0.255  0.00  0.00    -0.004 A 
ATOM      5  C7  UNL d   1       5.669   0.069   0.553  0.00  0.00     0.002 A 
ATOM      6  C8  UNL d   1       4.610  -0.835   0.456  0.00  0.00     0.002 A 
ENDROOT
BRANCH   1   7
ATOM      7  C2  UNL d   1       2.200  -1.385  -0.068  0.00  0.00     0.056 C 
BRANCH   7   8
ATOM      8  C1  UNL d   1       2.024  -2.295   1.151  0.00  0.00     0.007 C 
ATOM      9  C   UNL d   1       2.577  -3.698   0.939  0.00  0.00     0.009 C 
ENDBRANCH   7   8
ENDBRANCH   1   7
TORSDOF 2
ENDMDL
