MODEL 1
REMARK minimizedAffinity -0.999687672
REMARK minimizedRMSD -1
REMARK  2 active torsions:
REMARK  status: ('A' for Active; 'I' for Inactive)
REMARK    1  A    between atoms: C1_2  and  C2_3 
REMARK    2  A    between atoms: C2_3  and  C3_4 
ROOT
ATOM      1  C3  UNL d   1       4.136  -3.370   1.073  0.00  0.00    -0.075 A 
ATOM      2  C4  UNL d   1       4.664  -2.193   0.524  0.00  0.00     0.002 A 
ATOM      3  C5  UNL d   1       3.817  -1.207   0.016  0.00  0.00     0.002 A 
ATOM      4  C6  UNL d   1       2.436  -1.389   0.042  0.00  0.00    -0.004 A 
ATOM      5  C7  UNL d   1       1.902  -2.562   0.570  0.00  0.00     0.002 A 
ATOM      6  C8  UNL d   1       2.747  -3.549   1.083  0.00  0.00     0.002 A 
ENDROOT
BRANCH   1   7
ATOM      7  C2  UNL d   1       5.046  -4.429   1.650  0.00  0.00     0.056 C 
BRANCH   7   8
ATOM      8  C1  UNL d   1       4.516  -5.072   2.936  0.00  0.00     0.007 C 
ATOM      9  C   UNL d   1       4.761  -4.224   4.177  0.00  0.00     0.009 C 
ENDBRANCH   7   8
ENDBRANCH   1   7
TORSDOF 2
ENDMDL
