MODEL 1
REMARK minimizedAffinity 2.42001104
REMARK minimizedRMSD -1
REMARK  2 active torsions:
REMARK  status: ('A' for Active; 'I' for Inactive)
REMARK    1  A    between atoms: C1_2  and  C2_3 
REMARK    2  A    between atoms: C2_3  and  C3_4 
ROOT
ATOM      1  C3  UNL d   1      -3.279   0.763  -5.331  0.00  0.00    -0.075 A 
ATOM      2  C4  UNL d   1      -4.441   1.173  -5.999  0.00  0.00     0.002 A 
ATOM      3  C5  UNL d   1      -5.696   0.739  -5.570  0.00  0.00     0.002 A 
ATOM      4  C6  UNL d   1      -5.804  -0.117  -4.477  0.00  0.00    -0.004 A 
ATOM      5  C7  UNL d   1      -4.654  -0.544  -3.815  0.00  0.00     0.002 A 
ATOM      6  C8  UNL d   1      -3.398  -0.108  -4.240  0.00  0.00     0.002 A 
ENDROOT
BRANCH   1   7
ATOM      7  C2  UNL d   1      -1.920   1.253  -5.772  0.00  0.00     0.056 C 
BRANCH   7   8
ATOM      8  C1  UNL d   1      -1.547   2.634  -5.224  0.00  0.00     0.007 C 
ATOM      9  C   UNL d   1      -2.394   3.055  -4.031  0.00  0.00     0.009 C 
ENDBRANCH   7   8
ENDBRANCH   1   7
TORSDOF 2
ENDMDL
