MODEL 1
REMARK minimizedAffinity -2.29392147
REMARK minimizedRMSD -1
REMARK  2 active torsions:
REMARK  status: ('A' for Active; 'I' for Inactive)
REMARK    1  A    between atoms: C1_2  and  C2_3 
REMARK    2  A    between atoms: C2_3  and  C3_4 
ROOT
ATOM      1  C3  UNL d   1       3.628  -0.459   0.040  0.00  0.00    -0.075 A 
ATOM      2  C4  UNL d   1       4.933  -0.944   0.208  0.00  0.00     0.002 A 
ATOM      3  C5  UNL d   1       5.999  -0.062   0.391  0.00  0.00     0.002 A 
ATOM      4  C6  UNL d   1       5.776   1.313   0.396  0.00  0.00    -0.004 A 
ATOM      5  C7  UNL d   1       4.486   1.806   0.213  0.00  0.00     0.002 A 
ATOM      6  C8  UNL d   1       3.417   0.926   0.035  0.00  0.00     0.002 A 
ENDROOT
BRANCH   1   7
ATOM      7  C2  UNL d   1       2.467  -1.409  -0.129  0.00  0.00     0.056 C 
BRANCH   7   8
ATOM      8  C1  UNL d   1       2.294  -2.395   1.031  0.00  0.00     0.007 C 
ATOM      9  C   UNL d   1       3.075  -3.688   0.841  0.00  0.00     0.009 C 
ENDBRANCH   7   8
ENDBRANCH   1   7
TORSDOF 2
ENDMDL
