MODEL 1
REMARK minimizedAffinity -3.21509266
REMARK minimizedRMSD -1
REMARK  1 active torsions:
REMARK  status: ('A' for Active; 'I' for Inactive)
REMARK    1  A    between atoms: C1_2  and  C2_3 
ROOT
ATOM      1  C2  UNL d   1      -0.635   0.475   0.167  0.00  0.00    -0.073 A 
ATOM      2  C3  UNL d   1      -0.027   1.736   0.164  0.00  0.00    -0.002 A 
ATOM      3  C4  UNL d   1       1.351   1.854   0.348  0.00  0.00     0.004 A 
ATOM      4  C5  UNL d   1       2.136   0.716   0.530  0.00  0.00    -0.004 A 
ATOM      5  C6  UNL d   1       1.548  -0.554   0.525  0.00  0.00    -0.075 A 
ATOM      6  C7  UNL d   1       2.378  -1.788   0.722  0.00  0.00     0.076 C 
ATOM      7  C8  UNL d   1       0.163  -0.664   0.342  0.00  0.00     0.001 A 
ENDROOT
BRANCH   1   8
ATOM      8  C1  UNL d   1      -2.122   0.342  -0.037  0.00  0.00     0.053 C 
ATOM      9  C   UNL d   1      -2.910   0.867   1.152  0.00  0.00     0.018 C 
ENDBRANCH   1   8
TORSDOF 1
ENDMDL
