MODEL 1
REMARK minimizedAffinity -3.24312973
REMARK minimizedRMSD -1
REMARK  1 active torsions:
REMARK  status: ('A' for Active; 'I' for Inactive)
REMARK    1  A    between atoms: C1_2  and  C2_3 
ROOT
ATOM      1  C2  UNL d   1      -0.123  -0.623   0.028  0.00  0.00    -0.073 A 
ATOM      2  C3  UNL d   1       0.324   0.529  -0.628  0.00  0.00    -0.002 A 
ATOM      3  C4  UNL d   1      -0.416   1.710  -0.561  0.00  0.00     0.004 A 
ATOM      4  C5  UNL d   1      -1.605   1.754   0.167  0.00  0.00    -0.004 A 
ATOM      5  C6  UNL d   1      -2.062   0.616   0.840  0.00  0.00    -0.075 A 
ATOM      6  C7  UNL d   1      -3.341   0.645   1.625  0.00  0.00     0.076 C 
ATOM      7  C8  UNL d   1      -1.315  -0.568   0.765  0.00  0.00     0.001 A 
ENDROOT
BRANCH   1   8
ATOM      8  C1  UNL d   1       0.676  -1.899  -0.036  0.00  0.00     0.053 C 
ATOM      9  C   UNL d   1       2.124  -1.646  -0.426  0.00  0.00     0.018 C 
ENDBRANCH   1   8
TORSDOF 1
ENDMDL
