MODEL 1
REMARK minimizedAffinity -5.00932407
REMARK minimizedRMSD -1
REMARK  1 active torsions:
REMARK  status: ('A' for Active; 'I' for Inactive)
REMARK    1  A    between atoms: C1_2  and  C2_3 
ROOT
ATOM      1  C2  UNL d   1      -0.329   0.654  -0.067  0.00  0.00    -0.073 A 
ATOM      2  C3  UNL d   1       0.406   1.844  -0.059  0.00  0.00    -0.002 A 
ATOM      3  C4  UNL d   1       1.772   1.827   0.228  0.00  0.00     0.004 A 
ATOM      4  C5  UNL d   1       2.416   0.621   0.503  0.00  0.00    -0.004 A 
ATOM      5  C6  UNL d   1       1.701  -0.580   0.488  0.00  0.00    -0.075 A 
ATOM      6  C7  UNL d   1       2.379  -1.886   0.784  0.00  0.00     0.076 C 
ATOM      7  C8  UNL d   1       0.329  -0.555   0.202  0.00  0.00     0.001 A 
ENDROOT
BRANCH   1   8
ATOM      8  C1  UNL d   1      -1.803   0.666  -0.382  0.00  0.00     0.053 C 
ATOM      9  C   UNL d   1      -2.608   1.394   0.683  0.00  0.00     0.018 C 
ENDBRANCH   1   8
TORSDOF 1
ENDMDL
