MODEL 1
REMARK minimizedAffinity -3.63577652
REMARK minimizedRMSD -1
REMARK  1 active torsions:
REMARK  status: ('A' for Active; 'I' for Inactive)
REMARK    1  A    between atoms: C1_2  and  C2_3 
ROOT
ATOM      1  C2  UNL d   1       1.549   0.750   0.674  0.00  0.00    -0.073 A 
ATOM      2  C3  UNL d   1       2.472  -0.254   0.985  0.00  0.00    -0.002 A 
ATOM      3  C4  UNL d   1       2.263  -1.563   0.550  0.00  0.00     0.004 A 
ATOM      4  C5  UNL d   1       1.134  -1.880  -0.206  0.00  0.00    -0.004 A 
ATOM      5  C6  UNL d   1       0.206  -0.888  -0.537  0.00  0.00    -0.075 A 
ATOM      6  C7  UNL d   1      -1.014  -1.213  -1.348  0.00  0.00     0.076 C 
ATOM      7  C8  UNL d   1       0.422   0.424  -0.094  0.00  0.00     0.001 A 
ENDROOT
BRANCH   1   8
ATOM      8  C1  UNL d   1       1.773   2.167   1.136  0.00  0.00     0.053 C 
ATOM      9  C   UNL d   1       1.360   3.182   0.082  0.00  0.00     0.018 C 
ENDBRANCH   1   8
TORSDOF 1
ENDMDL
