MODEL 1
REMARK minimizedAffinity -4.13856459
REMARK minimizedRMSD -1
REMARK  1 active torsions:
REMARK  status: ('A' for Active; 'I' for Inactive)
REMARK    1  A    between atoms: C1_2  and  C2_3 
ROOT
ATOM      1  C2  UNL d   1       1.545  -0.511   0.531  0.00  0.00    -0.073 A 
ATOM      2  C3  UNL d   1       1.013   0.772   0.704  0.00  0.00    -0.002 A 
ATOM      3  C4  UNL d   1      -0.097   1.180  -0.037  0.00  0.00     0.004 A 
ATOM      4  C5  UNL d   1      -0.690   0.310  -0.952  0.00  0.00    -0.004 A 
ATOM      5  C6  UNL d   1      -0.180  -0.981  -1.130  0.00  0.00    -0.075 A 
ATOM      6  C7  UNL d   1      -0.805  -1.928  -2.111  0.00  0.00     0.076 C 
ATOM      7  C8  UNL d   1       0.936  -1.382  -0.384  0.00  0.00     0.001 A 
ENDROOT
BRANCH   1   8
ATOM      8  C1  UNL d   1       2.739  -0.959   1.333  0.00  0.00     0.053 C 
ATOM      9  C   UNL d   1       3.682  -1.828   0.516  0.00  0.00     0.018 C 
ENDBRANCH   1   8
TORSDOF 1
ENDMDL
