MODEL 1
REMARK minimizedAffinity 1.6986506
REMARK minimizedRMSD -1
REMARK  1 active torsions:
REMARK  status: ('A' for Active; 'I' for Inactive)
REMARK    1  A    between atoms: N_2  and  C1_3 
ROOT
ATOM      1  C1  UNL d   1      -1.011   3.770  -5.849  0.00  0.00     0.143 A 
ATOM      2  C2  UNL d   1       0.017   2.822  -5.891  0.00  0.00    -0.057 A 
ATOM      3  C3  UNL d   1       1.361   3.210  -5.949  0.00  0.00     0.033 A 
ATOM      4  C4  UNL d   1       1.701   4.559  -5.995  0.00  0.00    -0.042 A 
ATOM      5  C5  UNL d   1       0.695   5.518  -5.980  0.00  0.00     0.033 A 
ATOM      6  C6  UNL d   1      -0.645   5.124  -5.915  0.00  0.00    -0.057 A 
ENDROOT
BRANCH   1   7
ATOM      7  N   UNL d   1      -2.369   3.447  -5.890  0.00  0.00    -0.732 N 
ATOM      8  C   UNL d   1      -3.376   4.477  -5.751  0.00  0.00     0.284 C 
ATOM      9  H3  UNL d   1      -2.581   2.752  -6.602  0.00  0.00     0.395 HD
ENDBRANCH   1   7
TORSDOF 1
ENDMDL
