MODEL 1
REMARK minimizedAffinity 3.65869641
REMARK minimizedRMSD -1
REMARK  1 active torsions:
REMARK  status: ('A' for Active; 'I' for Inactive)
REMARK    1  A    between atoms: N_2  and  C1_3 
ROOT
ATOM      1  C1  UNL d   1      -0.101  -1.735   0.475  0.00  0.00     0.143 A 
ATOM      2  C2  UNL d   1      -0.608  -2.965   0.911  0.00  0.00    -0.057 A 
ATOM      3  C3  UNL d   1      -1.186  -3.871   0.013  0.00  0.00     0.033 A 
ATOM      4  C4  UNL d   1      -1.294  -3.550  -1.336  0.00  0.00    -0.042 A 
ATOM      5  C5  UNL d   1      -0.820  -2.323  -1.787  0.00  0.00     0.033 A 
ATOM      6  C6  UNL d   1      -0.237  -1.425  -0.887  0.00  0.00    -0.057 A 
ENDROOT
BRANCH   1   7
ATOM      7  N   UNL d   1       0.396  -0.751   1.333  0.00  0.00    -0.732 N 
ATOM      8  C   UNL d   1      -0.016   0.629   1.188  0.00  0.00     0.284 C 
ATOM      9  H3  UNL d   1       0.452  -1.069   2.298  0.00  0.00     0.395 HD
ENDBRANCH   1   7
TORSDOF 1
ENDMDL
