MODEL 1
REMARK minimizedAffinity -3.09498715
REMARK minimizedRMSD -1
REMARK  1 active torsions:
REMARK  status: ('A' for Active; 'I' for Inactive)
REMARK    1  A    between atoms: N_2  and  C1_3 
ROOT
ATOM      1  C1  UNL d   1      -2.646   4.585  -6.000  0.00  0.00     0.143 A 
ATOM      2  C2  UNL d   1      -3.459   3.447  -5.987  0.00  0.00    -0.057 A 
ATOM      3  C3  UNL d   1      -4.855   3.552  -6.000  0.00  0.00     0.033 A 
ATOM      4  C4  UNL d   1      -5.465   4.802  -5.996  0.00  0.00    -0.042 A 
ATOM      5  C5  UNL d   1      -4.676   5.947  -5.983  0.00  0.00     0.033 A 
ATOM      6  C6  UNL d   1      -3.283   5.836  -5.977  0.00  0.00    -0.057 A 
ENDROOT
BRANCH   1   7
ATOM      7  N   UNL d   1      -1.254   4.548  -5.888  0.00  0.00    -0.732 N 
ATOM      8  C   UNL d   1      -0.542   3.290  -5.956  0.00  0.00     0.284 C 
ATOM      9  H3  UNL d   1      -0.803   5.308  -6.393  0.00  0.00     0.395 HD
ENDBRANCH   1   7
TORSDOF 1
ENDMDL
