MODEL 1
REMARK minimizedAffinity 5.64438772
REMARK minimizedRMSD -1
REMARK  1 active torsions:
REMARK  status: ('A' for Active; 'I' for Inactive)
REMARK    1  A    between atoms: N_2  and  C1_3 
ROOT
ATOM      1  C1  UNL d   1       0.359   1.413   0.475  0.00  0.00     0.143 A 
ATOM      2  C2  UNL d   1       0.865   2.717   0.501  0.00  0.00    -0.057 A 
ATOM      3  C3  UNL d   1       1.342   3.334  -0.662  0.00  0.00     0.033 A 
ATOM      4  C4  UNL d   1       1.348   2.645  -1.870  0.00  0.00    -0.042 A 
ATOM      5  C5  UNL d   1       0.873   1.339  -1.914  0.00  0.00     0.033 A 
ATOM      6  C6  UNL d   1       0.392   0.730  -0.751  0.00  0.00    -0.057 A 
ENDROOT
BRANCH   1   7
ATOM      7  N   UNL d   1      -0.038   0.709   1.615  0.00  0.00    -0.732 N 
ATOM      8  C   UNL d   1       0.073  -0.733   1.667  0.00  0.00     0.284 C 
ATOM      9  H3  UNL d   1       0.234   1.179   2.475  0.00  0.00     0.395 HD
ENDBRANCH   1   7
TORSDOF 1
ENDMDL
