MODEL 1
REMARK minimizedAffinity 6.83509684
REMARK minimizedRMSD -1
REMARK  1 active torsions:
REMARK  status: ('A' for Active; 'I' for Inactive)
REMARK    1  A    between atoms: N_2  and  C1_3 
ROOT
ATOM      1  C1  UNL d   1       0.012   4.426  -5.901  0.00  0.00     0.143 A 
ATOM      2  C2  UNL d   1      -0.477   5.737  -5.886  0.00  0.00    -0.057 A 
ATOM      3  C3  UNL d   1      -1.852   5.999  -5.900  0.00  0.00     0.033 A 
ATOM      4  C4  UNL d   1      -2.765   4.951  -5.959  0.00  0.00    -0.042 A 
ATOM      5  C5  UNL d   1      -2.302   3.641  -6.000  0.00  0.00     0.033 A 
ATOM      6  C6  UNL d   1      -0.927   3.386  -5.979  0.00  0.00    -0.057 A 
ENDROOT
BRANCH   1   7
ATOM      7  N   UNL d   1       1.369   4.103  -5.987  0.00  0.00    -0.732 N 
ATOM      8  C   UNL d   1       2.026   3.389  -4.914  0.00  0.00     0.284 C 
ATOM      9  H3  UNL d   1       1.635   3.790  -6.918  0.00  0.00     0.395 HD
ENDBRANCH   1   7
TORSDOF 1
ENDMDL
