MODEL 1
REMARK minimizedAffinity 9.16620731
REMARK minimizedRMSD -1
REMARK  1 active torsions:
REMARK  status: ('A' for Active; 'I' for Inactive)
REMARK    1  A    between atoms: N_2  and  C1_3 
ROOT
ATOM      1  C1  UNL d   1       0.208   3.453  -5.907  0.00  0.00     0.143 A 
ATOM      2  C2  UNL d   1       0.681   2.138  -5.968  0.00  0.00    -0.057 A 
ATOM      3  C3  UNL d   1       2.053   1.860  -5.999  0.00  0.00     0.033 A 
ATOM      4  C4  UNL d   1       2.979   2.898  -6.000  0.00  0.00    -0.042 A 
ATOM      5  C5  UNL d   1       2.531   4.214  -5.965  0.00  0.00     0.033 A 
ATOM      6  C6  UNL d   1       1.160   4.485  -5.927  0.00  0.00    -0.057 A 
ENDROOT
BRANCH   1   7
ATOM      7  N   UNL d   1      -1.144   3.798  -5.973  0.00  0.00    -0.732 N 
ATOM      8  C   UNL d   1      -2.166   2.773  -5.982  0.00  0.00     0.284 C 
ATOM      9  H3  UNL d   1      -1.368   4.604  -5.394  0.00  0.00     0.395 HD
ENDBRANCH   1   7
TORSDOF 1
ENDMDL
