MODEL 1
REMARK minimizedAffinity 3.35543966
REMARK minimizedRMSD -1
REMARK  1 active torsions:
REMARK  status: ('A' for Active; 'I' for Inactive)
REMARK    1  A    between atoms: N_2  and  C1_3 
ROOT
ATOM      1  C1  UNL d   1       0.955   2.528   1.382  0.00  0.00     0.143 A 
ATOM      2  C2  UNL d   1       1.939   2.865   2.318  0.00  0.00    -0.057 A 
ATOM      3  C3  UNL d   1       3.059   3.622   1.954  0.00  0.00     0.033 A 
ATOM      4  C4  UNL d   1       3.231   4.031   0.636  0.00  0.00    -0.042 A 
ATOM      5  C5  UNL d   1       2.279   3.685  -0.317  0.00  0.00     0.033 A 
ATOM      6  C6  UNL d   1       1.159   2.936   0.055  0.00  0.00    -0.057 A 
ENDROOT
BRANCH   1   7
ATOM      7  N   UNL d   1      -0.131   1.695   1.661  0.00  0.00    -0.732 N 
ATOM      8  C   UNL d   1      -0.335   0.473   0.912  0.00  0.00     0.284 C 
ATOM      9  H3  UNL d   1      -0.305   1.605   2.659  0.00  0.00     0.395 HD
ENDBRANCH   1   7
TORSDOF 1
ENDMDL
