MODEL 1
REMARK minimizedAffinity 2.09164453
REMARK minimizedRMSD -1
REMARK  1 active torsions:
REMARK  status: ('A' for Active; 'I' for Inactive)
REMARK    1  A    between atoms: N_2  and  C1_3 
ROOT
ATOM      1  C1  UNL d   1       0.425   1.961   1.023  0.00  0.00     0.143 A 
ATOM      2  C2  UNL d   1       1.254   2.351   2.081  0.00  0.00    -0.057 A 
ATOM      3  C3  UNL d   1       2.339   3.212   1.874  0.00  0.00     0.033 A 
ATOM      4  C4  UNL d   1       2.632   3.677   0.597  0.00  0.00    -0.042 A 
ATOM      5  C5  UNL d   1       1.836   3.284  -0.474  0.00  0.00     0.033 A 
ATOM      6  C6  UNL d   1       0.751   2.429  -0.260  0.00  0.00    -0.057 A 
ENDROOT
BRANCH   1   7
ATOM      7  N   UNL d   1      -0.609   1.030   1.147  0.00  0.00    -0.732 N 
ATOM      8  C   UNL d   1      -0.445  -0.322   0.658  0.00  0.00     0.284 C 
ATOM      9  H3  UNL d   1      -1.082   1.093   2.045  0.00  0.00     0.395 HD
ENDBRANCH   1   7
TORSDOF 1
ENDMDL
