MODEL 1
REMARK minimizedAffinity 1.73326027
REMARK minimizedRMSD -1
REMARK  1 active torsions:
REMARK  status: ('A' for Active; 'I' for Inactive)
REMARK    1  A    between atoms: N_2  and  C1_3 
ROOT
ATOM      1  C1  UNL d   1       1.039   2.505   0.980  0.00  0.00     0.143 A 
ATOM      2  C2  UNL d   1       1.887   2.651   2.083  0.00  0.00    -0.057 A 
ATOM      3  C3  UNL d   1       3.097   3.348   1.982  0.00  0.00     0.033 A 
ATOM      4  C4  UNL d   1       3.496   3.888   0.763  0.00  0.00    -0.042 A 
ATOM      5  C5  UNL d   1       2.681   3.733  -0.353  0.00  0.00     0.033 A 
ATOM      6  C6  UNL d   1       1.471   3.041  -0.243  0.00  0.00    -0.057 A 
ENDROOT
BRANCH   1   7
ATOM      7  N   UNL d   1      -0.129   1.739   0.993  0.00  0.00    -0.732 N 
ATOM      8  C   UNL d   1      -0.084   0.321   0.708  0.00  0.00     0.284 C 
ATOM      9  H3  UNL d   1      -0.749   1.990   1.760  0.00  0.00     0.395 HD
ENDBRANCH   1   7
TORSDOF 1
ENDMDL
