MODEL 1
REMARK minimizedAffinity 3.48380327
REMARK minimizedRMSD -1
REMARK  1 active torsions:
REMARK  status: ('A' for Active; 'I' for Inactive)
REMARK    1  A    between atoms: N_2  and  C1_3 
ROOT
ATOM      1  C1  UNL d   1      -0.255   3.511  -5.935  0.00  0.00     0.143 A 
ATOM      2  C2  UNL d   1      -1.005   2.331  -5.992  0.00  0.00    -0.057 A 
ATOM      3  C3  UNL d   1      -2.400   2.350  -5.865  0.00  0.00     0.033 A 
ATOM      4  C4  UNL d   1      -3.068   3.551  -5.648  0.00  0.00    -0.042 A 
ATOM      5  C5  UNL d   1      -2.340   4.733  -5.563  0.00  0.00     0.033 A 
ATOM      6  C6  UNL d   1      -0.949   4.708  -5.698  0.00  0.00    -0.057 A 
ENDROOT
BRANCH   1   7
ATOM      7  N   UNL d   1       1.141   3.546  -5.956  0.00  0.00    -0.732 N 
ATOM      8  C   UNL d   1       1.909   2.320  -5.988  0.00  0.00     0.284 C 
ATOM      9  H3  UNL d   1       1.502   4.279  -6.563  0.00  0.00     0.395 HD
ENDBRANCH   1   7
TORSDOF 1
ENDMDL
