MODEL 1
REMARK minimizedAffinity 8.00394917
REMARK minimizedRMSD -1
REMARK  1 active torsions:
REMARK  status: ('A' for Active; 'I' for Inactive)
REMARK    1  A    between atoms: N_2  and  C1_3 
ROOT
ATOM      1  C1  UNL d   1      -1.392   3.567  -5.916  0.00  0.00     0.143 A 
ATOM      2  C2  UNL d   1      -1.316   2.171  -5.973  0.00  0.00    -0.057 A 
ATOM      3  C3  UNL d   1      -0.081   1.512  -5.999  0.00  0.00     0.033 A 
ATOM      4  C4  UNL d   1       1.104   2.241  -5.997  0.00  0.00    -0.042 A 
ATOM      5  C5  UNL d   1       1.052   3.630  -5.966  0.00  0.00     0.033 A 
ATOM      6  C6  UNL d   1      -0.184   4.282  -5.933  0.00  0.00    -0.057 A 
ENDROOT
BRANCH   1   7
ATOM      7  N   UNL d   1      -2.588   4.284  -5.987  0.00  0.00    -0.732 N 
ATOM      8  C   UNL d   1      -3.861   3.596  -5.992  0.00  0.00     0.284 C 
ATOM      9  H3  UNL d   1      -2.572   5.125  -5.414  0.00  0.00     0.395 HD
ENDBRANCH   1   7
TORSDOF 1
ENDMDL
