MODEL 1
REMARK minimizedAffinity 5.6001749
REMARK minimizedRMSD -1
REMARK  1 active torsions:
REMARK  status: ('A' for Active; 'I' for Inactive)
REMARK    1  A    between atoms: N_2  and  C1_3 
ROOT
ATOM      1  C1  UNL d   1       0.865   3.694  -5.600  0.00  0.00     0.143 A 
ATOM      2  C2  UNL d   1       1.955   4.548  -5.802  0.00  0.00    -0.057 A 
ATOM      3  C3  UNL d   1       3.248   4.044  -5.984  0.00  0.00     0.033 A 
ATOM      4  C4  UNL d   1       3.480   2.673  -5.938  0.00  0.00    -0.042 A 
ATOM      5  C5  UNL d   1       2.416   1.807  -5.713  0.00  0.00     0.033 A 
ATOM      6  C6  UNL d   1       1.125   2.316  -5.539  0.00  0.00    -0.057 A 
ENDROOT
BRANCH   1   7
ATOM      7  N   UNL d   1      -0.429   4.138  -5.315  0.00  0.00    -0.732 N 
ATOM      8  C   UNL d   1      -1.570   3.568  -5.997  0.00  0.00     0.284 C 
ATOM      9  H3  UNL d   1      -0.575   4.296  -4.320  0.00  0.00     0.395 HD
ENDBRANCH   1   7
TORSDOF 1
ENDMDL
