MODEL 1
REMARK minimizedAffinity -2.4701798
REMARK minimizedRMSD -1
REMARK  1 active torsions:
REMARK  status: ('A' for Active; 'I' for Inactive)
REMARK    1  A    between atoms: N_2  and  C1_3 
ROOT
ATOM      1  C1  UNL d   1       0.762   4.000  -5.919  0.00  0.00     0.143 A 
ATOM      2  C2  UNL d   1       0.639   2.607  -5.956  0.00  0.00    -0.057 A 
ATOM      3  C3  UNL d   1       1.767   1.778  -5.981  0.00  0.00     0.033 A 
ATOM      4  C4  UNL d   1       3.043   2.331  -5.999  0.00  0.00    -0.042 A 
ATOM      5  C5  UNL d   1       3.190   3.714  -5.988  0.00  0.00     0.033 A 
ATOM      6  C6  UNL d   1       2.059   4.536  -5.956  0.00  0.00    -0.057 A 
ENDROOT
BRANCH   1   7
ATOM      7  N   UNL d   1      -0.321   4.879  -5.993  0.00  0.00    -0.732 N 
ATOM      8  C   UNL d   1      -1.678   4.385  -5.915  0.00  0.00     0.284 C 
ATOM      9  H3  UNL d   1      -0.160   5.738  -5.471  0.00  0.00     0.395 HD
ENDBRANCH   1   7
TORSDOF 1
ENDMDL
