MODEL 1
REMARK minimizedAffinity 0.219859466
REMARK minimizedRMSD -1
REMARK  1 active torsions:
REMARK  status: ('A' for Active; 'I' for Inactive)
REMARK    1  A    between atoms: N_2  and  C1_3 
ROOT
ATOM      1  C1  UNL d   1      -2.388   3.105  -5.919  0.00  0.00     0.143 A 
ATOM      2  C2  UNL d   1      -1.896   4.414  -5.948  0.00  0.00    -0.057 A 
ATOM      3  C3  UNL d   1      -2.761   5.515  -5.972  0.00  0.00     0.033 A 
ATOM      4  C4  UNL d   1      -4.138   5.325  -5.997  0.00  0.00    -0.042 A 
ATOM      5  C5  UNL d   1      -4.650   4.032  -5.994  0.00  0.00     0.033 A 
ATOM      6  C6  UNL d   1      -3.781   2.937  -5.963  0.00  0.00    -0.057 A 
ENDROOT
BRANCH   1   7
ATOM      7  N   UNL d   1      -1.580   1.968  -5.994  0.00  0.00    -0.732 N 
ATOM      8  C   UNL d   1      -0.138   2.088  -5.999  0.00  0.00     0.284 C 
ATOM      9  H3  UNL d   1      -1.932   1.204  -5.422  0.00  0.00     0.395 HD
ENDBRANCH   1   7
TORSDOF 1
ENDMDL
