MODEL 1
REMARK minimizedAffinity 3.61006379
REMARK minimizedRMSD -1
REMARK  1 active torsions:
REMARK  status: ('A' for Active; 'I' for Inactive)
REMARK    1  A    between atoms: N_2  and  C1_3 
ROOT
ATOM      1  C1  UNL d   1      -0.692   2.361  -5.907  0.00  0.00     0.143 A 
ATOM      2  C2  UNL d   1       0.145   1.240  -5.933  0.00  0.00    -0.057 A 
ATOM      3  C3  UNL d   1       1.538   1.375  -5.963  0.00  0.00     0.033 A 
ATOM      4  C4  UNL d   1       2.120   2.638  -5.997  0.00  0.00    -0.042 A 
ATOM      5  C5  UNL d   1       1.307   3.766  -5.997  0.00  0.00     0.033 A 
ATOM      6  C6  UNL d   1      -0.083   3.624  -5.960  0.00  0.00    -0.057 A 
ENDROOT
BRANCH   1   7
ATOM      7  N   UNL d   1      -2.086   2.292  -5.976  0.00  0.00    -0.732 N 
ATOM      8  C   UNL d   1      -2.883   3.500  -5.998  0.00  0.00     0.284 C 
ATOM      9  H3  UNL d   1      -2.408   1.570  -6.616  0.00  0.00     0.395 HD
ENDBRANCH   1   7
TORSDOF 1
ENDMDL
