MODEL 1
REMARK minimizedAffinity 2.931288
REMARK minimizedRMSD -1
REMARK  1 active torsions:
REMARK  status: ('A' for Active; 'I' for Inactive)
REMARK    1  A    between atoms: N_2  and  C1_3 
ROOT
ATOM      1  C1  UNL d   1       0.515   3.271  -5.924  0.00  0.00     0.143 A 
ATOM      2  C2  UNL d   1       0.805   1.902  -5.950  0.00  0.00    -0.057 A 
ATOM      3  C3  UNL d   1       2.127   1.441  -5.973  0.00  0.00     0.033 A 
ATOM      4  C4  UNL d   1       3.185   2.344  -6.000  0.00  0.00    -0.042 A 
ATOM      5  C5  UNL d   1       2.919   3.709  -6.000  0.00  0.00     0.033 A 
ATOM      6  C6  UNL d   1       1.597   4.163  -5.970  0.00  0.00    -0.057 A 
ENDROOT
BRANCH   1   7
ATOM      7  N   UNL d   1      -0.779   3.793  -6.000  0.00  0.00    -0.732 N 
ATOM      8  C   UNL d   1      -1.929   2.915  -6.000  0.00  0.00     0.284 C 
ATOM      9  H3  UNL d   1      -0.894   4.629  -5.432  0.00  0.00     0.395 HD
ENDBRANCH   1   7
TORSDOF 1
ENDMDL
