MODEL 1
REMARK minimizedAffinity 5.37454319
REMARK minimizedRMSD -1
REMARK  1 active torsions:
REMARK  status: ('A' for Active; 'I' for Inactive)
REMARK    1  A    between atoms: N_2  and  C1_3 
ROOT
ATOM      1  C1  UNL d   1       1.016   2.409   1.166  0.00  0.00     0.143 A 
ATOM      2  C2  UNL d   1       1.966   2.689   2.154  0.00  0.00    -0.057 A 
ATOM      3  C3  UNL d   1       3.039   3.553   1.905  0.00  0.00     0.033 A 
ATOM      4  C4  UNL d   1       3.197   4.132   0.650  0.00  0.00    -0.042 A 
ATOM      5  C5  UNL d   1       2.279   3.849  -0.354  0.00  0.00     0.033 A 
ATOM      6  C6  UNL d   1       1.205   2.991  -0.098  0.00  0.00    -0.057 A 
ENDROOT
BRANCH   1   7
ATOM      7  N   UNL d   1      -0.018   1.482   1.321  0.00  0.00    -0.732 N 
ATOM      8  C   UNL d   1      -0.026   0.253   0.558  0.00  0.00     0.284 C 
ATOM      9  H3  UNL d   1      -0.296   1.370   2.293  0.00  0.00     0.395 HD
ENDBRANCH   1   7
TORSDOF 1
ENDMDL
