MODEL 1
REMARK minimizedAffinity -5.96908522
REMARK minimizedRMSD -1
REMARK  0 active torsions:
REMARK  status: ('A' for Active; 'I' for Inactive)
ROOT
ATOM      1  O1  BZF d   1       1.205   0.087   1.875  0.00  0.00    -0.204 OA
ATOM      2  C2  BZF d   1       1.495   0.004   0.527  0.00  0.00     0.174 A 
ATOM      3  C3  BZF d   1       0.364   0.001  -0.206  0.00  0.00    -0.012 A 
ATOM      4  C3A BZF d   1      -0.697   0.181   0.737  0.00  0.00    -0.107 A 
ATOM      5  C4  BZF d   1      -2.054   0.277   0.617  0.00  0.00     0.055 A 
ATOM      6  C5  BZF d   1      -2.811   0.375   1.742  0.00  0.00    -0.016 A 
ATOM      7  C6  BZF d   1      -2.245   0.375   3.000  0.00  0.00     0.022 A 
ATOM      8  C7  BZF d   1      -0.903   0.287   3.169  0.00  0.00     0.029 A 
ATOM      9  C7A BZF d   1      -0.133   0.221   2.033  0.00  0.00     0.058 A 
ENDROOT
TORSDOF 0
ENDMDL
