MODEL 1
REMARK minimizedAffinity -4.260571
REMARK minimizedRMSD -1
REMARK  0 active torsions:
REMARK  status: ('A' for Active; 'I' for Inactive)
ROOT
ATOM      1  O1  BZF d   1      -0.418  -1.155  -0.343  0.00  0.00    -0.204 OA
ATOM      2  C2  BZF d   1       0.242  -0.233  -1.132  0.00  0.00     0.174 A 
ATOM      3  C3  BZF d   1       0.698   0.795  -0.388  0.00  0.00    -0.012 A 
ATOM      4  C3A BZF d   1       0.379   0.452   0.964  0.00  0.00    -0.107 A 
ATOM      5  C4  BZF d   1       0.590   1.068   2.164  0.00  0.00     0.055 A 
ATOM      6  C5  BZF d   1       0.088   0.503   3.294  0.00  0.00    -0.016 A 
ATOM      7  C6  BZF d   1      -0.632  -0.672   3.259  0.00  0.00     0.022 A 
ATOM      8  C7  BZF d   1      -0.863  -1.323   2.093  0.00  0.00     0.029 A 
ATOM      9  C7A BZF d   1      -0.330  -0.772   0.954  0.00  0.00     0.058 A 
ENDROOT
TORSDOF 0
ENDMDL
