MODEL 1
REMARK minimizedAffinity -4.56525278
REMARK minimizedRMSD -1
REMARK  0 active torsions:
REMARK  status: ('A' for Active; 'I' for Inactive)
ROOT
ATOM      1  O1  BZF d   1       0.653   0.317  -0.890  0.00  0.00    -0.204 OA
ATOM      2  C2  BZF d   1      -0.609   0.337  -1.453  0.00  0.00     0.174 A 
ATOM      3  C3  BZF d   1      -1.553   0.105  -0.519  0.00  0.00    -0.012 A 
ATOM      4  C3A BZF d   1      -0.844   0.022   0.721  0.00  0.00    -0.107 A 
ATOM      5  C4  BZF d   1      -1.233  -0.179   2.014  0.00  0.00     0.055 A 
ATOM      6  C5  BZF d   1      -0.285  -0.279   2.982  0.00  0.00    -0.016 A 
ATOM      7  C6  BZF d   1       1.061  -0.190   2.692  0.00  0.00     0.022 A 
ATOM      8  C7  BZF d   1       1.496   0.014   1.425  0.00  0.00     0.029 A 
ATOM      9  C7A BZF d   1       0.538   0.149   0.449  0.00  0.00     0.058 A 
ENDROOT
TORSDOF 0
ENDMDL
