MODEL 1
REMARK minimizedAffinity -5.48755455
REMARK minimizedRMSD -1
REMARK  0 active torsions:
REMARK  status: ('A' for Active; 'I' for Inactive)
ROOT
ATOM      1  O1  BZF d   1       0.911  -0.472   1.849  0.00  0.00    -0.204 OA
ATOM      2  C2  BZF d   1       0.281  -0.740   3.049  0.00  0.00     0.174 A 
ATOM      3  C3  BZF d   1      -1.036  -0.461   2.971  0.00  0.00    -0.012 A 
ATOM      4  C3A BZF d   1      -1.259  -0.075   1.611  0.00  0.00    -0.107 A 
ATOM      5  C4  BZF d   1      -2.370   0.304   0.913  0.00  0.00     0.055 A 
ATOM      6  C5  BZF d   1      -2.236   0.686  -0.384  0.00  0.00    -0.016 A 
ATOM      7  C6  BZF d   1      -1.008   0.706  -1.012  0.00  0.00     0.022 A 
ATOM      8  C7  BZF d   1       0.122   0.334  -0.362  0.00  0.00     0.029 A 
ATOM      9  C7A BZF d   1      -0.015  -0.084   0.939  0.00  0.00     0.058 A 
ENDROOT
TORSDOF 0
ENDMDL
