MODEL 1
REMARK minimizedAffinity 1.81711388
REMARK minimizedRMSD -1
REMARK  0 active torsions:
REMARK  status: ('A' for Active; 'I' for Inactive)
ROOT
ATOM      1  O1  BZF d   1       0.376   0.718  -1.768  0.00  0.00    -0.204 OA
ATOM      2  C2  BZF d   1       1.313   1.173  -0.861  0.00  0.00     0.174 A 
ATOM      3  C3  BZF d   1       0.931   0.894   0.402  0.00  0.00    -0.012 A 
ATOM      4  C3A BZF d   1      -0.279   0.141   0.272  0.00  0.00    -0.107 A 
ATOM      5  C4  BZF d   1      -1.127  -0.437   1.173  0.00  0.00     0.055 A 
ATOM      6  C5  BZF d   1      -2.259  -1.038   0.723  0.00  0.00    -0.016 A 
ATOM      7  C6  BZF d   1      -2.577  -1.076  -0.619  0.00  0.00     0.022 A 
ATOM      8  C7  BZF d   1      -1.764  -0.522  -1.551  0.00  0.00     0.029 A 
ATOM      9  C7A BZF d   1      -0.602   0.058  -1.102  0.00  0.00     0.058 A 
ENDROOT
TORSDOF 0
ENDMDL
