MODEL 1
REMARK minimizedAffinity -1.55252993
REMARK minimizedRMSD -1
REMARK  0 active torsions:
REMARK  status: ('A' for Active; 'I' for Inactive)
ROOT
ATOM      1  O1  BZF d   1       0.444   0.227   0.050  0.00  0.00    -0.204 OA
ATOM      2  C2  BZF d   1      -0.308  -0.610  -0.751  0.00  0.00     0.174 A 
ATOM      3  C3  BZF d   1      -1.083  -1.420  -0.001  0.00  0.00    -0.012 A 
ATOM      4  C3A BZF d   1      -0.866  -1.004   1.351  0.00  0.00    -0.107 A 
ATOM      5  C4  BZF d   1      -1.366  -1.418   2.552  0.00  0.00     0.055 A 
ATOM      6  C5  BZF d   1      -0.893  -0.852   3.694  0.00  0.00    -0.016 A 
ATOM      7  C6  BZF d   1       0.082   0.123   3.672  0.00  0.00     0.022 A 
ATOM      8  C7  BZF d   1       0.605   0.569   2.503  0.00  0.00     0.029 A 
ATOM      9  C7A BZF d   1       0.105   0.024   1.346  0.00  0.00     0.058 A 
ENDROOT
TORSDOF 0
ENDMDL
