MODEL 1
REMARK minimizedAffinity -5.20266008
REMARK minimizedRMSD -1
REMARK  0 active torsions:
REMARK  status: ('A' for Active; 'I' for Inactive)
ROOT
ATOM      1  O1  BZF d   1       1.034   1.567   0.964  0.00  0.00    -0.204 OA
ATOM      2  C2  BZF d   1       0.868   1.287  -0.379  0.00  0.00     0.174 A 
ATOM      3  C3  BZF d   1       0.041   0.235  -0.550  0.00  0.00    -0.012 A 
ATOM      4  C3A BZF d   1      -0.406  -0.110   0.765  0.00  0.00    -0.107 A 
ATOM      5  C4  BZF d   1      -1.256  -1.064   1.247  0.00  0.00     0.055 A 
ATOM      6  C5  BZF d   1      -1.421  -1.182   2.591  0.00  0.00    -0.016 A 
ATOM      7  C6  BZF d   1      -0.749  -0.369   3.480  0.00  0.00     0.022 A 
ATOM      8  C7  BZF d   1       0.101   0.594   3.049  0.00  0.00     0.029 A 
ATOM      9  C7A BZF d   1       0.245   0.739   1.690  0.00  0.00     0.058 A 
ENDROOT
TORSDOF 0
ENDMDL
