MODEL 1
REMARK minimizedAffinity -1.81601
REMARK minimizedRMSD -1
REMARK  0 active torsions:
REMARK  status: ('A' for Active; 'I' for Inactive)
ROOT
ATOM      1  O1  BZF d   1      -0.561  -1.085  -1.100  0.00  0.00    -0.204 OA
ATOM      2  C2  BZF d   1       0.021  -0.270  -2.051  0.00  0.00     0.174 A 
ATOM      3  C3  BZF d   1       0.722   0.723  -1.466  0.00  0.00    -0.012 A 
ATOM      4  C3A BZF d   1       0.644   0.462  -0.062  0.00  0.00    -0.107 A 
ATOM      5  C4  BZF d   1       1.155   1.088   1.039  0.00  0.00     0.055 A 
ATOM      6  C5  BZF d   1       0.833   0.620   2.274  0.00  0.00    -0.016 A 
ATOM      7  C6  BZF d   1       0.000  -0.467   2.444  0.00  0.00     0.022 A 
ATOM      8  C7  BZF d   1      -0.526  -1.124   1.382  0.00  0.00     0.029 A 
ATOM      9  C7A BZF d   1      -0.176  -0.673   0.132  0.00  0.00     0.058 A 
ENDROOT
TORSDOF 0
ENDMDL
