MODEL 1
REMARK minimizedAffinity -3.5626297
REMARK minimizedRMSD -1
REMARK  0 active torsions:
REMARK  status: ('A' for Active; 'I' for Inactive)
ROOT
ATOM      1  O1  BZF d   1      -0.498  -1.168   0.036  0.00  0.00    -0.204 OA
ATOM      2  C2  BZF d   1       0.055  -0.328  -0.911  0.00  0.00     0.174 A 
ATOM      3  C3  BZF d   1       0.656   0.727  -0.323  0.00  0.00    -0.012 A 
ATOM      4  C3A BZF d   1       0.547   0.486   1.083  0.00  0.00    -0.107 A 
ATOM      5  C4  BZF d   1       0.966   1.170   2.188  0.00  0.00     0.055 A 
ATOM      6  C5  BZF d   1       0.635   0.702   3.420  0.00  0.00    -0.016 A 
ATOM      7  C6  BZF d   1      -0.118  -0.442   3.584  0.00  0.00     0.022 A 
ATOM      8  C7  BZF d   1      -0.552  -1.157   2.518  0.00  0.00     0.029 A 
ATOM      9  C7A BZF d   1      -0.191  -0.705   1.272  0.00  0.00     0.058 A 
ENDROOT
TORSDOF 0
ENDMDL
