MODEL 1
REMARK minimizedAffinity -5.64973021
REMARK minimizedRMSD -1
REMARK  0 active torsions:
REMARK  status: ('A' for Active; 'I' for Inactive)
ROOT
ATOM      1  O1  BZF d   1       0.793  -0.122   2.645  0.00  0.00    -0.204 OA
ATOM      2  C2  BZF d   1       1.556  -0.163   1.494  0.00  0.00     0.174 A 
ATOM      3  C3  BZF d   1       0.771  -0.104   0.398  0.00  0.00    -0.012 A 
ATOM      4  C3A BZF d   1      -0.559   0.072   0.897  0.00  0.00    -0.107 A 
ATOM      5  C4  BZF d   1      -1.776   0.215   0.295  0.00  0.00     0.055 A 
ATOM      6  C5  BZF d   1      -2.890   0.294   1.069  0.00  0.00    -0.016 A 
ATOM      7  C6  BZF d   1      -2.825   0.229   2.445  0.00  0.00     0.022 A 
ATOM      8  C7  BZF d   1      -1.639   0.094   3.088  0.00  0.00     0.029 A 
ATOM      9  C7A BZF d   1      -0.508   0.046   2.310  0.00  0.00     0.058 A 
ENDROOT
TORSDOF 0
ENDMDL
