MODEL 1
REMARK minimizedAffinity -4.72798538
REMARK minimizedRMSD -1
REMARK  0 active torsions:
REMARK  status: ('A' for Active; 'I' for Inactive)
ROOT
ATOM      1  O1  BZF d   1       0.644  -0.490   2.789  0.00  0.00    -0.204 OA
ATOM      2  C2  BZF d   1      -0.432  -1.349   2.679  0.00  0.00     0.174 A 
ATOM      3  C3  BZF d   1      -1.002  -1.249   1.461  0.00  0.00    -0.012 A 
ATOM      4  C3A BZF d   1      -0.177  -0.333   0.734  0.00  0.00    -0.107 A 
ATOM      5  C4  BZF d   1      -0.217   0.160  -0.539  0.00  0.00     0.055 A 
ATOM      6  C5  BZF d   1       0.695   1.095  -0.914  0.00  0.00    -0.016 A 
ATOM      7  C6  BZF d   1       1.657   1.562  -0.042  0.00  0.00     0.022 A 
ATOM      8  C7  BZF d   1       1.739   1.099   1.229  0.00  0.00     0.029 A 
ATOM      9  C7A BZF d   1       0.840   0.130   1.601  0.00  0.00     0.058 A 
ENDROOT
TORSDOF 0
ENDMDL
