MODEL 1
REMARK minimizedAffinity -4.10041904
REMARK minimizedRMSD -1
REMARK  0 active torsions:
REMARK  status: ('A' for Active; 'I' for Inactive)
ROOT
ATOM      1  O1  BZF d   1      -1.666  -0.651   1.841  0.00  0.00    -0.204 OA
ATOM      2  C2  BZF d   1      -0.892  -0.589   2.984  0.00  0.00     0.174 A 
ATOM      3  C3  BZF d   1       0.365  -0.199   2.690  0.00  0.00    -0.012 A 
ATOM      4  C3A BZF d   1       0.352   0.085   1.287  0.00  0.00    -0.107 A 
ATOM      5  C4  BZF d   1       1.300   0.529   0.411  0.00  0.00     0.055 A 
ATOM      6  C5  BZF d   1       0.985   0.633  -0.907  0.00  0.00    -0.016 A 
ATOM      7  C6  BZF d   1      -0.265   0.295  -1.383  0.00  0.00     0.022 A 
ATOM      8  C7  BZF d   1      -1.240  -0.145  -0.551  0.00  0.00     0.029 A 
ATOM      9  C7A BZF d   1      -0.935  -0.219   0.786  0.00  0.00     0.058 A 
ENDROOT
TORSDOF 0
ENDMDL
