MODEL 1
REMARK minimizedAffinity -5.29401159
REMARK minimizedRMSD -1
REMARK  0 active torsions:
REMARK  status: ('A' for Active; 'I' for Inactive)
ROOT
ATOM      1  O1  BZF d   1      -0.974  -0.196  -0.033  0.00  0.00    -0.204 OA
ATOM      2  C2  BZF d   1      -0.071   0.074  -1.043  0.00  0.00     0.174 A 
ATOM      3  C3  BZF d   1       1.179   0.184  -0.549  0.00  0.00    -0.012 A 
ATOM      4  C3A BZF d   1       1.062  -0.122   0.843  0.00  0.00    -0.107 A 
ATOM      5  C4  BZF d   1       1.963  -0.196   1.867  0.00  0.00     0.055 A 
ATOM      6  C5  BZF d   1       1.514  -0.449   3.125  0.00  0.00    -0.016 A 
ATOM      7  C6  BZF d   1       0.173  -0.627   3.395  0.00  0.00     0.022 A 
ATOM      8  C7  BZF d   1      -0.758  -0.568   2.411  0.00  0.00     0.029 A 
ATOM      9  C7A BZF d   1      -0.303  -0.346   1.134  0.00  0.00     0.058 A 
ENDROOT
TORSDOF 0
ENDMDL
