MODEL 1
REMARK minimizedAffinity -3.51133966
REMARK minimizedRMSD -1
REMARK  0 active torsions:
REMARK  status: ('A' for Active; 'I' for Inactive)
ROOT
ATOM      1  O1  BZF d   1      -1.948  -0.367   0.971  0.00  0.00    -0.204 OA
ATOM      2  C2  BZF d   1      -2.320   0.223  -0.221  0.00  0.00     0.174 A 
ATOM      3  C3  BZF d   1      -1.371   1.081  -0.647  0.00  0.00    -0.012 A 
ATOM      4  C3A BZF d   1      -0.300   0.955   0.293  0.00  0.00    -0.107 A 
ATOM      5  C4  BZF d   1       0.930   1.540   0.400  0.00  0.00     0.055 A 
ATOM      6  C5  BZF d   1       1.706   1.253   1.478  0.00  0.00    -0.016 A 
ATOM      7  C6  BZF d   1       1.283   0.392   2.469  0.00  0.00     0.022 A 
ATOM      8  C7  BZF d   1       0.073  -0.216   2.405  0.00  0.00     0.029 A 
ATOM      9  C7A BZF d   1      -0.700   0.046   1.300  0.00  0.00     0.058 A 
ENDROOT
TORSDOF 0
ENDMDL
