MODEL 1
REMARK minimizedAffinity -4.00315809
REMARK minimizedRMSD -1
REMARK  0 active torsions:
REMARK  status: ('A' for Active; 'I' for Inactive)
ROOT
ATOM      1  O1  BZF d   1       0.282   0.564   2.826  0.00  0.00    -0.204 OA
ATOM      2  C2  BZF d   1      -0.802  -0.173   3.260  0.00  0.00     0.174 A 
ATOM      3  C3  BZF d   1      -1.541  -0.598   2.216  0.00  0.00    -0.012 A 
ATOM      4  C3A BZF d   1      -0.827  -0.173   1.051  0.00  0.00    -0.107 A 
ATOM      5  C4  BZF d   1      -1.049  -0.310  -0.289  0.00  0.00     0.055 A 
ATOM      6  C5  BZF d   1      -0.198   0.286  -1.165  0.00  0.00    -0.016 A 
ATOM      7  C6  BZF d   1       0.882   1.030  -0.735  0.00  0.00     0.022 A 
ATOM      8  C7  BZF d   1       1.146   1.191   0.585  0.00  0.00     0.029 A 
ATOM      9  C7A BZF d   1       0.306   0.562   1.471  0.00  0.00     0.058 A 
ENDROOT
TORSDOF 0
ENDMDL
