MODEL 1
REMARK minimizedAffinity -4.38405848
REMARK minimizedRMSD -1
REMARK  0 active torsions:
REMARK  status: ('A' for Active; 'I' for Inactive)
ROOT
ATOM      1  O1  BZF d   1      -2.031   0.220   1.074  0.00  0.00    -0.204 OA
ATOM      2  C2  BZF d   1      -2.106   0.456  -0.285  0.00  0.00     0.174 A 
ATOM      3  C3  BZF d   1      -0.880   0.683  -0.800  0.00  0.00    -0.012 A 
ATOM      4  C3A BZF d   1       0.027   0.491   0.290  0.00  0.00    -0.107 A 
ATOM      5  C4  BZF d   1       1.386   0.560   0.403  0.00  0.00     0.055 A 
ATOM      6  C5  BZF d   1       1.956   0.390   1.625  0.00  0.00    -0.016 A 
ATOM      7  C6  BZF d   1       1.198   0.156   2.754  0.00  0.00     0.022 A 
ATOM      8  C7  BZF d   1      -0.153   0.074   2.690  0.00  0.00     0.029 A 
ATOM      9  C7A BZF d   1      -0.730   0.212   1.451  0.00  0.00     0.058 A 
ENDROOT
TORSDOF 0
ENDMDL
