MODEL 1
REMARK minimizedAffinity -5.0748601
REMARK minimizedRMSD -1
REMARK  0 active torsions:
REMARK  status: ('A' for Active; 'I' for Inactive)
ROOT
ATOM      1  O1  BZF d   1      -0.797  -1.217  -0.585  0.00  0.00    -0.204 OA
ATOM      2  C2  BZF d   1      -0.086  -0.560  -1.571  0.00  0.00     0.174 A 
ATOM      3  C3  BZF d   1       0.748   0.353  -1.033  0.00  0.00    -0.012 A 
ATOM      4  C3A BZF d   1       0.612   0.197   0.383  0.00  0.00    -0.107 A 
ATOM      5  C4  BZF d   1       1.194   0.811   1.455  0.00  0.00     0.055 A 
ATOM      6  C5  BZF d   1       0.788   0.477   2.708  0.00  0.00    -0.016 A 
ATOM      7  C6  BZF d   1      -0.200  -0.461   2.926  0.00  0.00     0.022 A 
ATOM      8  C7  BZF d   1      -0.804  -1.100   1.894  0.00  0.00     0.029 A 
ATOM      9  C7A BZF d   1      -0.372  -0.789   0.628  0.00  0.00     0.058 A 
ENDROOT
TORSDOF 0
ENDMDL
