MODEL 1
REMARK minimizedAffinity -3.15842509
REMARK minimizedRMSD -1
REMARK  0 active torsions:
REMARK  status: ('A' for Active; 'I' for Inactive)
ROOT
ATOM      1  O1  BZF d   1      -1.042  -0.889  -0.768  0.00  0.00    -0.204 OA
ATOM      2  C2  BZF d   1      -0.293  -0.445  -1.841  0.00  0.00     0.174 A 
ATOM      3  C3  BZF d   1       0.751   0.298  -1.420  0.00  0.00    -0.012 A 
ATOM      4  C3A BZF d   1       0.700   0.244   0.009  0.00  0.00    -0.107 A 
ATOM      5  C4  BZF d   1       1.480   0.773   0.997  0.00  0.00     0.055 A 
ATOM      6  C5  BZF d   1       1.116   0.593   2.293  0.00  0.00    -0.016 A 
ATOM      7  C6  BZF d   1      -0.023  -0.104   2.638  0.00  0.00     0.022 A 
ATOM      8  C7  BZF d   1      -0.826  -0.652   1.693  0.00  0.00     0.029 A 
ATOM      9  C7A BZF d   1      -0.443  -0.500   0.383  0.00  0.00     0.058 A 
ENDROOT
TORSDOF 0
ENDMDL
