MODEL 1
REMARK minimizedAffinity 0.625326991
REMARK minimizedRMSD -1
REMARK  0 active torsions:
REMARK  status: ('A' for Active; 'I' for Inactive)
ROOT
ATOM      1  C   UNL d   1      -1.971  -3.034   3.139  0.00  0.00     0.172 C 
ATOM      2  N   UNL d   1      -1.458  -3.186   1.798  0.00  0.00    -0.070 N 
ATOM      3  C1  UNL d   1      -0.820  -4.295   1.308  0.00  0.00    -0.004 A 
ATOM      4  C2  UNL d   1      -0.490  -4.045  -0.006  0.00  0.00    -0.047 A 
ATOM      5  C3  UNL d   1      -0.945  -2.742  -0.317  0.00  0.00    -0.047 A 
ATOM      6  C4  UNL d   1      -1.540  -2.233   0.817  0.00  0.00    -0.004 A 
ENDROOT
TORSDOF 0
ENDMDL
