MODEL 1
REMARK minimizedAffinity 3.60499287
REMARK minimizedRMSD -1
REMARK  0 active torsions:
REMARK  status: ('A' for Active; 'I' for Inactive)
ROOT
ATOM      1  C   UNL d   1      -5.965   5.994   2.867  0.00  0.00     0.172 C 
ATOM      2  N   UNL d   1      -5.493   5.402   1.637  0.00  0.00    -0.070 N 
ATOM      3  C1  UNL d   1      -5.995   5.651   0.388  0.00  0.00    -0.004 A 
ATOM      4  C2  UNL d   1      -5.276   4.895  -0.513  0.00  0.00    -0.047 A 
ATOM      5  C3  UNL d   1      -4.310   4.166   0.220  0.00  0.00    -0.047 A 
ATOM      6  C4  UNL d   1      -4.467   4.499   1.549  0.00  0.00    -0.004 A 
ENDROOT
TORSDOF 0
ENDMDL
