MODEL 1
REMARK minimizedAffinity 5.95279169
REMARK minimizedRMSD -1
REMARK  0 active torsions:
REMARK  status: ('A' for Active; 'I' for Inactive)
ROOT
ATOM      1  C   UNL d   1      -0.382  -5.998   2.362  0.00  0.00     0.172 C 
ATOM      2  N   UNL d   1      -0.645  -4.776   1.639  0.00  0.00    -0.070 N 
ATOM      3  C1  UNL d   1      -0.690  -4.649   0.276  0.00  0.00    -0.004 A 
ATOM      4  C2  UNL d   1      -0.968  -3.331  -0.015  0.00  0.00    -0.047 A 
ATOM      5  C3  UNL d   1      -1.094  -2.642   1.215  0.00  0.00    -0.047 A 
ATOM      6  C4  UNL d   1      -0.890  -3.561   2.222  0.00  0.00    -0.004 A 
ENDROOT
TORSDOF 0
ENDMDL
