MODEL 1
REMARK minimizedAffinity 5.71030569
REMARK minimizedRMSD -1
REMARK  0 active torsions:
REMARK  status: ('A' for Active; 'I' for Inactive)
ROOT
ATOM      1  C   UNL d   1       3.960   2.604   1.138  0.00  0.00     0.172 C 
ATOM      2  N   UNL d   1       4.584   3.865   0.810  0.00  0.00    -0.070 N 
ATOM      3  C1  UNL d   1       4.442   5.032   1.511  0.00  0.00    -0.004 A 
ATOM      4  C2  UNL d   1       5.195   5.998   0.880  0.00  0.00    -0.047 A 
ATOM      5  C3  UNL d   1       5.811   5.390  -0.240  0.00  0.00    -0.047 A 
ATOM      6  C4  UNL d   1       5.415   4.069  -0.259  0.00  0.00    -0.004 A 
ENDROOT
TORSDOF 0
ENDMDL
