MODEL 1
REMARK minimizedAffinity 2.64919257
REMARK minimizedRMSD -1
REMARK  0 active torsions:
REMARK  status: ('A' for Active; 'I' for Inactive)
ROOT
ATOM      1  C   UNL d   1      -4.453   2.520  -5.844  0.00  0.00     0.172 C 
ATOM      2  N   UNL d   1      -4.803   3.896  -5.580  0.00  0.00    -0.070 N 
ATOM      3  C1  UNL d   1      -4.037   4.797  -4.890  0.00  0.00    -0.004 A 
ATOM      4  C2  UNL d   1      -4.719   5.994  -4.857  0.00  0.00    -0.047 A 
ATOM      5  C3  UNL d   1      -5.937   5.806  -5.551  0.00  0.00    -0.047 A 
ATOM      6  C4  UNL d   1      -5.964   4.498  -5.989  0.00  0.00    -0.004 A 
ENDROOT
TORSDOF 0
ENDMDL
