MODEL 1
REMARK minimizedAffinity 2.40671945
REMARK minimizedRMSD -1
REMARK  0 active torsions:
REMARK  status: ('A' for Active; 'I' for Inactive)
ROOT
ATOM      1  C   UNL d   1      -4.449   2.603  -5.963  0.00  0.00     0.172 C 
ATOM      2  N   UNL d   1      -4.827   3.952  -5.615  0.00  0.00    -0.070 N 
ATOM      3  C1  UNL d   1      -4.086   4.819  -4.856  0.00  0.00    -0.004 A 
ATOM      4  C2  UNL d   1      -4.790   6.000  -4.756  0.00  0.00    -0.047 A 
ATOM      5  C3  UNL d   1      -5.996   5.837  -5.478  0.00  0.00    -0.047 A 
ATOM      6  C4  UNL d   1      -5.993   4.560  -6.000  0.00  0.00    -0.004 A 
ENDROOT
TORSDOF 0
ENDMDL
