MODEL 1
REMARK minimizedAffinity 7.68874931
REMARK minimizedRMSD -1
REMARK  0 active torsions:
REMARK  status: ('A' for Active; 'I' for Inactive)
ROOT
ATOM      1  C   UNL d   1      -0.265  -4.361   0.007  0.00  0.00     0.172 C 
ATOM      2  N   UNL d   1      -0.792  -3.042  -0.251  0.00  0.00    -0.070 N 
ATOM      3  C1  UNL d   1      -1.706  -2.381   0.526  0.00  0.00    -0.004 A 
ATOM      4  C2  UNL d   1      -1.949  -1.157  -0.057  0.00  0.00    -0.047 A 
ATOM      5  C3  UNL d   1      -1.155  -1.079  -1.225  0.00  0.00    -0.047 A 
ATOM      6  C4  UNL d   1      -0.449  -2.259  -1.321  0.00  0.00    -0.004 A 
ENDROOT
TORSDOF 0
ENDMDL
