MODEL 1
REMARK minimizedAffinity 3.15631366
REMARK minimizedRMSD -1
REMARK  0 active torsions:
REMARK  status: ('A' for Active; 'I' for Inactive)
ROOT
ATOM      1  C   UNL d   1      -3.185   3.400  -4.524  0.00  0.00     0.172 C 
ATOM      2  N   UNL d   1      -4.259   4.292  -4.894  0.00  0.00    -0.070 N 
ATOM      3  C1  UNL d   1      -4.614   5.434  -4.226  0.00  0.00    -0.004 A 
ATOM      4  C2  UNL d   1      -5.679   5.998  -4.894  0.00  0.00    -0.047 A 
ATOM      5  C3  UNL d   1      -5.975   5.167  -6.000  0.00  0.00    -0.047 A 
ATOM      6  C4  UNL d   1      -5.081   4.118  -5.976  0.00  0.00    -0.004 A 
ENDROOT
TORSDOF 0
ENDMDL
