MODEL 1
REMARK minimizedAffinity 6.04469299
REMARK minimizedRMSD -1
REMARK  0 active torsions:
REMARK  status: ('A' for Active; 'I' for Inactive)
ROOT
ATOM      1  C   UNL d   1       5.308   4.597  -0.406  0.00  0.00     0.172 C 
ATOM      2  N   UNL d   1       4.305   3.558  -0.383  0.00  0.00    -0.070 N 
ATOM      3  C1  UNL d   1       3.641   3.066  -1.475  0.00  0.00    -0.004 A 
ATOM      4  C2  UNL d   1       2.772   2.091  -1.035  0.00  0.00    -0.047 A 
ATOM      5  C3  UNL d   1       2.918   1.995   0.369  0.00  0.00    -0.047 A 
ATOM      6  C4  UNL d   1       3.874   2.914   0.746  0.00  0.00    -0.004 A 
ENDROOT
TORSDOF 0
ENDMDL
