MODEL 1
REMARK minimizedAffinity -2.3229785
REMARK minimizedRMSD -1
REMARK  0 active torsions:
REMARK  status: ('A' for Active; 'I' for Inactive)
ROOT
ATOM      1  C   UNL d   1      -2.111  -1.497   5.521  0.00  0.00     0.172 C 
ATOM      2  N   UNL d   1      -3.159  -0.510   5.642  0.00  0.00    -0.070 N 
ATOM      3  C1  UNL d   1      -4.456  -0.764   5.999  0.00  0.00    -0.004 A 
ATOM      4  C2  UNL d   1      -5.136   0.435   6.000  0.00  0.00    -0.047 A 
ATOM      5  C3  UNL d   1      -4.215   1.444   5.629  0.00  0.00    -0.047 A 
ATOM      6  C4  UNL d   1      -2.999   0.831   5.413  0.00  0.00    -0.004 A 
ENDROOT
TORSDOF 0
ENDMDL
