MODEL 1
REMARK minimizedAffinity 5.75438499
REMARK minimizedRMSD -1
REMARK  0 active torsions:
REMARK  status: ('A' for Active; 'I' for Inactive)
ROOT
ATOM      1  C   UNL d   1      -3.020   1.704  -3.509  0.00  0.00     0.172 C 
ATOM      2  N   UNL d   1      -1.996   2.330  -4.312  0.00  0.00    -0.070 N 
ATOM      3  C1  UNL d   1      -0.645   2.182  -4.141  0.00  0.00    -0.004 A 
ATOM      4  C2  UNL d   1      -0.013   2.937  -5.105  0.00  0.00    -0.047 A 
ATOM      5  C3  UNL d   1      -1.018   3.560  -5.882  0.00  0.00    -0.047 A 
ATOM      6  C4  UNL d   1      -2.236   3.167  -5.370  0.00  0.00    -0.004 A 
ENDROOT
TORSDOF 0
ENDMDL
