MODEL 1
REMARK minimizedAffinity 6.391572
REMARK minimizedRMSD -1
REMARK  0 active torsions:
REMARK  status: ('A' for Active; 'I' for Inactive)
ROOT
ATOM      1  C   UNL d   1       4.874   3.401   2.587  0.00  0.00     0.172 C 
ATOM      2  N   UNL d   1       4.847   3.835   3.964  0.00  0.00    -0.070 N 
ATOM      3  C1  UNL d   1       5.918   4.307   4.674  0.00  0.00    -0.004 A 
ATOM      4  C2  UNL d   1       5.480   4.613   5.944  0.00  0.00    -0.047 A 
ATOM      5  C3  UNL d   1       4.098   4.314   6.000  0.00  0.00    -0.047 A 
ATOM      6  C4  UNL d   1       3.732   3.833   4.760  0.00  0.00    -0.004 A 
ENDROOT
TORSDOF 0
ENDMDL
