MODEL 1
REMARK minimizedAffinity 3.3403132
REMARK minimizedRMSD -1
REMARK  0 active torsions:
REMARK  status: ('A' for Active; 'I' for Inactive)
ROOT
ATOM      1  C   UNL d   1       6.000   1.311  -2.971  0.00  0.00     0.172 C 
ATOM      2  N   UNL d   1       5.245   2.048  -1.985  0.00  0.00    -0.070 N 
ATOM      3  C1  UNL d   1       5.766   2.931  -1.076  0.00  0.00    -0.004 A 
ATOM      4  C2  UNL d   1       4.725   3.421  -0.319  0.00  0.00    -0.047 A 
ATOM      5  C3  UNL d   1       3.537   2.811  -0.787  0.00  0.00    -0.047 A 
ATOM      6  C4  UNL d   1       3.888   1.966  -1.819  0.00  0.00    -0.004 A 
ENDROOT
TORSDOF 0
ENDMDL
