MODEL 1
REMARK minimizedAffinity -3.54068685
REMARK minimizedRMSD -1
REMARK  0 active torsions:
REMARK  status: ('A' for Active; 'I' for Inactive)
ROOT
ATOM      1  O1  BZF d   1       2.146  -1.223   0.622  0.00  0.00    -0.204 OA
ATOM      2  C2  BZF d   1       1.587  -1.204  -0.642  0.00  0.00     0.174 A 
ATOM      3  C3  BZF d   1       0.339  -0.694  -0.606  0.00  0.00    -0.012 A 
ATOM      4  C3A BZF d   1       0.138  -0.289   0.751  0.00  0.00    -0.107 A 
ATOM      5  C4  BZF d   1      -0.902   0.303   1.410  0.00  0.00     0.055 A 
ATOM      6  C5  BZF d   1      -0.809   0.498   2.751  0.00  0.00    -0.016 A 
ATOM      7  C6  BZF d   1       0.305   0.110   3.466  0.00  0.00     0.022 A 
ATOM      8  C7  BZF d   1       1.364  -0.476   2.856  0.00  0.00     0.029 A 
ATOM      9  C7A BZF d   1       1.287  -0.645   1.495  0.00  0.00     0.058 A 
ENDROOT
TORSDOF 0
ENDMDL
