MODEL 1
REMARK minimizedAffinity -4.00583315
REMARK minimizedRMSD -1
REMARK  0 active torsions:
REMARK  status: ('A' for Active; 'I' for Inactive)
ROOT
ATOM      1  O1  BZF d   1       2.297  -0.830  -1.335  0.00  0.00    -0.204 OA
ATOM      2  C2  BZF d   1       1.302  -1.491  -0.640  0.00  0.00     0.174 A 
ATOM      3  C3  BZF d   1       0.114  -1.356  -1.262  0.00  0.00    -0.012 A 
ATOM      4  C3A BZF d   1       0.399  -0.639  -2.467  0.00  0.00    -0.107 A 
ATOM      5  C4  BZF d   1      -0.372  -0.215  -3.512  0.00  0.00     0.055 A 
ATOM      6  C5  BZF d   1       0.202   0.523  -4.498  0.00  0.00    -0.016 A 
ATOM      7  C6  BZF d   1       1.540   0.859  -4.470  0.00  0.00     0.022 A 
ATOM      8  C7  BZF d   1       2.345   0.456  -3.457  0.00  0.00     0.029 A 
ATOM      9  C7A BZF d   1       1.776  -0.318  -2.475  0.00  0.00     0.058 A 
ENDROOT
TORSDOF 0
ENDMDL
