MODEL 1
REMARK minimizedAffinity -3.58545446
REMARK minimizedRMSD -1
REMARK  0 active torsions:
REMARK  status: ('A' for Active; 'I' for Inactive)
ROOT
ATOM      1  O1  BZF d   1       0.196   1.164   3.089  0.00  0.00    -0.204 OA
ATOM      2  C2  BZF d   1      -1.092   1.346   3.556  0.00  0.00     0.174 A 
ATOM      3  C3  BZF d   1      -1.994   0.902   2.656  0.00  0.00    -0.012 A 
ATOM      4  C3A BZF d   1      -1.219   0.328   1.599  0.00  0.00    -0.107 A 
ATOM      5  C4  BZF d   1      -1.545  -0.292   0.427  0.00  0.00     0.055 A 
ATOM      6  C5  BZF d   1      -0.551  -0.671  -0.418  0.00  0.00    -0.016 A 
ATOM      7  C6  BZF d   1       0.778  -0.443  -0.125  0.00  0.00     0.022 A 
ATOM      8  C7  BZF d   1       1.150   0.163   1.028  0.00  0.00     0.029 A 
ATOM      9  C7A BZF d   1       0.149   0.519   1.899  0.00  0.00     0.058 A 
ENDROOT
TORSDOF 0
ENDMDL
