MODEL 1
REMARK minimizedAffinity -4.11877918
REMARK minimizedRMSD -1
REMARK  0 active torsions:
REMARK  status: ('A' for Active; 'I' for Inactive)
ROOT
ATOM      1  O1  BZF d   1       1.499  -0.797   0.374  0.00  0.00    -0.204 OA
ATOM      2  C2  BZF d   1       0.764  -1.391  -0.635  0.00  0.00     0.174 A 
ATOM      3  C3  BZF d   1      -0.527  -1.007  -0.575  0.00  0.00    -0.012 A 
ATOM      4  C3A BZF d   1      -0.586  -0.046   0.484  0.00  0.00    -0.107 A 
ATOM      5  C4  BZF d   1      -1.595   0.706   1.014  0.00  0.00     0.055 A 
ATOM      6  C5  BZF d   1      -1.336   1.493   2.091  0.00  0.00    -0.016 A 
ATOM      7  C6  BZF d   1      -0.083   1.548   2.666  0.00  0.00     0.022 A 
ATOM      8  C7  BZF d   1       0.951   0.824   2.171  0.00  0.00     0.029 A 
ATOM      9  C7A BZF d   1       0.700   0.053   1.063  0.00  0.00     0.058 A 
ENDROOT
TORSDOF 0
ENDMDL
