MODEL 1
REMARK minimizedAffinity -3.79285455
REMARK minimizedRMSD -1
REMARK  0 active torsions:
REMARK  status: ('A' for Active; 'I' for Inactive)
ROOT
ATOM      1  O1  BZF d   1       1.731  -0.847   1.769  0.00  0.00    -0.204 OA
ATOM      2  C2  BZF d   1       1.713  -0.715   3.144  0.00  0.00     0.174 A 
ATOM      3  C3  BZF d   1       0.540  -0.194   3.558  0.00  0.00    -0.012 A 
ATOM      4  C3A BZF d   1      -0.257  -0.074   2.376  0.00  0.00    -0.107 A 
ATOM      5  C4  BZF d   1      -1.529   0.365   2.142  0.00  0.00     0.055 A 
ATOM      6  C5  BZF d   1      -1.983   0.423   0.863  0.00  0.00    -0.016 A 
ATOM      7  C6  BZF d   1      -1.191   0.055  -0.206  0.00  0.00     0.022 A 
ATOM      8  C7  BZF d   1       0.075  -0.393  -0.023  0.00  0.00     0.029 A 
ATOM      9  C7A BZF d   1       0.525  -0.483   1.272  0.00  0.00     0.058 A 
ENDROOT
TORSDOF 0
ENDMDL
