MODEL 1
REMARK minimizedAffinity -1.58651853
REMARK minimizedRMSD -1
REMARK  0 active torsions:
REMARK  status: ('A' for Active; 'I' for Inactive)
ROOT
ATOM      1  O1  BZF d   1      -1.122   0.572  -5.451  0.00  0.00    -0.204 OA
ATOM      2  C2  BZF d   1      -2.180  -0.260  -5.140  0.00  0.00     0.174 A 
ATOM      3  C3  BZF d   1      -1.910  -0.983  -4.033  0.00  0.00    -0.012 A 
ATOM      4  C3A BZF d   1      -0.640  -0.509  -3.575  0.00  0.00    -0.107 A 
ATOM      5  C4  BZF d   1       0.152  -0.829  -2.509  0.00  0.00     0.055 A 
ATOM      6  C5  BZF d   1       1.367  -0.233  -2.388  0.00  0.00    -0.016 A 
ATOM      7  C6  BZF d   1       1.824   0.681  -3.314  0.00  0.00     0.022 A 
ATOM      8  C7  BZF d   1       1.071   1.034  -4.385  0.00  0.00     0.029 A 
ATOM      9  C7A BZF d   1      -0.171   0.458  -4.493  0.00  0.00     0.058 A 
ENDROOT
TORSDOF 0
ENDMDL
