MODEL 1
REMARK minimizedAffinity -4.42770481
REMARK minimizedRMSD -1
REMARK  0 active torsions:
REMARK  status: ('A' for Active; 'I' for Inactive)
ROOT
ATOM      1  N1  IND d   1       0.528   2.642  -0.489  0.00  0.00    -0.196 N 
ATOM      2  C2  IND d   1      -0.177   3.576   0.218  0.00  0.00     0.054 A 
ATOM      3  C3  IND d   1      -1.058   2.972   1.046  0.00  0.00    -0.031 A 
ATOM      4  C4  IND d   1      -1.440   0.463   1.480  0.00  0.00     0.051 A 
ATOM      5  C5  IND d   1      -1.059  -0.775   1.046  0.00  0.00    -0.031 A 
ATOM      6  C6  IND d   1      -0.109  -0.941   0.060  0.00  0.00     0.015 A 
ATOM      7  C7  IND d   1       0.508   0.129  -0.523  0.00  0.00    -0.016 A 
ATOM      8  C8  IND d   1       0.118   1.389  -0.090  0.00  0.00    -0.047 A 
ATOM      9  C9  IND d   1      -0.877   1.565   0.881  0.00  0.00    -0.096 A 
ATOM     10  HN1 IND d   1       1.127   2.809  -1.083  0.00  0.00     0.298 HD
ENDROOT
TORSDOF 0
ENDMDL
