MODEL 1
REMARK minimizedAffinity -4.93102074
REMARK minimizedRMSD -1
REMARK  0 active torsions:
REMARK  status: ('A' for Active; 'I' for Inactive)
ROOT
ATOM      1  N1  IND d   1       0.060  -0.725   0.156  0.00  0.00    -0.196 N 
ATOM      2  C2  IND d   1      -1.294  -0.881   0.262  0.00  0.00     0.054 A 
ATOM      3  C3  IND d   1      -1.897   0.323   0.386  0.00  0.00    -0.031 A 
ATOM      4  C4  IND d   1      -0.867   2.682   0.338  0.00  0.00     0.051 A 
ATOM      5  C5  IND d   1       0.335   3.332   0.297  0.00  0.00    -0.031 A 
ATOM      6  C6  IND d   1       1.530   2.649   0.202  0.00  0.00     0.015 A 
ATOM      7  C7  IND d   1       1.568   1.285   0.133  0.00  0.00    -0.016 A 
ATOM      8  C8  IND d   1       0.350   0.621   0.182  0.00  0.00    -0.047 A 
ATOM      9  C9  IND d   1      -0.863   1.307   0.321  0.00  0.00    -0.096 A 
ATOM     10  HN1 IND d   1       0.634  -1.361   0.085  0.00  0.00     0.298 HD
ENDROOT
TORSDOF 0
ENDMDL
