MODEL 1
REMARK minimizedAffinity -1.45793283
REMARK minimizedRMSD -1
REMARK  0 active torsions:
REMARK  status: ('A' for Active; 'I' for Inactive)
ROOT
ATOM      1  N1  IND d   1       0.969   0.202  -0.731  0.00  0.00    -0.196 N 
ATOM      2  C2  IND d   1       0.503  -1.081  -0.809  0.00  0.00     0.054 A 
ATOM      3  C3  IND d   1      -0.645  -1.207  -0.105  0.00  0.00    -0.031 A 
ATOM      4  C4  IND d   1      -1.989   0.582   1.167  0.00  0.00     0.051 A 
ATOM      5  C5  IND d   1      -1.943   1.893   1.552  0.00  0.00    -0.031 A 
ATOM      6  C6  IND d   1      -0.905   2.724   1.186  0.00  0.00     0.015 A 
ATOM      7  C7  IND d   1       0.126   2.277   0.408  0.00  0.00    -0.016 A 
ATOM      8  C8  IND d   1       0.086   0.945   0.021  0.00  0.00    -0.047 A 
ATOM      9  C9  IND d   1      -0.944   0.085   0.425  0.00  0.00    -0.096 A 
ATOM     10  HN1 IND d   1       1.692   0.496  -1.092  0.00  0.00     0.298 HD
ENDROOT
TORSDOF 0
ENDMDL
