MODEL 1
REMARK minimizedAffinity -4.70233059
REMARK minimizedRMSD -1
REMARK  0 active torsions:
REMARK  status: ('A' for Active; 'I' for Inactive)
ROOT
ATOM      1  N1  IND d   1       1.994   1.710   0.025  0.00  0.00    -0.196 N 
ATOM      2  C2  IND d   1       1.907   3.070   0.127  0.00  0.00     0.054 A 
ATOM      3  C3  IND d   1       0.631   3.443   0.372  0.00  0.00    -0.031 A 
ATOM      4  C4  IND d   1      -1.457   1.983   0.744  0.00  0.00     0.051 A 
ATOM      5  C5  IND d   1      -1.883   0.684   0.712  0.00  0.00    -0.031 A 
ATOM      6  C6  IND d   1      -1.021  -0.360   0.447  0.00  0.00     0.015 A 
ATOM      7  C7  IND d   1       0.308  -0.144   0.214  0.00  0.00    -0.016 A 
ATOM      8  C8  IND d   1       0.743   1.173   0.238  0.00  0.00    -0.047 A 
ATOM      9  C9  IND d   1      -0.135   2.240   0.465  0.00  0.00    -0.096 A 
ATOM     10  HN1 IND d   1       2.709   1.264  -0.144  0.00  0.00     0.298 HD
ENDROOT
TORSDOF 0
ENDMDL
