MODEL 1
REMARK minimizedAffinity -3.69676423
REMARK minimizedRMSD -1
REMARK  0 active torsions:
REMARK  status: ('A' for Active; 'I' for Inactive)
ROOT
ATOM      1  N1  IND d   1       1.175  -0.631  -0.660  0.00  0.00    -0.196 N 
ATOM      2  C2  IND d   1       0.388  -1.721  -0.415  0.00  0.00     0.054 A 
ATOM      3  C3  IND d   1      -0.777  -1.342   0.156  0.00  0.00    -0.031 A 
ATOM      4  C4  IND d   1      -1.644   1.024   0.687  0.00  0.00     0.051 A 
ATOM      5  C5  IND d   1      -1.266   2.337   0.676  0.00  0.00    -0.031 A 
ATOM      6  C6  IND d   1      -0.031   2.737   0.208  0.00  0.00     0.015 A 
ATOM      7  C7  IND d   1       0.871   1.835  -0.281  0.00  0.00    -0.016 A 
ATOM      8  C8  IND d   1       0.494   0.500  -0.265  0.00  0.00    -0.047 A 
ATOM      9  C9  IND d   1      -0.742   0.084   0.249  0.00  0.00    -0.096 A 
ATOM     10  HN1 IND d   1       1.963  -0.648  -1.004  0.00  0.00     0.298 HD
ENDROOT
TORSDOF 0
ENDMDL
