MODEL 1
REMARK minimizedAffinity -0.630382419
REMARK minimizedRMSD -1
REMARK  0 active torsions:
REMARK  status: ('A' for Active; 'I' for Inactive)
ROOT
ATOM      1  N1  IND d   1      -1.306  -1.189  -0.110  0.00  0.00    -0.196 N 
ATOM      2  C2  IND d   1      -0.001  -1.577  -0.230  0.00  0.00     0.054 A 
ATOM      3  C3  IND d   1       0.825  -0.561   0.106  0.00  0.00    -0.031 A 
ATOM      4  C4  IND d   1       0.251   1.793   0.977  0.00  0.00     0.051 A 
ATOM      5  C5  IND d   1      -0.807   2.623   1.219  0.00  0.00    -0.031 A 
ATOM      6  C6  IND d   1      -2.112   2.217   1.029  0.00  0.00     0.015 A 
ATOM      7  C7  IND d   1      -2.409   0.954   0.599  0.00  0.00    -0.016 A 
ATOM      8  C8  IND d   1      -1.337   0.110   0.346  0.00  0.00    -0.047 A 
ATOM      9  C9  IND d   1      -0.010   0.532   0.496  0.00  0.00    -0.096 A 
ATOM     10  HN1 IND d   1      -1.992  -1.675  -0.290  0.00  0.00     0.298 HD
ENDROOT
TORSDOF 0
ENDMDL
