MODEL 1
REMARK minimizedAffinity -4.65812683
REMARK minimizedRMSD -1
REMARK  0 active torsions:
REMARK  status: ('A' for Active; 'I' for Inactive)
ROOT
ATOM      1  N1  IND d   1       2.023   0.571   0.389  0.00  0.00    -0.196 N 
ATOM      2  C2  IND d   1       2.989   1.520   0.572  0.00  0.00     0.054 A 
ATOM      3  C3  IND d   1       2.432   2.750   0.651  0.00  0.00    -0.031 A 
ATOM      4  C4  IND d   1      -0.052   3.426   0.606  0.00  0.00     0.051 A 
ATOM      5  C5  IND d   1      -1.305   2.912   0.421  0.00  0.00    -0.031 A 
ATOM      6  C6  IND d   1      -1.517   1.564   0.214  0.00  0.00     0.015 A 
ATOM      7  C7  IND d   1      -0.481   0.674   0.196  0.00  0.00    -0.016 A 
ATOM      8  C8  IND d   1       0.794   1.193   0.377  0.00  0.00    -0.047 A 
ATOM      9  C9  IND d   1       1.019   2.566   0.545  0.00  0.00    -0.096 A 
ATOM     10  HN1 IND d   1       2.159  -0.273   0.297  0.00  0.00     0.298 HD
ENDROOT
TORSDOF 0
ENDMDL
