MODEL 1
REMARK minimizedAffinity -3.18554211
REMARK minimizedRMSD -1
REMARK  0 active torsions:
REMARK  status: ('A' for Active; 'I' for Inactive)
ROOT
ATOM      1  N1  IND d   1       2.389   0.423   0.643  0.00  0.00    -0.196 N 
ATOM      2  C2  IND d   1       3.036   1.491   1.200  0.00  0.00     0.054 A 
ATOM      3  C3  IND d   1       2.189   2.537   1.333  0.00  0.00    -0.031 A 
ATOM      4  C4  IND d   1      -0.324   2.685   0.796  0.00  0.00     0.051 A 
ATOM      5  C5  IND d   1      -1.349   1.976   0.236  0.00  0.00    -0.031 A 
ATOM      6  C6  IND d   1      -1.178   0.686  -0.224  0.00  0.00     0.015 A 
ATOM      7  C7  IND d   1       0.027   0.050  -0.130  0.00  0.00    -0.016 A 
ATOM      8  C8  IND d   1       1.073   0.770   0.432  0.00  0.00    -0.047 A 
ATOM      9  C9  IND d   1       0.916   2.094   0.861  0.00  0.00    -0.096 A 
ATOM     10  HN1 IND d   1       2.745  -0.337   0.456  0.00  0.00     0.298 HD
ENDROOT
TORSDOF 0
ENDMDL
