MODEL 1
REMARK minimizedAffinity -5.90166998
REMARK minimizedRMSD -1
REMARK  0 active torsions:
REMARK  status: ('A' for Active; 'I' for Inactive)
ROOT
ATOM      1  N1  IND d   1      -0.157  -0.523   1.074  0.00  0.00    -0.196 N 
ATOM      2  C2  IND d   1      -1.521  -0.610   1.059  0.00  0.00     0.054 A 
ATOM      3  C3  IND d   1      -2.066   0.586   0.741  0.00  0.00    -0.031 A 
ATOM      4  C4  IND d   1      -0.905   2.794   0.106  0.00  0.00     0.051 A 
ATOM      5  C5  IND d   1       0.329   3.375   0.015  0.00  0.00    -0.031 A 
ATOM      6  C6  IND d   1       1.487   2.671   0.275  0.00  0.00     0.015 A 
ATOM      7  C7  IND d   1       1.455   1.351   0.626  0.00  0.00    -0.016 A 
ATOM      8  C8  IND d   1       0.204   0.760   0.727  0.00  0.00    -0.047 A 
ATOM      9  C9  IND d   1      -0.977   1.480   0.505  0.00  0.00    -0.096 A 
ATOM     10  HN1 IND d   1       0.384  -1.162   1.269  0.00  0.00     0.298 HD
ENDROOT
TORSDOF 0
ENDMDL
