MODEL 1
REMARK minimizedAffinity -3.6793673
REMARK minimizedRMSD -1
REMARK  0 active torsions:
REMARK  status: ('A' for Active; 'I' for Inactive)
ROOT
ATOM      1  N1  IND d   1       1.202  -0.205   0.261  0.00  0.00    -0.196 N 
ATOM      2  C2  IND d   1      -0.081  -0.639   0.441  0.00  0.00     0.054 A 
ATOM      3  C3  IND d   1      -0.916   0.413   0.598  0.00  0.00    -0.031 A 
ATOM      4  C4  IND d   1      -0.407   2.934   0.491  0.00  0.00     0.051 A 
ATOM      5  C5  IND d   1       0.628   3.821   0.383  0.00  0.00    -0.031 A 
ATOM      6  C6  IND d   1       1.933   3.402   0.223  0.00  0.00     0.015 A 
ATOM      7  C7  IND d   1       2.252   2.076   0.153  0.00  0.00    -0.016 A 
ATOM      8  C8  IND d   1       1.205   1.172   0.269  0.00  0.00    -0.047 A 
ATOM      9  C9  IND d   1      -0.117   1.591   0.474  0.00  0.00    -0.096 A 
ATOM     10  HN1 IND d   1       1.892  -0.708   0.159  0.00  0.00     0.298 HD
ENDROOT
TORSDOF 0
ENDMDL
