MODEL 1
REMARK minimizedAffinity -2.42610478
REMARK minimizedRMSD -1
REMARK  0 active torsions:
REMARK  status: ('A' for Active; 'I' for Inactive)
ROOT
ATOM      1  N1  IND d   1      -0.190   0.937   0.690  0.00  0.00    -0.196 N 
ATOM      2  C2  IND d   1      -1.432   1.447   0.431  0.00  0.00     0.054 A 
ATOM      3  C3  IND d   1      -2.189   0.534  -0.218  0.00  0.00    -0.031 A 
ATOM      4  C4  IND d   1      -1.628  -1.894  -0.865  0.00  0.00     0.051 A 
ATOM      5  C5  IND d   1      -0.604  -2.799  -0.869  0.00  0.00    -0.031 A 
ATOM      6  C6  IND d   1       0.636  -2.499  -0.341  0.00  0.00     0.015 A 
ATOM      7  C7  IND d   1       0.894  -1.282   0.224  0.00  0.00    -0.016 A 
ATOM      8  C8  IND d   1      -0.142  -0.359   0.224  0.00  0.00    -0.047 A 
ATOM      9  C9  IND d   1      -1.389  -0.643  -0.349  0.00  0.00    -0.096 A 
ATOM     10  HN1 IND d   1       0.452   1.355   1.079  0.00  0.00     0.298 HD
ENDROOT
TORSDOF 0
ENDMDL
