MODEL 1
REMARK minimizedAffinity 4.35690784
REMARK minimizedRMSD -1
REMARK  0 active torsions:
REMARK  status: ('A' for Active; 'I' for Inactive)
ROOT
ATOM      1  N1  IND d   1       2.133   1.229   1.105  0.00  0.00    -0.196 N 
ATOM      2  C2  IND d   1       2.614   0.057   0.592  0.00  0.00     0.054 A 
ATOM      3  C3  IND d   1       1.596  -0.785   0.306  0.00  0.00    -0.031 A 
ATOM      4  C4  IND d   1      -0.943  -0.409   0.508  0.00  0.00     0.051 A 
ATOM      5  C5  IND d   1      -1.866   0.491   0.961  0.00  0.00    -0.031 A 
ATOM      6  C6  IND d   1      -1.496   1.709   1.493  0.00  0.00     0.015 A 
ATOM      7  C7  IND d   1      -0.184   2.079   1.583  0.00  0.00    -0.016 A 
ATOM      8  C8  IND d   1       0.757   1.164   1.130  0.00  0.00    -0.047 A 
ATOM      9  C9  IND d   1       0.389  -0.091   0.628  0.00  0.00    -0.096 A 
ATOM     10  HN1 IND d   1       2.609   1.894   1.369  0.00  0.00     0.298 HD
ENDROOT
TORSDOF 0
ENDMDL
