MODEL 1
REMARK minimizedAffinity -5.95214891
REMARK minimizedRMSD -1
REMARK  0 active torsions:
REMARK  status: ('A' for Active; 'I' for Inactive)
ROOT
ATOM      1  N1  IND d   1       0.598  -0.473  -0.133  0.00  0.00    -0.196 N 
ATOM      2  C2  IND d   1      -0.651  -0.899   0.224  0.00  0.00     0.054 A 
ATOM      3  C3  IND d   1      -1.421   0.151   0.586  0.00  0.00    -0.031 A 
ATOM      4  C4  IND d   1      -0.869   2.666   0.570  0.00  0.00     0.051 A 
ATOM      5  C5  IND d   1       0.158   3.542   0.357  0.00  0.00    -0.031 A 
ATOM      6  C6  IND d   1       1.409   3.116  -0.042  0.00  0.00     0.015 A 
ATOM      7  C7  IND d   1       1.677   1.794  -0.254  0.00  0.00    -0.016 A 
ATOM      8  C8  IND d   1       0.638   0.900  -0.031  0.00  0.00    -0.047 A 
ATOM      9  C9  IND d   1      -0.621   1.323   0.415  0.00  0.00    -0.096 A 
ATOM     10  HN1 IND d   1       1.249  -0.977  -0.380  0.00  0.00     0.298 HD
ENDROOT
TORSDOF 0
ENDMDL
