MODEL 1
REMARK minimizedAffinity -5.24137783
REMARK minimizedRMSD -1
REMARK  0 active torsions:
REMARK  status: ('A' for Active; 'I' for Inactive)
ROOT
ATOM      1  N1  IND d   1       1.126  -0.479   0.009  0.00  0.00    -0.196 N 
ATOM      2  C2  IND d   1       0.047  -1.297   0.199  0.00  0.00     0.054 A 
ATOM      3  C3  IND d   1      -1.049  -0.567   0.504  0.00  0.00    -0.031 A 
ATOM      4  C4  IND d   1      -1.323   1.989   0.644  0.00  0.00     0.051 A 
ATOM      5  C5  IND d   1      -0.611   3.154   0.586  0.00  0.00    -0.031 A 
ATOM      6  C6  IND d   1       0.744   3.168   0.325  0.00  0.00     0.015 A 
ATOM      7  C7  IND d   1       1.438   2.012   0.099  0.00  0.00    -0.016 A 
ATOM      8  C8  IND d   1       0.719   0.827   0.165  0.00  0.00    -0.047 A 
ATOM      9  C9  IND d   1      -0.648   0.804   0.472  0.00  0.00    -0.096 A 
ATOM     10  HN1 IND d   1       1.925  -0.738  -0.177  0.00  0.00     0.298 HD
ENDROOT
TORSDOF 0
ENDMDL
