MODEL 1
REMARK minimizedAffinity -4.7164011
REMARK minimizedRMSD -1
REMARK  0 active torsions:
REMARK  status: ('A' for Active; 'I' for Inactive)
ROOT
ATOM      1  N1  IND d   1      -0.004  -1.138  -0.488  0.00  0.00    -0.196 N 
ATOM      2  C2  IND d   1      -0.691  -1.458   0.650  0.00  0.00     0.054 A 
ATOM      3  C3  IND d   1      -0.874  -0.357   1.413  0.00  0.00    -0.031 A 
ATOM      4  C4  IND d   1      -0.220   2.088   0.942  0.00  0.00     0.051 A 
ATOM      5  C5  IND d   1       0.457   2.869   0.047  0.00  0.00    -0.031 A 
ATOM      6  C6  IND d   1       1.024   2.343  -1.096  0.00  0.00     0.015 A 
ATOM      7  C7  IND d   1       0.925   1.014  -1.394  0.00  0.00    -0.016 A 
ATOM      8  C8  IND d   1       0.244   0.217  -0.485  0.00  0.00    -0.047 A 
ATOM      9  C9  IND d   1      -0.297   0.737   0.698  0.00  0.00    -0.096 A 
ATOM     10  HN1 IND d   1       0.233  -1.691  -1.103  0.00  0.00     0.298 HD
ENDROOT
TORSDOF 0
ENDMDL
