MODEL 1
REMARK minimizedAffinity -3.85675359
REMARK minimizedRMSD -1
REMARK  0 active torsions:
REMARK  status: ('A' for Active; 'I' for Inactive)
ROOT
ATOM      1  N1  IND d   1      -0.106  -0.496  -0.765  0.00  0.00    -0.196 N 
ATOM      2  C2  IND d   1      -1.466  -0.623  -0.726  0.00  0.00     0.054 A 
ATOM      3  C3  IND d   1      -2.036   0.535  -0.323  0.00  0.00    -0.031 A 
ATOM      4  C4  IND d   1      -0.932   2.795   0.227  0.00  0.00     0.051 A 
ATOM      5  C5  IND d   1       0.289   3.391   0.369  0.00  0.00    -0.031 A 
ATOM      6  C6  IND d   1       1.465   2.709   0.133  0.00  0.00     0.015 A 
ATOM      7  C7  IND d   1       1.463   1.403  -0.267  0.00  0.00    -0.016 A 
ATOM      8  C8  IND d   1       0.225   0.792  -0.405  0.00  0.00    -0.047 A 
ATOM      9  C9  IND d   1      -0.971   1.467  -0.126  0.00  0.00    -0.096 A 
ATOM     10  HN1 IND d   1       0.450  -1.116  -0.978  0.00  0.00     0.298 HD
ENDROOT
TORSDOF 0
ENDMDL
