MODEL 1
REMARK minimizedAffinity 9.58146667
REMARK minimizedRMSD -1
REMARK  0 active torsions:
REMARK  status: ('A' for Active; 'I' for Inactive)
ROOT
ATOM      1  C   UNL d   1       0.009  -1.521   2.297  0.00  0.00     0.023 A 
ATOM      2  C1  UNL d   1       0.245  -2.162   1.081  0.00  0.00     0.003 A 
ATOM      3  C2  UNL d   1       1.551  -2.310   0.610  0.00  0.00     0.048 A 
ATOM      4  C3  UNL d   1       2.617  -1.816   1.361  0.00  0.00     0.023 A 
ATOM      5  C4  UNL d   1       2.386  -1.174   2.579  0.00  0.00     0.048 A 
ATOM      6  C5  UNL d   1       1.078  -1.027   3.045  0.00  0.00     0.003 A 
ATOM      7  I   UNL d   1       4.562  -2.035   0.663  0.00  0.00    -0.146 I 
ENDROOT
TORSDOF 0
ENDMDL
