MODEL 1
REMARK minimizedAffinity 6.81461573
REMARK minimizedRMSD -1
REMARK  0 active torsions:
REMARK  status: ('A' for Active; 'I' for Inactive)
ROOT
ATOM      1  C   UNL d   1      -4.967   0.756   4.132  0.00  0.00     0.023 A 
ATOM      2  C1  UNL d   1      -4.161   1.572   3.338  0.00  0.00     0.003 A 
ATOM      3  C2  UNL d   1      -3.602   2.735   3.872  0.00  0.00     0.048 A 
ATOM      4  C3  UNL d   1      -3.853   3.076   5.201  0.00  0.00     0.023 A 
ATOM      5  C4  UNL d   1      -4.658   2.261   5.999  0.00  0.00     0.048 A 
ATOM      6  C5  UNL d   1      -5.215   1.100   5.461  0.00  0.00     0.003 A 
ATOM      7  I   UNL d   1      -3.022   4.806   5.998  0.00  0.00    -0.146 I 
ENDROOT
TORSDOF 0
ENDMDL
