MODEL 1
REMARK minimizedAffinity 14.4432898
REMARK minimizedRMSD -1
REMARK  0 active torsions:
REMARK  status: ('A' for Active; 'I' for Inactive)
ROOT
ATOM      1  C   UNL d   1       4.983  -5.932   5.999  0.00  0.00     0.023 A 
ATOM      2  C1  UNL d   1       3.618  -5.821   5.736  0.00  0.00     0.003 A 
ATOM      3  C2  UNL d   1       3.068  -4.582   5.400  0.00  0.00     0.048 A 
ATOM      4  C3  UNL d   1       3.890  -3.458   5.328  0.00  0.00     0.023 A 
ATOM      5  C4  UNL d   1       5.257  -3.564   5.589  0.00  0.00     0.048 A 
ATOM      6  C5  UNL d   1       5.802  -4.805   5.925  0.00  0.00     0.003 A 
ATOM      7  I   UNL d   1       3.075  -1.613   4.827  0.00  0.00    -0.146 I 
ENDROOT
TORSDOF 0
ENDMDL
