MODEL 1
REMARK minimizedAffinity 14.581398
REMARK minimizedRMSD -1
REMARK  0 active torsions:
REMARK  status: ('A' for Active; 'I' for Inactive)
ROOT
ATOM      1  C   UNL d   1       1.885  -1.790   1.273  0.00  0.00     0.023 A 
ATOM      2  C1  UNL d   1       1.406  -2.944   0.653  0.00  0.00     0.003 A 
ATOM      3  C2  UNL d   1       2.287  -3.972   0.310  0.00  0.00     0.048 A 
ATOM      4  C3  UNL d   1       3.647  -3.839   0.590  0.00  0.00     0.023 A 
ATOM      5  C4  UNL d   1       4.131  -2.686   1.211  0.00  0.00     0.048 A 
ATOM      6  C5  UNL d   1       3.246  -1.661   1.551  0.00  0.00     0.003 A 
ATOM      7  I   UNL d   1       4.960  -5.366   0.081  0.00  0.00    -0.146 I 
ENDROOT
TORSDOF 0
ENDMDL
