MODEL 1
REMARK minimizedAffinity 11.4936457
REMARK minimizedRMSD -1
REMARK  0 active torsions:
REMARK  status: ('A' for Active; 'I' for Inactive)
ROOT
ATOM      1  C   UNL d   1       3.158  -2.510   1.266  0.00  0.00     0.023 A 
ATOM      2  C1  UNL d   1       2.542  -1.296   1.569  0.00  0.00     0.003 A 
ATOM      3  C2  UNL d   1       1.407  -0.892   0.864  0.00  0.00     0.048 A 
ATOM      4  C3  UNL d   1       0.892  -1.708  -0.143  0.00  0.00     0.023 A 
ATOM      5  C4  UNL d   1       1.505  -2.924  -0.450  0.00  0.00     0.048 A 
ATOM      6  C5  UNL d   1       2.640  -3.323   0.258  0.00  0.00     0.003 A 
ATOM      7  I   UNL d   1      -0.797  -1.109  -1.195  0.00  0.00    -0.146 I 
ENDROOT
TORSDOF 0
ENDMDL
