MODEL 1
REMARK minimizedAffinity -4.52195978
REMARK minimizedRMSD -1
REMARK  1 active torsions:
REMARK  status: ('A' for Active; 'I' for Inactive)
REMARK    1  A    between atoms: C3_4  and  O_7 
ROOT
ATOM      1  C   UNL d   1      -0.559   0.913   0.458  0.00  0.00    -0.033 A 
ATOM      2  C1  UNL d   1       0.269  -0.186   0.221  0.00  0.00     0.039 A 
ATOM      3  C2  UNL d   1      -0.197  -1.479   0.466  0.00  0.00    -0.080 A 
ATOM      4  C3  UNL d   1      -1.491  -1.660   0.947  0.00  0.00     0.150 A 
ATOM      5  C4  UNL d   1      -2.323  -0.571   1.181  0.00  0.00    -0.007 A 
ATOM      6  C5  UNL d   1      -1.856   0.720   0.937  0.00  0.00     0.039 A 
ENDROOT
BRANCH   4   7
ATOM      7  O   UNL d   1      -1.988  -2.903   1.205  0.00  0.00    -0.526 OA
ATOM      8  H5  UNL d   1      -1.292  -3.557   1.024  0.00  0.00     0.418 HD
ENDBRANCH   4   7
TORSDOF 1
ENDMDL
