MODEL 1
REMARK minimizedAffinity -1.80398262
REMARK minimizedRMSD -1
REMARK  1 active torsions:
REMARK  status: ('A' for Active; 'I' for Inactive)
REMARK    1  A    between atoms: C3_4  and  O_7 
ROOT
ATOM      1  C   UNL d   1       0.531  -1.153   0.320  0.00  0.00    -0.033 A 
ATOM      2  C1  UNL d   1       0.786   0.061  -0.321  0.00  0.00     0.039 A 
ATOM      3  C2  UNL d   1       0.068   1.204   0.034  0.00  0.00    -0.080 A 
ATOM      4  C3  UNL d   1      -0.900   1.121   1.031  0.00  0.00     0.150 A 
ATOM      5  C4  UNL d   1      -1.157  -0.084   1.676  0.00  0.00    -0.007 A 
ATOM      6  C5  UNL d   1      -0.440  -1.225   1.320  0.00  0.00     0.039 A 
ENDROOT
BRANCH   4   7
ATOM      7  O   UNL d   1      -1.630   2.209   1.408  0.00  0.00    -0.526 OA
ATOM      8  H5  UNL d   1      -1.364   2.964   0.857  0.00  0.00     0.418 HD
ENDBRANCH   4   7
TORSDOF 1
ENDMDL
