MODEL 1
REMARK minimizedAffinity -3.91622353
REMARK minimizedRMSD -1
REMARK  1 active torsions:
REMARK  status: ('A' for Active; 'I' for Inactive)
REMARK    1  A    between atoms: C3_4  and  O_7 
ROOT
ATOM      1  C   UNL d   1       0.230   2.180  -2.005  0.00  0.00    -0.033 A 
ATOM      2  C1  UNL d   1       0.357   1.570  -3.255  0.00  0.00     0.039 A 
ATOM      3  C2  UNL d   1       1.615   1.176  -3.716  0.00  0.00    -0.080 A 
ATOM      4  C3  UNL d   1       2.735   1.395  -2.919  0.00  0.00     0.150 A 
ATOM      5  C4  UNL d   1       2.615   1.998  -1.672  0.00  0.00    -0.007 A 
ATOM      6  C5  UNL d   1       1.359   2.393  -1.213  0.00  0.00     0.039 A 
ENDROOT
BRANCH   4   7
ATOM      7  O   UNL d   1       3.983   1.031  -3.329  0.00  0.00    -0.526 OA
ATOM      8  H5  UNL d   1       3.916   0.653  -4.222  0.00  0.00     0.418 HD
ENDBRANCH   4   7
TORSDOF 1
ENDMDL
