MODEL 1
REMARK minimizedAffinity -3.77326703
REMARK minimizedRMSD -1
REMARK  1 active torsions:
REMARK  status: ('A' for Active; 'I' for Inactive)
REMARK    1  A    between atoms: C3_4  and  O_7 
ROOT
ATOM      1  C   UNL d   1      -1.136  -2.236   1.132  0.00  0.00    -0.033 A 
ATOM      2  C1  UNL d   1       0.253  -2.115   1.056  0.00  0.00     0.039 A 
ATOM      3  C2  UNL d   1       0.827  -0.980   0.481  0.00  0.00    -0.080 A 
ATOM      4  C3  UNL d   1       0.002   0.027  -0.014  0.00  0.00     0.150 A 
ATOM      5  C4  UNL d   1      -1.383  -0.085   0.062  0.00  0.00    -0.007 A 
ATOM      6  C5  UNL d   1      -1.954  -1.220   0.636  0.00  0.00     0.039 A 
ENDROOT
BRANCH   4   7
ATOM      7  O   UNL d   1       0.515   1.151  -0.588  0.00  0.00    -0.526 OA
ATOM      8  H5  UNL d   1       1.484   1.077  -0.597  0.00  0.00     0.418 HD
ENDBRANCH   4   7
TORSDOF 1
ENDMDL
