MODEL 1
REMARK minimizedAffinity -4.58952761
REMARK minimizedRMSD -1
REMARK  1 active torsions:
REMARK  status: ('A' for Active; 'I' for Inactive)
REMARK    1  A    between atoms: C3_4  and  O_7 
ROOT
ATOM      1  C   UNL d   1       0.140  -0.061   0.079  0.00  0.00    -0.033 A 
ATOM      2  C1  UNL d   1       0.881  -1.114   0.617  0.00  0.00     0.039 A 
ATOM      3  C2  UNL d   1       0.234  -2.163   1.273  0.00  0.00    -0.080 A 
ATOM      4  C3  UNL d   1      -1.154  -2.148   1.383  0.00  0.00     0.150 A 
ATOM      5  C4  UNL d   1      -1.900  -1.104   0.845  0.00  0.00    -0.007 A 
ATOM      6  C5  UNL d   1      -1.251  -0.057   0.192  0.00  0.00     0.039 A 
ENDROOT
BRANCH   4   7
ATOM      7  O   UNL d   1      -1.830  -3.147   2.018  0.00  0.00    -0.526 OA
ATOM      8  H5  UNL d   1      -1.183  -3.784   2.363  0.00  0.00     0.418 HD
ENDBRANCH   4   7
TORSDOF 1
ENDMDL
