MODEL 1
REMARK minimizedAffinity -5.27532816
REMARK minimizedRMSD -1
REMARK  1 active torsions:
REMARK  status: ('A' for Active; 'I' for Inactive)
REMARK    1  A    between atoms: C3_4  and  O_7 
ROOT
ATOM      1  C   UNL d   1      -2.679  -1.800   2.002  0.00  0.00    -0.033 A 
ATOM      2  C1  UNL d   1      -2.874  -0.420   2.083  0.00  0.00     0.039 A 
ATOM      3  C2  UNL d   1      -2.039   0.448   1.377  0.00  0.00    -0.080 A 
ATOM      4  C3  UNL d   1      -1.015  -0.077   0.593  0.00  0.00     0.150 A 
ATOM      5  C4  UNL d   1      -0.818  -1.451   0.504  0.00  0.00    -0.007 A 
ATOM      6  C5  UNL d   1      -1.652  -2.315   1.211  0.00  0.00     0.039 A 
ENDROOT
BRANCH   4   7
ATOM      7  O   UNL d   1      -0.172   0.731  -0.111  0.00  0.00    -0.526 OA
ATOM      8  H5  UNL d   1      -0.410   1.656   0.069  0.00  0.00     0.418 HD
ENDBRANCH   4   7
TORSDOF 1
ENDMDL
