MODEL 1
REMARK minimizedAffinity -3.61572289
REMARK minimizedRMSD -1
REMARK  1 active torsions:
REMARK  status: ('A' for Active; 'I' for Inactive)
REMARK    1  A    between atoms: C3_4  and  O_7 
ROOT
ATOM      1  C   UNL d   1       0.105   0.201   0.020  0.00  0.00    -0.033 A 
ATOM      2  C1  UNL d   1      -1.249   0.087  -0.301  0.00  0.00     0.039 A 
ATOM      3  C2  UNL d   1      -1.953  -1.070   0.038  0.00  0.00    -0.080 A 
ATOM      4  C3  UNL d   1      -1.293  -2.104   0.697  0.00  0.00     0.150 A 
ATOM      5  C4  UNL d   1       0.054  -1.995   1.023  0.00  0.00    -0.007 A 
ATOM      6  C5  UNL d   1       0.756  -0.839   0.683  0.00  0.00     0.039 A 
ENDROOT
BRANCH   4   7
ATOM      7  O   UNL d   1      -1.938  -3.254   1.043  0.00  0.00    -0.526 OA
ATOM      8  H5  UNL d   1      -2.856  -3.199   0.729  0.00  0.00     0.418 HD
ENDBRANCH   4   7
TORSDOF 1
ENDMDL
