MODEL 1
REMARK minimizedAffinity 0.40391171
REMARK minimizedRMSD -1
REMARK  1 active torsions:
REMARK  status: ('A' for Active; 'I' for Inactive)
REMARK    1  A    between atoms: C3_4  and  O_7 
ROOT
ATOM      1  C   UNL d   1      -0.907  -5.683  -3.994  0.00  0.00    -0.033 A 
ATOM      2  C1  UNL d   1      -2.053  -5.883  -3.222  0.00  0.00     0.039 A 
ATOM      3  C2  UNL d   1      -3.301  -5.990  -3.838  0.00  0.00    -0.080 A 
ATOM      4  C3  UNL d   1      -3.390  -5.898  -5.225  0.00  0.00     0.150 A 
ATOM      5  C4  UNL d   1      -2.251  -5.703  -6.000  0.00  0.00    -0.007 A 
ATOM      6  C5  UNL d   1      -1.006  -5.595  -5.383  0.00  0.00     0.039 A 
ENDROOT
BRANCH   4   7
ATOM      7  O   UNL d   1      -4.587  -5.992  -5.870  0.00  0.00    -0.526 OA
ATOM      8  H5  UNL d   1      -5.287  -6.097  -5.206  0.00  0.00     0.418 HD
ENDBRANCH   4   7
TORSDOF 1
ENDMDL
