MODEL 1
REMARK minimizedAffinity -1.79499984
REMARK minimizedRMSD -1
REMARK  1 active torsions:
REMARK  status: ('A' for Active; 'I' for Inactive)
REMARK    1  A    between atoms: C3_4  and  O_7 
ROOT
ATOM      1  C   UNL d   1      -2.761  -0.360   0.485  0.00  0.00    -0.033 A 
ATOM      2  C1  UNL d   1      -2.636   0.975   0.876  0.00  0.00     0.039 A 
ATOM      3  C2  UNL d   1      -1.455   1.673   0.614  0.00  0.00    -0.080 A 
ATOM      4  C3  UNL d   1      -0.409   1.027  -0.038  0.00  0.00     0.150 A 
ATOM      5  C4  UNL d   1      -0.528  -0.302  -0.434  0.00  0.00    -0.007 A 
ATOM      6  C5  UNL d   1      -1.708  -0.998  -0.172  0.00  0.00     0.039 A 
ENDROOT
BRANCH   4   7
ATOM      7  O   UNL d   1       0.764   1.665  -0.311  0.00  0.00    -0.526 OA
ATOM      8  H5  UNL d   1       0.713   2.568   0.046  0.00  0.00     0.418 HD
ENDBRANCH   4   7
TORSDOF 1
ENDMDL
