MODEL 1
REMARK minimizedAffinity -4.94652367
REMARK minimizedRMSD -1
REMARK  1 active torsions:
REMARK  status: ('A' for Active; 'I' for Inactive)
REMARK    1  A    between atoms: C3_4  and  O_7 
ROOT
ATOM      1  C   UNL d   1      -0.025  -0.005  -0.037  0.00  0.00    -0.033 A 
ATOM      2  C1  UNL d   1      -1.419  -0.001   0.052  0.00  0.00     0.039 A 
ATOM      3  C2  UNL d   1      -2.084  -1.070   0.657  0.00  0.00    -0.080 A 
ATOM      4  C3  UNL d   1      -1.346  -2.133   1.168  0.00  0.00     0.150 A 
ATOM      5  C4  UNL d   1       0.043  -2.142   1.086  0.00  0.00    -0.007 A 
ATOM      6  C5  UNL d   1       0.705  -1.075   0.481  0.00  0.00     0.039 A 
ENDROOT
BRANCH   4   7
ATOM      7  O   UNL d   1      -1.951  -3.200   1.763  0.00  0.00    -0.526 OA
ATOM      8  H5  UNL d   1      -2.914  -3.070   1.722  0.00  0.00     0.418 HD
ENDBRANCH   4   7
TORSDOF 1
ENDMDL
