MODEL 1
REMARK minimizedAffinity -3.73534346
REMARK minimizedRMSD -1
REMARK  1 active torsions:
REMARK  status: ('A' for Active; 'I' for Inactive)
REMARK    1  A    between atoms: C3_4  and  O_7 
ROOT
ATOM      1  C   UNL d   1       0.952   0.351  -0.062  0.00  0.00    -0.033 A 
ATOM      2  C1  UNL d   1      -0.425   0.579  -0.082  0.00  0.00     0.039 A 
ATOM      3  C2  UNL d   1      -1.307  -0.425   0.323  0.00  0.00    -0.080 A 
ATOM      4  C3  UNL d   1      -0.799  -1.650   0.747  0.00  0.00     0.150 A 
ATOM      5  C4  UNL d   1       0.572  -1.882   0.774  0.00  0.00    -0.007 A 
ATOM      6  C5  UNL d   1       1.451  -0.879   0.368  0.00  0.00     0.039 A 
ENDROOT
BRANCH   4   7
ATOM      7  O   UNL d   1      -1.621  -2.661   1.148  0.00  0.00    -0.526 OA
ATOM      8  H5  UNL d   1      -2.542  -2.367   1.049  0.00  0.00     0.418 HD
ENDBRANCH   4   7
TORSDOF 1
ENDMDL
