MODEL 1
REMARK minimizedAffinity -4.60571194
REMARK minimizedRMSD -1
REMARK  1 active torsions:
REMARK  status: ('A' for Active; 'I' for Inactive)
REMARK    1  A    between atoms: C3_4  and  O_7 
ROOT
ATOM      1  C   UNL d   1       0.382   0.934   0.381  0.00  0.00    -0.033 A 
ATOM      2  C1  UNL d   1       1.361  -0.053   0.255  0.00  0.00     0.039 A 
ATOM      3  C2  UNL d   1       1.070  -1.376   0.595  0.00  0.00    -0.080 A 
ATOM      4  C3  UNL d   1      -0.202  -1.698   1.059  0.00  0.00     0.150 A 
ATOM      5  C4  UNL d   1      -1.184  -0.720   1.185  0.00  0.00    -0.007 A 
ATOM      6  C5  UNL d   1      -0.891   0.600   0.845  0.00  0.00     0.039 A 
ENDROOT
BRANCH   4   7
ATOM      7  O   UNL d   1      -0.531  -2.974   1.408  0.00  0.00    -0.526 OA
ATOM      8  H5  UNL d   1       0.254  -3.535   1.297  0.00  0.00     0.418 HD
ENDBRANCH   4   7
TORSDOF 1
ENDMDL
