MODEL 1
REMARK minimizedAffinity -4.25074005
REMARK minimizedRMSD -1
REMARK  1 active torsions:
REMARK  status: ('A' for Active; 'I' for Inactive)
REMARK    1  A    between atoms: C3_4  and  O_7 
ROOT
ATOM      1  C   UNL d   1       0.150   0.934   0.404  0.00  0.00    -0.033 A 
ATOM      2  C1  UNL d   1       0.875  -0.210   0.067  0.00  0.00     0.039 A 
ATOM      3  C2  UNL d   1       0.289  -1.472   0.186  0.00  0.00    -0.080 A 
ATOM      4  C3  UNL d   1      -1.023  -1.575   0.641  0.00  0.00     0.150 A 
ATOM      5  C4  UNL d   1      -1.753  -0.439   0.975  0.00  0.00    -0.007 A 
ATOM      6  C5  UNL d   1      -1.165   0.820   0.857  0.00  0.00     0.039 A 
ENDROOT
BRANCH   4   7
ATOM      7  O   UNL d   1      -1.637  -2.785   0.778  0.00  0.00    -0.526 OA
ATOM      8  H5  UNL d   1      -1.002  -3.480   0.538  0.00  0.00     0.418 HD
ENDBRANCH   4   7
TORSDOF 1
ENDMDL
