MODEL 1
REMARK minimizedAffinity -3.09304667
REMARK minimizedRMSD -1
REMARK  1 active torsions:
REMARK  status: ('A' for Active; 'I' for Inactive)
REMARK    1  A    between atoms: C3_4  and  O_7 
ROOT
ATOM      1  C   UNL d   1       0.421  -1.834   0.043  0.00  0.00    -0.033 A 
ATOM      2  C1  UNL d   1      -0.470  -2.075   1.091  0.00  0.00     0.039 A 
ATOM      3  C2  UNL d   1      -1.261  -1.039   1.590  0.00  0.00    -0.080 A 
ATOM      4  C3  UNL d   1      -1.153   0.232   1.033  0.00  0.00     0.150 A 
ATOM      5  C4  UNL d   1      -0.271   0.479  -0.013  0.00  0.00    -0.007 A 
ATOM      6  C5  UNL d   1       0.519  -0.557  -0.510  0.00  0.00     0.039 A 
ENDROOT
BRANCH   4   7
ATOM      7  O   UNL d   1      -1.901   1.276   1.490  0.00  0.00    -0.526 OA
ATOM      8  H5  UNL d   1      -2.444   0.964   2.233  0.00  0.00     0.418 HD
ENDBRANCH   4   7
TORSDOF 1
ENDMDL
