MODEL 1
REMARK minimizedAffinity -3.76409531
REMARK minimizedRMSD -1
REMARK  1 active torsions:
REMARK  status: ('A' for Active; 'I' for Inactive)
REMARK    1  A    between atoms: C3_4  and  O_7 
ROOT
ATOM      1  C   UNL d   1       0.863   0.304   0.309  0.00  0.00    -0.033 A 
ATOM      2  C1  UNL d   1       1.483  -0.945   0.371  0.00  0.00     0.039 A 
ATOM      3  C2  UNL d   1       0.715  -2.101   0.527  0.00  0.00    -0.080 A 
ATOM      4  C3  UNL d   1      -0.670  -1.994   0.618  0.00  0.00     0.150 A 
ATOM      5  C4  UNL d   1      -1.295  -0.753   0.553  0.00  0.00    -0.007 A 
ATOM      6  C5  UNL d   1      -0.526   0.400   0.399  0.00  0.00     0.039 A 
ENDROOT
BRANCH   4   7
ATOM      7  O   UNL d   1      -1.460  -3.093   0.775  0.00  0.00    -0.526 OA
ATOM      8  H5  UNL d   1      -0.889  -3.877   0.833  0.00  0.00     0.418 HD
ENDBRANCH   4   7
TORSDOF 1
ENDMDL
