MODEL 1
REMARK minimizedAffinity 6.74611139
REMARK minimizedRMSD -1
REMARK  1 active torsions:
REMARK  status: ('A' for Active; 'I' for Inactive)
REMARK    1  A    between atoms: C3_4  and  O_7 
ROOT
ATOM      1  C   UNL d   1       5.470  -4.003  -1.853  0.00  0.00    -0.033 A 
ATOM      2  C1  UNL d   1       6.000  -3.400  -0.711  0.00  0.00     0.039 A 
ATOM      3  C2  UNL d   1       5.942  -4.059   0.519  0.00  0.00    -0.080 A 
ATOM      4  C3  UNL d   1       5.353  -5.319   0.592  0.00  0.00     0.150 A 
ATOM      5  C4  UNL d   1       4.826  -5.926  -0.543  0.00  0.00    -0.007 A 
ATOM      6  C5  UNL d   1       4.884  -5.266  -1.770  0.00  0.00     0.039 A 
ENDROOT
BRANCH   4   7
ATOM      7  O   UNL d   1       5.269  -5.999   1.770  0.00  0.00    -0.526 OA
ATOM      8  H5  UNL d   1       5.648  -5.445   2.473  0.00  0.00     0.418 HD
ENDBRANCH   4   7
TORSDOF 1
ENDMDL
