MODEL 1
REMARK minimizedAffinity -3.24781752
REMARK minimizedRMSD -1
REMARK  1 active torsions:
REMARK  status: ('A' for Active; 'I' for Inactive)
REMARK    1  A    between atoms: C3_4  and  O_7 
ROOT
ATOM      1  C   UNL d   1       0.451  -0.003   0.450  0.00  0.00    -0.033 A 
ATOM      2  C1  UNL d   1      -0.128  -0.170   1.709  0.00  0.00     0.039 A 
ATOM      3  C2  UNL d   1      -1.264   0.561   2.060  0.00  0.00    -0.080 A 
ATOM      4  C3  UNL d   1      -1.811   1.455   1.143  0.00  0.00     0.150 A 
ATOM      5  C4  UNL d   1      -1.242   1.624  -0.114  0.00  0.00    -0.007 A 
ATOM      6  C5  UNL d   1      -0.106   0.894  -0.462  0.00  0.00     0.039 A 
ENDROOT
BRANCH   4   7
ATOM      7  O   UNL d   1      -2.917   2.194   1.442  0.00  0.00    -0.526 OA
ATOM      8  H5  UNL d   1      -3.184   1.994   2.355  0.00  0.00     0.418 HD
ENDBRANCH   4   7
TORSDOF 1
ENDMDL
