MODEL 1
REMARK minimizedAffinity -4.47894764
REMARK minimizedRMSD -1
REMARK  1 active torsions:
REMARK  status: ('A' for Active; 'I' for Inactive)
REMARK    1  A    between atoms: C3_4  and  O_7 
ROOT
ATOM      1  C   UNL d   1       0.428  -0.245   0.156  0.00  0.00    -0.033 A 
ATOM      2  C1  UNL d   1      -0.112   0.785  -0.617  0.00  0.00     0.039 A 
ATOM      3  C2  UNL d   1      -1.099   1.616  -0.084  0.00  0.00    -0.080 A 
ATOM      4  C3  UNL d   1      -1.536   1.408   1.221  0.00  0.00     0.150 A 
ATOM      5  C4  UNL d   1      -1.000   0.386   1.998  0.00  0.00    -0.007 A 
ATOM      6  C5  UNL d   1      -0.015  -0.443   1.464  0.00  0.00     0.039 A 
ENDROOT
BRANCH   4   7
ATOM      7  O   UNL d   1      -2.501   2.190   1.783  0.00  0.00    -0.526 OA
ATOM      8  H5  UNL d   1      -2.799   2.835   1.120  0.00  0.00     0.418 HD
ENDBRANCH   4   7
TORSDOF 1
ENDMDL
