MODEL 1
REMARK minimizedAffinity -3.20196056
REMARK minimizedRMSD -1
REMARK  1 active torsions:
REMARK  status: ('A' for Active; 'I' for Inactive)
REMARK    1  A    between atoms: C3_4  and  O_7 
ROOT
ATOM      1  C   UNL d   1       0.164   0.137   0.090  0.00  0.00    -0.033 A 
ATOM      2  C1  UNL d   1      -0.346   1.148  -0.727  0.00  0.00     0.039 A 
ATOM      3  C2  UNL d   1      -1.279   2.054  -0.218  0.00  0.00    -0.080 A 
ATOM      4  C3  UNL d   1      -1.692   1.939   1.106  0.00  0.00     0.150 A 
ATOM      5  C4  UNL d   1      -1.184   0.936   1.927  0.00  0.00    -0.007 A 
ATOM      6  C5  UNL d   1      -0.254   0.032   1.417  0.00  0.00     0.039 A 
ENDROOT
BRANCH   4   7
ATOM      7  O   UNL d   1      -2.604   2.797   1.646  0.00  0.00    -0.526 OA
ATOM      8  H5  UNL d   1      -2.888   3.418   0.955  0.00  0.00     0.418 HD
ENDBRANCH   4   7
TORSDOF 1
ENDMDL
