MODEL 1
REMARK minimizedAffinity -3.60411763
REMARK minimizedRMSD -1
REMARK  1 active torsions:
REMARK  status: ('A' for Active; 'I' for Inactive)
REMARK    1  A    between atoms: C3_4  and  O_7 
ROOT
ATOM      1  C   UNL d   1       1.048  -0.335  -0.162  0.00  0.00    -0.033 A 
ATOM      2  C1  UNL d   1       0.946   0.585  -1.207  0.00  0.00     0.039 A 
ATOM      3  C2  UNL d   1      -0.090   1.521  -1.217  0.00  0.00    -0.080 A 
ATOM      4  C3  UNL d   1      -1.015   1.528  -0.177  0.00  0.00     0.150 A 
ATOM      5  C4  UNL d   1      -0.917   0.617   0.870  0.00  0.00    -0.007 A 
ATOM      6  C5  UNL d   1       0.117  -0.318   0.878  0.00  0.00     0.039 A 
ENDROOT
BRANCH   4   7
ATOM      7  O   UNL d   1      -2.046   2.420  -0.145  0.00  0.00    -0.526 OA
ATOM      8  H5  UNL d   1      -2.003   2.968  -0.947  0.00  0.00     0.418 HD
ENDBRANCH   4   7
TORSDOF 1
ENDMDL
