MODEL 1
REMARK minimizedAffinity -3.68659472
REMARK minimizedRMSD -1
REMARK  1 active torsions:
REMARK  status: ('A' for Active; 'I' for Inactive)
REMARK    1  A    between atoms: C3_4  and  O_7 
ROOT
ATOM      1  C   UNL d   1      -0.439  -0.906   0.891  0.00  0.00    -0.033 A 
ATOM      2  C1  UNL d   1      -0.530   0.392   1.398  0.00  0.00     0.039 A 
ATOM      3  C2  UNL d   1      -0.107   1.476   0.626  0.00  0.00    -0.080 A 
ATOM      4  C3  UNL d   1       0.403   1.249  -0.649  0.00  0.00     0.150 A 
ATOM      5  C4  UNL d   1       0.493  -0.041  -1.162  0.00  0.00    -0.007 A 
ATOM      6  C5  UNL d   1       0.071  -1.122  -0.389  0.00  0.00     0.039 A 
ENDROOT
BRANCH   4   7
ATOM      7  O   UNL d   1       0.833   2.274  -1.438  0.00  0.00    -0.526 OA
ATOM      8  H5  UNL d   1       0.738   3.105  -0.942  0.00  0.00     0.418 HD
ENDBRANCH   4   7
TORSDOF 1
ENDMDL
