MODEL 1
REMARK minimizedAffinity -4.70284748
REMARK minimizedRMSD -1
REMARK  1 active torsions:
REMARK  status: ('A' for Active; 'I' for Inactive)
REMARK    1  A    between atoms: C3_4  and  O_7 
ROOT
ATOM      1  C   UNL d   1      -2.434   2.979  -0.031  0.00  0.00    -0.033 A 
ATOM      2  C1  UNL d   1      -2.066   2.902   1.314  0.00  0.00     0.039 A 
ATOM      3  C2  UNL d   1      -1.236   1.868   1.754  0.00  0.00    -0.080 A 
ATOM      4  C3  UNL d   1      -0.781   0.922   0.840  0.00  0.00     0.150 A 
ATOM      5  C4  UNL d   1      -1.141   0.995  -0.502  0.00  0.00    -0.007 A 
ATOM      6  C5  UNL d   1      -1.970   2.027  -0.939  0.00  0.00     0.039 A 
ENDROOT
BRANCH   4   7
ATOM      7  O   UNL d   1       0.027  -0.107   1.224  0.00  0.00    -0.526 OA
ATOM      8  H5  UNL d   1       0.168  -0.047   2.183  0.00  0.00     0.418 HD
ENDBRANCH   4   7
TORSDOF 1
ENDMDL
