MODEL 1
REMARK minimizedAffinity -3.64746308
REMARK minimizedRMSD -1
REMARK  1 active torsions:
REMARK  status: ('A' for Active; 'I' for Inactive)
REMARK    1  A    between atoms: C3_4  and  O_7 
ROOT
ATOM      1  C   UNL d   1      -1.057   1.100   1.688  0.00  0.00    -0.033 A 
ATOM      2  C1  UNL d   1      -0.488   0.018   1.013  0.00  0.00     0.039 A 
ATOM      3  C2  UNL d   1       0.340   0.239  -0.090  0.00  0.00    -0.080 A 
ATOM      4  C3  UNL d   1       0.592   1.543  -0.505  0.00  0.00     0.150 A 
ATOM      5  C4  UNL d   1       0.031   2.625   0.165  0.00  0.00    -0.007 A 
ATOM      6  C5  UNL d   1      -0.796   2.403   1.265  0.00  0.00     0.039 A 
ENDROOT
BRANCH   4   7
ATOM      7  O   UNL d   1       1.390   1.808  -1.578  0.00  0.00    -0.526 OA
ATOM      8  H5  UNL d   1       1.683   0.963  -1.959  0.00  0.00     0.418 HD
ENDBRANCH   4   7
TORSDOF 1
ENDMDL
