MODEL 1
REMARK minimizedAffinity -2.22597504
REMARK minimizedRMSD -1
REMARK  1 active torsions:
REMARK  status: ('A' for Active; 'I' for Inactive)
REMARK    1  A    between atoms: C3_4  and  O_7 
ROOT
ATOM      1  C   UNL d   1       0.776  -2.679  -2.701  0.00  0.00    -0.033 A 
ATOM      2  C1  UNL d   1       1.800  -1.932  -2.115  0.00  0.00     0.039 A 
ATOM      3  C2  UNL d   1       1.532  -1.124  -1.009  0.00  0.00    -0.080 A 
ATOM      4  C3  UNL d   1       0.238  -1.072  -0.498  0.00  0.00     0.150 A 
ATOM      5  C4  UNL d   1      -0.786  -1.816  -1.074  0.00  0.00    -0.007 A 
ATOM      6  C5  UNL d   1      -0.517  -2.622  -2.179  0.00  0.00     0.039 A 
ENDROOT
BRANCH   4   7
ATOM      7  O   UNL d   1      -0.073  -0.293   0.577  0.00  0.00    -0.526 OA
ATOM      8  H5  UNL d   1       0.726   0.185   0.852  0.00  0.00     0.418 HD
ENDBRANCH   4   7
TORSDOF 1
ENDMDL
