MODEL 1
REMARK minimizedAffinity -5.1343441
REMARK minimizedRMSD -1
REMARK  1 active torsions:
REMARK  status: ('A' for Active; 'I' for Inactive)
REMARK    1  A    between atoms: C3_4  and  O_7 
ROOT
ATOM      1  C   UNL d   1      -1.373   2.382   1.418  0.00  0.00    -0.033 A 
ATOM      2  C1  UNL d   1      -0.901   2.680   0.139  0.00  0.00     0.039 A 
ATOM      3  C2  UNL d   1      -0.319   1.680  -0.644  0.00  0.00    -0.080 A 
ATOM      4  C3  UNL d   1      -0.216   0.388  -0.136  0.00  0.00     0.150 A 
ATOM      5  C4  UNL d   1      -0.688   0.083   1.137  0.00  0.00    -0.007 A 
ATOM      6  C5  UNL d   1      -1.268   1.083   1.917  0.00  0.00     0.039 A 
ENDROOT
BRANCH   4   7
ATOM      7  O   UNL d   1       0.348  -0.619  -0.860  0.00  0.00    -0.526 OA
ATOM      8  H5  UNL d   1       0.654  -0.255  -1.707  0.00  0.00     0.418 HD
ENDBRANCH   4   7
TORSDOF 1
ENDMDL
