MODEL 1
REMARK minimizedAffinity 4.53039169
REMARK minimizedRMSD -1
REMARK  1 active torsions:
REMARK  status: ('A' for Active; 'I' for Inactive)
REMARK    1  A    between atoms: C3_4  and  O_7 
ROOT
ATOM      1  C   UNL d   1       0.951  -1.076   0.789  0.00  0.00    -0.033 A 
ATOM      2  C1  UNL d   1       0.561  -1.599   2.023  0.00  0.00     0.039 A 
ATOM      3  C2  UNL d   1      -0.294  -0.871   2.853  0.00  0.00    -0.080 A 
ATOM      4  C3  UNL d   1      -0.752   0.376   2.437  0.00  0.00     0.150 A 
ATOM      5  C4  UNL d   1      -0.371   0.902   1.207  0.00  0.00    -0.007 A 
ATOM      6  C5  UNL d   1       0.484   0.174   0.380  0.00  0.00     0.039 A 
ENDROOT
BRANCH   4   7
ATOM      7  O   UNL d   1      -1.585   1.125   3.215  0.00  0.00    -0.526 OA
ATOM      8  H5  UNL d   1      -1.740   0.649   4.047  0.00  0.00     0.418 HD
ENDBRANCH   4   7
TORSDOF 1
ENDMDL
