MODEL 1
REMARK minimizedAffinity 0.554733396
REMARK minimizedRMSD -1
REMARK  1 active torsions:
REMARK  status: ('A' for Active; 'I' for Inactive)
REMARK    1  A    between atoms: C3_4  and  O_7 
ROOT
ATOM      1  C   UNL d   1      -1.033  -0.231   1.559  0.00  0.00    -0.033 A 
ATOM      2  C1  UNL d   1      -0.606   0.202   0.302  0.00  0.00     0.039 A 
ATOM      3  C2  UNL d   1      -0.149   1.511   0.131  0.00  0.00    -0.080 A 
ATOM      4  C3  UNL d   1      -0.123   2.374   1.222  0.00  0.00     0.150 A 
ATOM      5  C4  UNL d   1      -0.543   1.948   2.478  0.00  0.00    -0.007 A 
ATOM      6  C5  UNL d   1      -1.000   0.641   2.647  0.00  0.00     0.039 A 
ENDROOT
BRANCH   4   7
ATOM      7  O   UNL d   1       0.310   3.661   1.103  0.00  0.00    -0.526 OA
ATOM      8  H5  UNL d   1       0.541   3.823   0.173  0.00  0.00     0.418 HD
ENDBRANCH   4   7
TORSDOF 1
ENDMDL
