MODEL 1
REMARK minimizedAffinity 3.93296671
REMARK minimizedRMSD -1
REMARK  1 active torsions:
REMARK  status: ('A' for Active; 'I' for Inactive)
REMARK    1  A    between atoms: C3_4  and  O_7 
ROOT
ATOM      1  C   UNL d   1       0.594  -0.449   0.049  0.00  0.00    -0.033 A 
ATOM      2  C1  UNL d   1       0.061  -1.016   1.209  0.00  0.00     0.039 A 
ATOM      3  C2  UNL d   1      -0.599  -0.213   2.141  0.00  0.00    -0.080 A 
ATOM      4  C3  UNL d   1      -0.721   1.153   1.901  0.00  0.00     0.150 A 
ATOM      5  C4  UNL d   1      -0.196   1.724   0.747  0.00  0.00    -0.007 A 
ATOM      6  C5  UNL d   1       0.464   0.920  -0.182  0.00  0.00     0.039 A 
ENDROOT
BRANCH   4   7
ATOM      7  O   UNL d   1      -1.352   1.978   2.784  0.00  0.00    -0.526 OA
ATOM      8  H5  UNL d   1      -1.638   1.450   3.548  0.00  0.00     0.418 HD
ENDBRANCH   4   7
TORSDOF 1
ENDMDL
