MODEL 1
REMARK minimizedAffinity -3.94670367
REMARK minimizedRMSD -1
REMARK  1 active torsions:
REMARK  status: ('A' for Active; 'I' for Inactive)
REMARK    1  A    between atoms: C3_4  and  O_7 
ROOT
ATOM      1  C   UNL d   1      -2.114   2.409   0.805  0.00  0.00    -0.033 A 
ATOM      2  C1  UNL d   1      -2.084   1.098   1.284  0.00  0.00     0.039 A 
ATOM      3  C2  UNL d   1      -1.172   0.182   0.757  0.00  0.00    -0.080 A 
ATOM      4  C3  UNL d   1      -0.296   0.588  -0.246  0.00  0.00     0.150 A 
ATOM      5  C4  UNL d   1      -0.318   1.894  -0.725  0.00  0.00    -0.007 A 
ATOM      6  C5  UNL d   1      -1.230   2.808  -0.198  0.00  0.00     0.039 A 
ENDROOT
BRANCH   4   7
ATOM      7  O   UNL d   1       0.609  -0.272  -0.794  0.00  0.00    -0.526 OA
ATOM      8  H5  UNL d   1       0.489  -1.145  -0.385  0.00  0.00     0.418 HD
ENDBRANCH   4   7
TORSDOF 1
ENDMDL
