MODEL 1
REMARK minimizedAffinity -4.03610516
REMARK minimizedRMSD -1
REMARK  1 active torsions:
REMARK  status: ('A' for Active; 'I' for Inactive)
REMARK    1  A    between atoms: C3_4  and  O_7 
ROOT
ATOM      1  C   UNL d   1       0.395  -0.143   0.100  0.00  0.00    -0.033 A 
ATOM      2  C1  UNL d   1       0.302   0.094   1.473  0.00  0.00     0.039 A 
ATOM      3  C2  UNL d   1      -0.666   0.968   1.969  0.00  0.00    -0.080 A 
ATOM      4  C3  UNL d   1      -1.535   1.599   1.082  0.00  0.00     0.150 A 
ATOM      5  C4  UNL d   1      -1.451   1.365  -0.286  0.00  0.00    -0.007 A 
ATOM      6  C5  UNL d   1      -0.482   0.492  -0.779  0.00  0.00     0.039 A 
ENDROOT
BRANCH   4   7
ATOM      7  O   UNL d   1      -2.494   2.464   1.519  0.00  0.00    -0.526 OA
ATOM      8  H5  UNL d   1      -2.415   2.550   2.483  0.00  0.00     0.418 HD
ENDBRANCH   4   7
TORSDOF 1
ENDMDL
