MODEL 1
REMARK minimizedAffinity -4.68471622
REMARK minimizedRMSD -1
REMARK  1 active torsions:
REMARK  status: ('A' for Active; 'I' for Inactive)
REMARK    1  A    between atoms: C3_4  and  O_7 
ROOT
ATOM      1  C   UNL d   1       0.362   0.219   0.293  0.00  0.00    -0.033 A 
ATOM      2  C1  UNL d   1      -0.087   1.110  -0.684  0.00  0.00     0.039 A 
ATOM      3  C2  UNL d   1      -1.088   2.034  -0.381  0.00  0.00    -0.080 A 
ATOM      4  C3  UNL d   1      -1.631   2.058   0.901  0.00  0.00     0.150 A 
ATOM      5  C4  UNL d   1      -1.185   1.177   1.881  0.00  0.00    -0.007 A 
ATOM      6  C5  UNL d   1      -0.186   0.254   1.576  0.00  0.00     0.039 A 
ENDROOT
BRANCH   4   7
ATOM      7  O   UNL d   1      -2.613   2.940   1.243  0.00  0.00    -0.526 OA
ATOM      8  H5  UNL d   1      -2.841   3.466   0.458  0.00  0.00     0.418 HD
ENDBRANCH   4   7
TORSDOF 1
ENDMDL
