MODEL 1
REMARK minimizedAffinity -4.23223448
REMARK minimizedRMSD -1
REMARK  1 active torsions:
REMARK  status: ('A' for Active; 'I' for Inactive)
REMARK    1  A    between atoms: C3_4  and  O_7 
ROOT
ATOM      1  C   UNL d   1       0.075  -0.393   0.333  0.00  0.00    -0.033 A 
ATOM      2  C1  UNL d   1      -0.252  -0.260   1.683  0.00  0.00     0.039 A 
ATOM      3  C2  UNL d   1      -1.106   0.763   2.099  0.00  0.00    -0.080 A 
ATOM      4  C3  UNL d   1      -1.626   1.645   1.156  0.00  0.00     0.150 A 
ATOM      5  C4  UNL d   1      -1.308   1.515  -0.192  0.00  0.00    -0.007 A 
ATOM      6  C5  UNL d   1      -0.454   0.493  -0.606  0.00  0.00     0.039 A 
ENDROOT
BRANCH   4   7
ATOM      7  O   UNL d   1      -2.460   2.662   1.514  0.00  0.00    -0.526 OA
ATOM      8  H5  UNL d   1      -2.568   2.645   2.480  0.00  0.00     0.418 HD
ENDBRANCH   4   7
TORSDOF 1
ENDMDL
