MODEL 1
REMARK minimizedAffinity -4.26161909
REMARK minimizedRMSD -1
REMARK  1 active torsions:
REMARK  status: ('A' for Active; 'I' for Inactive)
REMARK    1  A    between atoms: C3_4  and  O_7 
ROOT
ATOM      1  C   UNL d   1      -2.147   0.419   1.484  0.00  0.00    -0.033 A 
ATOM      2  C1  UNL d   1      -1.902  -0.384   0.368  0.00  0.00     0.039 A 
ATOM      3  C2  UNL d   1      -0.766  -0.167  -0.414  0.00  0.00    -0.080 A 
ATOM      4  C3  UNL d   1       0.116   0.854  -0.069  0.00  0.00     0.150 A 
ATOM      5  C4  UNL d   1      -0.120   1.655   1.043  0.00  0.00    -0.007 A 
ATOM      6  C5  UNL d   1      -1.255   1.437   1.822  0.00  0.00     0.039 A 
ENDROOT
BRANCH   4   7
ATOM      7  O   UNL d   1       1.236   1.107  -0.805  0.00  0.00    -0.526 OA
ATOM      8  H5  UNL d   1       1.254   0.494  -1.559  0.00  0.00     0.418 HD
ENDBRANCH   4   7
TORSDOF 1
ENDMDL
