MODEL 1
REMARK minimizedAffinity -4.17602253
REMARK minimizedRMSD -1
REMARK  1 active torsions:
REMARK  status: ('A' for Active; 'I' for Inactive)
REMARK    1  A    between atoms: C3_4  and  O_7 
ROOT
ATOM      1  C   UNL d   1       0.422  -0.415   0.435  0.00  0.00    -0.033 A 
ATOM      2  C1  UNL d   1       0.282   0.795  -0.247  0.00  0.00     0.039 A 
ATOM      3  C2  UNL d   1      -0.572   1.783   0.248  0.00  0.00    -0.080 A 
ATOM      4  C3  UNL d   1      -1.278   1.549   1.425  0.00  0.00     0.150 A 
ATOM      5  C4  UNL d   1      -1.140   0.347   2.112  0.00  0.00    -0.007 A 
ATOM      6  C5  UNL d   1      -0.287  -0.638   1.616  0.00  0.00     0.039 A 
ENDROOT
BRANCH   4   7
ATOM      7  O   UNL d   1      -2.126   2.481   1.944  0.00  0.00    -0.526 OA
ATOM      8  H5  UNL d   1      -2.142   3.248   1.348  0.00  0.00     0.418 HD
ENDBRANCH   4   7
TORSDOF 1
ENDMDL
