MODEL 1
REMARK minimizedAffinity 8.31262684
REMARK minimizedRMSD -1
REMARK  0 active torsions:
REMARK  status: ('A' for Active; 'I' for Inactive)
ROOT
ATOM      1  C   UNL d   1       1.317   4.825  -1.375  0.00  0.00     0.172 C 
ATOM      2  N   UNL d   1       0.447   3.787  -0.871  0.00  0.00    -0.070 N 
ATOM      3  C1  UNL d   1       0.698   2.994   0.217  0.00  0.00    -0.004 A 
ATOM      4  C2  UNL d   1      -0.369   2.135   0.367  0.00  0.00    -0.047 A 
ATOM      5  C3  UNL d   1      -1.293   2.422  -0.666  0.00  0.00    -0.047 A 
ATOM      6  C4  UNL d   1      -0.762   3.448  -1.418  0.00  0.00    -0.004 A 
ENDROOT
TORSDOF 0
ENDMDL
