MODEL 1
REMARK minimizedAffinity 4.44842005
REMARK minimizedRMSD -1
REMARK  0 active torsions:
REMARK  status: ('A' for Active; 'I' for Inactive)
ROOT
ATOM      1  C   UNL d   1       5.997  -2.747  -3.491  0.00  0.00     0.172 C 
ATOM      2  N   UNL d   1       5.995  -3.693  -2.400  0.00  0.00    -0.070 N 
ATOM      3  C1  UNL d   1       5.999  -3.375  -1.068  0.00  0.00    -0.004 A 
ATOM      4  C2  UNL d   1       5.995  -4.553  -0.353  0.00  0.00    -0.047 A 
ATOM      5  C3  UNL d   1       5.989  -5.616  -1.288  0.00  0.00    -0.047 A 
ATOM      6  C4  UNL d   1       5.989  -5.055  -2.547  0.00  0.00    -0.004 A 
ENDROOT
TORSDOF 0
ENDMDL
