MODEL 1
REMARK minimizedAffinity 6.81433725
REMARK minimizedRMSD -1
REMARK  0 active torsions:
REMARK  status: ('A' for Active; 'I' for Inactive)
ROOT
ATOM      1  C   UNL d   1       2.537   2.144   2.077  0.00  0.00     0.172 C 
ATOM      2  N   UNL d   1       2.032   2.552   0.787  0.00  0.00    -0.070 N 
ATOM      3  C1  UNL d   1       0.905   2.064   0.180  0.00  0.00    -0.004 A 
ATOM      4  C2  UNL d   1       0.767   2.706  -1.032  0.00  0.00    -0.047 A 
ATOM      5  C3  UNL d   1       1.849   3.610  -1.158  0.00  0.00    -0.047 A 
ATOM      6  C4  UNL d   1       2.616   3.494  -0.018  0.00  0.00    -0.004 A 
ENDROOT
TORSDOF 0
ENDMDL
