MODEL 1
REMARK minimizedAffinity 4.44825029
REMARK minimizedRMSD -1
REMARK  0 active torsions:
REMARK  status: ('A' for Active; 'I' for Inactive)
ROOT
ATOM      1  C   UNL d   1       5.999  -4.254  -0.339  0.00  0.00     0.172 C 
ATOM      2  N   UNL d   1       5.187  -3.102  -0.026  0.00  0.00    -0.070 N 
ATOM      3  C1  UNL d   1       3.818  -3.065  -0.032  0.00  0.00    -0.004 A 
ATOM      4  C2  UNL d   1       3.429  -1.791   0.321  0.00  0.00    -0.047 A 
ATOM      5  C3  UNL d   1       4.605  -1.036   0.546  0.00  0.00    -0.047 A 
ATOM      6  C4  UNL d   1       5.678  -1.872   0.324  0.00  0.00    -0.004 A 
ENDROOT
TORSDOF 0
ENDMDL
