MODEL 1
REMARK minimizedAffinity 4.52748823
REMARK minimizedRMSD -1
REMARK  0 active torsions:
REMARK  status: ('A' for Active; 'I' for Inactive)
ROOT
ATOM      1  C   UNL d   1       0.683   2.082   1.673  0.00  0.00     0.172 C 
ATOM      2  N   UNL d   1      -0.609   2.424   1.127  0.00  0.00    -0.070 N 
ATOM      3  C1  UNL d   1      -1.660   2.950   1.831  0.00  0.00    -0.004 A 
ATOM      4  C2  UNL d   1      -2.706   3.133   0.953  0.00  0.00    -0.047 A 
ATOM      5  C3  UNL d   1      -2.270   2.702  -0.322  0.00  0.00    -0.047 A 
ATOM      6  C4  UNL d   1      -0.968   2.268  -0.186  0.00  0.00    -0.004 A 
ENDROOT
TORSDOF 0
ENDMDL
