MODEL 1
REMARK minimizedAffinity -5.05777836
REMARK minimizedRMSD -1
REMARK  1 active torsions:
REMARK  status: ('A' for Active; 'I' for Inactive)
REMARK    1  A    between atoms: C3_4  and  O_7 
ROOT
ATOM      1  C   UNL d   1       3.369  -0.569   0.910  0.00  0.00    -0.033 A 
ATOM      2  C1  UNL d   1       3.034   0.787   0.912  0.00  0.00     0.039 A 
ATOM      3  C2  UNL d   1       1.713   1.182   0.692  0.00  0.00    -0.080 A 
ATOM      4  C3  UNL d   1       0.738   0.213   0.471  0.00  0.00     0.150 A 
ATOM      5  C4  UNL d   1       1.064  -1.139   0.471  0.00  0.00    -0.007 A 
ATOM      6  C5  UNL d   1       2.384  -1.532   0.691  0.00  0.00     0.039 A 
ENDROOT
BRANCH   4   7
ATOM      7  O   UNL d   1      -0.564   0.550   0.246  0.00  0.00    -0.526 OA
ATOM      8  H5  UNL d   1      -0.635   1.519   0.246  0.00  0.00     0.418 HD
ENDBRANCH   4   7
TORSDOF 1
ENDMDL
