MODEL 1
REMARK minimizedAffinity -4.7443676
REMARK minimizedRMSD -1
REMARK  1 active torsions:
REMARK  status: ('A' for Active; 'I' for Inactive)
REMARK    1  A    between atoms: C3_4  and  O_7 
ROOT
ATOM      1  C   UNL d   1       2.211  -1.920   0.711  0.00  0.00    -0.033 A 
ATOM      2  C1  UNL d   1       1.683  -1.989  -0.580  0.00  0.00     0.039 A 
ATOM      3  C2  UNL d   1       0.709  -1.076  -0.989  0.00  0.00    -0.080 A 
ATOM      4  C3  UNL d   1       0.272  -0.099  -0.098  0.00  0.00     0.150 A 
ATOM      5  C4  UNL d   1       0.796  -0.022   1.188  0.00  0.00    -0.007 A 
ATOM      6  C5  UNL d   1       1.768  -0.935   1.594  0.00  0.00     0.039 A 
ENDROOT
BRANCH   4   7
ATOM      7  O   UNL d   1      -0.680   0.811  -0.449  0.00  0.00    -0.526 OA
ATOM      8  H5  UNL d   1      -0.970   0.618  -1.356  0.00  0.00     0.418 HD
ENDBRANCH   4   7
TORSDOF 1
ENDMDL
