MODEL 1
REMARK minimizedAffinity -4.83568525
REMARK minimizedRMSD -1
REMARK  1 active torsions:
REMARK  status: ('A' for Active; 'I' for Inactive)
REMARK    1  A    between atoms: C3_4  and  O_7 
ROOT
ATOM      1  C   UNL d   1       2.258  -1.750   0.581  0.00  0.00    -0.033 A 
ATOM      2  C1  UNL d   1       1.111  -0.954   0.593  0.00  0.00     0.039 A 
ATOM      3  C2  UNL d   1       1.219   0.431   0.459  0.00  0.00    -0.080 A 
ATOM      4  C3  UNL d   1       2.478   1.008   0.312  0.00  0.00     0.150 A 
ATOM      5  C4  UNL d   1       3.624   0.221   0.295  0.00  0.00    -0.007 A 
ATOM      6  C5  UNL d   1       3.515  -1.163   0.431  0.00  0.00     0.039 A 
ENDROOT
BRANCH   4   7
ATOM      7  O   UNL d   1       2.633   2.356   0.182  0.00  0.00    -0.526 OA
ATOM      8  H5  UNL d   1       1.758   2.774   0.240  0.00  0.00     0.418 HD
ENDBRANCH   4   7
TORSDOF 1
ENDMDL
