MODEL 1
REMARK minimizedAffinity -4.39765263
REMARK minimizedRMSD -1
REMARK  1 active torsions:
REMARK  status: ('A' for Active; 'I' for Inactive)
REMARK    1  A    between atoms: C3_4  and  O_7 
ROOT
ATOM      1  C   UNL d   1      -4.204  -0.715  -0.215  0.00  0.00    -0.033 A 
ATOM      2  C1  UNL d   1      -4.912  -0.566   0.979  0.00  0.00     0.039 A 
ATOM      3  C2  UNL d   1      -4.557   0.437   1.883  0.00  0.00    -0.080 A 
ATOM      4  C3  UNL d   1      -3.493   1.284   1.582  0.00  0.00     0.150 A 
ATOM      5  C4  UNL d   1      -2.786   1.143   0.393  0.00  0.00    -0.007 A 
ATOM      6  C5  UNL d   1      -3.141   0.141  -0.509  0.00  0.00     0.039 A 
ENDROOT
BRANCH   4   7
ATOM      7  O   UNL d   1      -3.107   2.274   2.435  0.00  0.00    -0.526 OA
ATOM      8  H5  UNL d   1      -3.667   2.233   3.228  0.00  0.00     0.418 HD
ENDBRANCH   4   7
TORSDOF 1
ENDMDL
