MODEL 1
REMARK minimizedAffinity -4.6166091
REMARK minimizedRMSD -1
REMARK  1 active torsions:
REMARK  status: ('A' for Active; 'I' for Inactive)
REMARK    1  A    between atoms: C3_4  and  O_7 
ROOT
ATOM      1  C   UNL d   1       0.713  -1.782  -0.041  0.00  0.00    -0.033 A 
ATOM      2  C1  UNL d   1       2.035  -1.533   0.334  0.00  0.00     0.039 A 
ATOM      3  C2  UNL d   1       2.518  -0.224   0.367  0.00  0.00    -0.080 A 
ATOM      4  C3  UNL d   1       1.671   0.827   0.024  0.00  0.00     0.150 A 
ATOM      5  C4  UNL d   1       0.352   0.587  -0.347  0.00  0.00    -0.007 A 
ATOM      6  C5  UNL d   1      -0.129  -0.722  -0.380  0.00  0.00     0.039 A 
ENDROOT
BRANCH   4   7
ATOM      7  O   UNL d   1       2.100   2.121   0.037  0.00  0.00    -0.526 OA
ATOM      8  H5  UNL d   1       3.039   2.131   0.285  0.00  0.00     0.418 HD
ENDBRANCH   4   7
TORSDOF 1
ENDMDL
