MODEL 1
REMARK minimizedAffinity -1.78611636
REMARK minimizedRMSD -1
REMARK  1 active torsions:
REMARK  status: ('A' for Active; 'I' for Inactive)
REMARK    1  A    between atoms: C3_4  and  O_7 
ROOT
ATOM      1  C   UNL d   1       1.131  -1.373  -0.459  0.00  0.00    -0.033 A 
ATOM      2  C1  UNL d   1      -0.033  -0.606  -0.378  0.00  0.00     0.039 A 
ATOM      3  C2  UNL d   1       0.042   0.788  -0.429  0.00  0.00    -0.080 A 
ATOM      4  C3  UNL d   1       1.285   1.400  -0.563  0.00  0.00     0.150 A 
ATOM      5  C4  UNL d   1       2.448   0.642  -0.648  0.00  0.00    -0.007 A 
ATOM      6  C5  UNL d   1       2.371  -0.749  -0.596  0.00  0.00     0.039 A 
ENDROOT
BRANCH   4   7
ATOM      7  O   UNL d   1       1.408   2.757  -0.613  0.00  0.00    -0.526 OA
ATOM      8  H5  UNL d   1       0.525   3.151  -0.513  0.00  0.00     0.418 HD
ENDBRANCH   4   7
TORSDOF 1
ENDMDL
