MODEL 1
REMARK minimizedAffinity -2.63490629
REMARK minimizedRMSD -1
REMARK  1 active torsions:
REMARK  status: ('A' for Active; 'I' for Inactive)
REMARK    1  A    between atoms: C3_4  and  O_7 
ROOT
ATOM      1  C   UNL d   1       3.580   1.831  -0.365  0.00  0.00    -0.033 A 
ATOM      2  C1  UNL d   1       3.820   0.455  -0.398  0.00  0.00     0.039 A 
ATOM      3  C2  UNL d   1       2.750  -0.440  -0.458  0.00  0.00    -0.080 A 
ATOM      4  C3  UNL d   1       1.448   0.052  -0.487  0.00  0.00     0.150 A 
ATOM      5  C4  UNL d   1       1.202   1.421  -0.458  0.00  0.00    -0.007 A 
ATOM      6  C5  UNL d   1       2.272   2.313  -0.396  0.00  0.00     0.039 A 
ENDROOT
BRANCH   4   7
ATOM      7  O   UNL d   1       0.372  -0.783  -0.541  0.00  0.00    -0.526 OA
ATOM      8  H5  UNL d   1       0.693  -1.700  -0.526  0.00  0.00     0.418 HD
ENDBRANCH   4   7
TORSDOF 1
ENDMDL
