MODEL 1
REMARK minimizedAffinity -3.21915936
REMARK minimizedRMSD -1
REMARK  1 active torsions:
REMARK  status: ('A' for Active; 'I' for Inactive)
REMARK    1  A    between atoms: C3_4  and  O_7 
ROOT
ATOM      1  C   UNL d   1       2.298  -2.326   0.896  0.00  0.00    -0.033 A 
ATOM      2  C1  UNL d   1       1.375  -1.824   1.816  0.00  0.00     0.039 A 
ATOM      3  C2  UNL d   1       0.438  -0.869   1.417  0.00  0.00    -0.080 A 
ATOM      4  C3  UNL d   1       0.433  -0.426   0.098  0.00  0.00     0.150 A 
ATOM      5  C4  UNL d   1       1.347  -0.924  -0.825  0.00  0.00    -0.007 A 
ATOM      6  C5  UNL d   1       2.283  -1.877  -0.425  0.00  0.00     0.039 A 
ENDROOT
BRANCH   4   7
ATOM      7  O   UNL d   1      -0.460   0.508  -0.337  0.00  0.00    -0.526 OA
ATOM      8  H5  UNL d   1      -1.010   0.782   0.416  0.00  0.00     0.418 HD
ENDBRANCH   4   7
TORSDOF 1
ENDMDL
