MODEL 1
REMARK minimizedAffinity -5.63878536
REMARK minimizedRMSD -1
REMARK  1 active torsions:
REMARK  status: ('A' for Active; 'I' for Inactive)
REMARK    1  A    between atoms: C3_4  and  O_7 
ROOT
ATOM      1  C   UNL d   1       0.448   1.352  -0.322  0.00  0.00    -0.033 A 
ATOM      2  C1  UNL d   1      -0.087   0.072  -0.477  0.00  0.00     0.039 A 
ATOM      3  C2  UNL d   1       0.588  -1.036   0.038  0.00  0.00    -0.080 A 
ATOM      4  C3  UNL d   1       1.795  -0.851   0.706  0.00  0.00     0.150 A 
ATOM      5  C4  UNL d   1       2.333   0.422   0.868  0.00  0.00    -0.007 A 
ATOM      6  C5  UNL d   1       1.657   1.527   0.352  0.00  0.00     0.039 A 
ENDROOT
BRANCH   4   7
ATOM      7  O   UNL d   1       2.493  -1.902   1.222  0.00  0.00    -0.526 OA
ATOM      8  H5  UNL d   1       2.016  -2.722   1.010  0.00  0.00     0.418 HD
ENDBRANCH   4   7
TORSDOF 1
ENDMDL
