MODEL 1
REMARK minimizedAffinity 6.94194746
REMARK minimizedRMSD -1
REMARK  0 active torsions:
REMARK  status: ('A' for Active; 'I' for Inactive)
ROOT
ATOM      1  C2' OXE d   1       5.921  -0.733  -4.682  0.00  0.00     0.078 C 
ATOM      2  C1' OXE d   1       4.681   0.521  -2.497  0.00  0.00     0.078 C 
ATOM      3  C1  OXE d   1       4.998   1.365  -3.707  0.00  0.00    -0.078 A 
ATOM      4  C2  OXE d   1       5.647   0.754  -4.752  0.00  0.00    -0.078 A 
ATOM      5  C3  OXE d   1       5.913   1.473  -5.914  0.00  0.00     0.003 A 
ATOM      6  C4  OXE d   1       5.666   2.850  -5.967  0.00  0.00    -0.002 A 
ATOM      7  C5  OXE d   1       5.041   3.501  -4.897  0.00  0.00    -0.002 A 
ATOM      8  C6  OXE d   1       4.663   2.766  -3.779  0.00  0.00     0.003 A 
ENDROOT
TORSDOF 0
ENDMDL
