MODEL 1
REMARK minimizedAffinity 14.9089069
REMARK minimizedRMSD -1
REMARK  0 active torsions:
REMARK  status: ('A' for Active; 'I' for Inactive)
ROOT
ATOM      1  C2' OXE d   1       2.807  -2.317   0.176  0.00  0.00     0.078 C 
ATOM      2  C1' OXE d   1       0.478  -0.818  -0.282  0.00  0.00     0.078 C 
ATOM      3  C1  OXE d   1       1.791  -0.078  -0.224  0.00  0.00    -0.078 A 
ATOM      4  C2  OXE d   1       2.919  -0.813   0.047  0.00  0.00    -0.078 A 
ATOM      5  C3  OXE d   1       4.163  -0.188   0.058  0.00  0.00     0.003 A 
ATOM      6  C4  OXE d   1       4.258   1.204  -0.052  0.00  0.00    -0.002 A 
ATOM      7  C5  OXE d   1       3.116   1.977  -0.289  0.00  0.00    -0.002 A 
ATOM      8  C6  OXE d   1       1.882   1.348  -0.419  0.00  0.00     0.003 A 
ENDROOT
TORSDOF 0
ENDMDL
