MODEL 1
REMARK minimizedAffinity 1.61496651
REMARK minimizedRMSD -1
REMARK  0 active torsions:
REMARK  status: ('A' for Active; 'I' for Inactive)
ROOT
ATOM      1  C2' OXE d   1       4.229  -4.885  -0.663  0.00  0.00     0.078 C 
ATOM      2  C1' OXE d   1       2.518  -3.023   0.557  0.00  0.00     0.078 C 
ATOM      3  C1  OXE d   1       3.538  -3.716   1.425  0.00  0.00    -0.078 A 
ATOM      4  C2  OXE d   1       4.340  -4.660   0.829  0.00  0.00    -0.078 A 
ATOM      5  C3  OXE d   1       5.334  -5.289   1.573  0.00  0.00     0.003 A 
ATOM      6  C4  OXE d   1       5.423  -5.083   2.955  0.00  0.00    -0.002 A 
ATOM      7  C5  OXE d   1       4.590  -4.155   3.589  0.00  0.00    -0.002 A 
ATOM      8  C6  OXE d   1       3.673  -3.434   2.833  0.00  0.00     0.003 A 
ENDROOT
TORSDOF 0
ENDMDL
