MODEL 1
REMARK minimizedAffinity 6.61054468
REMARK minimizedRMSD -1
REMARK  0 active torsions:
REMARK  status: ('A' for Active; 'I' for Inactive)
ROOT
ATOM      1  C2' OXE d   1      -5.999   0.451  -4.469  0.00  0.00     0.078 C 
ATOM      2  C1' OXE d   1      -4.344   2.575  -5.263  0.00  0.00     0.078 C 
ATOM      3  C1  OXE d   1      -3.747   1.190  -5.237  0.00  0.00    -0.078 A 
ATOM      4  C2  OXE d   1      -4.551   0.163  -4.803  0.00  0.00    -0.078 A 
ATOM      5  C3  OXE d   1      -4.067  -1.142  -4.812  0.00  0.00     0.003 A 
ATOM      6  C4  OXE d   1      -2.723  -1.398  -5.112  0.00  0.00    -0.002 A 
ATOM      7  C5  OXE d   1      -1.877  -0.361  -5.518  0.00  0.00    -0.002 A 
ATOM      8  C6  OXE d   1      -2.383   0.929  -5.627  0.00  0.00     0.003 A 
ENDROOT
TORSDOF 0
ENDMDL
