MODEL 1
REMARK minimizedAffinity 3.75805974
REMARK minimizedRMSD -1
REMARK  0 active torsions:
REMARK  status: ('A' for Active; 'I' for Inactive)
ROOT
ATOM      1  C2' OXE d   1      -3.168   1.952  -4.545  0.00  0.00     0.078 C 
ATOM      2  C1' OXE d   1      -3.912   0.841  -2.077  0.00  0.00     0.078 C 
ATOM      3  C1  OXE d   1      -3.907  -0.064  -3.283  0.00  0.00    -0.078 A 
ATOM      4  C2  OXE d   1      -3.587   0.498  -4.495  0.00  0.00    -0.078 A 
ATOM      5  C3  OXE d   1      -3.514  -0.304  -5.630  0.00  0.00     0.003 A 
ATOM      6  C4  OXE d   1      -3.912  -1.646  -5.576  0.00  0.00    -0.002 A 
ATOM      7  C5  OXE d   1      -4.280  -2.229  -4.359  0.00  0.00    -0.002 A 
ATOM      8  C6  OXE d   1      -4.242  -1.465  -3.198  0.00  0.00     0.003 A 
ENDROOT
TORSDOF 0
ENDMDL
