MODEL 1
REMARK minimizedAffinity 2.5147326
REMARK minimizedRMSD -1
REMARK  0 active torsions:
REMARK  status: ('A' for Active; 'I' for Inactive)
ROOT
ATOM      1  C2' OXE d   1      -3.441   2.905  -4.116  0.00  0.00     0.078 C 
ATOM      2  C1' OXE d   1      -3.888   0.871  -5.997  0.00  0.00     0.078 C 
ATOM      3  C1  OXE d   1      -3.815   0.480  -4.543  0.00  0.00    -0.078 A 
ATOM      4  C2  OXE d   1      -3.550   1.475  -3.633  0.00  0.00    -0.078 A 
ATOM      5  C3  OXE d   1      -3.526   1.178  -2.273  0.00  0.00     0.003 A 
ATOM      6  C4  OXE d   1      -3.617  -0.149  -1.836  0.00  0.00    -0.002 A 
ATOM      7  C5  OXE d   1      -3.848  -1.183  -2.750  0.00  0.00    -0.002 A 
ATOM      8  C6  OXE d   1      -3.991  -0.881  -4.099  0.00  0.00     0.003 A 
ENDROOT
TORSDOF 0
ENDMDL
