MODEL 1
REMARK minimizedAffinity 1.2204535
REMARK minimizedRMSD -1
REMARK  0 active torsions:
REMARK  status: ('A' for Active; 'I' for Inactive)
ROOT
ATOM      1  C2' OXE d   1      -2.932  -0.953  -2.680  0.00  0.00     0.078 C 
ATOM      2  C1' OXE d   1      -1.920  -0.514  -5.261  0.00  0.00     0.078 C 
ATOM      3  C1  OXE d   1      -3.352  -0.126  -4.991  0.00  0.00    -0.078 A 
ATOM      4  C2  OXE d   1      -3.853  -0.387  -3.739  0.00  0.00    -0.078 A 
ATOM      5  C3  OXE d   1      -5.151   0.001  -3.421  0.00  0.00     0.003 A 
ATOM      6  C4  OXE d   1      -6.000   0.514  -4.409  0.00  0.00    -0.002 A 
ATOM      7  C5  OXE d   1      -5.522   0.752  -5.702  0.00  0.00    -0.002 A 
ATOM      8  C6  OXE d   1      -4.191   0.478  -5.997  0.00  0.00     0.003 A 
ENDROOT
TORSDOF 0
ENDMDL
