MODEL 1
REMARK minimizedAffinity -0.394453645
REMARK minimizedRMSD -1
REMARK  0 active torsions:
REMARK  status: ('A' for Active; 'I' for Inactive)
ROOT
ATOM      1  C2' OXE d   1      -1.774  -1.499  -4.816  0.00  0.00     0.078 C 
ATOM      2  C1' OXE d   1      -3.374  -1.420  -2.512  0.00  0.00     0.078 C 
ATOM      3  C1  OXE d   1      -3.849  -0.658  -3.724  0.00  0.00    -0.078 A 
ATOM      4  C2  OXE d   1      -3.036  -0.664  -4.832  0.00  0.00    -0.078 A 
ATOM      5  C3  OXE d   1      -3.452  -0.023  -5.995  0.00  0.00     0.003 A 
ATOM      6  C4  OXE d   1      -4.617   0.755  -5.998  0.00  0.00    -0.002 A 
ATOM      7  C5  OXE d   1      -5.439   0.807  -4.868  0.00  0.00    -0.002 A 
ATOM      8  C6  OXE d   1      -5.091   0.073  -3.739  0.00  0.00     0.003 A 
ENDROOT
TORSDOF 0
ENDMDL
