MODEL 1
REMARK minimizedAffinity -2.49160933
REMARK minimizedRMSD -1
REMARK  0 active torsions:
REMARK  status: ('A' for Active; 'I' for Inactive)
ROOT
ATOM      1  C2' OXE d   1      -2.063  -1.437  -4.947  0.00  0.00     0.078 C 
ATOM      2  C1' OXE d   1      -3.330  -1.467  -2.441  0.00  0.00     0.078 C 
ATOM      3  C1  OXE d   1      -4.034  -0.767  -3.577  0.00  0.00    -0.078 A 
ATOM      4  C2  OXE d   1      -3.385  -0.717  -4.788  0.00  0.00    -0.078 A 
ATOM      5  C3  OXE d   1      -4.014  -0.132  -5.883  0.00  0.00     0.003 A 
ATOM      6  C4  OXE d   1      -5.232   0.540  -5.725  0.00  0.00    -0.002 A 
ATOM      7  C5  OXE d   1      -5.891   0.536  -4.491  0.00  0.00    -0.002 A 
ATOM      8  C6  OXE d   1      -5.327  -0.148  -3.420  0.00  0.00     0.003 A 
ENDROOT
TORSDOF 0
ENDMDL
