MODEL 1
REMARK minimizedAffinity -1.382604
REMARK minimizedRMSD -1
REMARK  0 active torsions:
REMARK  status: ('A' for Active; 'I' for Inactive)
ROOT
ATOM      1  C2' OXE d   1       3.817  -2.993   2.217  0.00  0.00     0.078 C 
ATOM      2  C1' OXE d   1       4.297  -5.630   3.051  0.00  0.00     0.078 C 
ATOM      3  C1  OXE d   1       4.740  -4.512   3.962  0.00  0.00    -0.078 A 
ATOM      4  C2  OXE d   1       4.543  -3.225   3.525  0.00  0.00    -0.078 A 
ATOM      5  C3  OXE d   1       4.882  -2.157   4.350  0.00  0.00     0.003 A 
ATOM      6  C4  OXE d   1       5.562  -2.379   5.554  0.00  0.00    -0.002 A 
ATOM      7  C5  OXE d   1       5.809  -3.682   6.000  0.00  0.00    -0.002 A 
ATOM      8  C6  OXE d   1       5.367  -4.758   5.237  0.00  0.00     0.003 A 
ENDROOT
TORSDOF 0
ENDMDL
