MODEL 1
REMARK minimizedAffinity -5.05464363
REMARK minimizedRMSD -1
REMARK  0 active torsions:
REMARK  status: ('A' for Active; 'I' for Inactive)
ROOT
ATOM      1  C2' OXE d   1       3.410  -0.229  -0.734  0.00  0.00     0.078 C 
ATOM      2  C1' OXE d   1       1.511  -0.226  -2.801  0.00  0.00     0.078 C 
ATOM      3  C1  OXE d   1       1.021   0.013  -1.395  0.00  0.00    -0.078 A 
ATOM      4  C2  OXE d   1       1.950  -0.036  -0.385  0.00  0.00    -0.078 A 
ATOM      5  C3  OXE d   1       1.560   0.232   0.924  0.00  0.00     0.003 A 
ATOM      6  C4  OXE d   1       0.207   0.400   1.240  0.00  0.00    -0.002 A 
ATOM      7  C5  OXE d   1      -0.762   0.414   0.231  0.00  0.00    -0.002 A 
ATOM      8  C6  OXE d   1      -0.367   0.265  -1.094  0.00  0.00     0.003 A 
ENDROOT
TORSDOF 0
ENDMDL
