MODEL 1
REMARK minimizedAffinity -3.03978014
REMARK minimizedRMSD -1
REMARK  0 active torsions:
REMARK  status: ('A' for Active; 'I' for Inactive)
ROOT
ATOM      1  C2' OXE d   1      -1.501   1.572   0.256  0.00  0.00     0.078 C 
ATOM      2  C1' OXE d   1      -1.029   2.884   2.692  0.00  0.00     0.078 C 
ATOM      3  C1  OXE d   1      -1.826   1.603   2.725  0.00  0.00    -0.078 A 
ATOM      4  C2  OXE d   1      -2.092   0.993   1.523  0.00  0.00    -0.078 A 
ATOM      5  C3  OXE d   1      -2.775  -0.220   1.502  0.00  0.00     0.003 A 
ATOM      6  C4  OXE d   1      -3.327  -0.743   2.678  0.00  0.00    -0.002 A 
ATOM      7  C5  OXE d   1      -3.102  -0.116   3.908  0.00  0.00    -0.002 A 
ATOM      8  C6  OXE d   1      -2.319   1.032   3.954  0.00  0.00     0.003 A 
ENDROOT
TORSDOF 0
ENDMDL
