MODEL 1
REMARK minimizedAffinity -4.82554913
REMARK minimizedRMSD -1
REMARK  0 active torsions:
REMARK  status: ('A' for Active; 'I' for Inactive)
ROOT
ATOM      1  C2' OXE d   1       2.192  -1.179  -1.592  0.00  0.00     0.078 C 
ATOM      2  C1' OXE d   1       1.519   1.231  -2.866  0.00  0.00     0.078 C 
ATOM      3  C1  OXE d   1       0.712   0.824  -1.659  0.00  0.00    -0.078 A 
ATOM      4  C2  OXE d   1       1.018  -0.379  -1.070  0.00  0.00    -0.078 A 
ATOM      5  C3  OXE d   1       0.340  -0.776   0.080  0.00  0.00     0.003 A 
ATOM      6  C4  OXE d   1      -0.751  -0.036   0.550  0.00  0.00    -0.002 A 
ATOM      7  C5  OXE d   1      -1.105   1.173  -0.058  0.00  0.00    -0.002 A 
ATOM      8  C6  OXE d   1      -0.358   1.637  -1.136  0.00  0.00     0.003 A 
ENDROOT
TORSDOF 0
ENDMDL
