MODEL 1
REMARK minimizedAffinity -3.49965644
REMARK minimizedRMSD -1
REMARK  0 active torsions:
REMARK  status: ('A' for Active; 'I' for Inactive)
ROOT
ATOM      1  C2' OXE d   1       2.992  -0.059  -2.245  0.00  0.00     0.078 C 
ATOM      2  C1' OXE d   1       1.077   1.955  -1.855  0.00  0.00     0.078 C 
ATOM      3  C1  OXE d   1       0.943   0.691  -1.043  0.00  0.00    -0.078 A 
ATOM      4  C2  OXE d   1       1.858  -0.308  -1.275  0.00  0.00    -0.078 A 
ATOM      5  C3  OXE d   1       1.814  -1.473  -0.514  0.00  0.00     0.003 A 
ATOM      6  C4  OXE d   1       0.755  -1.699   0.375  0.00  0.00    -0.002 A 
ATOM      7  C5  OXE d   1      -0.209  -0.711   0.596  0.00  0.00    -0.002 A 
ATOM      8  C6  OXE d   1      -0.106   0.504  -0.072  0.00  0.00     0.003 A 
ENDROOT
TORSDOF 0
ENDMDL
