MODEL 1
REMARK minimizedAffinity -4.08289957
REMARK minimizedRMSD -1
REMARK  0 active torsions:
REMARK  status: ('A' for Active; 'I' for Inactive)
ROOT
ATOM      1  C2' OXE d   1      -1.014   0.830   0.074  0.00  0.00     0.078 C 
ATOM      2  C1' OXE d   1       0.696   2.076  -1.770  0.00  0.00     0.078 C 
ATOM      3  C1  OXE d   1       1.096   0.720  -1.245  0.00  0.00    -0.078 A 
ATOM      4  C2  OXE d   1       0.276   0.138  -0.308  0.00  0.00    -0.078 A 
ATOM      5  C3  OXE d   1       0.570  -1.137   0.168  0.00  0.00     0.003 A 
ATOM      6  C4  OXE d   1       1.770  -1.766  -0.183  0.00  0.00    -0.002 A 
ATOM      7  C5  OXE d   1       2.639  -1.173  -1.106  0.00  0.00    -0.002 A 
ATOM      8  C6  OXE d   1       2.296   0.048  -1.678  0.00  0.00     0.003 A 
ENDROOT
TORSDOF 0
ENDMDL
