MODEL 1
REMARK minimizedAffinity -4.65454912
REMARK minimizedRMSD -1
REMARK  0 active torsions:
REMARK  status: ('A' for Active; 'I' for Inactive)
ROOT
ATOM      1  C2' OXE d   1      -0.925   1.027  -0.141  0.00  0.00     0.078 C 
ATOM      2  C1' OXE d   1       1.111   1.532  -2.006  0.00  0.00     0.078 C 
ATOM      3  C1  OXE d   1       1.102   0.189  -1.321  0.00  0.00    -0.078 A 
ATOM      4  C2  OXE d   1       0.130  -0.032  -0.375  0.00  0.00    -0.078 A 
ATOM      5  C3  OXE d   1       0.043  -1.274   0.247  0.00  0.00     0.003 A 
ATOM      6  C4  OXE d   1       1.029  -2.245   0.033  0.00  0.00    -0.002 A 
ATOM      7  C5  OXE d   1       2.051  -2.025  -0.897  0.00  0.00    -0.002 A 
ATOM      8  C6  OXE d   1       2.078  -0.833  -1.611  0.00  0.00     0.003 A 
ENDROOT
TORSDOF 0
ENDMDL
