MODEL 1
REMARK minimizedAffinity -0.925077319
REMARK minimizedRMSD -1
REMARK  0 active torsions:
REMARK  status: ('A' for Active; 'I' for Inactive)
ROOT
ATOM      1  C2' OXE d   1      -1.062   0.622   1.127  0.00  0.00     0.078 C 
ATOM      2  C1' OXE d   1      -0.274   1.906  -1.241  0.00  0.00     0.078 C 
ATOM      3  C1  OXE d   1       0.284   0.532  -0.967  0.00  0.00    -0.078 A 
ATOM      4  C2  OXE d   1      -0.070  -0.070   0.217  0.00  0.00    -0.078 A 
ATOM      5  C3  OXE d   1       0.373  -1.360   0.494  0.00  0.00     0.003 A 
ATOM      6  C4  OXE d   1       1.298  -1.988  -0.349  0.00  0.00    -0.002 A 
ATOM      7  C5  OXE d   1       1.703  -1.377  -1.540  0.00  0.00    -0.002 A 
ATOM      8  C6  OXE d   1       1.173  -0.138  -1.884  0.00  0.00     0.003 A 
ENDROOT
TORSDOF 0
ENDMDL
