MODEL 1
REMARK minimizedAffinity -4.79913521
REMARK minimizedRMSD -1
REMARK  0 active torsions:
REMARK  status: ('A' for Active; 'I' for Inactive)
ROOT
ATOM      1  C2' OXE d   1       3.266   0.033  -2.025  0.00  0.00     0.078 C 
ATOM      2  C1' OXE d   1       1.574   2.273  -2.005  0.00  0.00     0.078 C 
ATOM      3  C1  OXE d   1       1.145   1.060  -1.216  0.00  0.00    -0.078 A 
ATOM      4  C2  OXE d   1       1.957  -0.048  -1.270  0.00  0.00    -0.078 A 
ATOM      5  C3  OXE d   1       1.636  -1.174  -0.518  0.00  0.00     0.003 A 
ATOM      6  C4  OXE d   1       0.418  -1.244   0.170  0.00  0.00    -0.002 A 
ATOM      7  C5  OXE d   1      -0.442  -0.141   0.205  0.00  0.00    -0.002 A 
ATOM      8  C6  OXE d   1      -0.074   1.031  -0.446  0.00  0.00     0.003 A 
ENDROOT
TORSDOF 0
ENDMDL
