MODEL 1
REMARK minimizedAffinity -4.352911
REMARK minimizedRMSD -1
REMARK  0 active torsions:
REMARK  status: ('A' for Active; 'I' for Inactive)
ROOT
ATOM      1  C2' OXE d   1      -0.872   0.370   0.320  0.00  0.00     0.078 C 
ATOM      2  C1' OXE d   1       0.546  -2.048   0.166  0.00  0.00     0.078 C 
ATOM      3  C1  OXE d   1       0.895  -0.964  -0.822  0.00  0.00    -0.078 A 
ATOM      4  C2  OXE d   1       0.164   0.199  -0.770  0.00  0.00    -0.078 A 
ATOM      5  C3  OXE d   1       0.481   1.252  -1.624  0.00  0.00     0.003 A 
ATOM      6  C4  OXE d   1       1.433   1.081  -2.635  0.00  0.00    -0.002 A 
ATOM      7  C5  OXE d   1       2.162  -0.109  -2.732  0.00  0.00    -0.002 A 
ATOM      8  C6  OXE d   1       1.935  -1.123  -1.808  0.00  0.00     0.003 A 
ENDROOT
TORSDOF 0
ENDMDL
