MODEL 1
REMARK minimizedAffinity -4.34808588
REMARK minimizedRMSD -1
REMARK  0 active torsions:
REMARK  status: ('A' for Active; 'I' for Inactive)
ROOT
ATOM      1  C2' OXE d   1       1.760   2.391  -2.447  0.00  0.00     0.078 C 
ATOM      2  C1' OXE d   1       3.224   0.014  -2.737  0.00  0.00     0.078 C 
ATOM      3  C1  OXE d   1       2.092   0.026  -1.740  0.00  0.00    -0.078 A 
ATOM      4  C2  OXE d   1       1.411   1.207  -1.571  0.00  0.00    -0.078 A 
ATOM      5  C3  OXE d   1       0.324   1.258  -0.704  0.00  0.00     0.003 A 
ATOM      6  C4  OXE d   1       0.014   0.162   0.110  0.00  0.00    -0.002 A 
ATOM      7  C5  OXE d   1       0.720  -1.039  -0.017  0.00  0.00    -0.002 A 
ATOM      8  C6  OXE d   1       1.732  -1.137  -0.966  0.00  0.00     0.003 A 
ENDROOT
TORSDOF 0
ENDMDL
