MODEL 1
REMARK minimizedAffinity -1.0781306
REMARK minimizedRMSD -1
REMARK  0 active torsions:
REMARK  status: ('A' for Active; 'I' for Inactive)
ROOT
ATOM      1  C2' OXE d   1      -1.198   0.677   1.597  0.00  0.00     0.078 C 
ATOM      2  C1' OXE d   1      -0.877   1.609  -1.032  0.00  0.00     0.078 C 
ATOM      3  C1  OXE d   1      -0.200   0.315  -0.657  0.00  0.00    -0.078 A 
ATOM      4  C2  OXE d   1      -0.324  -0.110   0.644  0.00  0.00    -0.078 A 
ATOM      5  C3  OXE d   1       0.235  -1.326   1.029  0.00  0.00     0.003 A 
ATOM      6  C4  OXE d   1       1.050  -2.042   0.144  0.00  0.00    -0.002 A 
ATOM      7  C5  OXE d   1       1.222  -1.607  -1.174  0.00  0.00    -0.002 A 
ATOM      8  C6  OXE d   1       0.571  -0.455  -1.602  0.00  0.00     0.003 A 
ENDROOT
TORSDOF 0
ENDMDL
