MODEL 1
REMARK minimizedAffinity -5.39574432
REMARK minimizedRMSD -1
REMARK  0 active torsions:
REMARK  status: ('A' for Active; 'I' for Inactive)
ROOT
ATOM      1  C2' OXE d   1      -0.083  -2.169  -0.116  0.00  0.00     0.078 C 
ATOM      2  C1' OXE d   1      -0.839   0.471   0.465  0.00  0.00     0.078 C 
ATOM      3  C1  OXE d   1       0.384   0.262  -0.393  0.00  0.00    -0.078 A 
ATOM      4  C2  OXE d   1       0.774  -1.034  -0.633  0.00  0.00    -0.078 A 
ATOM      5  C3  OXE d   1       1.863  -1.283  -1.463  0.00  0.00     0.003 A 
ATOM      6  C4  OXE d   1       2.656  -0.228  -1.928  0.00  0.00    -0.002 A 
ATOM      7  C5  OXE d   1       2.300   1.099  -1.662  0.00  0.00    -0.002 A 
ATOM      8  C6  OXE d   1       1.146   1.361  -0.933  0.00  0.00     0.003 A 
ENDROOT
TORSDOF 0
ENDMDL
