MODEL 1
REMARK minimizedAffinity -6.32006645
REMARK minimizedRMSD -1
REMARK  0 active torsions:
REMARK  status: ('A' for Active; 'I' for Inactive)
ROOT
ATOM      1  C2' OXE d   1       0.259  -2.317   0.055  0.00  0.00     0.078 C 
ATOM      2  C1' OXE d   1      -0.892   0.243   0.038  0.00  0.00     0.078 C 
ATOM      3  C1  OXE d   1       0.445   0.069  -0.638  0.00  0.00    -0.078 A 
ATOM      4  C2  OXE d   1       1.022  -1.177  -0.584  0.00  0.00    -0.078 A 
ATOM      5  C3  OXE d   1       2.229  -1.406  -1.239  0.00  0.00     0.003 A 
ATOM      6  C4  OXE d   1       2.934  -0.344  -1.819  0.00  0.00    -0.002 A 
ATOM      7  C5  OXE d   1       2.382   0.941  -1.850  0.00  0.00    -0.002 A 
ATOM      8  C6  OXE d   1       1.121   1.155  -1.303  0.00  0.00     0.003 A 
ENDROOT
TORSDOF 0
ENDMDL
