MODEL 1
REMARK minimizedAffinity -4.92444611
REMARK minimizedRMSD -1
REMARK  0 active torsions:
REMARK  status: ('A' for Active; 'I' for Inactive)
ROOT
ATOM      1  C2' OXE d   1       2.764  -4.688   2.847  0.00  0.00     0.078 C 
ATOM      2  C1' OXE d   1       4.298  -5.872   4.878  0.00  0.00     0.078 C 
ATOM      3  C1  OXE d   1       4.457  -4.389   4.650  0.00  0.00    -0.078 A 
ATOM      4  C2  OXE d   1       3.737  -3.827   3.623  0.00  0.00    -0.078 A 
ATOM      5  C3  OXE d   1       3.805  -2.454   3.405  0.00  0.00     0.003 A 
ATOM      6  C4  OXE d   1       4.716  -1.667   4.120  0.00  0.00    -0.002 A 
ATOM      7  C5  OXE d   1       5.488  -2.227   5.143  0.00  0.00    -0.002 A 
ATOM      8  C6  OXE d   1       5.340  -3.575   5.449  0.00  0.00     0.003 A 
ENDROOT
TORSDOF 0
ENDMDL
