MODEL 1
REMARK minimizedAffinity -2.18393064
REMARK minimizedRMSD -1
REMARK  0 active torsions:
REMARK  status: ('A' for Active; 'I' for Inactive)
ROOT
ATOM      1  C2' OXE d   1       3.856  -1.497   2.658  0.00  0.00     0.078 C 
ATOM      2  C1' OXE d   1       4.517   0.117   4.858  0.00  0.00     0.078 C 
ATOM      3  C1  OXE d   1       4.938  -1.331   4.896  0.00  0.00    -0.078 A 
ATOM      4  C2  OXE d   1       4.570  -2.125   3.836  0.00  0.00    -0.078 A 
ATOM      5  C3  OXE d   1       4.981  -3.454   3.795  0.00  0.00     0.003 A 
ATOM      6  C4  OXE d   1       5.632  -4.029   4.893  0.00  0.00    -0.002 A 
ATOM      7  C5  OXE d   1       5.981  -3.248   6.000  0.00  0.00    -0.002 A 
ATOM      8  C6  OXE d   1       5.680  -1.890   5.999  0.00  0.00     0.003 A 
ENDROOT
TORSDOF 0
ENDMDL
