MODEL 1
REMARK minimizedAffinity -5.6975379
REMARK minimizedRMSD -1
REMARK  0 active torsions:
REMARK  status: ('A' for Active; 'I' for Inactive)
ROOT
ATOM      1  C2' OXE d   1      -1.178   0.239   0.582  0.00  0.00     0.078 C 
ATOM      2  C1' OXE d   1       0.320  -2.100   0.175  0.00  0.00     0.078 C 
ATOM      3  C1  OXE d   1       0.636  -0.903  -0.688  0.00  0.00    -0.078 A 
ATOM      4  C2  OXE d   1      -0.134   0.222  -0.513  0.00  0.00    -0.078 A 
ATOM      5  C3  OXE d   1       0.151   1.372  -1.244  0.00  0.00     0.003 A 
ATOM      6  C4  OXE d   1       1.112   1.345  -2.262  0.00  0.00    -0.002 A 
ATOM      7  C5  OXE d   1       1.880   0.196  -2.484  0.00  0.00    -0.002 A 
ATOM      8  C6  OXE d   1       1.684  -0.920  -1.678  0.00  0.00     0.003 A 
ENDROOT
TORSDOF 0
ENDMDL
