MODEL 1
REMARK minimizedAffinity -4.09133577
REMARK minimizedRMSD -1
REMARK  0 active torsions:
REMARK  status: ('A' for Active; 'I' for Inactive)
ROOT
ATOM      1  C2' OXE d   1       2.095  -1.053  -1.739  0.00  0.00     0.078 C 
ATOM      2  C1' OXE d   1       0.098  -2.247  -0.167  0.00  0.00     0.078 C 
ATOM      3  C1  OXE d   1      -0.025  -0.773  -0.461  0.00  0.00    -0.078 A 
ATOM      4  C2  OXE d   1       0.980  -0.187  -1.192  0.00  0.00    -0.078 A 
ATOM      5  C3  OXE d   1       0.888   1.158  -1.537  0.00  0.00     0.003 A 
ATOM      6  C4  OXE d   1      -0.141   1.954  -1.019  0.00  0.00    -0.002 A 
ATOM      7  C5  OXE d   1      -1.154   1.386  -0.240  0.00  0.00    -0.002 A 
ATOM      8  C6  OXE d   1      -1.134   0.018   0.013  0.00  0.00     0.003 A 
ENDROOT
TORSDOF 0
ENDMDL
