MODEL 1
REMARK minimizedAffinity 5.84178543
REMARK minimizedRMSD -1
REMARK  1 active torsions:
REMARK  status: ('A' for Active; 'I' for Inactive)
REMARK    1  A    between atoms: C1_2  and  C2_3 
ROOT
ATOM      1  C2  UNL d   1      -2.719   0.104  -1.470  0.00  0.00    -0.076 A 
ATOM      2  C3  UNL d   1      -4.082  -0.160  -1.253  0.00  0.00     0.004 A 
ATOM      3  C4  UNL d   1      -4.700   0.200  -0.057  0.00  0.00    -0.003 A 
ATOM      4  C5  UNL d   1      -3.965   0.829   0.942  0.00  0.00     0.000 A 
ATOM      5  C6  UNL d   1      -2.616   1.114   0.736  0.00  0.00     0.000 A 
ATOM      6  C7  UNL d   1      -1.981   0.773  -0.471  0.00  0.00    -0.073 A 
ATOM      7  C8  UNL d   1      -0.522   1.099  -0.636  0.00  0.00     0.078 C 
ENDROOT
BRANCH   1   8
ATOM      8  C1  UNL d   1      -2.096  -0.333  -2.777  0.00  0.00     0.053 C 
ATOM      9  C   UNL d   1      -2.830   0.223  -3.987  0.00  0.00     0.018 C 
ENDBRANCH   1   8
TORSDOF 1
ENDMDL
