MODEL 1
REMARK minimizedAffinity 3.40120745
REMARK minimizedRMSD -1
REMARK  1 active torsions:
REMARK  status: ('A' for Active; 'I' for Inactive)
REMARK    1  A    between atoms: C1_2  and  C2_3 
ROOT
ATOM      1  C2  UNL d   1       4.451   4.834   4.562  0.00  0.00    -0.076 A 
ATOM      2  C3  UNL d   1       3.310   5.614   4.304  0.00  0.00     0.004 A 
ATOM      3  C4  UNL d   1       2.078   5.292   4.871  0.00  0.00    -0.003 A 
ATOM      4  C5  UNL d   1       1.967   4.185   5.705  0.00  0.00     0.000 A 
ATOM      5  C6  UNL d   1       3.092   3.411   5.986  0.00  0.00     0.000 A 
ATOM      6  C7  UNL d   1       4.345   3.731   5.435  0.00  0.00    -0.073 A 
ATOM      7  C8  UNL d   1       5.524   2.857   5.767  0.00  0.00     0.078 C 
ENDROOT
BRANCH   1   8
ATOM      8  C1  UNL d   1       5.754   5.216   3.897  0.00  0.00     0.053 C 
ATOM      9  C   UNL d   1       5.545   5.999   2.610  0.00  0.00     0.018 C 
ENDBRANCH   1   8
TORSDOF 1
ENDMDL
