MODEL 1
REMARK minimizedAffinity 4.66214132
REMARK minimizedRMSD -1
REMARK  1 active torsions:
REMARK  status: ('A' for Active; 'I' for Inactive)
REMARK    1  A    between atoms: C1_2  and  C2_3 
ROOT
ATOM      1  C2  UNL d   1       3.210  -1.264  -0.838  0.00  0.00    -0.076 A 
ATOM      2  C3  UNL d   1       3.305  -1.041  -2.222  0.00  0.00     0.004 A 
ATOM      3  C4  UNL d   1       3.173  -2.091  -3.129  0.00  0.00    -0.003 A 
ATOM      4  C5  UNL d   1       2.943  -3.382  -2.666  0.00  0.00     0.000 A 
ATOM      5  C6  UNL d   1       2.829  -3.619  -1.297  0.00  0.00     0.000 A 
ATOM      6  C7  UNL d   1       2.943  -2.569  -0.370  0.00  0.00    -0.073 A 
ATOM      7  C8  UNL d   1       2.817  -2.882   1.096  0.00  0.00     0.078 C 
ENDROOT
BRANCH   1   8
ATOM      8  C1  UNL d   1       3.389  -0.091   0.099  0.00  0.00     0.053 C 
ATOM      9  C   UNL d   1       3.974   1.127  -0.598  0.00  0.00     0.018 C 
ENDBRANCH   1   8
TORSDOF 1
ENDMDL
