MODEL 1
REMARK minimizedAffinity 4.62075424
REMARK minimizedRMSD -1
REMARK  1 active torsions:
REMARK  status: ('A' for Active; 'I' for Inactive)
REMARK    1  A    between atoms: C1_2  and  C2_3 
ROOT
ATOM      1  C2  UNL d   1       1.729   4.411   5.274  0.00  0.00    -0.076 A 
ATOM      2  C3  UNL d   1       1.440   3.233   5.985  0.00  0.00     0.004 A 
ATOM      3  C4  UNL d   1       2.336   2.165   5.999  0.00  0.00    -0.003 A 
ATOM      4  C5  UNL d   1       3.536   2.258   5.302  0.00  0.00     0.000 A 
ATOM      5  C6  UNL d   1       3.846   3.425   4.606  0.00  0.00     0.000 A 
ATOM      6  C7  UNL d   1       2.962   4.517   4.595  0.00  0.00    -0.073 A 
ATOM      7  C8  UNL d   1       3.345   5.750   3.822  0.00  0.00     0.078 C 
ENDROOT
BRANCH   1   8
ATOM      8  C1  UNL d   1       0.707   5.525   5.273  0.00  0.00     0.053 C 
ATOM      9  C   UNL d   1      -0.104   5.570   3.988  0.00  0.00     0.018 C 
ENDBRANCH   1   8
TORSDOF 1
ENDMDL
