MODEL 1
REMARK minimizedAffinity 7.95388317
REMARK minimizedRMSD -1
REMARK  1 active torsions:
REMARK  status: ('A' for Active; 'I' for Inactive)
REMARK    1  A    between atoms: C1_2  and  C2_3 
ROOT
ATOM      1  C2  UNL d   1      -4.302   2.262   2.755  0.00  0.00    -0.076 A 
ATOM      2  C3  UNL d   1      -5.401   1.861   3.534  0.00  0.00     0.004 A 
ATOM      3  C4  UNL d   1      -5.998   2.738   4.437  0.00  0.00    -0.003 A 
ATOM      4  C5  UNL d   1      -5.508   4.031   4.576  0.00  0.00     0.000 A 
ATOM      5  C6  UNL d   1      -4.430   4.452   3.798  0.00  0.00     0.000 A 
ATOM      6  C7  UNL d   1      -3.826   3.586   2.871  0.00  0.00    -0.073 A 
ATOM      7  C8  UNL d   1      -2.662   4.091   2.062  0.00  0.00     0.078 C 
ENDROOT
BRANCH   1   8
ATOM      8  C1  UNL d   1      -3.678   1.259   1.811  0.00  0.00     0.053 C 
ATOM      9  C   UNL d   1      -4.696   0.629   0.873  0.00  0.00     0.018 C 
ENDBRANCH   1   8
TORSDOF 1
ENDMDL
