MODEL 1
REMARK minimizedAffinity 0.329116106
REMARK minimizedRMSD -1
REMARK  1 active torsions:
REMARK  status: ('A' for Active; 'I' for Inactive)
REMARK    1  A    between atoms: C1_2  and  C2_3 
ROOT
ATOM      1  C2  UNL d   1       3.682  -0.031  -0.223  0.00  0.00    -0.076 A 
ATOM      2  C3  UNL d   1       4.055   0.308   1.089  0.00  0.00     0.004 A 
ATOM      3  C4  UNL d   1       4.790   1.463   1.351  0.00  0.00    -0.003 A 
ATOM      4  C5  UNL d   1       5.164   2.298   0.304  0.00  0.00     0.000 A 
ATOM      5  C6  UNL d   1       4.788   1.987  -1.002  0.00  0.00     0.000 A 
ATOM      6  C7  UNL d   1       4.033   0.835  -1.281  0.00  0.00    -0.073 A 
ATOM      7  C8  UNL d   1       3.659   0.545  -2.709  0.00  0.00     0.078 C 
ENDROOT
BRANCH   1   8
ATOM      8  C1  UNL d   1       2.908  -1.310  -0.449  0.00  0.00     0.053 C 
ATOM      9  C   UNL d   1       2.925  -2.223   0.767  0.00  0.00     0.018 C 
ENDBRANCH   1   8
TORSDOF 1
ENDMDL
