MODEL 1
REMARK minimizedAffinity 5.74207592
REMARK minimizedRMSD -1
REMARK  1 active torsions:
REMARK  status: ('A' for Active; 'I' for Inactive)
REMARK    1  A    between atoms: C1_2  and  C2_3 
ROOT
ATOM      1  C2  UNL d   1       3.827  -0.110  -1.117  0.00  0.00    -0.076 A 
ATOM      2  C3  UNL d   1       3.203  -0.977  -0.204  0.00  0.00     0.004 A 
ATOM      3  C4  UNL d   1       2.797  -2.253  -0.589  0.00  0.00    -0.003 A 
ATOM      4  C5  UNL d   1       3.010  -2.684  -1.894  0.00  0.00     0.000 A 
ATOM      5  C6  UNL d   1       3.643  -1.843  -2.809  0.00  0.00     0.000 A 
ATOM      6  C7  UNL d   1       4.073  -0.559  -2.432  0.00  0.00    -0.073 A 
ATOM      7  C8  UNL d   1       4.746   0.308  -3.461  0.00  0.00     0.078 C 
ENDROOT
BRANCH   1   8
ATOM      8  C1  UNL d   1       4.221   1.273  -0.649  0.00  0.00     0.053 C 
ATOM      9  C   UNL d   1       5.677   1.349  -0.215  0.00  0.00     0.018 C 
ENDBRANCH   1   8
TORSDOF 1
ENDMDL
