MODEL 1
REMARK minimizedAffinity 6.59879732
REMARK minimizedRMSD -1
REMARK  1 active torsions:
REMARK  status: ('A' for Active; 'I' for Inactive)
REMARK    1  A    between atoms: C1_2  and  C2_3 
ROOT
ATOM      1  C2  UNL d   1       4.002   1.042  -0.382  0.00  0.00    -0.076 A 
ATOM      2  C3  UNL d   1       3.442   2.327  -0.487  0.00  0.00     0.004 A 
ATOM      3  C4  UNL d   1       4.143   3.453  -0.057  0.00  0.00    -0.003 A 
ATOM      4  C5  UNL d   1       5.416   3.312   0.484  0.00  0.00     0.000 A 
ATOM      5  C6  UNL d   1       5.994   2.046   0.579  0.00  0.00     0.000 A 
ATOM      6  C7  UNL d   1       5.308   0.903   0.135  0.00  0.00    -0.073 A 
ATOM      7  C8  UNL d   1       5.977  -0.437   0.268  0.00  0.00     0.078 C 
ENDROOT
BRANCH   1   8
ATOM      8  C1  UNL d   1       3.184  -0.144  -0.840  0.00  0.00     0.053 C 
ATOM      9  C   UNL d   1       2.707  -1.005   0.320  0.00  0.00     0.018 C 
ENDBRANCH   1   8
TORSDOF 1
ENDMDL
