MODEL 1
REMARK minimizedAffinity 2.91762042
REMARK minimizedRMSD -1
REMARK  1 active torsions:
REMARK  status: ('A' for Active; 'I' for Inactive)
REMARK    1  A    between atoms: N_2  and  C1_3 
ROOT
ATOM      1  C1  UNL d   1      -2.257   0.056   2.086  0.00  0.00     0.143 A 
ATOM      2  C2  UNL d   1      -3.398  -0.643   2.496  0.00  0.00    -0.057 A 
ATOM      3  C3  UNL d   1      -3.380  -1.460   3.633  0.00  0.00     0.033 A 
ATOM      4  C4  UNL d   1      -2.208  -1.616   4.366  0.00  0.00    -0.042 A 
ATOM      5  C5  UNL d   1      -1.055  -0.951   3.962  0.00  0.00     0.033 A 
ATOM      6  C6  UNL d   1      -1.082  -0.131   2.830  0.00  0.00    -0.057 A 
ENDROOT
BRANCH   1   7
ATOM      7  N   UNL d   1      -2.185   0.806   0.910  0.00  0.00    -0.732 N 
ATOM      8  C   UNL d   1      -2.322   0.166  -0.381  0.00  0.00     0.284 C 
ATOM      9  H3  UNL d   1      -2.671   1.696   0.986  0.00  0.00     0.395 HD
ENDBRANCH   1   7
TORSDOF 1
ENDMDL
