MODEL 1
REMARK minimizedAffinity 4.74633598
REMARK minimizedRMSD -1
REMARK  1 active torsions:
REMARK  status: ('A' for Active; 'I' for Inactive)
REMARK    1  A    between atoms: N_2  and  C1_3 
ROOT
ATOM      1  C1  UNL d   1      -1.789  -0.014   1.718  0.00  0.00     0.143 A 
ATOM      2  C2  UNL d   1      -3.062  -0.233   2.257  0.00  0.00    -0.057 A 
ATOM      3  C3  UNL d   1      -3.227  -0.877   3.490  0.00  0.00     0.033 A 
ATOM      4  C4  UNL d   1      -2.121  -1.339   4.194  0.00  0.00    -0.042 A 
ATOM      5  C5  UNL d   1      -0.848  -1.154   3.666  0.00  0.00     0.033 A 
ATOM      6  C6  UNL d   1      -0.689  -0.505   2.438  0.00  0.00    -0.057 A 
ENDROOT
BRANCH   1   7
ATOM      7  N   UNL d   1      -1.564   0.531   0.452  0.00  0.00    -0.732 N 
ATOM      8  C   UNL d   1      -0.424   0.117  -0.337  0.00  0.00     0.284 C 
ATOM      9  H3  UNL d   1      -2.423   0.638  -0.083  0.00  0.00     0.395 HD
ENDBRANCH   1   7
TORSDOF 1
ENDMDL
