MODEL 1
REMARK minimizedAffinity 8.53983784
REMARK minimizedRMSD -1
REMARK  1 active torsions:
REMARK  status: ('A' for Active; 'I' for Inactive)
REMARK    1  A    between atoms: N_2  and  C1_3 
ROOT
ATOM      1  C1  UNL d   1      -2.661  -0.026   2.036  0.00  0.00     0.143 A 
ATOM      2  C2  UNL d   1      -3.569  -0.664   2.888  0.00  0.00    -0.057 A 
ATOM      3  C3  UNL d   1      -3.129  -1.465   3.949  0.00  0.00     0.033 A 
ATOM      4  C4  UNL d   1      -1.769  -1.665   4.160  0.00  0.00    -0.042 A 
ATOM      5  C5  UNL d   1      -0.849  -1.061   3.311  0.00  0.00     0.033 A 
ATOM      6  C6  UNL d   1      -1.294  -0.257   2.257  0.00  0.00    -0.057 A 
ENDROOT
BRANCH   1   7
ATOM      7  N   UNL d   1      -3.036   0.702   0.904  0.00  0.00    -0.732 N 
ATOM      8  C   UNL d   1      -2.037   1.195  -0.019  0.00  0.00     0.284 C 
ATOM      9  H3  UNL d   1      -3.866   0.322   0.455  0.00  0.00     0.395 HD
ENDBRANCH   1   7
TORSDOF 1
ENDMDL
