MODEL 1
REMARK minimizedAffinity 8.54353714
REMARK minimizedRMSD -1
REMARK  1 active torsions:
REMARK  status: ('A' for Active; 'I' for Inactive)
REMARK    1  A    between atoms: N_2  and  C1_3 
ROOT
ATOM      1  C1  UNL d   1       3.504   2.780   1.476  0.00  0.00     0.143 A 
ATOM      2  C2  UNL d   1       4.064   2.822   0.194  0.00  0.00    -0.057 A 
ATOM      3  C3  UNL d   1       3.648   1.939  -0.809  0.00  0.00     0.033 A 
ATOM      4  C4  UNL d   1       2.683   0.975  -0.539  0.00  0.00    -0.042 A 
ATOM      5  C5  UNL d   1       2.130   0.898   0.734  0.00  0.00     0.033 A 
ATOM      6  C6  UNL d   1       2.545   1.787   1.730  0.00  0.00    -0.057 A 
ENDROOT
BRANCH   1   7
ATOM      7  N   UNL d   1       3.944   3.566   2.544  0.00  0.00    -0.732 N 
ATOM      8  C   UNL d   1       4.740   2.988   3.605  0.00  0.00     0.284 C 
ATOM      9  H3  UNL d   1       4.256   4.487   2.245  0.00  0.00     0.395 HD
ENDBRANCH   1   7
TORSDOF 1
ENDMDL
