MODEL 1
REMARK minimizedAffinity 4.25597
REMARK minimizedRMSD -1
REMARK  1 active torsions:
REMARK  status: ('A' for Active; 'I' for Inactive)
REMARK    1  A    between atoms: N_2  and  C1_3 
ROOT
ATOM      1  C1  UNL d   1       0.518  -0.044   2.013  0.00  0.00     0.143 A 
ATOM      2  C2  UNL d   1       0.326  -0.605   3.280  0.00  0.00    -0.057 A 
ATOM      3  C3  UNL d   1      -0.936  -0.615   3.886  0.00  0.00     0.033 A 
ATOM      4  C4  UNL d   1      -2.026  -0.036   3.245  0.00  0.00    -0.042 A 
ATOM      5  C5  UNL d   1      -1.854   0.550   1.996  0.00  0.00     0.033 A 
ATOM      6  C6  UNL d   1      -0.592   0.551   1.393  0.00  0.00    -0.057 A 
ENDROOT
BRANCH   1   7
ATOM      7  N   UNL d   1       1.767   0.085   1.400  0.00  0.00    -0.732 N 
ATOM      8  C   UNL d   1       1.885   0.083  -0.042  0.00  0.00     0.284 C 
ATOM      9  H3  UNL d   1       2.359   0.769   1.865  0.00  0.00     0.395 HD
ENDBRANCH   1   7
TORSDOF 1
ENDMDL
