MODEL 1
REMARK minimizedAffinity 4.00170946
REMARK minimizedRMSD -1
REMARK  1 active torsions:
REMARK  status: ('A' for Active; 'I' for Inactive)
REMARK    1  A    between atoms: N_2  and  C1_3 
ROOT
ATOM      1  C1  UNL d   1      -0.119  -0.052   0.654  0.00  0.00     0.143 A 
ATOM      2  C2  UNL d   1      -0.609   0.471   1.856  0.00  0.00    -0.057 A 
ATOM      3  C3  UNL d   1      -1.973   0.733   2.032  0.00  0.00     0.033 A 
ATOM      4  C4  UNL d   1      -2.870   0.504   0.994  0.00  0.00    -0.042 A 
ATOM      5  C5  UNL d   1      -2.403   0.009  -0.218  0.00  0.00     0.033 A 
ATOM      6  C6  UNL d   1      -1.041  -0.258  -0.385  0.00  0.00    -0.057 A 
ENDROOT
BRANCH   1   7
ATOM      7  N   UNL d   1       1.238  -0.241   0.383  0.00  0.00    -0.732 N 
ATOM      8  C   UNL d   1       2.119   0.893   0.201  0.00  0.00     0.284 C 
ATOM      9  H3  UNL d   1       1.642  -0.997   0.932  0.00  0.00     0.395 HD
ENDBRANCH   1   7
TORSDOF 1
ENDMDL
