MODEL 1
REMARK minimizedAffinity 7.03488588
REMARK minimizedRMSD -1
REMARK  1 active torsions:
REMARK  status: ('A' for Active; 'I' for Inactive)
REMARK    1  A    between atoms: N_2  and  C1_3 
ROOT
ATOM      1  C1  UNL d   1      -1.823  -0.033   2.171  0.00  0.00     0.143 A 
ATOM      2  C2  UNL d   1      -3.124  -0.537   2.270  0.00  0.00    -0.057 A 
ATOM      3  C3  UNL d   1      -3.489  -1.409   3.302  0.00  0.00     0.033 A 
ATOM      4  C4  UNL d   1      -2.547  -1.818   4.241  0.00  0.00    -0.042 A 
ATOM      5  C5  UNL d   1      -1.241  -1.349   4.148  0.00  0.00     0.033 A 
ATOM      6  C6  UNL d   1      -0.885  -0.472   3.118  0.00  0.00    -0.057 A 
ENDROOT
BRANCH   1   7
ATOM      7  N   UNL d   1      -1.374   0.760   1.112  0.00  0.00    -0.732 N 
ATOM      8  C   UNL d   1      -0.583   0.185   0.045  0.00  0.00     0.284 C 
ATOM      9  H3  UNL d   1      -2.079   1.422   0.796  0.00  0.00     0.395 HD
ENDBRANCH   1   7
TORSDOF 1
ENDMDL
