MODEL 1
REMARK minimizedAffinity 17.8371964
REMARK minimizedRMSD -1
REMARK  0 active torsions:
REMARK  status: ('A' for Active; 'I' for Inactive)
ROOT
ATOM      1  C   UNL d   1       1.056  -1.844   0.372  0.00  0.00    -0.002 A 
ATOM      2  C1  UNL d   1       2.186  -2.417   0.938  0.00  0.00     0.010 A 
ATOM      3  C2  UNL d   1       2.134  -3.702   1.482  0.00  0.00     0.041 A 
ATOM      4  C3  UNL d   1       0.916  -4.408   1.447  0.00  0.00    -0.075 A 
ATOM      5  S   UNL d   1       0.615  -5.994   2.052  0.00  0.00     0.015 SA
ATOM      6  C4  UNL d   1      -1.020  -5.948   1.573  0.00  0.00     0.022 A 
ATOM      7  C5  UNL d   1      -1.346  -4.759   0.965  0.00  0.00     0.026 A 
ATOM      8  C6  UNL d   1      -0.236  -3.852   0.882  0.00  0.00    -0.082 A 
ATOM      9  C7  UNL d   1      -0.151  -2.547   0.339  0.00  0.00     0.045 A 
ENDROOT
TORSDOF 0
ENDMDL
