MODEL 1
REMARK minimizedAffinity 13.151392
REMARK minimizedRMSD -1
REMARK  0 active torsions:
REMARK  status: ('A' for Active; 'I' for Inactive)
ROOT
ATOM      1  C   UNL d   1      -2.063  -2.635  -0.400  0.00  0.00    -0.002 A 
ATOM      2  C1  UNL d   1      -1.160  -1.596  -0.226  0.00  0.00     0.010 A 
ATOM      3  C2  UNL d   1       0.118  -1.843   0.280  0.00  0.00     0.041 A 
ATOM      4  C3  UNL d   1       0.477  -3.165   0.609  0.00  0.00    -0.075 A 
ATOM      5  S   UNL d   1       1.986  -3.705   1.242  0.00  0.00     0.015 SA
ATOM      6  C4  UNL d   1       1.468  -5.328   1.296  0.00  0.00     0.022 A 
ATOM      7  C5  UNL d   1       0.178  -5.472   0.845  0.00  0.00     0.026 A 
ATOM      8  C6  UNL d   1      -0.415  -4.228   0.441  0.00  0.00    -0.082 A 
ATOM      9  C7  UNL d   1      -1.703  -3.945  -0.073  0.00  0.00     0.045 A 
ENDROOT
TORSDOF 0
ENDMDL
