MODEL 1
REMARK minimizedAffinity 8.02796364
REMARK minimizedRMSD -1
REMARK  0 active torsions:
REMARK  status: ('A' for Active; 'I' for Inactive)
ROOT
ATOM      1  C   UNL d   1       1.502  -2.108  -5.988  0.00  0.00    -0.002 A 
ATOM      2  C1  UNL d   1       2.091  -3.365  -5.989  0.00  0.00     0.010 A 
ATOM      3  C2  UNL d   1       3.481  -3.497  -5.993  0.00  0.00     0.041 A 
ATOM      4  C3  UNL d   1       4.277  -2.335  -5.994  0.00  0.00    -0.075 A 
ATOM      5  S   UNL d   1       5.999  -2.254  -5.997  0.00  0.00     0.015 SA
ATOM      6  C4  UNL d   1       5.993  -0.550  -5.996  0.00  0.00     0.022 A 
ATOM      7  C5  UNL d   1       4.717  -0.038  -5.994  0.00  0.00     0.026 A 
ATOM      8  C6  UNL d   1       3.707  -1.059  -5.991  0.00  0.00    -0.082 A 
ATOM      9  C7  UNL d   1       2.295  -0.957  -5.988  0.00  0.00     0.045 A 
ENDROOT
TORSDOF 0
ENDMDL
