MODEL 1
REMARK minimizedAffinity 2.76387978
REMARK minimizedRMSD -1
REMARK  0 active torsions:
REMARK  status: ('A' for Active; 'I' for Inactive)
ROOT
ATOM      1  C   UNL d   1       5.997   1.870  -2.598  0.00  0.00    -0.002 A 
ATOM      2  C1  UNL d   1       6.000   0.781  -1.737  0.00  0.00     0.010 A 
ATOM      3  C2  UNL d   1       5.998  -0.522  -2.240  0.00  0.00     0.041 A 
ATOM      4  C3  UNL d   1       5.995  -0.713  -3.635  0.00  0.00    -0.075 A 
ATOM      5  S   UNL d   1       5.994  -2.218  -4.478  0.00  0.00     0.015 SA
ATOM      6  C4  UNL d   1       5.990  -1.450  -6.000  0.00  0.00     0.022 A 
ATOM      7  C5  UNL d   1       5.989  -0.080  -5.887  0.00  0.00     0.026 A 
ATOM      8  C6  UNL d   1       5.993   0.367  -4.522  0.00  0.00    -0.082 A 
ATOM      9  C7  UNL d   1       5.994   1.675  -3.981  0.00  0.00     0.045 A 
ENDROOT
TORSDOF 0
ENDMDL
