MODEL 1
REMARK minimizedAffinity 1.06440318
REMARK minimizedRMSD -1
REMARK  0 active torsions:
REMARK  status: ('A' for Active; 'I' for Inactive)
ROOT
ATOM      1  C   UNL d   1       1.588   1.537  -3.349  0.00  0.00    -0.002 A 
ATOM      2  C1  UNL d   1       1.499   2.921  -3.398  0.00  0.00     0.010 A 
ATOM      3  C2  UNL d   1       2.583   3.716  -3.020  0.00  0.00     0.041 A 
ATOM      4  C3  UNL d   1       3.770   3.090  -2.590  0.00  0.00    -0.075 A 
ATOM      5  S   UNL d   1       5.226   3.861  -2.081  0.00  0.00     0.015 SA
ATOM      6  C4  UNL d   1       6.000   2.372  -1.788  0.00  0.00     0.022 A 
ATOM      7  C5  UNL d   1       5.182   1.302  -2.066  0.00  0.00     0.026 A 
ATOM      8  C6  UNL d   1       3.884   1.698  -2.534  0.00  0.00    -0.082 A 
ATOM      9  C7  UNL d   1       2.767   0.920  -2.922  0.00  0.00     0.045 A 
ENDROOT
TORSDOF 0
ENDMDL
