MODEL 1
REMARK minimizedAffinity 10.8429832
REMARK minimizedRMSD -1
REMARK  0 active torsions:
REMARK  status: ('A' for Active; 'I' for Inactive)
ROOT
ATOM      1  C   UNL d   1       0.754  -1.577   0.070  0.00  0.00    -0.002 A 
ATOM      2  C1  UNL d   1      -0.588  -1.920   0.156  0.00  0.00     0.010 A 
ATOM      3  C2  UNL d   1      -0.969  -3.189   0.596  0.00  0.00     0.041 A 
ATOM      4  C3  UNL d   1       0.030  -4.115   0.955  0.00  0.00    -0.075 A 
ATOM      5  S   UNL d   1      -0.201  -5.727   1.522  0.00  0.00     0.015 SA
ATOM      6  C4  UNL d   1       1.475  -5.997   1.665  0.00  0.00     0.022 A 
ATOM      7  C5  UNL d   1       2.209  -4.895   1.293  0.00  0.00     0.026 A 
ATOM      8  C6  UNL d   1       1.388  -3.792   0.878  0.00  0.00    -0.082 A 
ATOM      9  C7  UNL d   1       1.742  -2.498   0.427  0.00  0.00     0.045 A 
ENDROOT
TORSDOF 0
ENDMDL
