MODEL 1
REMARK minimizedAffinity 4.02755833
REMARK minimizedRMSD -1
REMARK  0 active torsions:
REMARK  status: ('A' for Active; 'I' for Inactive)
ROOT
ATOM      1  C   UNL d   1       1.154   2.190   0.015  0.00  0.00    -0.002 A 
ATOM      2  C1  UNL d   1       1.017   2.713  -1.263  0.00  0.00     0.010 A 
ATOM      3  C2  UNL d   1       0.964   1.869  -2.374  0.00  0.00     0.041 A 
ATOM      4  C3  UNL d   1       1.050   0.476  -2.176  0.00  0.00    -0.075 A 
ATOM      5  S   UNL d   1       1.007  -0.750  -3.388  0.00  0.00     0.015 SA
ATOM      6  C4  UNL d   1       1.168  -1.997  -2.237  0.00  0.00     0.022 A 
ATOM      7  C5  UNL d   1       1.255  -1.507  -0.955  0.00  0.00     0.026 A 
ATOM      8  C6  UNL d   1       1.188  -0.074  -0.899  0.00  0.00    -0.082 A 
ATOM      9  C7  UNL d   1       1.239   0.808   0.207  0.00  0.00     0.045 A 
ENDROOT
TORSDOF 0
ENDMDL
