MODEL 1
REMARK minimizedAffinity 14.0881195
REMARK minimizedRMSD -1
REMARK  0 active torsions:
REMARK  status: ('A' for Active; 'I' for Inactive)
ROOT
ATOM      1  C   UNL d   1       1.813   3.338  -5.282  0.00  0.00    -0.002 A 
ATOM      2  C1  UNL d   1       1.475   2.348  -4.370  0.00  0.00     0.010 A 
ATOM      3  C2  UNL d   1       2.396   1.358  -4.023  0.00  0.00     0.041 A 
ATOM      4  C3  UNL d   1       3.676   1.381  -4.612  0.00  0.00    -0.075 A 
ATOM      5  S   UNL d   1       4.967   0.271  -4.338  0.00  0.00     0.015 SA
ATOM      6  C4  UNL d   1       5.997   1.086  -5.423  0.00  0.00     0.022 A 
ATOM      7  C5  UNL d   1       5.387   2.180  -5.991  0.00  0.00     0.026 A 
ATOM      8  C6  UNL d   1       4.040   2.368  -5.532  0.00  0.00    -0.082 A 
ATOM      9  C7  UNL d   1       3.083   3.358  -5.864  0.00  0.00     0.045 A 
ENDROOT
TORSDOF 0
ENDMDL
