MODEL 1
REMARK minimizedAffinity 17.9669266
REMARK minimizedRMSD -1
REMARK  0 active torsions:
REMARK  status: ('A' for Active; 'I' for Inactive)
ROOT
ATOM      1  C   UNL d   1       0.866  -0.486  -2.755  0.00  0.00    -0.002 A 
ATOM      2  C1  UNL d   1       0.651   0.569  -3.631  0.00  0.00     0.010 A 
ATOM      3  C2  UNL d   1       0.732   1.890  -3.186  0.00  0.00     0.041 A 
ATOM      4  C3  UNL d   1       1.037   2.135  -1.832  0.00  0.00    -0.075 A 
ATOM      5  S   UNL d   1       1.189   3.671  -1.063  0.00  0.00     0.015 SA
ATOM      6  C4  UNL d   1       1.544   2.963   0.446  0.00  0.00     0.022 A 
ATOM      7  C5  UNL d   1       1.550   1.590   0.383  0.00  0.00     0.026 A 
ATOM      8  C6  UNL d   1       1.258   1.090  -0.931  0.00  0.00    -0.082 A 
ATOM      9  C7  UNL d   1       1.169  -0.238  -1.413  0.00  0.00     0.045 A 
ENDROOT
TORSDOF 0
ENDMDL
