MODEL 1
REMARK minimizedAffinity 4.70006323
REMARK minimizedRMSD -1
REMARK  0 active torsions:
REMARK  status: ('A' for Active; 'I' for Inactive)
ROOT
ATOM      1  C   UNL d   1       1.619  -1.440  -4.112  0.00  0.00    -0.002 A 
ATOM      2  C1  UNL d   1       1.704  -0.085  -4.398  0.00  0.00     0.010 A 
ATOM      3  C2  UNL d   1       1.514   0.866  -3.394  0.00  0.00     0.041 A 
ATOM      4  C3  UNL d   1       1.238   0.428  -2.084  0.00  0.00    -0.075 A 
ATOM      5  S   UNL d   1       0.970   1.411  -0.693  0.00  0.00     0.015 SA
ATOM      6  C4  UNL d   1       0.739   0.056   0.313  0.00  0.00     0.022 A 
ATOM      7  C5  UNL d   1       0.859  -1.126  -0.378  0.00  0.00     0.026 A 
ATOM      8  C6  UNL d   1       1.149  -0.932  -1.771  0.00  0.00    -0.082 A 
ATOM      9  C7  UNL d   1       1.345  -1.871  -2.812  0.00  0.00     0.045 A 
ENDROOT
TORSDOF 0
ENDMDL
