MODEL 1
REMARK minimizedAffinity 6.49490547
REMARK minimizedRMSD -1
REMARK  0 active torsions:
REMARK  status: ('A' for Active; 'I' for Inactive)
ROOT
ATOM      1  C   UNL d   1       1.440  -2.437  -2.609  0.00  0.00    -0.002 A 
ATOM      2  C1  UNL d   1       1.507  -1.779  -3.828  0.00  0.00     0.010 A 
ATOM      3  C2  UNL d   1       1.316  -0.397  -3.901  0.00  0.00     0.041 A 
ATOM      4  C3  UNL d   1       1.055   0.318  -2.716  0.00  0.00    -0.075 A 
ATOM      5  S   UNL d   1       0.789   2.014  -2.563  0.00  0.00     0.015 SA
ATOM      6  C4  UNL d   1       0.581   1.905  -0.875  0.00  0.00     0.022 A 
ATOM      7  C5  UNL d   1       0.708   0.613  -0.422  0.00  0.00     0.026 A 
ATOM      8  C6  UNL d   1       0.984  -0.323  -1.476  0.00  0.00    -0.082 A 
ATOM      9  C7  UNL d   1       1.181  -1.724  -1.435  0.00  0.00     0.045 A 
ENDROOT
TORSDOF 0
ENDMDL
