MODEL 1
REMARK minimizedAffinity 5.65461588
REMARK minimizedRMSD -1
REMARK  0 active torsions:
REMARK  status: ('A' for Active; 'I' for Inactive)
ROOT
ATOM      1  C   UNL d   1       0.750   1.292  -0.639  0.00  0.00    -0.002 A 
ATOM      2  C1  UNL d   1       0.970   1.964  -1.834  0.00  0.00     0.010 A 
ATOM      3  C2  UNL d   1       1.153   1.256  -3.023  0.00  0.00     0.041 A 
ATOM      4  C3  UNL d   1       1.108  -0.152  -2.992  0.00  0.00    -0.075 A 
ATOM      5  S   UNL d   1       1.304  -1.228  -4.325  0.00  0.00     0.015 SA
ATOM      6  C4  UNL d   1       1.099  -2.604  -3.341  0.00  0.00     0.022 A 
ATOM      7  C5  UNL d   1       0.886  -2.269  -2.024  0.00  0.00     0.026 A 
ATOM      8  C6  UNL d   1       0.887  -0.851  -1.802  0.00  0.00    -0.082 A 
ATOM      9  C7  UNL d   1       0.706  -0.104  -0.613  0.00  0.00     0.045 A 
ENDROOT
TORSDOF 0
ENDMDL
