MODEL 1
REMARK minimizedAffinity 7.11232996
REMARK minimizedRMSD -1
REMARK  0 active torsions:
REMARK  status: ('A' for Active; 'I' for Inactive)
ROOT
ATOM      1  C   UNL d   1       0.375   2.174  -2.803  0.00  0.00    -0.002 A 
ATOM      2  C1  UNL d   1       0.865   1.378  -3.828  0.00  0.00     0.010 A 
ATOM      3  C2  UNL d   1       1.187   0.039  -3.595  0.00  0.00     0.041 A 
ATOM      4  C3  UNL d   1       1.005  -0.491  -2.303  0.00  0.00    -0.075 A 
ATOM      5  S   UNL d   1       1.330  -2.103  -1.785  0.00  0.00     0.015 SA
ATOM      6  C4  UNL d   1       0.826  -1.773  -0.191  0.00  0.00     0.022 A 
ATOM      7  C5  UNL d   1       0.416  -0.469  -0.040  0.00  0.00     0.026 A 
ATOM      8  C6  UNL d   1       0.512   0.291  -1.254  0.00  0.00    -0.082 A 
ATOM      9  C7  UNL d   1       0.196   1.645  -1.522  0.00  0.00     0.045 A 
ENDROOT
TORSDOF 0
ENDMDL
