MODEL 1
REMARK minimizedAffinity 4.68980551
REMARK minimizedRMSD -1
REMARK  0 active torsions:
REMARK  status: ('A' for Active; 'I' for Inactive)
ROOT
ATOM      1  C   UNL d   1       5.624   0.883  -5.625  0.00  0.00    -0.002 A 
ATOM      2  C1  UNL d   1       6.000   0.440  -4.365  0.00  0.00     0.010 A 
ATOM      3  C2  UNL d   1       5.041  -0.006  -3.454  0.00  0.00     0.041 A 
ATOM      4  C3  UNL d   1       3.684  -0.001  -3.835  0.00  0.00    -0.075 A 
ATOM      5  S   UNL d   1       2.336  -0.502  -2.885  0.00  0.00     0.015 SA
ATOM      6  C4  UNL d   1       1.230  -0.142  -4.130  0.00  0.00     0.022 A 
ATOM      7  C5  UNL d   1       1.856   0.351  -5.250  0.00  0.00     0.026 A 
ATOM      8  C6  UNL d   1       3.282   0.440  -5.099  0.00  0.00    -0.082 A 
ATOM      9  C7  UNL d   1       4.278   0.887  -6.000  0.00  0.00     0.045 A 
ENDROOT
TORSDOF 0
ENDMDL
