MODEL 1
REMARK minimizedAffinity -2.23157263
REMARK minimizedRMSD -1
REMARK  2 active torsions:
REMARK  status: ('A' for Active; 'I' for Inactive)
REMARK    1  A    between atoms: C1_2  and  C2_3 
REMARK    2  A    between atoms: C2_3  and  C3_4 
ROOT
ATOM      1  C3  UNL d   1      -0.067   0.296  -0.603  0.00  0.00    -0.075 A 
ATOM      2  C4  UNL d   1      -0.943   0.880   0.323  0.00  0.00     0.002 A 
ATOM      3  C5  UNL d   1      -1.554   0.103   1.307  0.00  0.00     0.002 A 
ATOM      4  C6  UNL d   1      -1.306  -1.266   1.372  0.00  0.00    -0.004 A 
ATOM      5  C7  UNL d   1      -0.451  -1.860   0.447  0.00  0.00     0.002 A 
ATOM      6  C8  UNL d   1       0.166  -1.085  -0.536  0.00  0.00     0.002 A 
ENDROOT
BRANCH   1   7
ATOM      7  C2  UNL d   1       0.621   1.136  -1.653  0.00  0.00     0.056 C 
BRANCH   7   8
ATOM      8  C1  UNL d   1       1.329   2.375  -1.094  0.00  0.00     0.007 C 
ATOM      9  C   UNL d   1       2.783   2.485  -1.534  0.00  0.00     0.009 C 
ENDBRANCH   7   8
ENDBRANCH   1   7
TORSDOF 2
ENDMDL
