MODEL 1
REMARK minimizedAffinity 3.33080029
REMARK minimizedRMSD -1
REMARK  2 active torsions:
REMARK  status: ('A' for Active; 'I' for Inactive)
REMARK    1  A    between atoms: C1_2  and  C2_3 
REMARK    2  A    between atoms: C2_3  and  C3_4 
ROOT
ATOM      1  C3  UNL d   1       1.667   1.560   1.096  0.00  0.00    -0.075 A 
ATOM      2  C4  UNL d   1       2.288   1.111  -0.079  0.00  0.00     0.002 A 
ATOM      3  C5  UNL d   1       3.266   1.887  -0.704  0.00  0.00     0.002 A 
ATOM      4  C6  UNL d   1       3.626   3.122  -0.169  0.00  0.00    -0.004 A 
ATOM      5  C7  UNL d   1       3.003   3.585   0.988  0.00  0.00     0.002 A 
ATOM      6  C8  UNL d   1       2.029   2.809   1.618  0.00  0.00     0.002 A 
ENDROOT
BRANCH   1   7
ATOM      7  C2  UNL d   1       0.630   0.712   1.793  0.00  0.00     0.056 C 
BRANCH   7   8
ATOM      8  C1  UNL d   1      -0.158  -0.208   0.854  0.00  0.00     0.007 C 
ATOM      9  C   UNL d   1      -1.618  -0.366   1.255  0.00  0.00     0.009 C 
ENDBRANCH   7   8
ENDBRANCH   1   7
TORSDOF 2
ENDMDL
