MODEL 1
REMARK minimizedAffinity 3.73759079
REMARK minimizedRMSD -1
REMARK  2 active torsions:
REMARK  status: ('A' for Active; 'I' for Inactive)
REMARK    1  A    between atoms: C1_2  and  C2_3 
REMARK    2  A    between atoms: C2_3  and  C3_4 
ROOT
ATOM      1  C3  UNL d   1      -0.837   0.078   0.440  0.00  0.00    -0.075 A 
ATOM      2  C4  UNL d   1      -1.064   0.748   1.651  0.00  0.00     0.002 A 
ATOM      3  C5  UNL d   1      -1.583   0.065   2.751  0.00  0.00     0.002 A 
ATOM      4  C6  UNL d   1      -1.890  -1.290   2.653  0.00  0.00    -0.004 A 
ATOM      5  C7  UNL d   1      -1.683  -1.962   1.450  0.00  0.00     0.002 A 
ATOM      6  C8  UNL d   1      -1.160  -1.282   0.349  0.00  0.00     0.002 A 
ENDROOT
BRANCH   1   7
ATOM      7  C2  UNL d   1      -0.248   0.804  -0.746  0.00  0.00     0.056 C 
BRANCH   7   8
ATOM      8  C1  UNL d   1       0.985   0.120  -1.347  0.00  0.00     0.007 C 
ATOM      9  C   UNL d   1       0.845  -0.170  -2.835  0.00  0.00     0.009 C 
ENDBRANCH   7   8
ENDBRANCH   1   7
TORSDOF 2
ENDMDL
