MODEL 1
REMARK minimizedAffinity 3.08529305
REMARK minimizedRMSD -1
REMARK  2 active torsions:
REMARK  status: ('A' for Active; 'I' for Inactive)
REMARK    1  A    between atoms: C1_2  and  C2_3 
REMARK    2  A    between atoms: C2_3  and  C3_4 
ROOT
ATOM      1  C3  UNL d   1      -0.336   0.595  -0.189  0.00  0.00    -0.075 A 
ATOM      2  C4  UNL d   1      -0.380   0.044  -1.478  0.00  0.00     0.002 A 
ATOM      3  C5  UNL d   1       0.724   0.136  -2.326  0.00  0.00     0.002 A 
ATOM      4  C6  UNL d   1       1.880   0.788  -1.902  0.00  0.00    -0.004 A 
ATOM      5  C7  UNL d   1       1.929   1.353  -0.630  0.00  0.00     0.002 A 
ATOM      6  C8  UNL d   1       0.828   1.259   0.223  0.00  0.00     0.002 A 
ENDROOT
BRANCH   1   7
ATOM      7  C2  UNL d   1      -1.516   0.473   0.744  0.00  0.00     0.056 C 
BRANCH   7   8
ATOM      8  C1  UNL d   1      -1.376  -0.643   1.784  0.00  0.00     0.007 C 
ATOM      9  C   UNL d   1      -1.776  -2.013   1.253  0.00  0.00     0.009 C 
ENDBRANCH   7   8
ENDBRANCH   1   7
TORSDOF 2
ENDMDL
