MODEL 1
REMARK minimizedAffinity 0.0664861873
REMARK minimizedRMSD -1
REMARK  2 active torsions:
REMARK  status: ('A' for Active; 'I' for Inactive)
REMARK    1  A    between atoms: C1_2  and  C2_3 
REMARK    2  A    between atoms: C2_3  and  C3_4 
ROOT
ATOM      1  C3  UNL d   1      -0.415  -1.360  -1.125  0.00  0.00    -0.075 A 
ATOM      2  C4  UNL d   1      -0.930  -0.854   0.077  0.00  0.00     0.002 A 
ATOM      3  C5  UNL d   1      -0.446   0.341   0.609  0.00  0.00     0.002 A 
ATOM      4  C6  UNL d   1       0.566   1.039  -0.048  0.00  0.00    -0.004 A 
ATOM      5  C7  UNL d   1       1.097   0.538  -1.234  0.00  0.00     0.002 A 
ATOM      6  C8  UNL d   1       0.611  -0.656  -1.770  0.00  0.00     0.002 A 
ENDROOT
BRANCH   1   7
ATOM      7  C2  UNL d   1      -0.956  -2.638  -1.720  0.00  0.00     0.056 C 
BRANCH   7   8
ATOM      8  C1  UNL d   1      -1.041  -3.802  -0.727  0.00  0.00     0.007 C 
ATOM      9  C   UNL d   1      -1.190  -3.347   0.719  0.00  0.00     0.009 C 
ENDBRANCH   7   8
ENDBRANCH   1   7
TORSDOF 2
ENDMDL
