MODEL 1
REMARK minimizedAffinity 0.120249763
REMARK minimizedRMSD -1
REMARK  2 active torsions:
REMARK  status: ('A' for Active; 'I' for Inactive)
REMARK    1  A    between atoms: C1_2  and  C2_3 
REMARK    2  A    between atoms: C2_3  and  C3_4 
ROOT
ATOM      1  C3  UNL d   1       0.145   1.926   0.802  0.00  0.00    -0.075 A 
ATOM      2  C4  UNL d   1      -0.442   1.749  -0.459  0.00  0.00     0.002 A 
ATOM      3  C5  UNL d   1      -0.749   0.469  -0.924  0.00  0.00     0.002 A 
ATOM      4  C6  UNL d   1      -0.463  -0.647  -0.141  0.00  0.00    -0.004 A 
ATOM      5  C7  UNL d   1       0.135  -0.483   1.107  0.00  0.00     0.002 A 
ATOM      6  C8  UNL d   1       0.439   0.796   1.576  0.00  0.00     0.002 A 
ENDROOT
BRANCH   1   7
ATOM      7  C2  UNL d   1       0.453   3.309   1.323  0.00  0.00     0.056 C 
BRANCH   7   8
ATOM      8  C1  UNL d   1       1.672   3.370   2.249  0.00  0.00     0.007 C 
ATOM      9  C   UNL d   1       2.946   3.803   1.536  0.00  0.00     0.009 C 
ENDBRANCH   7   8
ENDBRANCH   1   7
TORSDOF 2
ENDMDL
