MODEL 1
REMARK minimizedAffinity 6.03327894
REMARK minimizedRMSD -1
REMARK  2 active torsions:
REMARK  status: ('A' for Active; 'I' for Inactive)
REMARK    1  A    between atoms: C1_2  and  C2_3 
REMARK    2  A    between atoms: C2_3  and  C3_4 
ROOT
ATOM      1  C3  UNL d   1      -1.823  -1.476   1.373  0.00  0.00    -0.075 A 
ATOM      2  C4  UNL d   1      -2.735  -0.491   1.778  0.00  0.00     0.002 A 
ATOM      3  C5  UNL d   1      -2.324   0.832   1.939  0.00  0.00     0.002 A 
ATOM      4  C6  UNL d   1      -0.996   1.185   1.708  0.00  0.00    -0.004 A 
ATOM      5  C7  UNL d   1      -0.078   0.212   1.322  0.00  0.00     0.002 A 
ATOM      6  C8  UNL d   1      -0.487  -1.112   1.156  0.00  0.00     0.002 A 
ENDROOT
BRANCH   1   7
ATOM      7  C2  UNL d   1      -2.268  -2.905   1.169  0.00  0.00     0.056 C 
BRANCH   7   8
ATOM      8  C1  UNL d   1      -3.538  -3.047   0.323  0.00  0.00     0.007 C 
ATOM      9  C   UNL d   1      -4.714  -3.625   1.099  0.00  0.00     0.009 C 
ENDBRANCH   7   8
ENDBRANCH   1   7
TORSDOF 2
ENDMDL
