MODEL 1
REMARK minimizedAffinity -4.70088148
REMARK minimizedRMSD -1
REMARK  2 active torsions:
REMARK  status: ('A' for Active; 'I' for Inactive)
REMARK    1  A    between atoms: C1_2  and  C2_3 
REMARK    2  A    between atoms: C2_3  and  C3_4 
ROOT
ATOM      1  C3  UNL d   1      -0.342  -1.656  -0.315  0.00  0.00    -0.075 A 
ATOM      2  C4  UNL d   1      -0.490  -2.398  -1.496  0.00  0.00     0.002 A 
ATOM      3  C5  UNL d   1      -0.284  -3.778  -1.496  0.00  0.00     0.002 A 
ATOM      4  C6  UNL d   1       0.082  -4.431  -0.321  0.00  0.00    -0.004 A 
ATOM      5  C7  UNL d   1       0.249  -3.701   0.854  0.00  0.00     0.002 A 
ATOM      6  C8  UNL d   1       0.039  -2.321   0.858  0.00  0.00     0.002 A 
ENDROOT
BRANCH   1   7
ATOM      7  C2  UNL d   1      -0.592  -0.167  -0.302  0.00  0.00     0.056 C 
BRANCH   7   8
ATOM      8  C1  UNL d   1       0.053   0.584  -1.471  0.00  0.00     0.007 C 
ATOM      9  C   UNL d   1       1.555   0.356  -1.577  0.00  0.00     0.009 C 
ENDBRANCH   7   8
ENDBRANCH   1   7
TORSDOF 2
ENDMDL
