MODEL 1
REMARK minimizedAffinity -6.27627373
REMARK minimizedRMSD -1
REMARK  2 active torsions:
REMARK  status: ('A' for Active; 'I' for Inactive)
REMARK    1  A    between atoms: C1_2  and  C2_3 
REMARK    2  A    between atoms: C2_3  and  C3_4 
ROOT
ATOM      1  C3  UNL d   1       0.368  -0.660  -0.624  0.00  0.00    -0.075 A 
ATOM      2  C4  UNL d   1       0.013  -1.653   0.300  0.00  0.00     0.002 A 
ATOM      3  C5  UNL d   1       0.208  -3.001   0.001  0.00  0.00     0.002 A 
ATOM      4  C6  UNL d   1       0.749  -3.374  -1.228  0.00  0.00    -0.004 A 
ATOM      5  C7  UNL d   1       1.090  -2.397  -2.160  0.00  0.00     0.002 A 
ATOM      6  C8  UNL d   1       0.901  -1.046  -1.862  0.00  0.00     0.002 A 
ENDROOT
BRANCH   1   7
ATOM      7  C2  UNL d   1       0.187   0.803  -0.295  0.00  0.00     0.056 C 
BRANCH   7   8
ATOM      8  C1  UNL d   1       0.891   1.754  -1.269  0.00  0.00     0.007 C 
ATOM      9  C   UNL d   1       2.228   2.264  -0.750  0.00  0.00     0.009 C 
ENDBRANCH   7   8
ENDBRANCH   1   7
TORSDOF 2
ENDMDL
