MODEL 1
REMARK minimizedAffinity -5.34412336
REMARK minimizedRMSD -1
REMARK  2 active torsions:
REMARK  status: ('A' for Active; 'I' for Inactive)
REMARK    1  A    between atoms: C1_2  and  C2_3 
REMARK    2  A    between atoms: C2_3  and  C3_4 
ROOT
ATOM      1  C3  UNL d   1      -0.115   0.988  -1.067  0.00  0.00    -0.075 A 
ATOM      2  C4  UNL d   1       0.205   0.138  -2.135  0.00  0.00     0.002 A 
ATOM      3  C5  UNL d   1       0.075  -1.245  -2.003  0.00  0.00     0.002 A 
ATOM      4  C6  UNL d   1      -0.365  -1.795  -0.801  0.00  0.00    -0.004 A 
ATOM      5  C7  UNL d   1      -0.670  -0.961   0.272  0.00  0.00     0.002 A 
ATOM      6  C8  UNL d   1      -0.545   0.424   0.142  0.00  0.00     0.002 A 
ENDROOT
BRANCH   1   7
ATOM      7  C2  UNL d   1      -0.005   2.487  -1.213  0.00  0.00     0.056 C 
BRANCH   7   8
ATOM      8  C1  UNL d   1       0.258   3.224   0.105  0.00  0.00     0.007 C 
ATOM      9  C   UNL d   1       1.739   3.435   0.389  0.00  0.00     0.009 C 
ENDBRANCH   7   8
ENDBRANCH   1   7
TORSDOF 2
ENDMDL
