MODEL 1
REMARK minimizedAffinity -2.05530119
REMARK minimizedRMSD -1
REMARK  1 active torsions:
REMARK  status: ('A' for Active; 'I' for Inactive)
REMARK    1  A    between atoms: C1_2  and  C2_3 
ROOT
ATOM      1  C2  UNL d   1       0.125  -0.419  -0.508  0.00  0.00    -0.081 A 
ATOM      2  C3  UNL d   1      -0.774  -0.038   0.496  0.00  0.00     0.006 A 
ATOM      3  C4  UNL d   1      -0.577  -0.447   1.817  0.00  0.00     0.002 A 
ATOM      4  C5  UNL d   1       0.525  -1.238   2.157  0.00  0.00    -0.080 A 
ATOM      5  C6  UNL d   1       0.765  -1.660   3.577  0.00  0.00     0.076 C 
ATOM      6  C7  UNL d   1       1.414  -1.634   1.152  0.00  0.00     0.002 A 
ATOM      7  C8  UNL d   1       1.217  -1.226  -0.169  0.00  0.00     0.006 A 
ENDROOT
BRANCH   1   8
ATOM      8  C1  UNL d   1      -0.049   0.074  -1.921  0.00  0.00     0.054 C 
ATOM      9  C   UNL d   1      -0.072   1.595  -1.977  0.00  0.00     0.018 C 
ENDBRANCH   1   8
TORSDOF 1
ENDMDL
