MODEL 1
REMARK minimizedAffinity 4.75221443
REMARK minimizedRMSD -1
REMARK  1 active torsions:
REMARK  status: ('A' for Active; 'I' for Inactive)
REMARK    1  A    between atoms: C1_2  and  C2_3 
ROOT
ATOM      1  C2  UNL d   1       1.787   4.727  -5.704  0.00  0.00    -0.081 A 
ATOM      2  C3  UNL d   1       2.749   5.744  -5.656  0.00  0.00     0.006 A 
ATOM      3  C4  UNL d   1       4.109   5.435  -5.738  0.00  0.00     0.002 A 
ATOM      4  C5  UNL d   1       4.529   4.108  -5.876  0.00  0.00    -0.080 A 
ATOM      5  C6  UNL d   1       5.984   3.766  -5.996  0.00  0.00     0.076 C 
ATOM      6  C7  UNL d   1       3.568   3.091  -5.907  0.00  0.00     0.002 A 
ATOM      7  C8  UNL d   1       2.208   3.399  -5.824  0.00  0.00     0.006 A 
ENDROOT
BRANCH   1   8
ATOM      8  C1  UNL d   1       0.317   5.062  -5.681  0.00  0.00     0.054 C 
ATOM      9  C   UNL d   1      -0.324   4.650  -4.364  0.00  0.00     0.018 C 
ENDBRANCH   1   8
TORSDOF 1
ENDMDL
