MODEL 1
REMARK minimizedAffinity 7.62691402
REMARK minimizedRMSD -1
REMARK  1 active torsions:
REMARK  status: ('A' for Active; 'I' for Inactive)
REMARK    1  A    between atoms: C1_2  and  C2_3 
ROOT
ATOM      1  C2  UNL d   1       0.206  -0.638   0.151  0.00  0.00    -0.081 A 
ATOM      2  C3  UNL d   1      -1.029  -0.246  -0.381  0.00  0.00     0.006 A 
ATOM      3  C4  UNL d   1      -2.114   0.010   0.460  0.00  0.00     0.002 A 
ATOM      4  C5  UNL d   1      -1.981  -0.114   1.848  0.00  0.00    -0.080 A 
ATOM      5  C6  UNL d   1      -3.129   0.188   2.764  0.00  0.00     0.076 C 
ATOM      6  C7  UNL d   1      -0.752  -0.522   2.378  0.00  0.00     0.002 A 
ATOM      7  C8  UNL d   1       0.333  -0.779   1.537  0.00  0.00     0.006 A 
ENDROOT
BRANCH   1   8
ATOM      8  C1  UNL d   1       1.396  -0.853  -0.749  0.00  0.00     0.054 C 
ATOM      9  C   UNL d   1       2.695  -0.858   0.043  0.00  0.00     0.018 C 
ENDBRANCH   1   8
TORSDOF 1
ENDMDL
