MODEL 1
REMARK minimizedAffinity 4.82723331
REMARK minimizedRMSD -1
REMARK  1 active torsions:
REMARK  status: ('A' for Active; 'I' for Inactive)
REMARK    1  A    between atoms: C1_2  and  C2_3 
ROOT
ATOM      1  C2  UNL d   1       1.944  -1.935   0.841  0.00  0.00    -0.081 A 
ATOM      2  C3  UNL d   1       1.404  -1.134  -0.173  0.00  0.00     0.006 A 
ATOM      3  C4  UNL d   1       0.185  -0.479   0.015  0.00  0.00     0.002 A 
ATOM      4  C5  UNL d   1      -0.510  -0.606   1.223  0.00  0.00    -0.080 A 
ATOM      5  C6  UNL d   1      -1.805   0.117   1.449  0.00  0.00     0.076 C 
ATOM      6  C7  UNL d   1       0.021  -1.420   2.230  0.00  0.00     0.002 A 
ATOM      7  C8  UNL d   1       1.239  -2.076   2.041  0.00  0.00     0.006 A 
ENDROOT
BRANCH   1   8
ATOM      8  C1  UNL d   1       3.290  -2.591   0.665  0.00  0.00     0.054 C 
ATOM      9  C   UNL d   1       3.145  -4.059   0.290  0.00  0.00     0.018 C 
ENDBRANCH   1   8
TORSDOF 1
ENDMDL
