MODEL 1
REMARK minimizedAffinity 4.26901579
REMARK minimizedRMSD -1
REMARK  1 active torsions:
REMARK  status: ('A' for Active; 'I' for Inactive)
REMARK    1  A    between atoms: C3_4  and  O_7 
ROOT
ATOM      1  C   UNL d   1      -5.056  -1.829  -5.976  0.00  0.00    -0.033 A 
ATOM      2  C1  UNL d   1      -5.053  -3.225  -5.982  0.00  0.00     0.039 A 
ATOM      3  C2  UNL d   1      -3.844  -3.922  -5.988  0.00  0.00    -0.080 A 
ATOM      4  C3  UNL d   1      -2.646  -3.213  -5.986  0.00  0.00     0.150 A 
ATOM      5  C4  UNL d   1      -2.641  -1.822  -5.976  0.00  0.00    -0.007 A 
ATOM      6  C5  UNL d   1      -3.850  -1.127  -5.971  0.00  0.00     0.039 A 
ENDROOT
BRANCH   4   7
ATOM      7  O   UNL d   1      -1.440  -3.849  -5.997  0.00  0.00    -0.526 OA
ATOM      8  H5  UNL d   1      -1.599  -4.807  -6.033  0.00  0.00     0.418 HD
ENDBRANCH   4   7
TORSDOF 1
ENDMDL
