MODEL 1
REMARK minimizedAffinity 5.68233681
REMARK minimizedRMSD -1
REMARK  1 active torsions:
REMARK  status: ('A' for Active; 'I' for Inactive)
REMARK    1  A    between atoms: C3_4  and  O_7 
ROOT
ATOM      1  C   UNL d   1      -5.117   0.949   1.686  0.00  0.00    -0.033 A 
ATOM      2  C1  UNL d   1      -4.394   1.182   2.858  0.00  0.00     0.039 A 
ATOM      3  C2  UNL d   1      -3.007   1.024   2.868  0.00  0.00    -0.080 A 
ATOM      4  C3  UNL d   1      -2.355   0.635   1.701  0.00  0.00     0.150 A 
ATOM      5  C4  UNL d   1      -3.068   0.405   0.529  0.00  0.00    -0.007 A 
ATOM      6  C5  UNL d   1      -4.453   0.562   0.521  0.00  0.00     0.039 A 
ENDROOT
BRANCH   4   7
ATOM      7  O   UNL d   1      -1.003   0.463   1.664  0.00  0.00    -0.526 OA
ATOM      8  H5  UNL d   1      -0.647   0.628   2.553  0.00  0.00     0.418 HD
ENDBRANCH   4   7
TORSDOF 1
ENDMDL
