MODEL 1
REMARK minimizedAffinity 8.03075123
REMARK minimizedRMSD -1
REMARK  1 active torsions:
REMARK  status: ('A' for Active; 'I' for Inactive)
REMARK    1  A    between atoms: C3_4  and  O_7 
ROOT
ATOM      1  C   UNL d   1      -5.184  -3.112  -5.984  0.00  0.00    -0.033 A 
ATOM      2  C1  UNL d   1      -5.457  -1.743  -5.974  0.00  0.00     0.039 A 
ATOM      3  C2  UNL d   1      -4.409  -0.820  -5.975  0.00  0.00    -0.080 A 
ATOM      4  C3  UNL d   1      -3.095  -1.279  -5.986  0.00  0.00     0.150 A 
ATOM      5  C4  UNL d   1      -2.816  -2.642  -5.999  0.00  0.00    -0.007 A 
ATOM      6  C5  UNL d   1      -3.863  -3.562  -5.998  0.00  0.00     0.039 A 
ENDROOT
BRANCH   4   7
ATOM      7  O   UNL d   1      -2.039  -0.417  -5.982  0.00  0.00    -0.526 OA
ATOM      8  H5  UNL d   1      -2.383   0.491  -5.943  0.00  0.00     0.418 HD
ENDBRANCH   4   7
TORSDOF 1
ENDMDL
