MODEL 1
REMARK minimizedAffinity -0.840622962
REMARK minimizedRMSD -1
REMARK  1 active torsions:
REMARK  status: ('A' for Active; 'I' for Inactive)
REMARK    1  A    between atoms: C3_4  and  O_7 
ROOT
ATOM      1  C   UNL d   1      -2.260   0.830   1.242  0.00  0.00    -0.033 A 
ATOM      2  C1  UNL d   1      -2.143   1.216   2.579  0.00  0.00     0.039 A 
ATOM      3  C2  UNL d   1      -0.978   0.927   3.291  0.00  0.00    -0.080 A 
ATOM      4  C3  UNL d   1       0.062   0.254   2.656  0.00  0.00     0.150 A 
ATOM      5  C4  UNL d   1      -0.046  -0.129   1.323  0.00  0.00    -0.007 A 
ATOM      6  C5  UNL d   1      -1.211   0.159   0.614  0.00  0.00     0.039 A 
ENDROOT
BRANCH   4   7
ATOM      7  O   UNL d   1       1.217  -0.054   3.311  0.00  0.00    -0.526 OA
ATOM      8  H5  UNL d   1       1.138   0.246   4.232  0.00  0.00     0.418 HD
ENDBRANCH   4   7
TORSDOF 1
ENDMDL
