MODEL 1
REMARK minimizedAffinity 0.324532092
REMARK minimizedRMSD -1
REMARK  1 active torsions:
REMARK  status: ('A' for Active; 'I' for Inactive)
REMARK    1  A    between atoms: C3_4  and  O_7 
ROOT
ATOM      1  C   UNL d   1      -2.077  -3.698   0.544  0.00  0.00    -0.033 A 
ATOM      2  C1  UNL d   1      -3.397  -3.304   0.319  0.00  0.00     0.039 A 
ATOM      3  C2  UNL d   1      -3.765  -1.966   0.475  0.00  0.00    -0.080 A 
ATOM      4  C3  UNL d   1      -2.803  -1.033   0.854  0.00  0.00     0.150 A 
ATOM      5  C4  UNL d   1      -1.485  -1.418   1.075  0.00  0.00    -0.007 A 
ATOM      6  C5  UNL d   1      -1.120  -2.755   0.920  0.00  0.00     0.039 A 
ENDROOT
BRANCH   4   7
ATOM      7  O   UNL d   1      -3.115   0.283   1.023  0.00  0.00    -0.526 OA
ATOM      8  H5  UNL d   1      -4.067   0.396   0.864  0.00  0.00     0.418 HD
ENDBRANCH   4   7
TORSDOF 1
ENDMDL
