MODEL 1
REMARK minimizedAffinity -1.11908853
REMARK minimizedRMSD -1
REMARK  1 active torsions:
REMARK  status: ('A' for Active; 'I' for Inactive)
REMARK    1  A    between atoms: C3_4  and  O_7 
ROOT
ATOM      1  C   UNL d   1      -4.480   1.078   1.525  0.00  0.00    -0.033 A 
ATOM      2  C1  UNL d   1      -4.232   1.657   2.771  0.00  0.00     0.039 A 
ATOM      3  C2  UNL d   1      -2.932   1.696   3.279  0.00  0.00    -0.080 A 
ATOM      4  C3  UNL d   1      -1.890   1.153   2.531  0.00  0.00     0.150 A 
ATOM      5  C4  UNL d   1      -2.130   0.578   1.287  0.00  0.00    -0.007 A 
ATOM      6  C5  UNL d   1      -3.429   0.540   0.782  0.00  0.00     0.039 A 
ENDROOT
BRANCH   4   7
ATOM      7  O   UNL d   1      -0.606   1.163   2.987  0.00  0.00    -0.526 OA
ATOM      8  H5  UNL d   1      -0.596   1.566   3.872  0.00  0.00     0.418 HD
ENDBRANCH   4   7
TORSDOF 1
ENDMDL
