MODEL 1
REMARK minimizedAffinity 1.53381491
REMARK minimizedRMSD -1
REMARK  1 active torsions:
REMARK  status: ('A' for Active; 'I' for Inactive)
REMARK    1  A    between atoms: C3_4  and  O_7 
ROOT
ATOM      1  C   UNL d   1      -2.547   1.101   2.458  0.00  0.00    -0.033 A 
ATOM      2  C1  UNL d   1      -1.797   0.182   1.723  0.00  0.00     0.039 A 
ATOM      3  C2  UNL d   1      -2.439  -0.765   0.922  0.00  0.00    -0.080 A 
ATOM      4  C3  UNL d   1      -3.829  -0.781   0.865  0.00  0.00     0.150 A 
ATOM      5  C4  UNL d   1      -4.583   0.134   1.592  0.00  0.00    -0.007 A 
ATOM      6  C5  UNL d   1      -3.941   1.078   2.392  0.00  0.00     0.039 A 
ENDROOT
BRANCH   4   7
ATOM      7  O   UNL d   1      -4.501  -1.689   0.101  0.00  0.00    -0.526 OA
ATOM      8  H5  UNL d   1      -3.851  -2.275  -0.321  0.00  0.00     0.418 HD
ENDBRANCH   4   7
TORSDOF 1
ENDMDL
