MODEL 1
REMARK minimizedAffinity 6.47852087
REMARK minimizedRMSD -1
REMARK  1 active torsions:
REMARK  status: ('A' for Active; 'I' for Inactive)
REMARK    1  A    between atoms: C3_4  and  O_7 
ROOT
ATOM      1  C   UNL d   1      -0.936   1.198   3.034  0.00  0.00    -0.033 A 
ATOM      2  C1  UNL d   1      -2.163   1.821   3.269  0.00  0.00     0.039 A 
ATOM      3  C2  UNL d   1      -3.242   1.588   2.414  0.00  0.00    -0.080 A 
ATOM      4  C3  UNL d   1      -3.081   0.730   1.329  0.00  0.00     0.150 A 
ATOM      5  C4  UNL d   1      -1.862   0.102   1.092  0.00  0.00    -0.007 A 
ATOM      6  C5  UNL d   1      -0.786   0.337   1.947  0.00  0.00     0.039 A 
ENDROOT
BRANCH   4   7
ATOM      7  O   UNL d   1      -4.103   0.475   0.464  0.00  0.00    -0.526 OA
ATOM      8  H5  UNL d   1      -4.874   0.999   0.737  0.00  0.00     0.418 HD
ENDBRANCH   4   7
TORSDOF 1
ENDMDL
