MODEL 1
REMARK minimizedAffinity 9.91834259
REMARK minimizedRMSD -1
REMARK  1 active torsions:
REMARK  status: ('A' for Active; 'I' for Inactive)
REMARK    1  A    between atoms: C3_4  and  O_7 
ROOT
ATOM      1  C   UNL d   1       3.308  -0.010   3.386  0.00  0.00    -0.033 A 
ATOM      2  C1  UNL d   1       3.024   0.836   2.311  0.00  0.00     0.039 A 
ATOM      3  C2  UNL d   1       3.920   0.937   1.245  0.00  0.00    -0.080 A 
ATOM      4  C3  UNL d   1       5.093   0.188   1.264  0.00  0.00     0.150 A 
ATOM      5  C4  UNL d   1       5.381  -0.659   2.329  0.00  0.00    -0.007 A 
ATOM      6  C5  UNL d   1       4.486  -0.758   3.394  0.00  0.00     0.039 A 
ENDROOT
BRANCH   4   7
ATOM      7  O   UNL d   1       6.000   0.258   0.248  0.00  0.00    -0.526 OA
ATOM      8  H5  UNL d   1       5.682   0.904  -0.404  0.00  0.00     0.418 HD
ENDBRANCH   4   7
TORSDOF 1
ENDMDL
