MODEL 1
REMARK minimizedAffinity 6.91739082
REMARK minimizedRMSD -1
REMARK  1 active torsions:
REMARK  status: ('A' for Active; 'I' for Inactive)
REMARK    1  A    between atoms: C3_4  and  O_7 
ROOT
ATOM      1  C   UNL d   1      -2.313   0.299   0.783  0.00  0.00    -0.033 A 
ATOM      2  C1  UNL d   1      -1.749   0.078   2.041  0.00  0.00     0.039 A 
ATOM      3  C2  UNL d   1      -2.542   0.155   3.187  0.00  0.00    -0.080 A 
ATOM      4  C3  UNL d   1      -3.897   0.451   3.062  0.00  0.00     0.150 A 
ATOM      5  C4  UNL d   1      -4.466   0.668   1.812  0.00  0.00    -0.007 A 
ATOM      6  C5  UNL d   1      -3.673   0.592   0.668  0.00  0.00     0.039 A 
ENDROOT
BRANCH   4   7
ATOM      7  O   UNL d   1      -4.710   0.541   4.153  0.00  0.00    -0.526 OA
ATOM      8  H5  UNL d   1      -4.173   0.396   4.950  0.00  0.00     0.418 HD
ENDBRANCH   4   7
TORSDOF 1
ENDMDL
