MODEL 1
REMARK minimizedAffinity -1.47329783
REMARK minimizedRMSD -1
REMARK  1 active torsions:
REMARK  status: ('A' for Active; 'I' for Inactive)
REMARK    1  A    between atoms: C3_4  and  O_7 
ROOT
ATOM      1  C   UNL d   1      -5.788   2.025   4.271  0.00  0.00    -0.033 A 
ATOM      2  C1  UNL d   1      -5.983   2.436   2.951  0.00  0.00     0.039 A 
ATOM      3  C2  UNL d   1      -5.092   2.035   1.954  0.00  0.00    -0.080 A 
ATOM      4  C3  UNL d   1      -4.011   1.224   2.290  0.00  0.00     0.150 A 
ATOM      5  C4  UNL d   1      -3.813   0.808   3.602  0.00  0.00    -0.007 A 
ATOM      6  C5  UNL d   1      -4.704   1.210   4.596  0.00  0.00     0.039 A 
ENDROOT
BRANCH   4   7
ATOM      7  O   UNL d   1      -3.112   0.811   1.352  0.00  0.00    -0.526 OA
ATOM      8  H5  UNL d   1      -3.359   1.199   0.496  0.00  0.00     0.418 HD
ENDBRANCH   4   7
TORSDOF 1
ENDMDL
