MODEL 1
REMARK minimizedAffinity 2.05706334
REMARK minimizedRMSD -1
REMARK  1 active torsions:
REMARK  status: ('A' for Active; 'I' for Inactive)
REMARK    1  A    between atoms: C3_4  and  O_7 
ROOT
ATOM      1  C   UNL d   1      -4.473   0.570   1.316  0.00  0.00    -0.033 A 
ATOM      2  C1  UNL d   1      -4.605   0.802   2.687  0.00  0.00     0.039 A 
ATOM      3  C2  UNL d   1      -5.096  -0.204   3.522  0.00  0.00    -0.080 A 
ATOM      4  C3  UNL d   1      -5.449  -1.434   2.976  0.00  0.00     0.150 A 
ATOM      5  C4  UNL d   1      -5.316  -1.673   1.612  0.00  0.00    -0.007 A 
ATOM      6  C5  UNL d   1      -4.826  -0.668   0.779  0.00  0.00     0.039 A 
ENDROOT
BRANCH   4   7
ATOM      7  O   UNL d   1      -5.937  -2.445   3.750  0.00  0.00    -0.526 OA
ATOM      8  H5  UNL d   1      -6.001  -2.126   4.666  0.00  0.00     0.418 HD
ENDBRANCH   4   7
TORSDOF 1
ENDMDL
