MODEL 1
REMARK minimizedAffinity 6.77842474
REMARK minimizedRMSD -1
REMARK  1 active torsions:
REMARK  status: ('A' for Active; 'I' for Inactive)
REMARK    1  A    between atoms: C3_4  and  O_7 
ROOT
ATOM      1  C   UNL d   1      -4.278  -2.639   0.070  0.00  0.00    -0.033 A 
ATOM      2  C1  UNL d   1      -4.803  -1.362   0.277  0.00  0.00     0.039 A 
ATOM      3  C2  UNL d   1      -4.003  -0.355   0.819  0.00  0.00    -0.080 A 
ATOM      4  C3  UNL d   1      -2.680  -0.637   1.148  0.00  0.00     0.150 A 
ATOM      5  C4  UNL d   1      -2.148  -1.906   0.941  0.00  0.00    -0.007 A 
ATOM      6  C5  UNL d   1      -2.950  -2.910   0.401  0.00  0.00     0.039 A 
ENDROOT
BRANCH   4   7
ATOM      7  O   UNL d   1      -1.861   0.312   1.684  0.00  0.00    -0.526 OA
ATOM      8  H5  UNL d   1      -2.372   1.131   1.798  0.00  0.00     0.418 HD
ENDBRANCH   4   7
TORSDOF 1
ENDMDL
