MODEL 1
REMARK minimizedAffinity 3.19970918
REMARK minimizedRMSD -1
REMARK  1 active torsions:
REMARK  status: ('A' for Active; 'I' for Inactive)
REMARK    1  A    between atoms: C3_4  and  O_7 
ROOT
ATOM      1  C   UNL d   1      -2.124   1.277   2.180  0.00  0.00    -0.033 A 
ATOM      2  C1  UNL d   1      -1.522   0.054   1.876  0.00  0.00     0.039 A 
ATOM      3  C2  UNL d   1      -2.271  -0.967   1.289  0.00  0.00    -0.080 A 
ATOM      4  C3  UNL d   1      -3.618  -0.753   1.009  0.00  0.00     0.150 A 
ATOM      5  C4  UNL d   1      -4.222   0.464   1.306  0.00  0.00    -0.007 A 
ATOM      6  C5  UNL d   1      -3.473   1.483   1.894  0.00  0.00     0.039 A 
ENDROOT
BRANCH   4   7
ATOM      7  O   UNL d   1      -4.390  -1.722   0.441  0.00  0.00    -0.526 OA
ATOM      8  H5  UNL d   1      -3.846  -2.517   0.319  0.00  0.00     0.418 HD
ENDBRANCH   4   7
TORSDOF 1
ENDMDL
