MODEL 1
REMARK minimizedAffinity 6.89077473
REMARK minimizedRMSD -1
REMARK  1 active torsions:
REMARK  status: ('A' for Active; 'I' for Inactive)
REMARK    1  A    between atoms: C3_4  and  O_7 
ROOT
ATOM      1  C   UNL d   1       1.101   1.522   3.729  0.00  0.00    -0.033 A 
ATOM      2  C1  UNL d   1       0.250   2.623   3.614  0.00  0.00     0.039 A 
ATOM      3  C2  UNL d   1      -1.002   2.481   3.013  0.00  0.00    -0.080 A 
ATOM      4  C3  UNL d   1      -1.391   1.233   2.532  0.00  0.00     0.150 A 
ATOM      5  C4  UNL d   1      -0.550   0.131   2.647  0.00  0.00    -0.007 A 
ATOM      6  C5  UNL d   1       0.700   0.276   3.246  0.00  0.00     0.039 A 
ENDROOT
BRANCH   4   7
ATOM      7  O   UNL d   1      -2.602   1.046   1.934  0.00  0.00    -0.526 OA
ATOM      8  H5  UNL d   1      -3.063   1.901   1.899  0.00  0.00     0.418 HD
ENDBRANCH   4   7
TORSDOF 1
ENDMDL
