MODEL 1
REMARK minimizedAffinity 2.58672762
REMARK minimizedRMSD -1
REMARK  1 active torsions:
REMARK  status: ('A' for Active; 'I' for Inactive)
REMARK    1  A    between atoms: C3_4  and  O_7 
ROOT
ATOM      1  C   UNL d   1       0.549   1.741   3.616  0.00  0.00    -0.033 A 
ATOM      2  C1  UNL d   1       0.410   0.356   3.510  0.00  0.00     0.039 A 
ATOM      3  C2  UNL d   1      -0.665  -0.187   2.803  0.00  0.00    -0.080 A 
ATOM      4  C3  UNL d   1      -1.591   0.664   2.207  0.00  0.00     0.150 A 
ATOM      5  C4  UNL d   1      -1.456   2.045   2.305  0.00  0.00    -0.007 A 
ATOM      6  C5  UNL d   1      -0.383   2.586   3.012  0.00  0.00     0.039 A 
ENDROOT
BRANCH   4   7
ATOM      7  O   UNL d   1      -2.659   0.180   1.510  0.00  0.00    -0.526 OA
ATOM      8  H5  UNL d   1      -2.638  -0.790   1.551  0.00  0.00     0.418 HD
ENDBRANCH   4   7
TORSDOF 1
ENDMDL
