MODEL 1
REMARK minimizedAffinity 1.82213187
REMARK minimizedRMSD -1
REMARK  1 active torsions:
REMARK  status: ('A' for Active; 'I' for Inactive)
REMARK    1  A    between atoms: C3_4  and  O_7 
ROOT
ATOM      1  C   UNL d   1      -2.749   1.436   2.402  0.00  0.00    -0.033 A 
ATOM      2  C1  UNL d   1      -1.843   0.432   2.054  0.00  0.00     0.039 A 
ATOM      3  C2  UNL d   1      -2.271  -0.673   1.317  0.00  0.00    -0.080 A 
ATOM      4  C3  UNL d   1      -3.606  -0.763   0.932  0.00  0.00     0.150 A 
ATOM      5  C4  UNL d   1      -4.514   0.235   1.271  0.00  0.00    -0.007 A 
ATOM      6  C5  UNL d   1      -4.084   1.338   2.009  0.00  0.00     0.039 A 
ENDROOT
BRANCH   4   7
ATOM      7  O   UNL d   1      -4.072  -1.825   0.216  0.00  0.00    -0.526 OA
ATOM      8  H5  UNL d   1      -3.339  -2.449   0.079  0.00  0.00     0.418 HD
ENDBRANCH   4   7
TORSDOF 1
ENDMDL
