MODEL 1
REMARK minimizedAffinity 2.49788141
REMARK minimizedRMSD -1
REMARK  2 active torsions:
REMARK  status: ('A' for Active; 'I' for Inactive)
REMARK    1  A    between atoms: C1_2  and  C2_3 
REMARK    2  A    between atoms: C2_3  and  C3_4 
ROOT
ATOM      1  C3  UNL d   1       3.452   5.268  -5.874  0.00  0.00    -0.075 A 
ATOM      2  C4  UNL d   1       3.511   3.871  -5.985  0.00  0.00     0.002 A 
ATOM      3  C5  UNL d   1       4.741   3.213  -5.999  0.00  0.00     0.002 A 
ATOM      4  C6  UNL d   1       5.925   3.941  -5.914  0.00  0.00    -0.004 A 
ATOM      5  C7  UNL d   1       5.879   5.331  -5.821  0.00  0.00     0.002 A 
ATOM      6  C8  UNL d   1       4.650   5.992  -5.801  0.00  0.00     0.002 A 
ENDROOT
BRANCH   1   7
ATOM      7  C2  UNL d   1       2.124   5.984  -5.827  0.00  0.00     0.056 C 
BRANCH   7   8
ATOM      8  C1  UNL d   1       0.911   5.048  -5.796  0.00  0.00     0.007 C 
ATOM      9  C   UNL d   1      -0.413   5.773  -5.999  0.00  0.00     0.009 C 
ENDBRANCH   7   8
ENDBRANCH   1   7
TORSDOF 2
ENDMDL
