MODEL 1
REMARK minimizedAffinity 3.08339143
REMARK minimizedRMSD -1
REMARK  2 active torsions:
REMARK  status: ('A' for Active; 'I' for Inactive)
REMARK    1  A    between atoms: C1_2  and  C2_3 
REMARK    2  A    between atoms: C2_3  and  C3_4 
ROOT
ATOM      1  C3  UNL d   1       3.064   4.236  -5.217  0.00  0.00    -0.075 A 
ATOM      2  C4  UNL d   1       2.827   3.811  -3.902  0.00  0.00     0.002 A 
ATOM      3  C5  UNL d   1       1.530   3.786  -3.388  0.00  0.00     0.002 A 
ATOM      4  C6  UNL d   1       0.457   4.194  -4.177  0.00  0.00    -0.004 A 
ATOM      5  C7  UNL d   1       0.682   4.634  -5.479  0.00  0.00     0.002 A 
ATOM      6  C8  UNL d   1       1.978   4.656  -5.998  0.00  0.00     0.002 A 
ENDROOT
BRANCH   1   7
ATOM      7  C2  UNL d   1       4.461   4.237  -5.789  0.00  0.00     0.056 C 
BRANCH   7   8
ATOM      8  C1  UNL d   1       5.051   2.839  -5.999  0.00  0.00     0.007 C 
ATOM      9  C   UNL d   1       4.080   1.719  -5.648  0.00  0.00     0.009 C 
ENDBRANCH   7   8
ENDBRANCH   1   7
TORSDOF 2
ENDMDL
