MODEL 1
REMARK minimizedAffinity -0.26969853
REMARK minimizedRMSD -1
REMARK  2 active torsions:
REMARK  status: ('A' for Active; 'I' for Inactive)
REMARK    1  A    between atoms: C1_2  and  C2_3 
REMARK    2  A    between atoms: C2_3  and  C3_4 
ROOT
ATOM      1  C3  UNL d   1       3.620   3.379  -4.825  0.00  0.00    -0.075 A 
ATOM      2  C4  UNL d   1       3.027   3.863  -6.000  0.00  0.00     0.002 A 
ATOM      3  C5  UNL d   1       1.730   4.378  -5.979  0.00  0.00     0.002 A 
ATOM      4  C6  UNL d   1       1.008   4.406  -4.788  0.00  0.00    -0.004 A 
ATOM      5  C7  UNL d   1       1.580   3.912  -3.618  0.00  0.00     0.002 A 
ATOM      6  C8  UNL d   1       2.879   3.401  -3.635  0.00  0.00     0.002 A 
ENDROOT
BRANCH   1   7
ATOM      7  C2  UNL d   1       5.033   2.848  -4.835  0.00  0.00     0.056 C 
BRANCH   7   8
ATOM      8  C1  UNL d   1       5.989   3.637  -5.735  0.00  0.00     0.007 C 
ATOM      9  C   UNL d   1       5.853   5.146  -5.579  0.00  0.00     0.009 C 
ENDBRANCH   7   8
ENDBRANCH   1   7
TORSDOF 2
ENDMDL
