MODEL 1
REMARK minimizedAffinity -3.8552568
REMARK minimizedRMSD -1
REMARK  2 active torsions:
REMARK  status: ('A' for Active; 'I' for Inactive)
REMARK    1  A    between atoms: C1_2  and  C2_3 
REMARK    2  A    between atoms: C2_3  and  C3_4 
ROOT
ATOM      1  C3  UNL d   1       2.903   3.859  -5.179  0.00  0.00    -0.075 A 
ATOM      2  C4  UNL d   1       2.899   5.221  -4.848  0.00  0.00     0.002 A 
ATOM      3  C5  UNL d   1       1.761   5.999  -5.063  0.00  0.00     0.002 A 
ATOM      4  C6  UNL d   1       0.618   5.428  -5.619  0.00  0.00    -0.004 A 
ATOM      5  C7  UNL d   1       0.617   4.079  -5.967  0.00  0.00     0.002 A 
ATOM      6  C8  UNL d   1       1.753   3.298  -5.750  0.00  0.00     0.002 A 
ENDROOT
BRANCH   1   7
ATOM      7  C2  UNL d   1       4.122   3.005  -4.922  0.00  0.00     0.056 C 
BRANCH   7   8
ATOM      8  C1  UNL d   1       5.260   3.224  -5.925  0.00  0.00     0.007 C 
ATOM      9  C   UNL d   1       5.723   4.673  -6.000  0.00  0.00     0.009 C 
ENDBRANCH   7   8
ENDBRANCH   1   7
TORSDOF 2
ENDMDL
