MODEL 1
REMARK minimizedAffinity 2.4520812
REMARK minimizedRMSD -1
REMARK  2 active torsions:
REMARK  status: ('A' for Active; 'I' for Inactive)
REMARK    1  A    between atoms: C1_2  and  C2_3 
REMARK    2  A    between atoms: C2_3  and  C3_4 
ROOT
ATOM      1  C3  UNL d   1       2.692   3.754  -5.628  0.00  0.00    -0.075 A 
ATOM      2  C4  UNL d   1       3.673   4.685  -6.000  0.00  0.00     0.002 A 
ATOM      3  C5  UNL d   1       5.022   4.331  -6.000  0.00  0.00     0.002 A 
ATOM      4  C6  UNL d   1       5.409   3.048  -5.620  0.00  0.00    -0.004 A 
ATOM      5  C7  UNL d   1       4.444   2.119  -5.233  0.00  0.00     0.002 A 
ATOM      6  C8  UNL d   1       3.093   2.470  -5.236  0.00  0.00     0.002 A 
ENDROOT
BRANCH   1   7
ATOM      7  C2  UNL d   1       1.228   4.122  -5.654  0.00  0.00     0.056 C 
BRANCH   7   8
ATOM      8  C1  UNL d   1       0.756   4.891  -4.416  0.00  0.00     0.007 C 
ATOM      9  C   UNL d   1       0.760   4.047  -3.148  0.00  0.00     0.009 C 
ENDBRANCH   7   8
ENDBRANCH   1   7
TORSDOF 2
ENDMDL
