MODEL 1
REMARK minimizedAffinity -1.04989409
REMARK minimizedRMSD -1
REMARK  2 active torsions:
REMARK  status: ('A' for Active; 'I' for Inactive)
REMARK    1  A    between atoms: C1_2  and  C2_3 
REMARK    2  A    between atoms: C2_3  and  C3_4 
ROOT
ATOM      1  C3  UNL d   1       3.196   3.407  -5.852  0.00  0.00    -0.075 A 
ATOM      2  C4  UNL d   1       3.973   2.267  -5.602  0.00  0.00     0.002 A 
ATOM      3  C5  UNL d   1       5.359   2.368  -5.473  0.00  0.00     0.002 A 
ATOM      4  C6  UNL d   1       5.985   3.606  -5.603  0.00  0.00    -0.004 A 
ATOM      5  C7  UNL d   1       5.225   4.743  -5.868  0.00  0.00     0.002 A 
ATOM      6  C8  UNL d   1       3.838   4.645  -5.992  0.00  0.00     0.002 A 
ENDROOT
BRANCH   1   7
ATOM      7  C2  UNL d   1       1.693   3.309  -5.963  0.00  0.00     0.056 C 
BRANCH   7   8
ATOM      8  C1  UNL d   1       0.941   4.447  -5.265  0.00  0.00     0.007 C 
ATOM      9  C   UNL d   1       1.050   5.777  -5.998  0.00  0.00     0.009 C 
ENDBRANCH   7   8
ENDBRANCH   1   7
TORSDOF 2
ENDMDL
