MODEL 1
REMARK minimizedAffinity 1.0403471
REMARK minimizedRMSD -1
REMARK  2 active torsions:
REMARK  status: ('A' for Active; 'I' for Inactive)
REMARK    1  A    between atoms: C1_2  and  C2_3 
REMARK    2  A    between atoms: C2_3  and  C3_4 
ROOT
ATOM      1  C3  UNL d   1       2.781   3.787  -5.301  0.00  0.00    -0.075 A 
ATOM      2  C4  UNL d   1       3.827   4.645  -5.670  0.00  0.00     0.002 A 
ATOM      3  C5  UNL d   1       5.081   4.132  -6.000  0.00  0.00     0.002 A 
ATOM      4  C6  UNL d   1       5.309   2.758  -5.954  0.00  0.00    -0.004 A 
ATOM      5  C7  UNL d   1       4.282   1.898  -5.572  0.00  0.00     0.002 A 
ATOM      6  C8  UNL d   1       3.024   2.409  -5.246  0.00  0.00     0.002 A 
ENDROOT
BRANCH   1   7
ATOM      7  C2  UNL d   1       1.412   4.335  -4.972  0.00  0.00     0.056 C 
BRANCH   7   8
ATOM      8  C1  UNL d   1       0.330   3.962  -5.991  0.00  0.00     0.007 C 
ATOM      9  C   UNL d   1      -0.846   4.930  -5.999  0.00  0.00     0.009 C 
ENDBRANCH   7   8
ENDBRANCH   1   7
TORSDOF 2
ENDMDL
