MODEL 1
REMARK minimizedAffinity -0.539894462
REMARK minimizedRMSD -1
REMARK  2 active torsions:
REMARK  status: ('A' for Active; 'I' for Inactive)
REMARK    1  A    between atoms: C1_2  and  C2_3 
REMARK    2  A    between atoms: C2_3  and  C3_4 
ROOT
ATOM      1  C3  UNL d   1       3.800   3.889  -5.576  0.00  0.00    -0.075 A 
ATOM      2  C4  UNL d   1       5.143   3.977  -5.968  0.00  0.00     0.002 A 
ATOM      3  C5  UNL d   1       5.994   2.879  -5.834  0.00  0.00     0.002 A 
ATOM      4  C6  UNL d   1       5.516   1.686  -5.298  0.00  0.00    -0.004 A 
ATOM      5  C7  UNL d   1       4.187   1.592  -4.890  0.00  0.00     0.002 A 
ATOM      6  C8  UNL d   1       3.333   2.687  -5.027  0.00  0.00     0.002 A 
ENDROOT
BRANCH   1   7
ATOM      7  C2  UNL d   1       2.867   5.064  -5.747  0.00  0.00     0.056 C 
BRANCH   7   8
ATOM      8  C1  UNL d   1       1.448   4.815  -5.223  0.00  0.00     0.007 C 
ATOM      9  C   UNL d   1       0.710   3.722  -5.984  0.00  0.00     0.009 C 
ENDBRANCH   7   8
ENDBRANCH   1   7
TORSDOF 2
ENDMDL
