MODEL 1
REMARK minimizedAffinity 1.13971996
REMARK minimizedRMSD -1
REMARK  2 active torsions:
REMARK  status: ('A' for Active; 'I' for Inactive)
REMARK    1  A    between atoms: C1_2  and  C2_3 
REMARK    2  A    between atoms: C2_3  and  C3_4 
ROOT
ATOM      1  C3  UNL d   1       3.490   3.848  -5.699  0.00  0.00    -0.075 A 
ATOM      2  C4  UNL d   1       3.588   5.239  -5.849  0.00  0.00     0.002 A 
ATOM      3  C5  UNL d   1       4.833   5.850  -6.000  0.00  0.00     0.002 A 
ATOM      4  C6  UNL d   1       5.995   5.081  -5.992  0.00  0.00    -0.004 A 
ATOM      5  C7  UNL d   1       5.911   3.700  -5.826  0.00  0.00     0.002 A 
ATOM      6  C8  UNL d   1       4.666   3.086  -5.680  0.00  0.00     0.002 A 
ENDROOT
BRANCH   1   7
ATOM      7  C2  UNL d   1       2.144   3.178  -5.565  0.00  0.00     0.056 C 
BRANCH   7   8
ATOM      8  C1  UNL d   1       0.965   4.055  -5.999  0.00  0.00     0.007 C 
ATOM      9  C   UNL d   1       1.269   5.545  -5.934  0.00  0.00     0.009 C 
ENDBRANCH   7   8
ENDBRANCH   1   7
TORSDOF 2
ENDMDL
