MODEL 1
REMARK minimizedAffinity -0.548329055
REMARK minimizedRMSD -1
REMARK  2 active torsions:
REMARK  status: ('A' for Active; 'I' for Inactive)
REMARK    1  A    between atoms: C1_2  and  C2_3 
REMARK    2  A    between atoms: C2_3  and  C3_4 
ROOT
ATOM      1  C3  UNL d   1       3.128   3.561  -5.988  0.00  0.00    -0.075 A 
ATOM      2  C4  UNL d   1       3.812   2.336  -5.995  0.00  0.00     0.002 A 
ATOM      3  C5  UNL d   1       5.207   2.305  -5.990  0.00  0.00     0.002 A 
ATOM      4  C6  UNL d   1       5.934   3.493  -5.987  0.00  0.00    -0.004 A 
ATOM      5  C7  UNL d   1       5.264   4.715  -5.997  0.00  0.00     0.002 A 
ATOM      6  C8  UNL d   1       3.868   4.750  -5.998  0.00  0.00     0.002 A 
ENDROOT
BRANCH   1   7
ATOM      7  C2  UNL d   1       1.618   3.602  -5.964  0.00  0.00     0.056 C 
BRANCH   7   8
ATOM      8  C1  UNL d   1       1.035   5.007  -5.783  0.00  0.00     0.007 C 
ATOM      9  C   UNL d   1       1.232   5.562  -4.378  0.00  0.00     0.009 C 
ENDBRANCH   7   8
ENDBRANCH   1   7
TORSDOF 2
ENDMDL
