MODEL 1
REMARK minimizedAffinity 1.49103677
REMARK minimizedRMSD -1
REMARK  2 active torsions:
REMARK  status: ('A' for Active; 'I' for Inactive)
REMARK    1  A    between atoms: C1_2  and  C2_3 
REMARK    2  A    between atoms: C2_3  and  C3_4 
ROOT
ATOM      1  C3  UNL d   1       3.039   3.886  -5.444  0.00  0.00    -0.075 A 
ATOM      2  C4  UNL d   1       3.245   4.765  -4.371  0.00  0.00     0.002 A 
ATOM      3  C5  UNL d   1       2.184   5.508  -3.851  0.00  0.00     0.002 A 
ATOM      4  C6  UNL d   1       0.911   5.390  -4.403  0.00  0.00    -0.004 A 
ATOM      5  C7  UNL d   1       0.699   4.532  -5.480  0.00  0.00     0.002 A 
ATOM      6  C8  UNL d   1       1.757   3.784  -5.999  0.00  0.00     0.002 A 
ENDROOT
BRANCH   1   7
ATOM      7  C2  UNL d   1       4.176   3.057  -5.992  0.00  0.00     0.056 C 
BRANCH   7   8
ATOM      8  C1  UNL d   1       4.404   1.739  -5.244  0.00  0.00     0.007 C 
ATOM      9  C   UNL d   1       3.197   0.810  -5.284  0.00  0.00     0.009 C 
ENDBRANCH   7   8
ENDBRANCH   1   7
TORSDOF 2
ENDMDL
