MODEL 1
REMARK minimizedAffinity -1.53286636
REMARK minimizedRMSD -1
REMARK  2 active torsions:
REMARK  status: ('A' for Active; 'I' for Inactive)
REMARK    1  A    between atoms: C1_2  and  C2_3 
REMARK    2  A    between atoms: C2_3  and  C3_4 
ROOT
ATOM      1  C3  UNL d   1       3.117   4.740  -5.926  0.00  0.00    -0.075 A 
ATOM      2  C4  UNL d   1       2.507   3.485  -5.780  0.00  0.00     0.002 A 
ATOM      3  C5  UNL d   1       3.281   2.328  -5.686  0.00  0.00     0.002 A 
ATOM      4  C6  UNL d   1       4.671   2.409  -5.746  0.00  0.00    -0.004 A 
ATOM      5  C7  UNL d   1       5.286   3.649  -5.907  0.00  0.00     0.002 A 
ATOM      6  C8  UNL d   1       4.514   4.808  -5.997  0.00  0.00     0.002 A 
ENDROOT
BRANCH   1   7
ATOM      7  C2  UNL d   1       2.286   5.998  -5.999  0.00  0.00     0.056 C 
BRANCH   7   8
ATOM      8  C1  UNL d   1       0.957   5.914  -5.240  0.00  0.00     0.007 C 
ATOM      9  C   UNL d   1      -0.121   5.151  -6.000  0.00  0.00     0.009 C 
ENDBRANCH   7   8
ENDBRANCH   1   7
TORSDOF 2
ENDMDL
