MODEL 1
REMARK minimizedAffinity 0.813353598
REMARK minimizedRMSD -1
REMARK  2 active torsions:
REMARK  status: ('A' for Active; 'I' for Inactive)
REMARK    1  A    between atoms: C1_2  and  C2_3 
REMARK    2  A    between atoms: C2_3  and  C3_4 
ROOT
ATOM      1  C3  UNL d   1       3.567   3.633  -5.997  0.00  0.00    -0.075 A 
ATOM      2  C4  UNL d   1       4.821   3.004  -5.998  0.00  0.00     0.002 A 
ATOM      3  C5  UNL d   1       5.993   3.761  -5.978  0.00  0.00     0.002 A 
ATOM      4  C6  UNL d   1       5.927   5.152  -5.968  0.00  0.00    -0.004 A 
ATOM      5  C7  UNL d   1       4.688   5.788  -5.985  0.00  0.00     0.002 A 
ATOM      6  C8  UNL d   1       3.513   5.033  -6.000  0.00  0.00     0.002 A 
ENDROOT
BRANCH   1   7
ATOM      7  C2  UNL d   1       2.295   2.820  -5.989  0.00  0.00     0.056 C 
BRANCH   7   8
ATOM      8  C1  UNL d   1       1.038   3.632  -5.662  0.00  0.00     0.007 C 
ATOM      9  C   UNL d   1       1.042   4.202  -4.250  0.00  0.00     0.009 C 
ENDBRANCH   7   8
ENDBRANCH   1   7
TORSDOF 2
ENDMDL
