MODEL 1
REMARK minimizedAffinity 1.2044127
REMARK minimizedRMSD -1
REMARK  2 active torsions:
REMARK  status: ('A' for Active; 'I' for Inactive)
REMARK    1  A    between atoms: C1_2  and  C2_3 
REMARK    2  A    between atoms: C2_3  and  C3_4 
ROOT
ATOM      1  C3  UNL d   1       4.080   2.978  -5.253  0.00  0.00    -0.075 A 
ATOM      2  C4  UNL d   1       2.868   3.684  -5.245  0.00  0.00     0.002 A 
ATOM      3  C5  UNL d   1       2.828   5.027  -5.621  0.00  0.00     0.002 A 
ATOM      4  C6  UNL d   1       3.997   5.682  -6.000  0.00  0.00    -0.004 A 
ATOM      5  C7  UNL d   1       5.209   4.995  -5.995  0.00  0.00     0.002 A 
ATOM      6  C8  UNL d   1       5.252   3.651  -5.624  0.00  0.00     0.002 A 
ENDROOT
BRANCH   1   7
ATOM      7  C2  UNL d   1       4.125   1.517  -4.876  0.00  0.00     0.056 C 
BRANCH   7   8
ATOM      8  C1  UNL d   1       4.213   1.265  -3.367  0.00  0.00     0.007 C 
ATOM      9  C   UNL d   1       5.146   0.117  -3.003  0.00  0.00     0.009 C 
ENDBRANCH   7   8
ENDBRANCH   1   7
TORSDOF 2
ENDMDL
