MODEL 1
REMARK minimizedAffinity 7.23536825
REMARK minimizedRMSD -1
REMARK  1 active torsions:
REMARK  status: ('A' for Active; 'I' for Inactive)
REMARK    1  A    between atoms: C3_4  and  O_7 
ROOT
ATOM      1  C   UNL d   1       5.998   3.735  -0.080  0.00  0.00    -0.033 A 
ATOM      2  C1  UNL d   1       5.983   4.615  -1.163  0.00  0.00     0.039 A 
ATOM      3  C2  UNL d   1       5.150   4.366  -2.256  0.00  0.00    -0.080 A 
ATOM      4  C3  UNL d   1       4.338   3.236  -2.252  0.00  0.00     0.150 A 
ATOM      5  C4  UNL d   1       4.345   2.356  -1.174  0.00  0.00    -0.007 A 
ATOM      6  C5  UNL d   1       5.178   2.606  -0.085  0.00  0.00     0.039 A 
ENDROOT
BRANCH   4   7
ATOM      7  O   UNL d   1       3.512   2.948  -3.298  0.00  0.00    -0.526 OA
ATOM      8  H5  UNL d   1       3.634   3.628  -3.982  0.00  0.00     0.418 HD
ENDBRANCH   4   7
TORSDOF 1
ENDMDL
