MODEL 1
REMARK minimizedAffinity 8.092659
REMARK minimizedRMSD -1
REMARK  1 active torsions:
REMARK  status: ('A' for Active; 'I' for Inactive)
REMARK    1  A    between atoms: C3_4  and  O_7 
ROOT
ATOM      1  C   UNL d   1      -5.194  -3.962   1.067  0.00  0.00    -0.033 A 
ATOM      2  C1  UNL d   1      -5.726  -5.252   1.019  0.00  0.00     0.039 A 
ATOM      3  C2  UNL d   1      -6.000  -5.941   2.202  0.00  0.00    -0.080 A 
ATOM      4  C3  UNL d   1      -5.739  -5.329   3.425  0.00  0.00     0.150 A 
ATOM      5  C4  UNL d   1      -5.213  -4.043   3.480  0.00  0.00    -0.007 A 
ATOM      6  C5  UNL d   1      -4.939  -3.357   2.298  0.00  0.00     0.039 A 
ENDROOT
BRANCH   4   7
ATOM      7  O   UNL d   1      -5.985  -5.964   4.606  0.00  0.00    -0.526 OA
ATOM      8  H5  UNL d   1      -6.320  -6.855   4.412  0.00  0.00     0.418 HD
ENDBRANCH   4   7
TORSDOF 1
ENDMDL
