MODEL 1
REMARK minimizedAffinity 11.4074841
REMARK minimizedRMSD -1
REMARK  1 active torsions:
REMARK  status: ('A' for Active; 'I' for Inactive)
REMARK    1  A    between atoms: C3_4  and  O_7 
ROOT
ATOM      1  C   UNL d   1       5.906   3.529  -0.149  0.00  0.00    -0.033 A 
ATOM      2  C1  UNL d   1       5.231   2.310  -0.059  0.00  0.00     0.039 A 
ATOM      3  C2  UNL d   1       4.316   1.942  -1.047  0.00  0.00    -0.080 A 
ATOM      4  C3  UNL d   1       4.086   2.799  -2.119  0.00  0.00     0.150 A 
ATOM      5  C4  UNL d   1       4.758   4.013  -2.218  0.00  0.00    -0.007 A 
ATOM      6  C5  UNL d   1       5.671   4.380  -1.230  0.00  0.00     0.039 A 
ENDROOT
BRANCH   4   7
ATOM      7  O   UNL d   1       3.199   2.485  -3.105  0.00  0.00    -0.526 OA
ATOM      8  H5  UNL d   1       2.789   1.630  -2.890  0.00  0.00     0.418 HD
ENDBRANCH   4   7
TORSDOF 1
ENDMDL
