MODEL 1
REMARK minimizedAffinity 3.44647717
REMARK minimizedRMSD -1
REMARK  1 active torsions:
REMARK  status: ('A' for Active; 'I' for Inactive)
REMARK    1  A    between atoms: C3_4  and  O_7 
ROOT
ATOM      1  C   UNL d   1      -5.241  -1.328   3.340  0.00  0.00    -0.033 A 
ATOM      2  C1  UNL d   1      -5.309  -1.532   4.720  0.00  0.00     0.039 A 
ATOM      3  C2  UNL d   1      -4.620  -0.684   5.588  0.00  0.00    -0.080 A 
ATOM      4  C3  UNL d   1      -3.867   0.364   5.065  0.00  0.00     0.150 A 
ATOM      5  C4  UNL d   1      -3.797   0.576   3.692  0.00  0.00    -0.007 A 
ATOM      6  C5  UNL d   1      -4.486  -0.273   2.826  0.00  0.00     0.039 A 
ENDROOT
BRANCH   4   7
ATOM      7  O   UNL d   1      -3.173   1.215   5.872  0.00  0.00    -0.526 OA
ATOM      8  H5  UNL d   1      -3.291   0.930   6.794  0.00  0.00     0.418 HD
ENDBRANCH   4   7
TORSDOF 1
ENDMDL
