MODEL 1
REMARK minimizedAffinity 4.35903835
REMARK minimizedRMSD -1
REMARK  1 active torsions:
REMARK  status: ('A' for Active; 'I' for Inactive)
REMARK    1  A    between atoms: C3_4  and  O_7 
ROOT
ATOM      1  C   UNL d   1      -5.031  -1.536   3.405  0.00  0.00    -0.033 A 
ATOM      2  C1  UNL d   1      -5.094  -0.830   4.608  0.00  0.00     0.039 A 
ATOM      3  C2  UNL d   1      -4.071   0.056   4.954  0.00  0.00    -0.080 A 
ATOM      4  C3  UNL d   1      -2.994   0.227   4.089  0.00  0.00     0.150 A 
ATOM      5  C4  UNL d   1      -2.927  -0.470   2.888  0.00  0.00    -0.007 A 
ATOM      6  C5  UNL d   1      -3.948  -1.355   2.544  0.00  0.00     0.039 A 
ENDROOT
BRANCH   4   7
ATOM      7  O   UNL d   1      -1.970   1.076   4.386  0.00  0.00    -0.526 OA
ATOM      8  H5  UNL d   1      -2.137   1.467   5.260  0.00  0.00     0.418 HD
ENDBRANCH   4   7
TORSDOF 1
ENDMDL
