MODEL 1
REMARK minimizedAffinity 4.67384243
REMARK minimizedRMSD -1
REMARK  1 active torsions:
REMARK  status: ('A' for Active; 'I' for Inactive)
REMARK    1  A    between atoms: C3_4  and  O_7 
ROOT
ATOM      1  C   UNL d   1       4.930  -6.000   0.237  0.00  0.00    -0.033 A 
ATOM      2  C1  UNL d   1       3.652  -5.587  -0.142  0.00  0.00     0.039 A 
ATOM      3  C2  UNL d   1       3.439  -4.277  -0.576  0.00  0.00    -0.080 A 
ATOM      4  C3  UNL d   1       4.512  -3.392  -0.627  0.00  0.00     0.150 A 
ATOM      5  C4  UNL d   1       5.789  -3.797  -0.254  0.00  0.00    -0.007 A 
ATOM      6  C5  UNL d   1       5.999  -5.105   0.180  0.00  0.00     0.039 A 
ENDROOT
BRANCH   4   7
ATOM      7  O   UNL d   1       4.353  -2.102  -1.040  0.00  0.00    -0.526 OA
ATOM      8  H5  UNL d   1       3.413  -1.957  -1.238  0.00  0.00     0.418 HD
ENDBRANCH   4   7
TORSDOF 1
ENDMDL
