MODEL 1
REMARK minimizedAffinity 1.28772116
REMARK minimizedRMSD -1
REMARK  1 active torsions:
REMARK  status: ('A' for Active; 'I' for Inactive)
REMARK    1  A    between atoms: C3_4  and  O_7 
ROOT
ATOM      1  C   UNL d   1       4.802  -5.999  -0.020  0.00  0.00    -0.033 A 
ATOM      2  C1  UNL d   1       5.981  -5.251   0.002  0.00  0.00     0.039 A 
ATOM      3  C2  UNL d   1       5.999  -3.957  -0.522  0.00  0.00    -0.080 A 
ATOM      4  C3  UNL d   1       4.833  -3.423  -1.064  0.00  0.00     0.150 A 
ATOM      5  C4  UNL d   1       3.654  -4.161  -1.086  0.00  0.00    -0.007 A 
ATOM      6  C5  UNL d   1       3.638  -5.453  -0.563  0.00  0.00     0.039 A 
ENDROOT
BRANCH   4   7
ATOM      7  O   UNL d   1       4.803  -2.167  -1.592  0.00  0.00    -0.526 OA
ATOM      8  H5  UNL d   1       5.696  -1.787  -1.534  0.00  0.00     0.418 HD
ENDBRANCH   4   7
TORSDOF 1
ENDMDL
