MODEL 1
REMARK minimizedAffinity -2.54793668
REMARK minimizedRMSD -1
REMARK  1 active torsions:
REMARK  status: ('A' for Active; 'I' for Inactive)
REMARK    1  A    between atoms: C3_4  and  O_7 
ROOT
ATOM      1  C   UNL d   1       6.000  -4.775  -0.701  0.00  0.00    -0.033 A 
ATOM      2  C1  UNL d   1       5.169  -5.896  -0.745  0.00  0.00     0.039 A 
ATOM      3  C2  UNL d   1       4.184  -6.000  -1.729  0.00  0.00    -0.080 A 
ATOM      4  C3  UNL d   1       4.042  -4.978  -2.663  0.00  0.00     0.150 A 
ATOM      5  C4  UNL d   1       4.869  -3.860  -2.628  0.00  0.00    -0.007 A 
ATOM      6  C5  UNL d   1       5.851  -3.757  -1.644  0.00  0.00     0.039 A 
ENDROOT
BRANCH   4   7
ATOM      7  O   UNL d   1       3.092  -5.032  -3.639  0.00  0.00    -0.526 OA
ATOM      8  H5  UNL d   1       2.577  -5.848  -3.522  0.00  0.00     0.418 HD
ENDBRANCH   4   7
TORSDOF 1
ENDMDL
