MODEL 1
REMARK minimizedAffinity 5.49916649
REMARK minimizedRMSD -1
REMARK  1 active torsions:
REMARK  status: ('A' for Active; 'I' for Inactive)
REMARK    1  A    between atoms: C3_4  and  O_7 
ROOT
ATOM      1  C   UNL d   1      -5.913  -0.062  -3.512  0.00  0.00    -0.033 A 
ATOM      2  C1  UNL d   1      -5.823  -0.302  -4.884  0.00  0.00     0.039 A 
ATOM      3  C2  UNL d   1      -5.764  -1.613  -5.363  0.00  0.00    -0.080 A 
ATOM      4  C3  UNL d   1      -5.796  -2.672  -4.460  0.00  0.00     0.150 A 
ATOM      5  C4  UNL d   1      -5.889  -2.440  -3.091  0.00  0.00    -0.007 A 
ATOM      6  C5  UNL d   1      -5.947  -1.130  -2.615  0.00  0.00     0.039 A 
ENDROOT
BRANCH   4   7
ATOM      7  O   UNL d   1      -5.736  -3.968  -4.879  0.00  0.00    -0.526 OA
ATOM      8  H5  UNL d   1      -5.645  -3.974  -5.847  0.00  0.00     0.418 HD
ENDBRANCH   4   7
TORSDOF 1
ENDMDL
