MODEL 1
REMARK minimizedAffinity 3.61031103
REMARK minimizedRMSD -1
REMARK  1 active torsions:
REMARK  status: ('A' for Active; 'I' for Inactive)
REMARK    1  A    between atoms: C3_4  and  O_7 
ROOT
ATOM      1  C   UNL d   1      -3.923  -5.885   6.000  0.00  0.00    -0.033 A 
ATOM      2  C1  UNL d   1      -5.303  -5.672   6.000  0.00  0.00     0.039 A 
ATOM      3  C2  UNL d   1      -5.995  -5.567   4.792  0.00  0.00    -0.080 A 
ATOM      4  C3  UNL d   1      -5.297  -5.679   3.593  0.00  0.00     0.150 A 
ATOM      5  C4  UNL d   1      -3.923  -5.895   3.585  0.00  0.00    -0.007 A 
ATOM      6  C5  UNL d   1      -3.233  -5.998   4.792  0.00  0.00     0.039 A 
ENDROOT
BRANCH   4   7
ATOM      7  O   UNL d   1      -5.928  -5.578   2.389  0.00  0.00    -0.526 OA
ATOM      8  H5  UNL d   1      -6.870  -5.401   2.549  0.00  0.00     0.418 HD
ENDBRANCH   4   7
TORSDOF 1
ENDMDL
