MODEL 1
REMARK minimizedAffinity 15.4478588
REMARK minimizedRMSD -1
REMARK  1 active torsions:
REMARK  status: ('A' for Active; 'I' for Inactive)
REMARK    1  A    between atoms: C3_4  and  O_7 
ROOT
ATOM      1  C   UNL d   1      -0.684  -2.227   1.502  0.00  0.00    -0.033 A 
ATOM      2  C1  UNL d   1      -2.025  -1.844   1.425  0.00  0.00     0.039 A 
ATOM      3  C2  UNL d   1      -2.459  -0.684   2.070  0.00  0.00    -0.080 A 
ATOM      4  C3  UNL d   1      -1.545   0.083   2.787  0.00  0.00     0.150 A 
ATOM      5  C4  UNL d   1      -0.207  -0.291   2.864  0.00  0.00    -0.007 A 
ATOM      6  C5  UNL d   1       0.225  -1.449   2.220  0.00  0.00     0.039 A 
ENDROOT
BRANCH   4   7
ATOM      7  O   UNL d   1      -1.923   1.220   3.437  0.00  0.00    -0.526 OA
ATOM      8  H5  UNL d   1      -2.881   1.337   3.319  0.00  0.00     0.418 HD
ENDBRANCH   4   7
TORSDOF 1
ENDMDL
