MODEL 1
REMARK minimizedAffinity 14.0314932
REMARK minimizedRMSD -1
REMARK  1 active torsions:
REMARK  status: ('A' for Active; 'I' for Inactive)
REMARK    1  A    between atoms: C3_4  and  O_7 
ROOT
ATOM      1  C   UNL d   1       4.631  -5.999  -0.695  0.00  0.00    -0.033 A 
ATOM      2  C1  UNL d   1       5.739  -5.169  -0.515  0.00  0.00     0.039 A 
ATOM      3  C2  UNL d   1       5.607  -3.785  -0.651  0.00  0.00    -0.080 A 
ATOM      4  C3  UNL d   1       4.363  -3.245  -0.966  0.00  0.00     0.150 A 
ATOM      5  C4  UNL d   1       3.254  -4.066  -1.142  0.00  0.00    -0.007 A 
ATOM      6  C5  UNL d   1       3.388  -5.447  -1.006  0.00  0.00     0.039 A 
ENDROOT
BRANCH   4   7
ATOM      7  O   UNL d   1       4.186  -1.902  -1.113  0.00  0.00    -0.526 OA
ATOM      8  H5  UNL d   1       5.045  -1.463  -0.991  0.00  0.00     0.418 HD
ENDBRANCH   4   7
TORSDOF 1
ENDMDL
