MODEL 1
REMARK minimizedAffinity 12.501153
REMARK minimizedRMSD -1
REMARK  1 active torsions:
REMARK  status: ('A' for Active; 'I' for Inactive)
REMARK    1  A    between atoms: C3_4  and  O_7 
ROOT
ATOM      1  C   UNL d   1      -5.999   0.762  -0.015  0.00  0.00    -0.033 A 
ATOM      2  C1  UNL d   1      -5.984   0.680   1.379  0.00  0.00     0.039 A 
ATOM      3  C2  UNL d   1      -4.807   0.336   2.047  0.00  0.00    -0.080 A 
ATOM      4  C3  UNL d   1      -3.654   0.078   1.311  0.00  0.00     0.150 A 
ATOM      5  C4  UNL d   1      -3.662   0.161  -0.078  0.00  0.00    -0.007 A 
ATOM      6  C5  UNL d   1      -4.838   0.504  -0.743  0.00  0.00     0.039 A 
ENDROOT
BRANCH   4   7
ATOM      7  O   UNL d   1      -2.483  -0.266   1.918  0.00  0.00    -0.526 OA
ATOM      8  H5  UNL d   1      -2.636  -0.313   2.877  0.00  0.00     0.418 HD
ENDBRANCH   4   7
TORSDOF 1
ENDMDL
