MODEL 1
REMARK minimizedAffinity 5.96242189
REMARK minimizedRMSD -1
REMARK  1 active torsions:
REMARK  status: ('A' for Active; 'I' for Inactive)
REMARK    1  A    between atoms: C3_4  and  O_7 
ROOT
ATOM      1  C   UNL d   1      -0.868  -2.677   1.318  0.00  0.00    -0.033 A 
ATOM      2  C1  UNL d   1      -2.247  -2.465   1.370  0.00  0.00     0.039 A 
ATOM      3  C2  UNL d   1      -2.750  -1.203   1.692  0.00  0.00    -0.080 A 
ATOM      4  C3  UNL d   1      -1.864  -0.162   1.960  0.00  0.00     0.150 A 
ATOM      5  C4  UNL d   1      -0.489  -0.365   1.906  0.00  0.00    -0.007 A 
ATOM      6  C5  UNL d   1       0.011  -1.627   1.585  0.00  0.00     0.039 A 
ENDROOT
BRANCH   4   7
ATOM      7  O   UNL d   1      -2.307   1.085   2.284  0.00  0.00    -0.526 OA
ATOM      8  H5  UNL d   1      -3.279   1.069   2.311  0.00  0.00     0.418 HD
ENDBRANCH   4   7
TORSDOF 1
ENDMDL
