MODEL 1
REMARK minimizedAffinity -4.72928238
REMARK minimizedRMSD -1
REMARK  1 active torsions:
REMARK  status: ('A' for Active; 'I' for Inactive)
REMARK    1  A    between atoms: C3_4  and  O_7 
ROOT
ATOM      1  C   UNL d   1      -0.910  -1.786   0.752  0.00  0.00    -0.033 A 
ATOM      2  C1  UNL d   1       0.486  -1.831   0.758  0.00  0.00     0.039 A 
ATOM      3  C2  UNL d   1       1.223  -0.782   0.207  0.00  0.00    -0.080 A 
ATOM      4  C3  UNL d   1       0.554   0.307  -0.345  0.00  0.00     0.150 A 
ATOM      5  C4  UNL d   1      -0.836   0.361  -0.352  0.00  0.00    -0.007 A 
ATOM      6  C5  UNL d   1      -1.571  -0.689   0.198  0.00  0.00     0.039 A 
ENDROOT
BRANCH   4   7
ATOM      7  O   UNL d   1       1.230   1.353  -0.899  0.00  0.00    -0.526 OA
ATOM      8  H5  UNL d   1       2.182   1.165  -0.849  0.00  0.00     0.418 HD
ENDBRANCH   4   7
TORSDOF 1
ENDMDL
