MODEL 1
REMARK minimizedAffinity -1.81188095
REMARK minimizedRMSD -1
REMARK  1 active torsions:
REMARK  status: ('A' for Active; 'I' for Inactive)
REMARK    1  A    between atoms: C3_4  and  O_7 
ROOT
ATOM      1  C   UNL d   1       0.199  -2.077   1.180  0.00  0.00    -0.033 A 
ATOM      2  C1  UNL d   1       0.618  -1.025   0.364  0.00  0.00     0.039 A 
ATOM      3  C2  UNL d   1       0.004   0.225   0.463  0.00  0.00    -0.080 A 
ATOM      4  C3  UNL d   1      -1.025   0.410   1.382  0.00  0.00     0.150 A 
ATOM      5  C4  UNL d   1      -1.445  -0.632   2.202  0.00  0.00    -0.007 A 
ATOM      6  C5  UNL d   1      -0.831  -1.880   2.100  0.00  0.00     0.039 A 
ENDROOT
BRANCH   4   7
ATOM      7  O   UNL d   1      -1.657   1.611   1.512  0.00  0.00    -0.526 OA
ATOM      8  H5  UNL d   1      -1.282   2.228   0.862  0.00  0.00     0.418 HD
ENDBRANCH   4   7
TORSDOF 1
ENDMDL
