MODEL 1
REMARK minimizedAffinity -5.00039387
REMARK minimizedRMSD -1
REMARK  0 active torsions:
REMARK  status: ('A' for Active; 'I' for Inactive)
ROOT
ATOM      1  C1  BNZ d   1       0.058   0.190   0.199  0.00  0.00     0.000 A 
ATOM      2  C2  BNZ d   1      -0.769   1.134  -0.349  0.00  0.00     0.000 A 
ATOM      3  C3  BNZ d   1      -1.391   2.062   0.439  0.00  0.00     0.000 A 
ATOM      4  C4  BNZ d   1      -1.216   2.021   1.776  0.00  0.00     0.000 A 
ATOM      5  C5  BNZ d   1      -0.393   1.070   2.344  0.00  0.00     0.000 A 
ATOM      6  C6  BNZ d   1       0.262   0.161   1.544  0.00  0.00     0.000 A 
ENDROOT
TORSDOF 0
ENDMDL
