MODEL 1
REMARK minimizedAffinity -4.60018158
REMARK minimizedRMSD -1
REMARK  0 active torsions:
REMARK  status: ('A' for Active; 'I' for Inactive)
ROOT
ATOM      1  C1  BNZ d   1      -0.765   1.630  -0.864  0.00  0.00     0.000 A 
ATOM      2  C2  BNZ d   1      -1.103   2.811  -0.260  0.00  0.00     0.000 A 
ATOM      3  C3  BNZ d   1      -1.024   2.950   1.098  0.00  0.00     0.000 A 
ATOM      4  C4  BNZ d   1      -0.646   1.897   1.851  0.00  0.00     0.000 A 
ATOM      5  C5  BNZ d   1      -0.311   0.697   1.257  0.00  0.00     0.000 A 
ATOM      6  C6  BNZ d   1      -0.354   0.572  -0.113  0.00  0.00     0.000 A 
ENDROOT
TORSDOF 0
ENDMDL
