MODEL 1
REMARK minimizedAffinity -4.64464855
REMARK minimizedRMSD -1
REMARK  0 active torsions:
REMARK  status: ('A' for Active; 'I' for Inactive)
ROOT
ATOM      1  C1  BNZ d   1      -0.876   2.659   1.097  0.00  0.00     0.000 A 
ATOM      2  C2  BNZ d   1      -0.457   1.634   1.903  0.00  0.00     0.000 A 
ATOM      3  C3  BNZ d   1      -0.108   0.424   1.372  0.00  0.00     0.000 A 
ATOM      4  C4  BNZ d   1      -0.217   0.227   0.042  0.00  0.00     0.000 A 
ATOM      5  C5  BNZ d   1      -0.648   1.247  -0.783  0.00  0.00     0.000 A 
ATOM      6  C6  BNZ d   1      -0.960   2.476  -0.249  0.00  0.00     0.000 A 
ENDROOT
TORSDOF 0
ENDMDL
