MODEL 1
REMARK minimizedAffinity -5.14130163
REMARK minimizedRMSD -1
REMARK  0 active torsions:
REMARK  status: ('A' for Active; 'I' for Inactive)
ROOT
ATOM      1  C1  BNZ d   1      -0.116   1.352  -0.545  0.00  0.00     0.000 A 
ATOM      2  C2  BNZ d   1      -0.078   2.409  -1.414  0.00  0.00     0.000 A 
ATOM      3  C3  BNZ d   1      -0.549   3.638  -1.043  0.00  0.00     0.000 A 
ATOM      4  C4  BNZ d   1      -1.094   3.796   0.180  0.00  0.00     0.000 A 
ATOM      5  C5  BNZ d   1      -1.148   2.737   1.064  0.00  0.00     0.000 A 
ATOM      6  C6  BNZ d   1      -0.637   1.512   0.701  0.00  0.00     0.000 A 
ENDROOT
TORSDOF 0
ENDMDL
