MODEL 1
REMARK minimizedAffinity 1.71107638
REMARK minimizedRMSD -1
REMARK  0 active torsions:
REMARK  status: ('A' for Active; 'I' for Inactive)
ROOT
ATOM      1  C1  BNZ d   1      -2.564   0.760  -1.339  0.00  0.00     0.000 A 
ATOM      2  C2  BNZ d   1      -3.705   1.493  -1.148  0.00  0.00     0.000 A 
ATOM      3  C3  BNZ d   1      -4.832   1.237  -1.879  0.00  0.00     0.000 A 
ATOM      4  C4  BNZ d   1      -4.804   0.277  -2.826  0.00  0.00     0.000 A 
ATOM      5  C5  BNZ d   1      -3.658  -0.464  -3.036  0.00  0.00     0.000 A 
ATOM      6  C6  BNZ d   1      -2.538  -0.230  -2.272  0.00  0.00     0.000 A 
ENDROOT
TORSDOF 0
ENDMDL
