MODEL 1
REMARK minimizedAffinity -2.84587765
REMARK minimizedRMSD -1
REMARK  0 active torsions:
REMARK  status: ('A' for Active; 'I' for Inactive)
ROOT
ATOM      1  C1  BNZ d   1       0.614   3.134   1.252  0.00  0.00     0.000 A 
ATOM      2  C2  BNZ d   1       0.483   2.205   2.250  0.00  0.00     0.000 A 
ATOM      3  C3  BNZ d   1      -0.447   1.207   2.160  0.00  0.00     0.000 A 
ATOM      4  C4  BNZ d   1      -1.271   1.164   1.093  0.00  0.00     0.000 A 
ATOM      5  C5  BNZ d   1      -1.158   2.099   0.084  0.00  0.00     0.000 A 
ATOM      6  C6  BNZ d   1      -0.195   3.078   0.159  0.00  0.00     0.000 A 
ENDROOT
TORSDOF 0
ENDMDL
