MODEL 1
REMARK minimizedAffinity 5.10877514
REMARK minimizedRMSD -1
REMARK  0 active torsions:
REMARK  status: ('A' for Active; 'I' for Inactive)
ROOT
ATOM      1  C1  BNZ d   1       0.957   2.459   1.593  0.00  0.00     0.000 A 
ATOM      2  C2  BNZ d   1       2.029   2.126   0.808  0.00  0.00     0.000 A 
ATOM      3  C3  BNZ d   1       2.719   0.966   1.021  0.00  0.00     0.000 A 
ATOM      4  C4  BNZ d   1       2.363   0.160   2.042  0.00  0.00     0.000 A 
ATOM      5  C5  BNZ d   1       1.291   0.487   2.849  0.00  0.00     0.000 A 
ATOM      6  C6  BNZ d   1       0.574   1.636   2.607  0.00  0.00     0.000 A 
ENDROOT
TORSDOF 0
ENDMDL
