MODEL 1
REMARK minimizedAffinity 6.74986839
REMARK minimizedRMSD -1
REMARK  0 active torsions:
REMARK  status: ('A' for Active; 'I' for Inactive)
ROOT
ATOM      1  C1  BNZ d   1      -3.720  -3.155  -2.507  0.00  0.00     0.000 A 
ATOM      2  C2  BNZ d   1      -2.610  -2.566  -3.054  0.00  0.00     0.000 A 
ATOM      3  C3  BNZ d   1      -1.559  -3.323  -3.489  0.00  0.00     0.000 A 
ATOM      4  C4  BNZ d   1      -1.600  -4.663  -3.340  0.00  0.00     0.000 A 
ATOM      5  C5  BNZ d   1      -2.707  -5.271  -2.783  0.00  0.00     0.000 A 
ATOM      6  C6  BNZ d   1      -3.781  -4.508  -2.382  0.00  0.00     0.000 A 
ENDROOT
TORSDOF 0
ENDMDL
