MODEL 1
REMARK minimizedAffinity 6.12180281
REMARK minimizedRMSD -1
REMARK  0 active torsions:
REMARK  status: ('A' for Active; 'I' for Inactive)
ROOT
ATOM      1  C1  BNZ d   1       1.487   1.550   2.146  0.00  0.00     0.000 A 
ATOM      2  C2  BNZ d   1       2.387   1.042   3.044  0.00  0.00     0.000 A 
ATOM      3  C3  BNZ d   1       3.516   0.401   2.617  0.00  0.00     0.000 A 
ATOM      4  C4  BNZ d   1       3.724   0.234   1.295  0.00  0.00     0.000 A 
ATOM      5  C5  BNZ d   1       2.821   0.732   0.377  0.00  0.00     0.000 A 
ATOM      6  C6  BNZ d   1       1.705   1.410   0.810  0.00  0.00     0.000 A 
ENDROOT
TORSDOF 0
ENDMDL
