MODEL 1
REMARK minimizedAffinity 5.01747894
REMARK minimizedRMSD -1
REMARK  0 active torsions:
REMARK  status: ('A' for Active; 'I' for Inactive)
ROOT
ATOM      1  C1  BNZ d   1      -1.894  -5.531  -2.923  0.00  0.00     0.000 A 
ATOM      2  C2  BNZ d   1      -3.062  -5.446  -2.213  0.00  0.00     0.000 A 
ATOM      3  C3  BNZ d   1      -3.740  -4.263  -2.119  0.00  0.00     0.000 A 
ATOM      4  C4  BNZ d   1      -3.229  -3.158  -2.700  0.00  0.00     0.000 A 
ATOM      5  C5  BNZ d   1      -2.047  -3.225  -3.411  0.00  0.00     0.000 A 
ATOM      6  C6  BNZ d   1      -1.388  -4.426  -3.536  0.00  0.00     0.000 A 
ENDROOT
TORSDOF 0
ENDMDL
