MODEL 1
REMARK minimizedAffinity 6.3946743
REMARK minimizedRMSD -1
REMARK  0 active torsions:
REMARK  status: ('A' for Active; 'I' for Inactive)
ROOT
ATOM      1  C1  BNZ d   1      -5.996   0.019   4.877  0.00  0.00     0.000 A 
ATOM      2  C2  BNZ d   1      -5.254   0.383   3.784  0.00  0.00     0.000 A 
ATOM      3  C3  BNZ d   1      -4.496   1.520   3.801  0.00  0.00     0.000 A 
ATOM      4  C4  BNZ d   1      -4.511   2.311   4.893  0.00  0.00     0.000 A 
ATOM      5  C5  BNZ d   1      -5.261   1.962   5.999  0.00  0.00     0.000 A 
ATOM      6  C6  BNZ d   1      -5.992   0.797   5.993  0.00  0.00     0.000 A 
ENDROOT
TORSDOF 0
ENDMDL
