MODEL 1
REMARK minimizedAffinity 6.55926275
REMARK minimizedRMSD -1
REMARK  0 active torsions:
REMARK  status: ('A' for Active; 'I' for Inactive)
ROOT
ATOM      1  C1  BNZ d   1      -2.929  -4.338  -2.601  0.00  0.00     0.000 A 
ATOM      2  C2  BNZ d   1      -1.921  -5.072  -3.166  0.00  0.00     0.000 A 
ATOM      3  C3  BNZ d   1      -1.025  -4.490  -4.019  0.00  0.00     0.000 A 
ATOM      4  C4  BNZ d   1      -1.163  -3.186  -4.337  0.00  0.00     0.000 A 
ATOM      5  C5  BNZ d   1      -2.181  -2.435  -3.783  0.00  0.00     0.000 A 
ATOM      6  C6  BNZ d   1      -3.057  -3.015  -2.894  0.00  0.00     0.000 A 
ENDROOT
TORSDOF 0
ENDMDL
