MODEL 1
REMARK minimizedAffinity 0.903330863
REMARK minimizedRMSD -1
REMARK  0 active torsions:
REMARK  status: ('A' for Active; 'I' for Inactive)
ROOT
ATOM      1  C1  BNZ d   1      -5.246   2.998   5.616  0.00  0.00     0.000 A 
ATOM      2  C2  BNZ d   1      -4.520   2.944   4.457  0.00  0.00     0.000 A 
ATOM      3  C3  BNZ d   1      -4.548   1.829   3.665  0.00  0.00     0.000 A 
ATOM      4  C4  BNZ d   1      -5.269   0.758   4.054  0.00  0.00     0.000 A 
ATOM      5  C5  BNZ d   1      -5.999   0.794   5.225  0.00  0.00     0.000 A 
ATOM      6  C6  BNZ d   1      -6.000   1.932   5.999  0.00  0.00     0.000 A 
ENDROOT
TORSDOF 0
ENDMDL
