MODEL 1
REMARK minimizedAffinity 2.01327276
REMARK minimizedRMSD -1
REMARK  0 active torsions:
REMARK  status: ('A' for Active; 'I' for Inactive)
ROOT
ATOM      1  C1  BNZ d   1       5.025   0.014   0.350  0.00  0.00     0.000 A 
ATOM      2  C2  BNZ d   1       4.015  -0.207   1.248  0.00  0.00     0.000 A 
ATOM      3  C3  BNZ d   1       2.946   0.641   1.321  0.00  0.00     0.000 A 
ATOM      4  C4  BNZ d   1       2.907   1.730   0.525  0.00  0.00     0.000 A 
ATOM      5  C5  BNZ d   1       3.922   1.971  -0.379  0.00  0.00     0.000 A 
ATOM      6  C6  BNZ d   1       4.978   1.094  -0.477  0.00  0.00     0.000 A 
ENDROOT
TORSDOF 0
ENDMDL
