MODEL 1
REMARK minimizedAffinity 6.19707155
REMARK minimizedRMSD -1
REMARK  0 active torsions:
REMARK  status: ('A' for Active; 'I' for Inactive)
ROOT
ATOM      1  C1  BNZ d   1       1.220   0.780   1.176  0.00  0.00     0.000 A 
ATOM      2  C2  BNZ d   1       1.989  -0.352   1.219  0.00  0.00     0.000 A 
ATOM      3  C3  BNZ d   1       3.211  -0.392   0.606  0.00  0.00     0.000 A 
ATOM      4  C4  BNZ d   1       3.642   0.685  -0.082  0.00  0.00     0.000 A 
ATOM      5  C5  BNZ d   1       2.874   1.831  -0.142  0.00  0.00     0.000 A 
ATOM      6  C6  BNZ d   1       1.663   1.880   0.509  0.00  0.00     0.000 A 
ENDROOT
TORSDOF 0
ENDMDL
