MODEL 1
REMARK minimizedAffinity 8.12638474
REMARK minimizedRMSD -1
REMARK  0 active torsions:
REMARK  status: ('A' for Active; 'I' for Inactive)
ROOT
ATOM      1  C1  BNZ d   1      -4.324   4.594   5.915  0.00  0.00     0.000 A 
ATOM      2  C2  BNZ d   1      -5.147   5.685   6.000  0.00  0.00     0.000 A 
ATOM      3  C3  BNZ d   1      -6.000   6.000   4.978  0.00  0.00     0.000 A 
ATOM      4  C4  BNZ d   1      -5.999   5.248   3.859  0.00  0.00     0.000 A 
ATOM      5  C5  BNZ d   1      -5.168   4.150   3.754  0.00  0.00     0.000 A 
ATOM      6  C6  BNZ d   1      -4.340   3.814   4.800  0.00  0.00     0.000 A 
ENDROOT
TORSDOF 0
ENDMDL
