MODEL 1
REMARK minimizedAffinity 7.71354294
REMARK minimizedRMSD -1
REMARK  0 active torsions:
REMARK  status: ('A' for Active; 'I' for Inactive)
ROOT
ATOM      1  C1  BNZ d   1       1.410   0.315   2.772  0.00  0.00     0.000 A 
ATOM      2  C2  BNZ d   1       1.831   0.560   1.492  0.00  0.00     0.000 A 
ATOM      3  C3  BNZ d   1       3.064   0.149   1.070  0.00  0.00     0.000 A 
ATOM      4  C4  BNZ d   1       3.890  -0.470   1.939  0.00  0.00     0.000 A 
ATOM      5  C5  BNZ d   1       3.483  -0.716   3.235  0.00  0.00     0.000 A 
ATOM      6  C6  BNZ d   1       2.226  -0.335   3.645  0.00  0.00     0.000 A 
ENDROOT
TORSDOF 0
ENDMDL
