MODEL 1
REMARK minimizedAffinity 16.3846149
REMARK minimizedRMSD -1
REMARK  0 active torsions:
REMARK  status: ('A' for Active; 'I' for Inactive)
ROOT
ATOM      1  C1  BNZ d   1      -1.261  -2.263  -0.525  0.00  0.00     0.000 A 
ATOM      2  C2  BNZ d   1      -0.324  -2.804   0.315  0.00  0.00     0.000 A 
ATOM      3  C3  BNZ d   1      -0.684  -3.311   1.532  0.00  0.00     0.000 A 
ATOM      4  C4  BNZ d   1      -1.972  -3.241   1.924  0.00  0.00     0.000 A 
ATOM      5  C5  BNZ d   1      -2.927  -2.690   1.093  0.00  0.00     0.000 A 
ATOM      6  C6  BNZ d   1      -2.567  -2.216  -0.147  0.00  0.00     0.000 A 
ENDROOT
TORSDOF 0
ENDMDL
