MODEL 1
REMARK minimizedAffinity 10.268898
REMARK minimizedRMSD -1
REMARK  0 active torsions:
REMARK  status: ('A' for Active; 'I' for Inactive)
ROOT
ATOM      1  C1  BNZ d   1      -5.435   4.031   2.684  0.00  0.00     0.000 A 
ATOM      2  C2  BNZ d   1      -5.999   5.277   2.752  0.00  0.00     0.000 A 
ATOM      3  C3  BNZ d   1      -6.000   5.982   3.923  0.00  0.00     0.000 A 
ATOM      4  C4  BNZ d   1      -5.473   5.425   5.032  0.00  0.00     0.000 A 
ATOM      5  C5  BNZ d   1      -4.909   4.166   4.982  0.00  0.00     0.000 A 
ATOM      6  C6  BNZ d   1      -4.875   3.475   3.793  0.00  0.00     0.000 A 
ENDROOT
TORSDOF 0
ENDMDL
