MODEL 1
REMARK minimizedAffinity 8.42088604
REMARK minimizedRMSD -1
REMARK  0 active torsions:
REMARK  status: ('A' for Active; 'I' for Inactive)
ROOT
ATOM      1  C1  BNZ d   1      -4.541   1.393   3.540  0.00  0.00     0.000 A 
ATOM      2  C2  BNZ d   1      -5.255   0.365   4.096  0.00  0.00     0.000 A 
ATOM      3  C3  BNZ d   1      -5.999   0.560   5.226  0.00  0.00     0.000 A 
ATOM      4  C4  BNZ d   1      -5.997   1.770   5.821  0.00  0.00     0.000 A 
ATOM      5  C5  BNZ d   1      -5.275   2.814   5.278  0.00  0.00     0.000 A 
ATOM      6  C6  BNZ d   1      -4.558   2.625   4.119  0.00  0.00     0.000 A 
ENDROOT
TORSDOF 0
ENDMDL
