MODEL 1
REMARK minimizedAffinity 8.13480568
REMARK minimizedRMSD -1
REMARK  0 active torsions:
REMARK  status: ('A' for Active; 'I' for Inactive)
ROOT
ATOM      1  C1  BNZ d   1       3.899   5.996   3.674  0.00  0.00     0.000 A 
ATOM      2  C2  BNZ d   1       4.938   5.999   4.566  0.00  0.00     0.000 A 
ATOM      3  C3  BNZ d   1       5.996   5.147   4.412  0.00  0.00     0.000 A 
ATOM      4  C4  BNZ d   1       5.994   4.266   3.391  0.00  0.00     0.000 A 
ATOM      5  C5  BNZ d   1       4.950   4.244   2.488  0.00  0.00     0.000 A 
ATOM      6  C6  BNZ d   1       3.905   5.129   2.624  0.00  0.00     0.000 A 
ENDROOT
TORSDOF 0
ENDMDL
