MODEL 1
REMARK minimizedAffinity 16.325634
REMARK minimizedRMSD -1
REMARK  0 active torsions:
REMARK  status: ('A' for Active; 'I' for Inactive)
ROOT
ATOM      1  C1  BNZ d   1      -4.444  -6.000  -1.727  0.00  0.00     0.000 A 
ATOM      2  C2  BNZ d   1      -3.528  -4.993  -1.881  0.00  0.00     0.000 A 
ATOM      3  C3  BNZ d   1      -3.849  -3.854  -2.565  0.00  0.00     0.000 A 
ATOM      4  C4  BNZ d   1      -5.069  -3.740  -3.128  0.00  0.00     0.000 A 
ATOM      5  C5  BNZ d   1      -6.000  -4.750  -2.990  0.00  0.00     0.000 A 
ATOM      6  C6  BNZ d   1      -5.687  -5.879  -2.267  0.00  0.00     0.000 A 
ENDROOT
TORSDOF 0
ENDMDL
