MODEL 1
REMARK minimizedAffinity -2.72581267
REMARK minimizedRMSD -1
REMARK  0 active torsions:
REMARK  status: ('A' for Active; 'I' for Inactive)
ROOT
ATOM      1  C   UNL d   1       0.814   2.958   0.869  0.00  0.00     0.172 C 
ATOM      2  N   UNL d   1       0.194   1.669   0.668  0.00  0.00    -0.070 N 
ATOM      3  C1  UNL d   1      -1.116   1.365   0.928  0.00  0.00    -0.004 A 
ATOM      4  C2  UNL d   1      -1.313   0.039   0.605  0.00  0.00    -0.047 A 
ATOM      5  C3  UNL d   1      -0.078  -0.470   0.136  0.00  0.00    -0.047 A 
ATOM      6  C4  UNL d   1       0.837   0.560   0.186  0.00  0.00    -0.004 A 
ENDROOT
TORSDOF 0
ENDMDL
