MODEL 1
REMARK minimizedAffinity -2.57663822
REMARK minimizedRMSD -1
REMARK  0 active torsions:
REMARK  status: ('A' for Active; 'I' for Inactive)
ROOT
ATOM      1  C   UNL d   1       0.023  -1.104  -0.293  0.00  0.00     0.172 C 
ATOM      2  N   UNL d   1      -0.164   0.309  -0.066  0.00  0.00    -0.070 N 
ATOM      3  C1  UNL d   1      -1.183   1.071  -0.574  0.00  0.00    -0.004 A 
ATOM      4  C2  UNL d   1      -1.007   2.363  -0.127  0.00  0.00    -0.047 A 
ATOM      5  C3  UNL d   1       0.158   2.378   0.677  0.00  0.00    -0.047 A 
ATOM      6  C4  UNL d   1       0.659   1.094   0.698  0.00  0.00    -0.004 A 
ENDROOT
TORSDOF 0
ENDMDL
