MODEL 1
REMARK minimizedAffinity -2.61556578
REMARK minimizedRMSD -1
REMARK  0 active torsions:
REMARK  status: ('A' for Active; 'I' for Inactive)
ROOT
ATOM      1  C   UNL d   1       0.185  -1.029   0.108  0.00  0.00     0.172 C 
ATOM      2  N   UNL d   1       0.094   0.390   0.357  0.00  0.00    -0.070 N 
ATOM      3  C1  UNL d   1      -1.059   1.130   0.347  0.00  0.00    -0.004 A 
ATOM      4  C2  UNL d   1      -0.724   2.437   0.629  0.00  0.00    -0.047 A 
ATOM      5  C3  UNL d   1       0.679   2.484   0.814  0.00  0.00    -0.047 A 
ATOM      6  C4  UNL d   1       1.159   1.203   0.640  0.00  0.00    -0.004 A 
ENDROOT
TORSDOF 0
ENDMDL
