MODEL 1
REMARK minimizedAffinity -3.37604523
REMARK minimizedRMSD -1
REMARK  0 active torsions:
REMARK  status: ('A' for Active; 'I' for Inactive)
ROOT
ATOM      1  C   UNL d   1      -0.373  -1.166  -1.878  0.00  0.00     0.172 C 
ATOM      2  N   UNL d   1      -0.553  -0.038  -0.994  0.00  0.00    -0.070 N 
ATOM      3  C1  UNL d   1       0.161   0.202   0.149  0.00  0.00    -0.004 A 
ATOM      4  C2  UNL d   1      -0.310   1.373   0.703  0.00  0.00    -0.047 A 
ATOM      5  C3  UNL d   1      -1.343   1.853  -0.136  0.00  0.00    -0.047 A 
ATOM      6  C4  UNL d   1      -1.473   0.960  -1.179  0.00  0.00    -0.004 A 
ENDROOT
TORSDOF 0
ENDMDL
