MODEL 1
REMARK minimizedAffinity -2.40332413
REMARK minimizedRMSD -1
REMARK  0 active torsions:
REMARK  status: ('A' for Active; 'I' for Inactive)
ROOT
ATOM      1  C   UNL d   1      -0.474  -0.005   0.001  0.00  0.00     0.172 C 
ATOM      2  N   UNL d   1      -0.492  -1.387  -0.418  0.00  0.00    -0.070 N 
ATOM      3  C1  UNL d   1       0.409  -2.347  -0.042  0.00  0.00    -0.004 A 
ATOM      4  C2  UNL d   1       0.047  -3.528  -0.653  0.00  0.00    -0.047 A 
ATOM      5  C3  UNL d   1      -1.111  -3.268  -1.423  0.00  0.00    -0.047 A 
ATOM      6  C4  UNL d   1      -1.423  -1.935  -1.260  0.00  0.00    -0.004 A 
ENDROOT
TORSDOF 0
ENDMDL
