MODEL 1
REMARK minimizedAffinity -2.57605314
REMARK minimizedRMSD -1
REMARK  0 active torsions:
REMARK  status: ('A' for Active; 'I' for Inactive)
ROOT
ATOM      1  C   UNL d   1       0.195  -1.164  -0.148  0.00  0.00     0.172 C 
ATOM      2  N   UNL d   1      -0.143   0.209   0.146  0.00  0.00    -0.070 N 
ATOM      3  C1  UNL d   1      -1.410   0.724   0.207  0.00  0.00    -0.004 A 
ATOM      4  C2  UNL d   1      -1.308   2.064   0.513  0.00  0.00    -0.047 A 
ATOM      5  C3  UNL d   1       0.069   2.365   0.640  0.00  0.00    -0.047 A 
ATOM      6  C4  UNL d   1       0.768   1.199   0.407  0.00  0.00    -0.004 A 
ENDROOT
TORSDOF 0
ENDMDL
