MODEL 1
REMARK minimizedAffinity -2.17483234
REMARK minimizedRMSD -1
REMARK  0 active torsions:
REMARK  status: ('A' for Active; 'I' for Inactive)
ROOT
ATOM      1  C   UNL d   1      -0.324  -1.190  -0.355  0.00  0.00     0.172 C 
ATOM      2  N   UNL d   1      -0.453   0.208  -0.016  0.00  0.00    -0.070 N 
ATOM      3  C1  UNL d   1      -1.588   0.962  -0.156  0.00  0.00    -0.004 A 
ATOM      4  C2  UNL d   1      -1.301   2.239   0.276  0.00  0.00    -0.047 A 
ATOM      5  C3  UNL d   1       0.052   2.253   0.689  0.00  0.00    -0.047 A 
ATOM      6  C4  UNL d   1       0.553   0.983   0.497  0.00  0.00    -0.004 A 
ENDROOT
TORSDOF 0
ENDMDL
