MODEL 1
REMARK minimizedAffinity -2.21601915
REMARK minimizedRMSD -1
REMARK  0 active torsions:
REMARK  status: ('A' for Active; 'I' for Inactive)
ROOT
ATOM      1  C   UNL d   1       0.499  -1.573   0.809  0.00  0.00     0.172 C 
ATOM      2  N   UNL d   1      -0.349  -0.509   0.326  0.00  0.00    -0.070 N 
ATOM      3  C1  UNL d   1      -0.533  -0.169  -0.988  0.00  0.00    -0.004 A 
ATOM      4  C2  UNL d   1      -1.412   0.891  -1.030  0.00  0.00    -0.047 A 
ATOM      5  C3  UNL d   1      -1.768   1.200   0.304  0.00  0.00    -0.047 A 
ATOM      6  C4  UNL d   1      -1.096   0.317   1.123  0.00  0.00    -0.004 A 
ENDROOT
TORSDOF 0
ENDMDL
