MODEL 1
REMARK minimizedAffinity -2.63177776
REMARK minimizedRMSD -1
REMARK  0 active torsions:
REMARK  status: ('A' for Active; 'I' for Inactive)
ROOT
ATOM      1  C   UNL d   1      -0.129  -2.606  -1.312  0.00  0.00     0.172 C 
ATOM      2  N   UNL d   1      -0.341  -1.414  -0.524  0.00  0.00    -0.070 N 
ATOM      3  C1  UNL d   1      -0.693  -0.185  -1.015  0.00  0.00    -0.004 A 
ATOM      4  C2  UNL d   1      -0.797   0.681   0.052  0.00  0.00    -0.047 A 
ATOM      5  C3  UNL d   1      -0.496  -0.052   1.224  0.00  0.00    -0.047 A 
ATOM      6  C4  UNL d   1      -0.217  -1.347   0.839  0.00  0.00    -0.004 A 
ENDROOT
TORSDOF 0
ENDMDL
