MODEL 1
REMARK minimizedAffinity -2.56046748
REMARK minimizedRMSD -1
REMARK  0 active torsions:
REMARK  status: ('A' for Active; 'I' for Inactive)
ROOT
ATOM      1  C   UNL d   1      -1.314  -2.919  -1.557  0.00  0.00     0.172 C 
ATOM      2  N   UNL d   1      -1.070  -1.620  -0.975  0.00  0.00    -0.070 N 
ATOM      3  C1  UNL d   1      -0.066  -1.315  -0.096  0.00  0.00    -0.004 A 
ATOM      4  C2  UNL d   1      -0.173   0.022   0.220  0.00  0.00    -0.047 A 
ATOM      5  C3  UNL d   1      -1.281   0.539  -0.494  0.00  0.00    -0.047 A 
ATOM      6  C4  UNL d   1      -1.817  -0.499  -1.226  0.00  0.00    -0.004 A 
ENDROOT
TORSDOF 0
ENDMDL
