MODEL 1
REMARK minimizedAffinity -3.43842912
REMARK minimizedRMSD -1
REMARK  0 active torsions:
REMARK  status: ('A' for Active; 'I' for Inactive)
ROOT
ATOM      1  C   UNL d   1      -0.075  -1.095   0.225  0.00  0.00     0.172 C 
ATOM      2  N   UNL d   1      -0.286   0.329   0.339  0.00  0.00    -0.070 N 
ATOM      3  C1  UNL d   1       0.681   1.260   0.611  0.00  0.00    -0.004 A 
ATOM      4  C2  UNL d   1       0.078   2.499   0.636  0.00  0.00    -0.047 A 
ATOM      5  C3  UNL d   1      -1.298   2.306   0.370  0.00  0.00    -0.047 A 
ATOM      6  C4  UNL d   1      -1.496   0.954   0.190  0.00  0.00    -0.004 A 
ENDROOT
TORSDOF 0
ENDMDL
