MODEL 1
REMARK minimizedAffinity -2.71900821
REMARK minimizedRMSD -1
REMARK  0 active torsions:
REMARK  status: ('A' for Active; 'I' for Inactive)
ROOT
ATOM      1  C   UNL d   1      -0.154  -3.356  -1.896  0.00  0.00     0.172 C 
ATOM      2  N   UNL d   1      -0.203  -2.123  -1.145  0.00  0.00    -0.070 N 
ATOM      3  C1  UNL d   1       0.075  -1.990   0.189  0.00  0.00    -0.004 A 
ATOM      4  C2  UNL d   1      -0.084  -0.662   0.523  0.00  0.00    -0.047 A 
ATOM      5  C3  UNL d   1      -0.472   0.026  -0.652  0.00  0.00    -0.047 A 
ATOM      6  C4  UNL d   1      -0.537  -0.902  -1.669  0.00  0.00    -0.004 A 
ENDROOT
TORSDOF 0
ENDMDL
