MODEL 1
REMARK minimizedAffinity -2.53965116
REMARK minimizedRMSD -1
REMARK  0 active torsions:
REMARK  status: ('A' for Active; 'I' for Inactive)
ROOT
ATOM      1  C   UNL d   1      -0.313  -0.731   0.323  0.00  0.00     0.172 C 
ATOM      2  N   UNL d   1      -0.349  -1.793  -0.655  0.00  0.00    -0.070 N 
ATOM      3  C1  UNL d   1      -0.837  -1.687  -1.931  0.00  0.00    -0.004 A 
ATOM      4  C2  UNL d   1      -0.693  -2.914  -2.541  0.00  0.00    -0.047 A 
ATOM      5  C3  UNL d   1      -0.098  -3.788  -1.600  0.00  0.00    -0.047 A 
ATOM      6  C4  UNL d   1       0.104  -3.068  -0.441  0.00  0.00    -0.004 A 
ENDROOT
TORSDOF 0
ENDMDL
