MODEL 1
REMARK minimizedAffinity -2.90819597
REMARK minimizedRMSD -1
REMARK  0 active torsions:
REMARK  status: ('A' for Active; 'I' for Inactive)
ROOT
ATOM      1  C   UNL d   1      -0.207  -1.963   0.015  0.00  0.00     0.172 C 
ATOM      2  N   UNL d   1      -0.492  -0.549  -0.066  0.00  0.00    -0.070 N 
ATOM      3  C1  UNL d   1      -0.165   0.272  -1.111  0.00  0.00    -0.004 A 
ATOM      4  C2  UNL d   1      -0.608   1.541  -0.806  0.00  0.00    -0.047 A 
ATOM      5  C3  UNL d   1      -1.223   1.480   0.467  0.00  0.00    -0.047 A 
ATOM      6  C4  UNL d   1      -1.137   0.174   0.902  0.00  0.00    -0.004 A 
ENDROOT
TORSDOF 0
ENDMDL
