MODEL 1
REMARK minimizedAffinity -1.2623198
REMARK minimizedRMSD -1
REMARK  0 active torsions:
REMARK  status: ('A' for Active; 'I' for Inactive)
ROOT
ATOM      1  C   UNL d   1      -0.411  -2.658  -1.018  0.00  0.00     0.172 C 
ATOM      2  N   UNL d   1      -0.449  -1.351  -0.405  0.00  0.00    -0.070 N 
ATOM      3  C1  UNL d   1      -1.216  -0.297  -0.821  0.00  0.00    -0.004 A 
ATOM      4  C2  UNL d   1      -0.968   0.765   0.023  0.00  0.00    -0.047 A 
ATOM      5  C3  UNL d   1      -0.017   0.333   0.978  0.00  0.00    -0.047 A 
ATOM      6  C4  UNL d   1       0.287  -0.981   0.690  0.00  0.00    -0.004 A 
ENDROOT
TORSDOF 0
ENDMDL
