MODEL 1
REMARK minimizedAffinity -1.92380834
REMARK minimizedRMSD -1
REMARK  0 active torsions:
REMARK  status: ('A' for Active; 'I' for Inactive)
ROOT
ATOM      1  C   UNL d   1      -0.482  -3.400  -2.172  0.00  0.00     0.172 C 
ATOM      2  N   UNL d   1      -0.262  -2.388  -1.165  0.00  0.00    -0.070 N 
ATOM      3  C1  UNL d   1      -0.572  -1.060  -1.286  0.00  0.00    -0.004 A 
ATOM      4  C2  UNL d   1      -0.208  -0.433  -0.114  0.00  0.00    -0.047 A 
ATOM      5  C3  UNL d   1       0.340  -1.419   0.741  0.00  0.00    -0.047 A 
ATOM      6  C4  UNL d   1       0.295  -2.620   0.065  0.00  0.00    -0.004 A 
ENDROOT
TORSDOF 0
ENDMDL
