MODEL 1
REMARK minimizedAffinity -2.23432732
REMARK minimizedRMSD -1
REMARK  0 active torsions:
REMARK  status: ('A' for Active; 'I' for Inactive)
ROOT
ATOM      1  C   UNL d   1      -0.116  -1.225  -0.798  0.00  0.00     0.172 C 
ATOM      2  N   UNL d   1      -0.293   0.105  -0.263  0.00  0.00    -0.070 N 
ATOM      3  C1  UNL d   1       0.613   0.783   0.508  0.00  0.00    -0.004 A 
ATOM      4  C2  UNL d   1       0.071   2.013   0.813  0.00  0.00    -0.047 A 
ATOM      5  C3  UNL d   1      -1.205   2.076   0.204  0.00  0.00    -0.047 A 
ATOM      6  C4  UNL d   1      -1.405   0.882  -0.455  0.00  0.00    -0.004 A 
ENDROOT
TORSDOF 0
ENDMDL
