MODEL 1
REMARK minimizedAffinity 5.07674932
REMARK minimizedRMSD -1
REMARK  1 active torsions:
REMARK  status: ('A' for Active; 'I' for Inactive)
REMARK    1  A    between atoms: N_2  and  C1_3 
ROOT
ATOM      1  C1  UNL d   1       1.318   1.920  -1.175  0.00  0.00     0.143 A 
ATOM      2  C2  UNL d   1       0.889   1.142  -2.255  0.00  0.00    -0.057 A 
ATOM      3  C3  UNL d   1       1.109  -0.241  -2.286  0.00  0.00     0.033 A 
ATOM      4  C4  UNL d   1       1.789  -0.867  -1.247  0.00  0.00    -0.042 A 
ATOM      5  C5  UNL d   1       2.246  -0.109  -0.175  0.00  0.00     0.033 A 
ATOM      6  C6  UNL d   1       2.018   1.270  -0.146  0.00  0.00    -0.057 A 
ENDROOT
BRANCH   1   7
ATOM      7  N   UNL d   1       1.217   3.313  -1.131  0.00  0.00    -0.732 N 
ATOM      8  C   UNL d   1       1.250   4.015   0.134  0.00  0.00     0.284 C 
ATOM      9  H3  UNL d   1       1.749   3.764  -1.871  0.00  0.00     0.395 HD
ENDBRANCH   1   7
TORSDOF 1
ENDMDL
