MODEL 1
REMARK minimizedAffinity 2.25455093
REMARK minimizedRMSD -1
REMARK  1 active torsions:
REMARK  status: ('A' for Active; 'I' for Inactive)
REMARK    1  A    between atoms: N_2  and  C1_3 
ROOT
ATOM      1  C1  UNL d   1       1.185   3.291  -1.034  0.00  0.00     0.143 A 
ATOM      2  C2  UNL d   1       1.196   2.155  -1.850  0.00  0.00    -0.057 A 
ATOM      3  C3  UNL d   1       1.453   0.884  -1.322  0.00  0.00     0.033 A 
ATOM      4  C4  UNL d   1       1.733   0.730   0.031  0.00  0.00    -0.042 A 
ATOM      5  C5  UNL d   1       1.751   1.848   0.857  0.00  0.00     0.033 A 
ATOM      6  C6  UNL d   1       1.487   3.114   0.326  0.00  0.00    -0.057 A 
ENDROOT
BRANCH   1   7
ATOM      7  N   UNL d   1       1.033   4.594  -1.515  0.00  0.00    -0.732 N 
ATOM      8  C   UNL d   1       1.522   5.723  -0.753  0.00  0.00     0.284 C 
ATOM      9  H3  UNL d   1       1.208   4.661  -2.515  0.00  0.00     0.395 HD
ENDBRANCH   1   7
TORSDOF 1
ENDMDL
