MODEL 1
REMARK minimizedAffinity -3.34702039
REMARK minimizedRMSD -1
REMARK  1 active torsions:
REMARK  status: ('A' for Active; 'I' for Inactive)
REMARK    1  A    between atoms: N_2  and  C1_3 
ROOT
ATOM      1  C1  UNL d   1       1.203   1.536  -0.853  0.00  0.00     0.143 A 
ATOM      2  C2  UNL d   1       1.128   1.870   0.503  0.00  0.00    -0.057 A 
ATOM      3  C3  UNL d   1       1.091   3.206   0.921  0.00  0.00     0.033 A 
ATOM      4  C4  UNL d   1       1.159   4.235  -0.012  0.00  0.00    -0.042 A 
ATOM      5  C5  UNL d   1       1.259   3.927  -1.364  0.00  0.00     0.033 A 
ATOM      6  C6  UNL d   1       1.288   2.591  -1.776  0.00  0.00    -0.057 A 
ENDROOT
BRANCH   1   7
ATOM      7  N   UNL d   1       1.342   0.229  -1.326  0.00  0.00    -0.732 N 
ATOM      8  C   UNL d   1       1.400  -0.886  -0.405  0.00  0.00     0.284 C 
ATOM      9  H3  UNL d   1       0.779   0.054  -2.155  0.00  0.00     0.395 HD
ENDBRANCH   1   7
TORSDOF 1
ENDMDL
