MODEL 1
REMARK minimizedAffinity 3.41432977
REMARK minimizedRMSD -1
REMARK  1 active torsions:
REMARK  status: ('A' for Active; 'I' for Inactive)
REMARK    1  A    between atoms: N_2  and  C1_3 
ROOT
ATOM      1  C1  UNL d   1       1.143   2.633  -0.957  0.00  0.00     0.143 A 
ATOM      2  C2  UNL d   1       1.215   1.459  -1.714  0.00  0.00    -0.057 A 
ATOM      3  C3  UNL d   1       1.445   0.218  -1.108  0.00  0.00     0.033 A 
ATOM      4  C4  UNL d   1       1.637   0.133   0.267  0.00  0.00    -0.042 A 
ATOM      5  C5  UNL d   1       1.594   1.291   1.036  0.00  0.00     0.033 A 
ATOM      6  C6  UNL d   1       1.357   2.526   0.426  0.00  0.00    -0.057 A 
ENDROOT
BRANCH   1   7
ATOM      7  N   UNL d   1       1.014   3.909  -1.512  0.00  0.00    -0.732 N 
ATOM      8  C   UNL d   1       1.455   5.078  -0.781  0.00  0.00     0.284 C 
ATOM      9  H3  UNL d   1       1.245   3.927  -2.503  0.00  0.00     0.395 HD
ENDBRANCH   1   7
TORSDOF 1
ENDMDL
