MODEL 1
REMARK minimizedAffinity -2.36062407
REMARK minimizedRMSD -1
REMARK  1 active torsions:
REMARK  status: ('A' for Active; 'I' for Inactive)
REMARK    1  A    between atoms: N_2  and  C1_3 
ROOT
ATOM      1  C1  UNL d   1       1.059   2.867  -0.829  0.00  0.00     0.143 A 
ATOM      2  C2  UNL d   1       0.990   1.847  -1.784  0.00  0.00    -0.057 A 
ATOM      3  C3  UNL d   1       1.140   0.502  -1.423  0.00  0.00     0.033 A 
ATOM      4  C4  UNL d   1       1.390   0.155  -0.100  0.00  0.00    -0.042 A 
ATOM      5  C5  UNL d   1       1.487   1.154   0.863  0.00  0.00     0.033 A 
ATOM      6  C6  UNL d   1       1.331   2.494   0.497  0.00  0.00    -0.057 A 
ENDROOT
BRANCH   1   7
ATOM      7  N   UNL d   1       1.017   4.228  -1.141  0.00  0.00    -0.732 N 
ATOM      8  C   UNL d   1       1.481   5.216  -0.190  0.00  0.00     0.284 C 
ATOM      9  H3  UNL d   1       1.292   4.415  -2.102  0.00  0.00     0.395 HD
ENDBRANCH   1   7
TORSDOF 1
ENDMDL
