MODEL 1
REMARK minimizedAffinity -0.105205484
REMARK minimizedRMSD -1
REMARK  1 active torsions:
REMARK  status: ('A' for Active; 'I' for Inactive)
REMARK    1  A    between atoms: N_2  and  C1_3 
ROOT
ATOM      1  C1  UNL d   1       1.615  -0.458  -1.170  0.00  0.00     0.143 A 
ATOM      2  C2  UNL d   1       1.690   0.196  -2.404  0.00  0.00    -0.057 A 
ATOM      3  C3  UNL d   1       1.516   1.582  -2.503  0.00  0.00     0.033 A 
ATOM      4  C4  UNL d   1       1.234   2.337  -1.369  0.00  0.00    -0.042 A 
ATOM      5  C5  UNL d   1       1.130   1.704  -0.136  0.00  0.00     0.033 A 
ATOM      6  C6  UNL d   1       1.311   0.321  -0.042  0.00  0.00    -0.057 A 
ENDROOT
BRANCH   1   7
ATOM      7  N   UNL d   1       1.681  -1.845  -1.019  0.00  0.00    -0.732 N 
ATOM      8  C   UNL d   1       0.471  -2.635  -0.932  0.00  0.00     0.284 C 
ATOM      9  H3  UNL d   1       2.411  -2.264  -1.591  0.00  0.00     0.395 HD
ENDBRANCH   1   7
TORSDOF 1
ENDMDL
