MODEL 1
REMARK minimizedAffinity 2.08798337
REMARK minimizedRMSD -1
REMARK  1 active torsions:
REMARK  status: ('A' for Active; 'I' for Inactive)
REMARK    1  A    between atoms: N_2  and  C1_3 
ROOT
ATOM      1  C1  UNL d   1       0.744   1.632  -1.437  0.00  0.00     0.143 A 
ATOM      2  C2  UNL d   1       0.800   0.283  -1.801  0.00  0.00    -0.057 A 
ATOM      3  C3  UNL d   1       1.163  -0.705  -0.877  0.00  0.00     0.033 A 
ATOM      4  C4  UNL d   1       1.505  -0.355   0.425  0.00  0.00    -0.042 A 
ATOM      5  C5  UNL d   1       1.480   0.983   0.803  0.00  0.00     0.033 A 
ATOM      6  C6  UNL d   1       1.111   1.963  -0.123  0.00  0.00    -0.057 A 
ENDROOT
BRANCH   1   7
ATOM      7  N   UNL d   1       0.486   2.671  -2.335  0.00  0.00    -0.732 N 
ATOM      8  C   UNL d   1       0.831   4.036  -2.002  0.00  0.00     0.284 C 
ATOM      9  H3  UNL d   1       0.692   2.412  -3.297  0.00  0.00     0.395 HD
ENDBRANCH   1   7
TORSDOF 1
ENDMDL
