MODEL 1
REMARK minimizedAffinity 1.64333117
REMARK minimizedRMSD -1
REMARK  1 active torsions:
REMARK  status: ('A' for Active; 'I' for Inactive)
REMARK    1  A    between atoms: N_2  and  C1_3 
ROOT
ATOM      1  C1  UNL d   1       1.237   2.477  -0.272  0.00  0.00     0.143 A 
ATOM      2  C2  UNL d   1       1.467   2.521  -1.652  0.00  0.00    -0.057 A 
ATOM      3  C3  UNL d   1       1.869   1.380  -2.357  0.00  0.00     0.033 A 
ATOM      4  C4  UNL d   1       2.076   0.178  -1.688  0.00  0.00    -0.042 A 
ATOM      5  C5  UNL d   1       1.877   0.117  -0.314  0.00  0.00     0.033 A 
ATOM      6  C6  UNL d   1       1.470   1.258   0.384  0.00  0.00    -0.057 A 
ENDROOT
BRANCH   1   7
ATOM      7  N   UNL d   1       0.933   3.600   0.501  0.00  0.00    -0.732 N 
ATOM      8  C   UNL d   1       1.241   4.930   0.023  0.00  0.00     0.284 C 
ATOM      9  H3  UNL d   1       0.027   3.522   0.959  0.00  0.00     0.395 HD
ENDBRANCH   1   7
TORSDOF 1
ENDMDL
