MODEL 1
REMARK minimizedAffinity 1.97797024
REMARK minimizedRMSD -1
REMARK  1 active torsions:
REMARK  status: ('A' for Active; 'I' for Inactive)
REMARK    1  A    between atoms: N_2  and  C1_3 
ROOT
ATOM      1  C1  UNL d   1       0.667   1.697  -1.043  0.00  0.00     0.143 A 
ATOM      2  C2  UNL d   1       0.803   0.401  -1.551  0.00  0.00    -0.057 A 
ATOM      3  C3  UNL d   1       1.336  -0.632  -0.771  0.00  0.00     0.033 A 
ATOM      4  C4  UNL d   1       1.771  -0.379   0.526  0.00  0.00    -0.042 A 
ATOM      5  C5  UNL d   1       1.669   0.907   1.043  0.00  0.00     0.033 A 
ATOM      6  C6  UNL d   1       1.129   1.933   0.261  0.00  0.00    -0.057 A 
ENDROOT
BRANCH   1   7
ATOM      7  N   UNL d   1       0.235   2.789  -1.801  0.00  0.00    -0.732 N 
ATOM      8  C   UNL d   1       1.013   4.008  -1.847  0.00  0.00     0.284 C 
ATOM      9  H3  UNL d   1      -0.152   2.509  -2.700  0.00  0.00     0.395 HD
ENDBRANCH   1   7
TORSDOF 1
ENDMDL
