MODEL 1
REMARK minimizedAffinity 5.91524649
REMARK minimizedRMSD -1
REMARK  1 active torsions:
REMARK  status: ('A' for Active; 'I' for Inactive)
REMARK    1  A    between atoms: N_2  and  C1_3 
ROOT
ATOM      1  C1  UNL d   1       1.367   0.715  -0.051  0.00  0.00     0.143 A 
ATOM      2  C2  UNL d   1       1.465  -0.625  -0.442  0.00  0.00    -0.057 A 
ATOM      3  C3  UNL d   1       2.624  -1.370  -0.197  0.00  0.00     0.033 A 
ATOM      4  C4  UNL d   1       3.722  -0.778   0.420  0.00  0.00    -0.042 A 
ATOM      5  C5  UNL d   1       3.656   0.559   0.795  0.00  0.00     0.033 A 
ATOM      6  C6  UNL d   1       2.493   1.296   0.553  0.00  0.00    -0.057 A 
ENDROOT
BRANCH   1   7
ATOM      7  N   UNL d   1       0.279   1.536  -0.354  0.00  0.00    -0.732 N 
ATOM      8  C   UNL d   1       0.317   2.951  -0.053  0.00  0.00     0.284 C 
ATOM      9  H3  UNL d   1      -0.136   1.315  -1.256  0.00  0.00     0.395 HD
ENDBRANCH   1   7
TORSDOF 1
ENDMDL
