MODEL 1
REMARK minimizedAffinity 0.289225638
REMARK minimizedRMSD -1
REMARK  1 active torsions:
REMARK  status: ('A' for Active; 'I' for Inactive)
REMARK    1  A    between atoms: N_2  and  C1_3 
ROOT
ATOM      1  C1  UNL d   1       1.153   2.765  -1.379  0.00  0.00     0.143 A 
ATOM      2  C2  UNL d   1       1.315   1.622  -2.170  0.00  0.00    -0.057 A 
ATOM      3  C3  UNL d   1       1.142   0.339  -1.636  0.00  0.00     0.033 A 
ATOM      4  C4  UNL d   1       0.829   0.176  -0.290  0.00  0.00    -0.042 A 
ATOM      5  C5  UNL d   1       0.688   1.297   0.520  0.00  0.00     0.033 A 
ATOM      6  C6  UNL d   1       0.856   2.575  -0.021  0.00  0.00    -0.057 A 
ENDROOT
BRANCH   1   7
ATOM      7  N   UNL d   1       1.409   4.063  -1.827  0.00  0.00    -0.732 N 
ATOM      8  C   UNL d   1       1.244   5.195  -0.940  0.00  0.00     0.284 C 
ATOM      9  H3  UNL d   1       2.236   4.114  -2.418  0.00  0.00     0.395 HD
ENDBRANCH   1   7
TORSDOF 1
ENDMDL
