MODEL 1
REMARK minimizedAffinity 1.18016458
REMARK minimizedRMSD -1
REMARK  1 active torsions:
REMARK  status: ('A' for Active; 'I' for Inactive)
REMARK    1  A    between atoms: N_2  and  C1_3 
ROOT
ATOM      1  C1  UNL d   1       2.995  -0.238  -0.299  0.00  0.00     0.143 A 
ATOM      2  C2  UNL d   1       1.897   0.090   0.504  0.00  0.00    -0.057 A 
ATOM      3  C3  UNL d   1       0.830   0.844   0.001  0.00  0.00     0.033 A 
ATOM      4  C4  UNL d   1       0.856   1.310  -1.309  0.00  0.00    -0.042 A 
ATOM      5  C5  UNL d   1       1.948   1.018  -2.117  0.00  0.00     0.033 A 
ATOM      6  C6  UNL d   1       3.008   0.259  -1.612  0.00  0.00    -0.057 A 
ENDROOT
BRANCH   1   7
ATOM      7  N   UNL d   1       4.132  -0.900   0.170  0.00  0.00    -0.732 N 
ATOM      8  C   UNL d   1       4.222  -2.343   0.110  0.00  0.00     0.284 C 
ATOM      9  H3  UNL d   1       4.993  -0.419  -0.080  0.00  0.00     0.395 HD
ENDBRANCH   1   7
TORSDOF 1
ENDMDL
