MODEL 1
REMARK minimizedAffinity 2.48218846
REMARK minimizedRMSD -1
REMARK  1 active torsions:
REMARK  status: ('A' for Active; 'I' for Inactive)
REMARK    1  A    between atoms: N_2  and  C1_3 
ROOT
ATOM      1  C1  UNL d   1      -1.561   1.961   2.403  0.00  0.00     0.143 A 
ATOM      2  C2  UNL d   1      -1.653   0.577   2.225  0.00  0.00    -0.057 A 
ATOM      3  C3  UNL d   1      -1.775   0.015   0.948  0.00  0.00     0.033 A 
ATOM      4  C4  UNL d   1      -1.836   0.833  -0.175  0.00  0.00    -0.042 A 
ATOM      5  C5  UNL d   1      -1.772   2.214  -0.020  0.00  0.00     0.033 A 
ATOM      6  C6  UNL d   1      -1.643   2.768   1.257  0.00  0.00    -0.057 A 
ENDROOT
BRANCH   1   7
ATOM      7  N   UNL d   1      -1.537   2.585   3.653  0.00  0.00    -0.732 N 
ATOM      8  C   UNL d   1      -2.574   3.522   4.029  0.00  0.00     0.284 C 
ATOM      9  H3  UNL d   1      -1.260   1.951   4.398  0.00  0.00     0.395 HD
ENDBRANCH   1   7
TORSDOF 1
ENDMDL
