MODEL 1
REMARK minimizedAffinity 6.69166851
REMARK minimizedRMSD -1
REMARK  1 active torsions:
REMARK  status: ('A' for Active; 'I' for Inactive)
REMARK    1  A    between atoms: N_2  and  C1_3 
ROOT
ATOM      1  C1  UNL d   1       2.576   0.434  -1.783  0.00  0.00     0.143 A 
ATOM      2  C2  UNL d   1       1.859   0.736  -0.620  0.00  0.00    -0.057 A 
ATOM      3  C3  UNL d   1       1.882  -0.118   0.489  0.00  0.00     0.033 A 
ATOM      4  C4  UNL d   1       2.602  -1.307   0.444  0.00  0.00    -0.042 A 
ATOM      5  C5  UNL d   1       3.303  -1.639  -0.710  0.00  0.00     0.033 A 
ATOM      6  C6  UNL d   1       3.281  -0.779  -1.812  0.00  0.00    -0.057 A 
ENDROOT
BRANCH   1   7
ATOM      7  N   UNL d   1       2.514   1.193  -2.954  0.00  0.00    -0.732 N 
ATOM      8  C   UNL d   1       1.342   1.147  -3.801  0.00  0.00     0.284 C 
ATOM      9  H3  UNL d   1       2.904   2.126  -2.834  0.00  0.00     0.395 HD
ENDBRANCH   1   7
TORSDOF 1
ENDMDL
