MODEL 1
REMARK minimizedAffinity 12.5165644
REMARK minimizedRMSD -1
REMARK  1 active torsions:
REMARK  status: ('A' for Active; 'I' for Inactive)
REMARK    1  A    between atoms: N_2  and  C1_3 
ROOT
ATOM      1  C1  UNL d   1      -3.618   3.381  -5.921  0.00  0.00     0.143 A 
ATOM      2  C2  UNL d   1      -2.226   3.520  -5.938  0.00  0.00    -0.057 A 
ATOM      3  C3  UNL d   1      -1.623   4.783  -5.959  0.00  0.00     0.033 A 
ATOM      4  C4  UNL d   1      -2.404   5.934  -5.991  0.00  0.00    -0.042 A 
ATOM      5  C5  UNL d   1      -3.790   5.819  -6.000  0.00  0.00     0.033 A 
ATOM      6  C6  UNL d   1      -4.386   4.555  -5.972  0.00  0.00    -0.057 A 
ENDROOT
BRANCH   1   7
ATOM      7  N   UNL d   1      -4.278   2.153  -6.000  0.00  0.00    -0.732 N 
ATOM      8  C   UNL d   1      -3.571   0.917  -5.740  0.00  0.00     0.284 C 
ATOM      9  H3  UNL d   1      -5.214   2.188  -5.601  0.00  0.00     0.395 HD
ENDBRANCH   1   7
TORSDOF 1
ENDMDL
