MODEL 1
REMARK minimizedAffinity 4.37797594
REMARK minimizedRMSD -1
REMARK  1 active torsions:
REMARK  status: ('A' for Active; 'I' for Inactive)
REMARK    1  A    between atoms: N_2  and  C1_3 
ROOT
ATOM      1  C1  UNL d   1      -3.297   3.745  -5.991  0.00  0.00     0.143 A 
ATOM      2  C2  UNL d   1      -3.615   2.382  -5.983  0.00  0.00    -0.057 A 
ATOM      3  C3  UNL d   1      -4.946   1.948  -5.999  0.00  0.00     0.033 A 
ATOM      4  C4  UNL d   1      -5.986   2.872  -5.993  0.00  0.00    -0.042 A 
ATOM      5  C5  UNL d   1      -5.693   4.231  -5.975  0.00  0.00     0.033 A 
ATOM      6  C6  UNL d   1      -4.362   4.659  -5.966  0.00  0.00    -0.057 A 
ENDROOT
BRANCH   1   7
ATOM      7  N   UNL d   1      -1.995   4.240  -5.876  0.00  0.00    -0.732 N 
ATOM      8  C   UNL d   1      -1.734   5.659  -5.986  0.00  0.00     0.284 C 
ATOM      9  H3  UNL d   1      -1.466   3.775  -5.142  0.00  0.00     0.395 HD
ENDBRANCH   1   7
TORSDOF 1
ENDMDL
