MODEL 1
REMARK minimizedAffinity -4.02032614
REMARK minimizedRMSD -1
REMARK  1 active torsions:
REMARK  status: ('A' for Active; 'I' for Inactive)
REMARK    1  A    between atoms: N_2  and  C1_3 
ROOT
ATOM      1  C1  UNL d   1       0.047   1.185   0.124  0.00  0.00     0.143 A 
ATOM      2  C2  UNL d   1      -0.566   2.421   0.355  0.00  0.00    -0.057 A 
ATOM      3  C3  UNL d   1       0.167   3.613   0.318  0.00  0.00     0.033 A 
ATOM      4  C4  UNL d   1       1.537   3.587   0.079  0.00  0.00    -0.042 A 
ATOM      5  C5  UNL d   1       2.172   2.368  -0.128  0.00  0.00     0.033 A 
ATOM      6  C6  UNL d   1       1.433   1.181  -0.097  0.00  0.00    -0.057 A 
ENDROOT
BRANCH   1   7
ATOM      7  N   UNL d   1      -0.609  -0.043   0.244  0.00  0.00    -0.732 N 
ATOM      8  C   UNL d   1       0.081  -1.279  -0.054  0.00  0.00     0.284 C 
ATOM      9  H3  UNL d   1      -1.204  -0.086   1.069  0.00  0.00     0.395 HD
ENDBRANCH   1   7
TORSDOF 1
ENDMDL
