MODEL 1
REMARK minimizedAffinity -4.38183689
REMARK minimizedRMSD -1
REMARK  1 active torsions:
REMARK  status: ('A' for Active; 'I' for Inactive)
REMARK    1  A    between atoms: N_2  and  C1_3 
ROOT
ATOM      1  C1  UNL d   1       2.005   2.272   0.686  0.00  0.00     0.143 A 
ATOM      2  C2  UNL d   1       0.822   1.543   0.526  0.00  0.00    -0.057 A 
ATOM      3  C3  UNL d   1      -0.346   2.149   0.047  0.00  0.00     0.033 A 
ATOM      4  C4  UNL d   1      -0.358   3.507  -0.255  0.00  0.00    -0.042 A 
ATOM      5  C5  UNL d   1       0.799   4.257  -0.080  0.00  0.00     0.033 A 
ATOM      6  C6  UNL d   1       1.964   3.645   0.393  0.00  0.00    -0.057 A 
ENDROOT
BRANCH   1   7
ATOM      7  N   UNL d   1       3.170   1.750   1.252  0.00  0.00    -0.732 N 
ATOM      8  C   UNL d   1       3.677   2.265   2.506  0.00  0.00     0.284 C 
ATOM      9  H3  UNL d   1       3.223   0.737   1.167  0.00  0.00     0.395 HD
ENDBRANCH   1   7
TORSDOF 1
ENDMDL
