MODEL 1
REMARK minimizedAffinity -4.47311878
REMARK minimizedRMSD -1
REMARK  1 active torsions:
REMARK  status: ('A' for Active; 'I' for Inactive)
REMARK    1  A    between atoms: N_2  and  C1_3 
ROOT
ATOM      1  C1  UNL d   1      -0.251  -2.188  -0.629  0.00  0.00     0.143 A 
ATOM      2  C2  UNL d   1       0.074  -2.630  -1.916  0.00  0.00    -0.057 A 
ATOM      3  C3  UNL d   1      -0.507  -3.785  -2.455  0.00  0.00     0.033 A 
ATOM      4  C4  UNL d   1      -1.404  -4.536  -1.702  0.00  0.00    -0.042 A 
ATOM      5  C5  UNL d   1      -1.722  -4.129  -0.411  0.00  0.00     0.033 A 
ATOM      6  C6  UNL d   1      -1.144  -2.971   0.118  0.00  0.00    -0.057 A 
ENDROOT
BRANCH   1   7
ATOM      7  N   UNL d   1       0.366  -1.103  -0.001  0.00  0.00    -0.732 N 
ATOM      8  C   UNL d   1       1.767  -1.159   0.358  0.00  0.00     0.284 C 
ATOM      9  H3  UNL d   1       0.072  -0.210  -0.390  0.00  0.00     0.395 HD
ENDBRANCH   1   7
TORSDOF 1
ENDMDL
