MODEL 1
REMARK minimizedAffinity 7.77333832
REMARK minimizedRMSD -1
REMARK  1 active torsions:
REMARK  status: ('A' for Active; 'I' for Inactive)
REMARK    1  A    between atoms: N_2  and  C1_3 
ROOT
ATOM      1  C1  UNL d   1       0.113   1.211   1.470  0.00  0.00     0.143 A 
ATOM      2  C2  UNL d   1       0.835   0.258   0.744  0.00  0.00    -0.057 A 
ATOM      3  C3  UNL d   1       2.235   0.274   0.715  0.00  0.00     0.033 A 
ATOM      4  C4  UNL d   1       2.939   1.266   1.390  0.00  0.00    -0.042 A 
ATOM      5  C5  UNL d   1       2.241   2.238   2.098  0.00  0.00     0.033 A 
ATOM      6  C6  UNL d   1       0.843   2.212   2.128  0.00  0.00    -0.057 A 
ENDROOT
BRANCH   1   7
ATOM      7  N   UNL d   1      -1.281   1.306   1.457  0.00  0.00    -0.732 N 
ATOM      8  C   UNL d   1      -1.933   2.508   0.983  0.00  0.00     0.284 C 
ATOM      9  H3  UNL d   1      -1.726   0.444   1.153  0.00  0.00     0.395 HD
ENDBRANCH   1   7
TORSDOF 1
ENDMDL
