MODEL 1
REMARK minimizedAffinity 5.13475466
REMARK minimizedRMSD -1
REMARK  1 active torsions:
REMARK  status: ('A' for Active; 'I' for Inactive)
REMARK    1  A    between atoms: N_2  and  C1_3 
ROOT
ATOM      1  C1  UNL d   1       0.097   0.398   0.285  0.00  0.00     0.143 A 
ATOM      2  C2  UNL d   1      -0.159   1.671   0.804  0.00  0.00    -0.057 A 
ATOM      3  C3  UNL d   1      -1.466   2.164   0.907  0.00  0.00     0.033 A 
ATOM      4  C4  UNL d   1      -2.541   1.400   0.465  0.00  0.00    -0.042 A 
ATOM      5  C5  UNL d   1      -2.308   0.141  -0.078  0.00  0.00     0.033 A 
ATOM      6  C6  UNL d   1      -1.001  -0.348  -0.172  0.00  0.00    -0.057 A 
ENDROOT
BRANCH   1   7
ATOM      7  N   UNL d   1       1.380  -0.109   0.065  0.00  0.00    -0.732 N 
ATOM      8  C   UNL d   1       2.547   0.623   0.508  0.00  0.00     0.284 C 
ATOM      9  H3  UNL d   1       1.434  -1.113   0.223  0.00  0.00     0.395 HD
ENDBRANCH   1   7
TORSDOF 1
ENDMDL
