MODEL 1
REMARK minimizedAffinity -2.95557213
REMARK minimizedRMSD -1
REMARK  1 active torsions:
REMARK  status: ('A' for Active; 'I' for Inactive)
REMARK    1  A    between atoms: N_2  and  C1_3 
ROOT
ATOM      1  C1  UNL d   1      -0.553  -2.858  -1.803  0.00  0.00     0.143 A 
ATOM      2  C2  UNL d   1       0.385  -2.307  -2.681  0.00  0.00    -0.057 A 
ATOM      3  C3  UNL d   1       0.959  -1.053  -2.437  0.00  0.00     0.033 A 
ATOM      4  C4  UNL d   1       0.582  -0.314  -1.321  0.00  0.00    -0.042 A 
ATOM      5  C5  UNL d   1      -0.368  -0.831  -0.448  0.00  0.00     0.033 A 
ATOM      6  C6  UNL d   1      -0.933  -2.087  -0.693  0.00  0.00    -0.057 A 
ENDROOT
BRANCH   1   7
ATOM      7  N   UNL d   1      -1.233  -4.055  -2.042  0.00  0.00    -0.732 N 
ATOM      8  C   UNL d   1      -2.509  -4.317  -1.412  0.00  0.00     0.284 C 
ATOM      9  H3  UNL d   1      -1.184  -4.342  -3.017  0.00  0.00     0.395 HD
ENDBRANCH   1   7
TORSDOF 1
ENDMDL
