MODEL 1
REMARK minimizedAffinity -0.88970536
REMARK minimizedRMSD -1
REMARK  1 active torsions:
REMARK  status: ('A' for Active; 'I' for Inactive)
REMARK    1  A    between atoms: N_2  and  C1_3 
ROOT
ATOM      1  C1  UNL d   1       1.638   1.094   0.554  0.00  0.00     0.143 A 
ATOM      2  C2  UNL d   1       1.359   2.131   1.450  0.00  0.00    -0.057 A 
ATOM      3  C3  UNL d   1       1.559   3.471   1.095  0.00  0.00     0.033 A 
ATOM      4  C4  UNL d   1       2.071   3.796  -0.157  0.00  0.00    -0.042 A 
ATOM      5  C5  UNL d   1       2.379   2.780  -1.055  0.00  0.00     0.033 A 
ATOM      6  C6  UNL d   1       2.171   1.445  -0.697  0.00  0.00    -0.057 A 
ENDROOT
BRANCH   1   7
ATOM      7  N   UNL d   1       1.554  -0.261   0.882  0.00  0.00    -0.732 N 
ATOM      8  C   UNL d   1       2.375  -1.238   0.198  0.00  0.00     0.284 C 
ATOM      9  H3  UNL d   1       1.475  -0.414   1.885  0.00  0.00     0.395 HD
ENDBRANCH   1   7
TORSDOF 1
ENDMDL
