MODEL 1
REMARK minimizedAffinity -0.40533188
REMARK minimizedRMSD -1
REMARK  1 active torsions:
REMARK  status: ('A' for Active; 'I' for Inactive)
REMARK    1  A    between atoms: N_2  and  C1_3 
ROOT
ATOM      1  C1  UNL d   1       1.640   3.772   0.290  0.00  0.00     0.143 A 
ATOM      2  C2  UNL d   1       1.454   3.130   1.519  0.00  0.00    -0.057 A 
ATOM      3  C3  UNL d   1       1.900   1.820   1.729  0.00  0.00     0.033 A 
ATOM      4  C4  UNL d   1       2.517   1.116   0.700  0.00  0.00    -0.042 A 
ATOM      5  C5  UNL d   1       2.690   1.725  -0.538  0.00  0.00     0.033 A 
ATOM      6  C6  UNL d   1       2.248   3.036  -0.739  0.00  0.00    -0.057 A 
ENDROOT
BRANCH   1   7
ATOM      7  N   UNL d   1       1.132   5.038  -0.011  0.00  0.00    -0.732 N 
ATOM      8  C   UNL d   1       1.932   6.000  -0.738  0.00  0.00     0.284 C 
ATOM      9  H3  UNL d   1       0.156   5.006  -0.299  0.00  0.00     0.395 HD
ENDBRANCH   1   7
TORSDOF 1
ENDMDL
