MODEL 1
REMARK minimizedAffinity -3.13195372
REMARK minimizedRMSD -1
REMARK  0 active torsions:
REMARK  status: ('A' for Active; 'I' for Inactive)
ROOT
ATOM      1  C   UNL d   1       1.540   1.897   1.358  0.00  0.00     0.124 A 
ATOM      2  C1  UNL d   1       0.307   1.423   1.783  0.00  0.00     0.062 A 
ATOM      3  C2  UNL d   1      -0.474   0.643   0.934  0.00  0.00     0.162 A 
ATOM      4  C3  UNL d   1      -0.023   0.332  -0.349  0.00  0.00    -0.034 A 
ATOM      5  C4  UNL d   1       1.218   0.814  -0.769  0.00  0.00     0.162 A 
ATOM      6  C5  UNL d   1       1.995   1.592   0.083  0.00  0.00     0.062 A 
ATOM      7  F   UNL d   1       3.186   2.050  -0.330  0.00  0.00    -0.097 F 
ATOM      8  F1  UNL d   1       1.682   0.534  -1.996  0.00  0.00    -0.096 F 
ATOM      9  I   UNL d   1      -1.187  -0.833  -1.621  0.00  0.00    -0.060 I 
ATOM     10  F2  UNL d   1      -1.661   0.198   1.371  0.00  0.00    -0.096 F 
ATOM     11  F3  UNL d   1      -0.135   1.716   3.015  0.00  0.00    -0.097 F 
ATOM     12  F4  UNL d   1       2.289   2.647   2.177  0.00  0.00    -0.092 F 
ENDROOT
TORSDOF 0
ENDMDL
