MODEL 1
REMARK minimizedAffinity -2.24077463
REMARK minimizedRMSD -1
REMARK  0 active torsions:
REMARK  status: ('A' for Active; 'I' for Inactive)
ROOT
ATOM      1  C   UNL d   1       0.029  -1.492  -0.004  0.00  0.00     0.124 A 
ATOM      2  C1  UNL d   1      -0.698  -0.758   0.923  0.00  0.00     0.062 A 
ATOM      3  C2  UNL d   1      -0.296   0.530   1.267  0.00  0.00     0.162 A 
ATOM      4  C3  UNL d   1       0.838   1.092   0.682  0.00  0.00    -0.034 A 
ATOM      5  C4  UNL d   1       1.565   0.347  -0.249  0.00  0.00     0.162 A 
ATOM      6  C5  UNL d   1       1.159  -0.939  -0.589  0.00  0.00     0.062 A 
ATOM      7  F   UNL d   1       1.863  -1.647  -1.485  0.00  0.00    -0.097 F 
ATOM      8  F1  UNL d   1       2.660   0.858  -0.831  0.00  0.00    -0.096 F 
ATOM      9  I   UNL d   1       1.443   3.017   1.192  0.00  0.00    -0.060 I 
ATOM     10  F2  UNL d   1      -1.017   1.216   2.165  0.00  0.00    -0.096 F 
ATOM     11  F3  UNL d   1      -1.790  -1.290   1.491  0.00  0.00    -0.097 F 
ATOM     12  F4  UNL d   1      -0.359  -2.731  -0.332  0.00  0.00    -0.092 F 
ENDROOT
TORSDOF 0
ENDMDL
