MODEL 1
REMARK minimizedAffinity 6.89800882
REMARK minimizedRMSD -1
REMARK  0 active torsions:
REMARK  status: ('A' for Active; 'I' for Inactive)
ROOT
ATOM      1  C   UNL d   1      -3.578  -2.561  -2.339  0.00  0.00     0.124 A 
ATOM      2  C1  UNL d   1      -2.903  -1.894  -3.353  0.00  0.00     0.062 A 
ATOM      3  C2  UNL d   1      -1.720  -1.215  -3.076  0.00  0.00     0.162 A 
ATOM      4  C3  UNL d   1      -1.203  -1.199  -1.781  0.00  0.00    -0.034 A 
ATOM      5  C4  UNL d   1      -1.889  -1.870  -0.767  0.00  0.00     0.162 A 
ATOM      6  C5  UNL d   1      -3.071  -2.548  -1.048  0.00  0.00     0.062 A 
ATOM      7  F   UNL d   1      -3.722  -3.191  -0.067  0.00  0.00    -0.097 F 
ATOM      8  F1  UNL d   1      -1.420  -1.875   0.490  0.00  0.00    -0.096 F 
ATOM      9  I   UNL d   1       0.565  -0.184  -1.364  0.00  0.00    -0.060 I 
ATOM     10  F2  UNL d   1      -1.088  -0.580  -4.075  0.00  0.00    -0.096 F 
ATOM     11  F3  UNL d   1      -3.391  -1.904  -4.601  0.00  0.00    -0.097 F 
ATOM     12  F4  UNL d   1      -4.717  -3.213  -2.608  0.00  0.00    -0.092 F 
ENDROOT
TORSDOF 0
ENDMDL
