MODEL 1
REMARK minimizedAffinity -1.15544069
REMARK minimizedRMSD -1
REMARK  0 active torsions:
REMARK  status: ('A' for Active; 'I' for Inactive)
ROOT
ATOM      1  C   UNL d   1      -0.382  -0.782   0.107  0.00  0.00     0.124 A 
ATOM      2  C1  UNL d   1       0.903  -0.595  -0.382  0.00  0.00     0.062 A 
ATOM      3  C2  UNL d   1       1.672   0.477   0.061  0.00  0.00     0.162 A 
ATOM      4  C3  UNL d   1       1.157   1.371   1.001  0.00  0.00    -0.034 A 
ATOM      5  C4  UNL d   1      -0.137   1.177   1.487  0.00  0.00     0.162 A 
ATOM      6  C5  UNL d   1      -0.901   0.103   1.041  0.00  0.00     0.062 A 
ATOM      7  F   UNL d   1      -2.143  -0.076   1.515  0.00  0.00    -0.097 F 
ATOM      8  F1  UNL d   1      -0.662   2.017   2.391  0.00  0.00    -0.096 F 
ATOM      9  I   UNL d   1       2.303   2.975   1.666  0.00  0.00    -0.060 I 
ATOM     10  F2  UNL d   1       2.911   0.633  -0.428  0.00  0.00    -0.096 F 
ATOM     11  F3  UNL d   1       1.406  -1.449  -1.285  0.00  0.00    -0.097 F 
ATOM     12  F4  UNL d   1      -1.120  -1.814  -0.322  0.00  0.00    -0.092 F 
ENDROOT
TORSDOF 0
ENDMDL
