MODEL 1
REMARK minimizedAffinity -1.92957807
REMARK minimizedRMSD -1
REMARK  0 active torsions:
REMARK  status: ('A' for Active; 'I' for Inactive)
ROOT
ATOM      1  C   UNL d   1       2.286   1.948   1.787  0.00  0.00     0.124 A 
ATOM      2  C1  UNL d   1       2.599   1.765   0.447  0.00  0.00     0.062 A 
ATOM      3  C2  UNL d   1       1.821   0.926  -0.345  0.00  0.00     0.162 A 
ATOM      4  C3  UNL d   1       0.720   0.264   0.200  0.00  0.00    -0.034 A 
ATOM      5  C4  UNL d   1       0.412   0.452   1.549  0.00  0.00     0.162 A 
ATOM      6  C5  UNL d   1       1.194   1.292   2.336  0.00  0.00     0.062 A 
ATOM      7  F   UNL d   1       0.890   1.467   3.631  0.00  0.00    -0.097 F 
ATOM      8  F1  UNL d   1      -0.638  -0.169   2.105  0.00  0.00    -0.096 F 
ATOM      9  I   UNL d   1      -0.446  -0.991  -0.981  0.00  0.00    -0.060 I 
ATOM     10  F2  UNL d   1       2.146   0.768  -1.636  0.00  0.00    -0.096 F 
ATOM     11  F3  UNL d   1       3.655   2.397  -0.085  0.00  0.00    -0.097 F 
ATOM     12  F4  UNL d   1       3.037   2.755   2.548  0.00  0.00    -0.092 F 
ENDROOT
TORSDOF 0
ENDMDL
