MODEL 1
REMARK minimizedAffinity -1.86377633
REMARK minimizedRMSD -1
REMARK  0 active torsions:
REMARK  status: ('A' for Active; 'I' for Inactive)
ROOT
ATOM      1  C   UNL d   1       1.659   1.386   1.282  0.00  0.00     0.124 A 
ATOM      2  C1  UNL d   1       2.157   0.438   0.399  0.00  0.00     0.062 A 
ATOM      3  C2  UNL d   1       1.285  -0.344  -0.353  0.00  0.00     0.162 A 
ATOM      4  C3  UNL d   1      -0.095  -0.179  -0.227  0.00  0.00    -0.034 A 
ATOM      5  C4  UNL d   1      -0.588   0.776   0.663  0.00  0.00     0.162 A 
ATOM      6  C5  UNL d   1       0.288   1.554   1.413  0.00  0.00     0.062 A 
ATOM      7  F   UNL d   1      -0.195   2.470   2.266  0.00  0.00    -0.097 F 
ATOM      8  F1  UNL d   1      -1.908   0.960   0.809  0.00  0.00    -0.096 F 
ATOM      9  I   UNL d   1      -1.402  -1.345  -1.351  0.00  0.00    -0.060 I 
ATOM     10  F2  UNL d   1       1.793  -1.252  -1.199  0.00  0.00    -0.096 F 
ATOM     11  F3  UNL d   1       3.481   0.272   0.271  0.00  0.00    -0.097 F 
ATOM     12  F4  UNL d   1       2.500   2.136   2.006  0.00  0.00    -0.092 F 
ENDROOT
TORSDOF 0
ENDMDL
