MODEL 1
REMARK minimizedAffinity 0.147943586
REMARK minimizedRMSD -1
REMARK  0 active torsions:
REMARK  status: ('A' for Active; 'I' for Inactive)
ROOT
ATOM      1  C   UNL d   1       0.132  -0.822   0.078  0.00  0.00     0.124 A 
ATOM      2  C1  UNL d   1       1.253  -0.369  -0.604  0.00  0.00     0.062 A 
ATOM      3  C2  UNL d   1       1.892   0.800  -0.202  0.00  0.00     0.162 A 
ATOM      4  C3  UNL d   1       1.412   1.525   0.889  0.00  0.00    -0.034 A 
ATOM      5  C4  UNL d   1       0.284   1.064   1.569  0.00  0.00     0.162 A 
ATOM      6  C5  UNL d   1      -0.351  -0.106   1.164  0.00  0.00     0.062 A 
ATOM      7  F   UNL d   1      -1.434  -0.541   1.824  0.00  0.00    -0.097 F 
ATOM      8  F1  UNL d   1      -0.204   1.736   2.623  0.00  0.00    -0.096 F 
ATOM      9  I   UNL d   1       2.365   3.274   1.493  0.00  0.00    -0.060 I 
ATOM     10  F2  UNL d   1       2.973   1.214  -0.880  0.00  0.00    -0.096 F 
ATOM     11  F3  UNL d   1       1.721  -1.060  -1.654  0.00  0.00    -0.097 F 
ATOM     12  F4  UNL d   1      -0.482  -1.947  -0.311  0.00  0.00    -0.092 F 
ENDROOT
TORSDOF 0
ENDMDL
