MODEL 1
REMARK minimizedAffinity 2.57119775
REMARK minimizedRMSD -1
REMARK  0 active torsions:
REMARK  status: ('A' for Active; 'I' for Inactive)
ROOT
ATOM      1  C   UNL d   1      -0.802  -1.755  -1.353  0.00  0.00     0.124 A 
ATOM      2  C1  UNL d   1       0.531  -1.480  -1.084  0.00  0.00     0.062 A 
ATOM      3  C2  UNL d   1       0.878  -0.357  -0.338  0.00  0.00     0.162 A 
ATOM      4  C3  UNL d   1      -0.111   0.499   0.146  0.00  0.00    -0.034 A 
ATOM      5  C4  UNL d   1      -1.450   0.217  -0.130  0.00  0.00     0.162 A 
ATOM      6  C5  UNL d   1      -1.791  -0.906  -0.876  0.00  0.00     0.062 A 
ATOM      7  F   UNL d   1      -3.080  -1.170  -1.135  0.00  0.00    -0.097 F 
ATOM      8  F1  UNL d   1      -2.426   1.019   0.320  0.00  0.00    -0.096 F 
ATOM      9  I   UNL d   1       0.404   2.179   1.262  0.00  0.00    -0.060 I 
ATOM     10  F2  UNL d   1       2.175  -0.116  -0.093  0.00  0.00    -0.096 F 
ATOM     11  F3  UNL d   1       1.489  -2.298  -1.545  0.00  0.00    -0.097 F 
ATOM     12  F4  UNL d   1      -1.133  -2.835  -2.072  0.00  0.00    -0.092 F 
ENDROOT
TORSDOF 0
ENDMDL
