MODEL 1
REMARK minimizedAffinity 4.62760258
REMARK minimizedRMSD -1
REMARK  0 active torsions:
REMARK  status: ('A' for Active; 'I' for Inactive)
ROOT
ATOM      1  C   UNL d   1      -1.274  -0.023   1.283  0.00  0.00     0.124 A 
ATOM      2  C1  UNL d   1      -0.359   0.970   1.605  0.00  0.00     0.062 A 
ATOM      3  C2  UNL d   1       0.835   1.079   0.897  0.00  0.00     0.162 A 
ATOM      4  C3  UNL d   1       1.121   0.192  -0.141  0.00  0.00    -0.034 A 
ATOM      5  C4  UNL d   1       0.196  -0.805  -0.458  0.00  0.00     0.162 A 
ATOM      6  C5  UNL d   1      -0.995  -0.910   0.252  0.00  0.00     0.062 A 
ATOM      7  F   UNL d   1      -1.877  -1.870  -0.061  0.00  0.00    -0.097 F 
ATOM      8  F1  UNL d   1       0.440  -1.674  -1.451  0.00  0.00    -0.096 F 
ATOM      9  I   UNL d   1       2.904   0.351  -1.201  0.00  0.00    -0.060 I 
ATOM     10  F2  UNL d   1       1.700   2.048   1.230  0.00  0.00    -0.096 F 
ATOM     11  F3  UNL d   1      -0.625   1.827   2.601  0.00  0.00    -0.097 F 
ATOM     12  F4  UNL d   1      -2.421  -0.126   1.966  0.00  0.00    -0.092 F 
ENDROOT
TORSDOF 0
ENDMDL
