MODEL 1
REMARK minimizedAffinity 1.49912024
REMARK minimizedRMSD -1
REMARK  0 active torsions:
REMARK  status: ('A' for Active; 'I' for Inactive)
ROOT
ATOM      1  C   UNL d   1      -2.373  -1.312  -4.350  0.00  0.00     0.124 A 
ATOM      2  C1  UNL d   1      -3.271  -2.310  -4.706  0.00  0.00     0.062 A 
ATOM      3  C2  UNL d   1      -3.903  -3.066  -3.723  0.00  0.00     0.162 A 
ATOM      4  C3  UNL d   1      -3.640  -2.827  -2.374  0.00  0.00    -0.034 A 
ATOM      5  C4  UNL d   1      -2.735  -1.823  -2.024  0.00  0.00     0.162 A 
ATOM      6  C5  UNL d   1      -2.106  -1.070  -3.010  0.00  0.00     0.062 A 
ATOM      7  F   UNL d   1      -1.239  -0.107  -2.665  0.00  0.00    -0.097 F 
ATOM      8  F1  UNL d   1      -2.459  -1.568  -0.736  0.00  0.00    -0.096 F 
ATOM      9  I   UNL d   1      -4.582  -3.956  -0.901  0.00  0.00    -0.060 I 
ATOM     10  F2  UNL d   1      -4.765  -4.023  -4.095  0.00  0.00    -0.096 F 
ATOM     11  F3  UNL d   1      -3.530  -2.546  -6.000  0.00  0.00    -0.097 F 
ATOM     12  F4  UNL d   1      -1.766  -0.587  -5.298  0.00  0.00    -0.092 F 
ENDROOT
TORSDOF 0
ENDMDL
