MODEL 1
REMARK minimizedAffinity -1.40309632
REMARK minimizedRMSD -1
REMARK  0 active torsions:
REMARK  status: ('A' for Active; 'I' for Inactive)
ROOT
ATOM      1  C   UNL d   1      -0.670  -1.080  -1.466  0.00  0.00     0.124 A 
ATOM      2  C1  UNL d   1      -1.207  -1.503  -0.258  0.00  0.00     0.062 A 
ATOM      3  C2  UNL d   1      -2.424  -2.178  -0.231  0.00  0.00     0.162 A 
ATOM      4  C3  UNL d   1      -3.111  -2.437  -1.417  0.00  0.00    -0.034 A 
ATOM      5  C4  UNL d   1      -2.565  -2.007  -2.628  0.00  0.00     0.162 A 
ATOM      6  C5  UNL d   1      -1.349  -1.332  -2.649  0.00  0.00     0.062 A 
ATOM      7  F   UNL d   1      -0.831  -0.924  -3.817  0.00  0.00    -0.097 F 
ATOM      8  F1  UNL d   1      -3.200  -2.239  -3.787  0.00  0.00    -0.096 F 
ATOM      9  I   UNL d   1      -4.930  -3.447  -1.382  0.00  0.00    -0.060 I 
ATOM     10  F2  UNL d   1      -2.919  -2.576   0.950  0.00  0.00    -0.096 F 
ATOM     11  F3  UNL d   1      -0.553  -1.259   0.887  0.00  0.00    -0.097 F 
ATOM     12  F4  UNL d   1       0.500  -0.429  -1.488  0.00  0.00    -0.092 F 
ENDROOT
TORSDOF 0
ENDMDL
