MODEL 1
REMARK minimizedAffinity -4.30553722
REMARK minimizedRMSD -1
REMARK  0 active torsions:
REMARK  status: ('A' for Active; 'I' for Inactive)
ROOT
ATOM      1  C   UNL d   1       2.445   2.064   0.484  0.00  0.00     0.124 A 
ATOM      2  C1  UNL d   1       2.788   0.879  -0.152  0.00  0.00     0.062 A 
ATOM      3  C2  UNL d   1       1.828  -0.107  -0.361  0.00  0.00     0.162 A 
ATOM      4  C3  UNL d   1       0.514   0.089   0.065  0.00  0.00    -0.034 A 
ATOM      5  C4  UNL d   1       0.177   1.283   0.705  0.00  0.00     0.162 A 
ATOM      6  C5  UNL d   1       1.141   2.265   0.912  0.00  0.00     0.062 A 
ATOM      7  F   UNL d   1       0.807   3.409   1.527  0.00  0.00    -0.097 F 
ATOM      8  F1  UNL d   1      -1.076   1.503   1.128  0.00  0.00    -0.096 F 
ATOM      9  I   UNL d   1      -0.924  -1.382  -0.246  0.00  0.00    -0.060 I 
ATOM     10  F2  UNL d   1       2.188  -1.242  -0.979  0.00  0.00    -0.096 F 
ATOM     11  F3  UNL d   1       4.048   0.682  -0.566  0.00  0.00    -0.097 F 
ATOM     12  F4  UNL d   1       3.371   3.010   0.685  0.00  0.00    -0.092 F 
ENDROOT
TORSDOF 0
ENDMDL
