MODEL 1
REMARK minimizedAffinity -3.37048745
REMARK minimizedRMSD -1
REMARK  0 active torsions:
REMARK  status: ('A' for Active; 'I' for Inactive)
ROOT
ATOM      1  C   UNL d   1       2.102   2.449   0.874  0.00  0.00     0.124 A 
ATOM      2  C1  UNL d   1       0.720   2.391   0.984  0.00  0.00     0.062 A 
ATOM      3  C2  UNL d   1       0.029   1.269   0.537  0.00  0.00     0.162 A 
ATOM      4  C3  UNL d   1       0.719   0.195  -0.025  0.00  0.00    -0.034 A 
ATOM      5  C4  UNL d   1       2.109   0.261  -0.133  0.00  0.00     0.162 A 
ATOM      6  C5  UNL d   1       2.795   1.384   0.316  0.00  0.00     0.062 A 
ATOM      7  F   UNL d   1       4.131   1.438   0.209  0.00  0.00    -0.097 F 
ATOM      8  F1  UNL d   1       2.804  -0.755  -0.667  0.00  0.00    -0.096 F 
ATOM      9  I   UNL d   1      -0.312  -1.485  -0.695  0.00  0.00    -0.060 I 
ATOM     10  F2  UNL d   1      -1.307   1.240   0.656  0.00  0.00    -0.096 F 
ATOM     11  F3  UNL d   1       0.048   3.419   1.522  0.00  0.00    -0.097 F 
ATOM     12  F4  UNL d   1       2.765   3.530   1.305  0.00  0.00    -0.092 F 
ENDROOT
TORSDOF 0
ENDMDL
