MODEL 1
REMARK minimizedAffinity 1.09375024
REMARK minimizedRMSD -1
REMARK  0 active torsions:
REMARK  status: ('A' for Active; 'I' for Inactive)
ROOT
ATOM      1  C   UNL d   1       1.939   1.250   1.202  0.00  0.00     0.124 A 
ATOM      2  C1  UNL d   1       2.226   0.239   0.295  0.00  0.00     0.062 A 
ATOM      3  C2  UNL d   1       1.198  -0.524  -0.251  0.00  0.00     0.162 A 
ATOM      4  C3  UNL d   1      -0.128  -0.279   0.108  0.00  0.00    -0.034 A 
ATOM      5  C4  UNL d   1      -0.409   0.738   1.022  0.00  0.00     0.162 A 
ATOM      6  C5  UNL d   1       0.622   1.498   1.565  0.00  0.00     0.062 A 
ATOM      7  F   UNL d   1       0.343   2.474   2.441  0.00  0.00    -0.097 F 
ATOM      8  F1  UNL d   1      -1.672   1.000   1.389  0.00  0.00    -0.096 F 
ATOM      9  I   UNL d   1      -1.667  -1.418  -0.707  0.00  0.00    -0.060 I 
ATOM     10  F2  UNL d   1       1.504  -1.494  -1.126  0.00  0.00    -0.096 F 
ATOM     11  F3  UNL d   1       3.497  -0.003  -0.056  0.00  0.00    -0.097 F 
ATOM     12  F4  UNL d   1       2.930   1.982   1.727  0.00  0.00    -0.092 F 
ENDROOT
TORSDOF 0
ENDMDL
