MODEL 1
REMARK minimizedAffinity -0.446116269
REMARK minimizedRMSD -1
REMARK  0 active torsions:
REMARK  status: ('A' for Active; 'I' for Inactive)
ROOT
ATOM      1  C   UNL d   1       2.938   0.310   0.547  0.00  0.00     0.124 A 
ATOM      2  C1  UNL d   1       2.276   1.168   1.415  0.00  0.00     0.062 A 
ATOM      3  C2  UNL d   1       0.903   1.043   1.610  0.00  0.00     0.162 A 
ATOM      4  C3  UNL d   1       0.183   0.056   0.938  0.00  0.00    -0.034 A 
ATOM      5  C4  UNL d   1       0.856  -0.802   0.066  0.00  0.00     0.162 A 
ATOM      6  C5  UNL d   1       2.228  -0.674  -0.126  0.00  0.00     0.062 A 
ATOM      7  F   UNL d   1       2.866  -1.503  -0.965  0.00  0.00    -0.097 F 
ATOM      8  F1  UNL d   1       0.194  -1.762  -0.597  0.00  0.00    -0.096 F 
ATOM      9  I   UNL d   1      -1.869  -0.133   1.227  0.00  0.00    -0.060 I 
ATOM     10  F2  UNL d   1       0.290   1.886   2.455  0.00  0.00    -0.096 F 
ATOM     11  F3  UNL d   1       2.960   2.120   2.066  0.00  0.00    -0.097 F 
ATOM     12  F4  UNL d   1       4.258   0.433   0.360  0.00  0.00    -0.092 F 
ENDROOT
TORSDOF 0
ENDMDL
