MODEL 1
REMARK minimizedAffinity -2.84755826
REMARK minimizedRMSD -1
REMARK  0 active torsions:
REMARK  status: ('A' for Active; 'I' for Inactive)
ROOT
ATOM      1  C   UNL d   1       1.486   0.832   1.288  0.00  0.00     0.124 A 
ATOM      2  C1  UNL d   1       0.112   0.950   1.447  0.00  0.00     0.062 A 
ATOM      3  C2  UNL d   1      -0.752   0.240   0.618  0.00  0.00     0.162 A 
ATOM      4  C3  UNL d   1      -0.245  -0.595  -0.378  0.00  0.00    -0.034 A 
ATOM      5  C4  UNL d   1       1.138  -0.707  -0.533  0.00  0.00     0.162 A 
ATOM      6  C5  UNL d   1       1.998   0.004   0.299  0.00  0.00     0.062 A 
ATOM      7  F   UNL d   1       3.325  -0.111   0.144  0.00  0.00    -0.097 F 
ATOM      8  F1  UNL d   1       1.660  -1.501  -1.480  0.00  0.00    -0.096 F 
ATOM      9  I   UNL d   1      -1.533  -1.657  -1.620  0.00  0.00    -0.060 I 
ATOM     10  F2  UNL d   1      -2.075   0.374   0.794  0.00  0.00    -0.096 F 
ATOM     11  F3  UNL d   1      -0.385   1.750   2.401  0.00  0.00    -0.097 F 
ATOM     12  F4  UNL d   1       2.315   1.516   2.086  0.00  0.00    -0.092 F 
ENDROOT
TORSDOF 0
ENDMDL
