MODEL 1
REMARK minimizedAffinity 2.00961876
REMARK minimizedRMSD -1
REMARK  0 active torsions:
REMARK  status: ('A' for Active; 'I' for Inactive)
ROOT
ATOM      1  C2' OXE d   1       4.747   5.796   5.967  0.00  0.00     0.078 C 
ATOM      2  C1' OXE d   1       1.973   5.370   5.991  0.00  0.00     0.078 C 
ATOM      3  C1  OXE d   1       2.870   4.158   5.976  0.00  0.00    -0.078 A 
ATOM      4  C2  OXE d   1       4.226   4.376   5.917  0.00  0.00    -0.078 A 
ATOM      5  C3  OXE d   1       5.100   3.293   5.956  0.00  0.00     0.003 A 
ATOM      6  C4  OXE d   1       4.610   1.983   5.899  0.00  0.00    -0.002 A 
ATOM      7  C5  OXE d   1       3.232   1.739   5.918  0.00  0.00    -0.002 A 
ATOM      8  C6  OXE d   1       2.352   2.812   5.999  0.00  0.00     0.003 A 
ENDROOT
TORSDOF 0
ENDMDL
