MODEL 1
REMARK minimizedAffinity 1.06651497
REMARK minimizedRMSD -1
REMARK  0 active torsions:
REMARK  status: ('A' for Active; 'I' for Inactive)
ROOT
ATOM      1  C2' OXE d   1       5.307   4.877   5.275  0.00  0.00     0.078 C 
ATOM      2  C1' OXE d   1       2.591   4.988   5.977  0.00  0.00     0.078 C 
ATOM      3  C1  OXE d   1       3.216   3.627   5.797  0.00  0.00    -0.078 A 
ATOM      4  C2  OXE d   1       4.533   3.583   5.408  0.00  0.00    -0.078 A 
ATOM      5  C3  OXE d   1       5.173   2.353   5.281  0.00  0.00     0.003 A 
ATOM      6  C4  OXE d   1       4.448   1.161   5.396  0.00  0.00    -0.002 A 
ATOM      7  C5  OXE d   1       3.095   1.185   5.753  0.00  0.00    -0.002 A 
ATOM      8  C6  OXE d   1       2.477   2.406   5.999  0.00  0.00     0.003 A 
ENDROOT
TORSDOF 0
ENDMDL
