MODEL 1
REMARK minimizedAffinity 2.13663983
REMARK minimizedRMSD -1
REMARK  0 active torsions:
REMARK  status: ('A' for Active; 'I' for Inactive)
ROOT
ATOM      1  C2' OXE d   1       3.121   1.811   5.975  0.00  0.00     0.078 C 
ATOM      2  C1' OXE d   1       1.703   4.233   6.000  0.00  0.00     0.078 C 
ATOM      3  C1  OXE d   1       3.209   4.301   5.964  0.00  0.00    -0.078 A 
ATOM      4  C2  OXE d   1       3.896   3.111   5.999  0.00  0.00    -0.078 A 
ATOM      5  C3  OXE d   1       5.285   3.115   5.912  0.00  0.00     0.003 A 
ATOM      6  C4  OXE d   1       5.995   4.321   5.945  0.00  0.00    -0.002 A 
ATOM      7  C5  OXE d   1       5.315   5.544   5.950  0.00  0.00    -0.002 A 
ATOM      8  C6  OXE d   1       3.925   5.552   5.916  0.00  0.00     0.003 A 
ENDROOT
TORSDOF 0
ENDMDL
