MODEL 1
REMARK minimizedAffinity 6.03734779
REMARK minimizedRMSD -1
REMARK  0 active torsions:
REMARK  status: ('A' for Active; 'I' for Inactive)
ROOT
ATOM      1  C2' OXE d   1       2.184  -2.543  -2.962  0.00  0.00     0.078 C 
ATOM      2  C1' OXE d   1       1.582  -3.431  -0.368  0.00  0.00     0.078 C 
ATOM      3  C1  OXE d   1       2.268  -2.096  -0.513  0.00  0.00    -0.078 A 
ATOM      4  C2  OXE d   1       2.601  -1.691  -1.783  0.00  0.00    -0.078 A 
ATOM      5  C3  OXE d   1       3.186  -0.443  -1.977  0.00  0.00     0.003 A 
ATOM      6  C4  OXE d   1       3.577   0.335  -0.881  0.00  0.00    -0.002 A 
ATOM      7  C5  OXE d   1       3.282  -0.077   0.423  0.00  0.00    -0.002 A 
ATOM      8  C6  OXE d   1       2.592  -1.268   0.622  0.00  0.00     0.003 A 
ENDROOT
TORSDOF 0
ENDMDL
