MODEL 1
REMARK minimizedAffinity -3.65663457
REMARK minimizedRMSD -1
REMARK  0 active torsions:
REMARK  status: ('A' for Active; 'I' for Inactive)
ROOT
ATOM      1  C2' OXE d   1       2.621   1.193   5.999  0.00  0.00     0.078 C 
ATOM      2  C1' OXE d   1       1.947   3.918   6.000  0.00  0.00     0.078 C 
ATOM      3  C1  OXE d   1       3.300   3.528   5.461  0.00  0.00    -0.078 A 
ATOM      4  C2  OXE d   1       3.640   2.198   5.508  0.00  0.00    -0.078 A 
ATOM      5  C3  OXE d   1       4.855   1.777   4.973  0.00  0.00     0.003 A 
ATOM      6  C4  OXE d   1       5.796   2.714   4.530  0.00  0.00    -0.002 A 
ATOM      7  C5  OXE d   1       5.486   4.078   4.510  0.00  0.00    -0.002 A 
ATOM      8  C6  OXE d   1       4.229   4.497   4.932  0.00  0.00     0.003 A 
ENDROOT
TORSDOF 0
ENDMDL
