MODEL 1
REMARK minimizedAffinity 1.39894354
REMARK minimizedRMSD -1
REMARK  0 active torsions:
REMARK  status: ('A' for Active; 'I' for Inactive)
ROOT
ATOM      1  C2' OXE d   1       3.385   1.136   6.000  0.00  0.00     0.078 C 
ATOM      2  C1' OXE d   1       5.772   2.074   4.859  0.00  0.00     0.078 C 
ATOM      3  C1  OXE d   1       4.688   3.081   5.149  0.00  0.00    -0.078 A 
ATOM      4  C2  OXE d   1       3.505   2.607   5.663  0.00  0.00    -0.078 A 
ATOM      5  C3  OXE d   1       2.492   3.500   6.000  0.00  0.00     0.003 A 
ATOM      6  C4  OXE d   1       2.608   4.857   5.676  0.00  0.00    -0.002 A 
ATOM      7  C5  OXE d   1       3.789   5.355   5.115  0.00  0.00    -0.002 A 
ATOM      8  C6  OXE d   1       4.852   4.489   4.885  0.00  0.00     0.003 A 
ENDROOT
TORSDOF 0
ENDMDL
