MODEL 1
REMARK minimizedAffinity 3.91039181
REMARK minimizedRMSD -1
REMARK  0 active torsions:
REMARK  status: ('A' for Active; 'I' for Inactive)
ROOT
ATOM      1  C2' OXE d   1       2.138  -2.264   6.000  0.00  0.00     0.078 C 
ATOM      2  C1' OXE d   1       0.401  -1.114   4.118  0.00  0.00     0.078 C 
ATOM      3  C1  OXE d   1       0.093  -2.511   4.598  0.00  0.00    -0.078 A 
ATOM      4  C2  OXE d   1       0.974  -3.083   5.483  0.00  0.00    -0.078 A 
ATOM      5  C3  OXE d   1       0.708  -4.348   6.000  0.00  0.00     0.003 A 
ATOM      6  C4  OXE d   1      -0.364  -5.103   5.509  0.00  0.00    -0.002 A 
ATOM      7  C5  OXE d   1      -1.251  -4.554   4.578  0.00  0.00    -0.002 A 
ATOM      8  C6  OXE d   1      -1.061  -3.246   4.145  0.00  0.00     0.003 A 
ENDROOT
TORSDOF 0
ENDMDL
