MODEL 1
REMARK minimizedAffinity 14.1605511
REMARK minimizedRMSD -1
REMARK  0 active torsions:
REMARK  status: ('A' for Active; 'I' for Inactive)
ROOT
ATOM      1  C2' OXE d   1      -5.622   0.347  -4.888  0.00  0.00     0.078 C 
ATOM      2  C1' OXE d   1      -2.899   0.675  -4.291  0.00  0.00     0.078 C 
ATOM      3  C1  OXE d   1      -3.790   1.887  -4.196  0.00  0.00    -0.078 A 
ATOM      4  C2  OXE d   1      -5.112   1.728  -4.535  0.00  0.00    -0.078 A 
ATOM      5  C3  OXE d   1      -5.990   2.802  -4.412  0.00  0.00     0.003 A 
ATOM      6  C4  OXE d   1      -5.508   4.078  -4.095  0.00  0.00    -0.002 A 
ATOM      7  C5  OXE d   1      -4.158   4.270  -3.784  0.00  0.00    -0.002 A 
ATOM      8  C6  OXE d   1      -3.296   3.179  -3.789  0.00  0.00     0.003 A 
ENDROOT
TORSDOF 0
ENDMDL
