MODEL 1
REMARK minimizedAffinity -1.18009865
REMARK minimizedRMSD -1
REMARK  0 active torsions:
REMARK  status: ('A' for Active; 'I' for Inactive)
ROOT
ATOM      1  C2' OXE d   1       4.897   2.003   2.564  0.00  0.00     0.078 C 
ATOM      2  C1' OXE d   1       3.384   1.323   4.829  0.00  0.00     0.078 C 
ATOM      3  C1  OXE d   1       4.164   2.614   4.865  0.00  0.00    -0.078 A 
ATOM      4  C2  OXE d   1       4.939   2.915   3.771  0.00  0.00    -0.078 A 
ATOM      5  C3  OXE d   1       5.635   4.120   3.730  0.00  0.00     0.003 A 
ATOM      6  C4  OXE d   1       5.676   4.953   4.854  0.00  0.00    -0.002 A 
ATOM      7  C5  OXE d   1       4.926   4.645   5.994  0.00  0.00    -0.002 A 
ATOM      8  C6  OXE d   1       4.133   3.503   6.000  0.00  0.00     0.003 A 
ENDROOT
TORSDOF 0
ENDMDL
