MODEL 1
REMARK minimizedAffinity 2.16780186
REMARK minimizedRMSD -1
REMARK  0 active torsions:
REMARK  status: ('A' for Active; 'I' for Inactive)
ROOT
ATOM      1  C2' OXE d   1       3.340   1.285   5.187  0.00  0.00     0.078 C 
ATOM      2  C1' OXE d   1       5.608   2.065   3.728  0.00  0.00     0.078 C 
ATOM      3  C1  OXE d   1       4.888   3.122   4.528  0.00  0.00    -0.078 A 
ATOM      4  C2  OXE d   1       3.753   2.741   5.201  0.00  0.00    -0.078 A 
ATOM      5  C3  OXE d   1       3.082   3.664   5.998  0.00  0.00     0.003 A 
ATOM      6  C4  OXE d   1       3.464   5.011   5.998  0.00  0.00    -0.002 A 
ATOM      7  C5  OXE d   1       4.594   5.428   5.288  0.00  0.00    -0.002 A 
ATOM      8  C6  OXE d   1       5.341   4.490   4.583  0.00  0.00     0.003 A 
ENDROOT
TORSDOF 0
ENDMDL
