MODEL 1
REMARK minimizedAffinity -4.36698389
REMARK minimizedRMSD -1
REMARK  0 active torsions:
REMARK  status: ('A' for Active; 'I' for Inactive)
ROOT
ATOM      1  C   UNL d   1      -3.145   0.795   1.497  0.00  0.00     0.077 C 
ATOM      2  C1  UNL d   1      -1.667   0.579   1.362  0.00  0.00    -0.074 A 
ATOM      3  C2  UNL d   1      -0.855   0.441   2.493  0.00  0.00    -0.005 A 
ATOM      4  C3  UNL d   1       0.517   0.231   2.352  0.00  0.00     0.006 A 
ATOM      5  C4  UNL d   1       1.089   0.157   1.082  0.00  0.00    -0.005 A 
ATOM      6  C5  UNL d   1       0.293   0.292  -0.060  0.00  0.00    -0.074 A 
ATOM      7  C6  UNL d   1       0.891   0.205  -1.433  0.00  0.00     0.077 C 
ATOM      8  C7  UNL d   1      -1.085   0.495   0.090  0.00  0.00    -0.001 A 
ENDROOT
TORSDOF 0
ENDMDL
