MODEL 1
REMARK minimizedAffinity -5.04369259
REMARK minimizedRMSD -1
REMARK  0 active torsions:
REMARK  status: ('A' for Active; 'I' for Inactive)
ROOT
ATOM      1  C   UNL d   1      -2.588  -0.146   2.128  0.00  0.00     0.077 C 
ATOM      2  C1  UNL d   1      -1.168   0.032   1.679  0.00  0.00    -0.074 A 
ATOM      3  C2  UNL d   1      -0.123   0.100   2.606  0.00  0.00    -0.005 A 
ATOM      4  C3  UNL d   1       1.193   0.256   2.173  0.00  0.00     0.006 A 
ATOM      5  C4  UNL d   1       1.478   0.344   0.809  0.00  0.00    -0.005 A 
ATOM      6  C5  UNL d   1       0.447   0.277  -0.133  0.00  0.00    -0.074 A 
ATOM      7  C6  UNL d   1       0.737   0.360  -1.602  0.00  0.00     0.077 C 
ATOM      8  C7  UNL d   1      -0.873   0.113   0.311  0.00  0.00    -0.001 A 
ENDROOT
TORSDOF 0
ENDMDL
