MODEL 1
REMARK minimizedAffinity -5.41423512
REMARK minimizedRMSD -1
REMARK  0 active torsions:
REMARK  status: ('A' for Active; 'I' for Inactive)
ROOT
ATOM      1  C   UNL d   1      -1.440  -0.947   3.199  0.00  0.00     0.077 C 
ATOM      2  C1  UNL d   1      -0.440  -0.364   2.245  0.00  0.00    -0.074 A 
ATOM      3  C2  UNL d   1       0.842  -0.009   2.676  0.00  0.00    -0.005 A 
ATOM      4  C3  UNL d   1       1.765   0.524   1.776  0.00  0.00     0.006 A 
ATOM      5  C4  UNL d   1       1.415   0.707   0.437  0.00  0.00    -0.005 A 
ATOM      6  C5  UNL d   1       0.138   0.357  -0.012  0.00  0.00    -0.074 A 
ATOM      7  C6  UNL d   1      -0.251   0.538  -1.450  0.00  0.00     0.077 C 
ATOM      8  C7  UNL d   1      -0.781  -0.184   0.897  0.00  0.00    -0.001 A 
ENDROOT
TORSDOF 0
ENDMDL
