MODEL 1
REMARK minimizedAffinity -5.42815399
REMARK minimizedRMSD -1
REMARK  0 active torsions:
REMARK  status: ('A' for Active; 'I' for Inactive)
ROOT
ATOM      1  C   UNL d   1       4.015  -0.460  -2.941  0.00  0.00     0.077 C 
ATOM      2  C1  UNL d   1       2.540  -0.702  -2.822  0.00  0.00    -0.074 A 
ATOM      3  C2  UNL d   1       1.923  -1.739  -3.530  0.00  0.00    -0.005 A 
ATOM      4  C3  UNL d   1       0.551  -1.958  -3.402  0.00  0.00     0.006 A 
ATOM      5  C4  UNL d   1      -0.216  -1.145  -2.568  0.00  0.00    -0.005 A 
ATOM      6  C5  UNL d   1       0.384  -0.104  -1.852  0.00  0.00    -0.074 A 
ATOM      7  C6  UNL d   1      -0.424   0.773  -0.942  0.00  0.00     0.077 C 
ATOM      8  C7  UNL d   1       1.764   0.106  -1.980  0.00  0.00    -0.001 A 
ENDROOT
TORSDOF 0
ENDMDL
