MODEL 1
REMARK minimizedAffinity -4.40179873
REMARK minimizedRMSD -1
REMARK  0 active torsions:
REMARK  status: ('A' for Active; 'I' for Inactive)
ROOT
ATOM      1  C   UNL d   1      -1.055  -0.661   3.605  0.00  0.00     0.077 C 
ATOM      2  C1  UNL d   1      -0.182   0.086   2.641  0.00  0.00    -0.074 A 
ATOM      3  C2  UNL d   1       0.835   0.931   3.098  0.00  0.00    -0.005 A 
ATOM      4  C3  UNL d   1       1.645   1.611   2.189  0.00  0.00     0.006 A 
ATOM      5  C4  UNL d   1       1.447   1.455   0.817  0.00  0.00    -0.005 A 
ATOM      6  C5  UNL d   1       0.436   0.615   0.341  0.00  0.00    -0.074 A 
ATOM      7  C6  UNL d   1       0.216   0.428  -1.131  0.00  0.00     0.077 C 
ATOM      8  C7  UNL d   1      -0.370  -0.071   1.260  0.00  0.00    -0.001 A 
ENDROOT
TORSDOF 0
ENDMDL
