MODEL 1
REMARK minimizedAffinity -5.49943066
REMARK minimizedRMSD -1
REMARK  0 active torsions:
REMARK  status: ('A' for Active; 'I' for Inactive)
ROOT
ATOM      1  C   UNL d   1       0.736   0.376   0.008  0.00  0.00     0.077 C 
ATOM      2  C1  UNL d   1       1.196  -0.089  -1.342  0.00  0.00    -0.074 A 
ATOM      3  C2  UNL d   1       0.300  -0.668  -2.246  0.00  0.00    -0.005 A 
ATOM      4  C3  UNL d   1       0.739  -1.087  -3.502  0.00  0.00     0.006 A 
ATOM      5  C4  UNL d   1       2.077  -0.931  -3.866  0.00  0.00    -0.005 A 
ATOM      6  C5  UNL d   1       2.988  -0.352  -2.976  0.00  0.00    -0.074 A 
ATOM      7  C6  UNL d   1       4.427  -0.168  -3.355  0.00  0.00     0.077 C 
ATOM      8  C7  UNL d   1       2.537   0.072  -1.718  0.00  0.00    -0.001 A 
ENDROOT
TORSDOF 0
ENDMDL
