MODEL 1
REMARK minimizedAffinity -5.93546963
REMARK minimizedRMSD -1
REMARK  0 active torsions:
REMARK  status: ('A' for Active; 'I' for Inactive)
ROOT
ATOM      1  C   UNL d   1       0.343  -0.761   2.592  0.00  0.00     0.077 C 
ATOM      2  C1  UNL d   1      -0.668  -0.273   1.598  0.00  0.00    -0.074 A 
ATOM      3  C2  UNL d   1      -2.031  -0.249   1.912  0.00  0.00    -0.005 A 
ATOM      4  C3  UNL d   1      -2.959   0.216   0.981  0.00  0.00     0.006 A 
ATOM      5  C4  UNL d   1      -2.535   0.661  -0.272  0.00  0.00    -0.005 A 
ATOM      6  C5  UNL d   1      -1.177   0.644  -0.604  0.00  0.00    -0.074 A 
ATOM      7  C6  UNL d   1      -0.703   1.128  -1.943  0.00  0.00     0.077 C 
ATOM      8  C7  UNL d   1      -0.249   0.182   0.340  0.00  0.00    -0.001 A 
ENDROOT
TORSDOF 0
ENDMDL
