MODEL 1
REMARK minimizedAffinity -6.27560139
REMARK minimizedRMSD -1
REMARK  0 active torsions:
REMARK  status: ('A' for Active; 'I' for Inactive)
ROOT
ATOM      1  C   UNL d   1       1.350   0.556  -0.657  0.00  0.00     0.077 C 
ATOM      2  C1  UNL d   1       0.506   0.333   0.563  0.00  0.00    -0.074 A 
ATOM      3  C2  UNL d   1       1.083   0.282   1.836  0.00  0.00    -0.005 A 
ATOM      4  C3  UNL d   1       0.285   0.083   2.963  0.00  0.00     0.006 A 
ATOM      5  C4  UNL d   1      -1.096  -0.066   2.828  0.00  0.00    -0.005 A 
ATOM      6  C5  UNL d   1      -1.691  -0.017   1.563  0.00  0.00    -0.074 A 
ATOM      7  C6  UNL d   1      -3.175  -0.166   1.401  0.00  0.00     0.077 C 
ATOM      8  C7  UNL d   1      -0.883   0.190   0.437  0.00  0.00    -0.001 A 
ENDROOT
TORSDOF 0
ENDMDL
