MODEL 1
REMARK minimizedAffinity -4.64700508
REMARK minimizedRMSD -1
REMARK  0 active torsions:
REMARK  status: ('A' for Active; 'I' for Inactive)
ROOT
ATOM      1  C   UNL d   1       0.353   1.534   3.381  0.00  0.00     0.077 C 
ATOM      2  C1  UNL d   1      -0.037   0.408   2.469  0.00  0.00    -0.074 A 
ATOM      3  C2  UNL d   1      -0.670  -0.735   2.969  0.00  0.00    -0.005 A 
ATOM      4  C3  UNL d   1      -1.036  -1.769   2.107  0.00  0.00     0.006 A 
ATOM      5  C4  UNL d   1      -0.773  -1.671   0.740  0.00  0.00    -0.005 A 
ATOM      6  C5  UNL d   1      -0.142  -0.535   0.223  0.00  0.00    -0.074 A 
ATOM      7  C6  UNL d   1       0.138  -0.410  -1.245  0.00  0.00     0.077 C 
ATOM      8  C7  UNL d   1       0.216   0.503   1.094  0.00  0.00    -0.001 A 
ENDROOT
TORSDOF 0
ENDMDL
