MODEL 1
REMARK minimizedAffinity -3.73993993
REMARK minimizedRMSD -1
REMARK  0 active torsions:
REMARK  status: ('A' for Active; 'I' for Inactive)
ROOT
ATOM      1  C   UNL d   1       0.041   0.493  -1.876  0.00  0.00     0.077 C 
ATOM      2  C1  UNL d   1       0.787   0.621  -0.581  0.00  0.00    -0.074 A 
ATOM      3  C2  UNL d   1       0.459  -0.176   0.520  0.00  0.00    -0.005 A 
ATOM      4  C3  UNL d   1       1.167  -0.052   1.715  0.00  0.00     0.006 A 
ATOM      5  C4  UNL d   1       2.210   0.869   1.821  0.00  0.00    -0.005 A 
ATOM      6  C5  UNL d   1       2.553   1.675   0.731  0.00  0.00    -0.074 A 
ATOM      7  C6  UNL d   1       3.678   2.663   0.825  0.00  0.00     0.077 C 
ATOM      8  C7  UNL d   1       1.841   1.539  -0.469  0.00  0.00    -0.001 A 
ENDROOT
TORSDOF 0
ENDMDL
