MODEL 1
REMARK minimizedAffinity -0.173810869
REMARK minimizedRMSD -1
REMARK  0 active torsions:
REMARK  status: ('A' for Active; 'I' for Inactive)
ROOT
ATOM      1  C   UNL d   1       1.401   0.270   0.224  0.00  0.00     0.077 C 
ATOM      2  C1  UNL d   1       0.672   0.648   1.479  0.00  0.00    -0.074 A 
ATOM      3  C2  UNL d   1      -0.586   0.112   1.769  0.00  0.00    -0.005 A 
ATOM      4  C3  UNL d   1      -1.248   0.467   2.944  0.00  0.00     0.006 A 
ATOM      5  C4  UNL d   1      -0.658   1.359   3.841  0.00  0.00    -0.005 A 
ATOM      6  C5  UNL d   1       0.600   1.904   3.569  0.00  0.00    -0.074 A 
ATOM      7  C6  UNL d   1       1.252   2.857   4.526  0.00  0.00     0.077 C 
ATOM      8  C7  UNL d   1       1.262   1.538   2.388  0.00  0.00    -0.001 A 
ENDROOT
TORSDOF 0
ENDMDL
