MODEL 1
REMARK minimizedAffinity -4.95156622
REMARK minimizedRMSD -1
REMARK  0 active torsions:
REMARK  status: ('A' for Active; 'I' for Inactive)
ROOT
ATOM      1  C   UNL d   1       0.361   0.057  -1.140  0.00  0.00     0.077 C 
ATOM      2  C1  UNL d   1       0.315   0.166   0.355  0.00  0.00    -0.074 A 
ATOM      3  C2  UNL d   1       1.460   0.494   1.087  0.00  0.00    -0.005 A 
ATOM      4  C3  UNL d   1       1.400   0.601   2.477  0.00  0.00     0.006 A 
ATOM      5  C4  UNL d   1       0.195   0.382   3.147  0.00  0.00    -0.005 A 
ATOM      6  C5  UNL d   1      -0.960   0.054   2.431  0.00  0.00    -0.074 A 
ATOM      7  C6  UNL d   1      -2.265  -0.175   3.134  0.00  0.00     0.077 C 
ATOM      8  C7  UNL d   1      -0.893  -0.045   1.034  0.00  0.00    -0.001 A 
ENDROOT
TORSDOF 0
ENDMDL
