MODEL 1
REMARK minimizedAffinity -4.61500216
REMARK minimizedRMSD -1
REMARK  0 active torsions:
REMARK  status: ('A' for Active; 'I' for Inactive)
ROOT
ATOM      1  C   UNL d   1      -0.398   0.336  -1.179  0.00  0.00     0.077 C 
ATOM      2  C1  UNL d   1      -0.311  -0.097   0.255  0.00  0.00    -0.074 A 
ATOM      3  C2  UNL d   1      -1.313  -0.886   0.829  0.00  0.00    -0.005 A 
ATOM      4  C3  UNL d   1      -1.214  -1.289   2.161  0.00  0.00     0.006 A 
ATOM      5  C4  UNL d   1      -0.113  -0.908   2.930  0.00  0.00    -0.005 A 
ATOM      6  C5  UNL d   1       0.899  -0.121   2.372  0.00  0.00    -0.074 A 
ATOM      7  C6  UNL d   1       2.093   0.289   3.182  0.00  0.00     0.077 C 
ATOM      8  C7  UNL d   1       0.795   0.274   1.032  0.00  0.00    -0.001 A 
ENDROOT
TORSDOF 0
ENDMDL
