MODEL 1
REMARK minimizedAffinity -2.90259552
REMARK minimizedRMSD -1
REMARK  1 active torsions:
REMARK  status: ('A' for Active; 'I' for Inactive)
REMARK    1  A    between atoms: C1_2  and  C2_3 
ROOT
ATOM      1  C2  UNL d   1      -0.156  -1.093   0.683  0.00  0.00    -0.077 A 
ATOM      2  C3  UNL d   1       1.107  -0.668   0.249  0.00  0.00     0.002 A 
ATOM      3  C4  UNL d   1       1.266   0.586  -0.343  0.00  0.00     0.002 A 
ATOM      4  C5  UNL d   1       0.166   1.427  -0.503  0.00  0.00    -0.004 A 
ATOM      5  C6  UNL d   1      -1.095   1.013  -0.076  0.00  0.00     0.002 A 
ATOM      6  C7  UNL d   1      -1.255  -0.241   0.515  0.00  0.00     0.002 A 
ENDROOT
BRANCH   1   7
ATOM      7  C1  UNL d   1      -0.321  -2.425   1.367  0.00  0.00     0.055 C 
ATOM      8  C   UNL d   1      -1.769  -2.892   1.330  0.00  0.00     0.019 C 
ENDBRANCH   1   7
TORSDOF 1
ENDMDL
