MODEL 1
REMARK minimizedAffinity -4.54248238
REMARK minimizedRMSD -1
REMARK  1 active torsions:
REMARK  status: ('A' for Active; 'I' for Inactive)
REMARK    1  A    between atoms: C1_2  and  C2_3 
ROOT
ATOM      1  C2  UNL d   1       0.257   0.464   0.024  0.00  0.00    -0.077 A 
ATOM      2  C3  UNL d   1       1.285  -0.437   0.338  0.00  0.00     0.002 A 
ATOM      3  C4  UNL d   1       0.983  -1.731   0.766  0.00  0.00     0.002 A 
ATOM      4  C5  UNL d   1      -0.345  -2.137   0.881  0.00  0.00    -0.004 A 
ATOM      5  C6  UNL d   1      -1.374  -1.248   0.573  0.00  0.00     0.002 A 
ATOM      6  C7  UNL d   1      -1.074   0.046   0.146  0.00  0.00     0.002 A 
ENDROOT
BRANCH   1   7
ATOM      7  C1  UNL d   1       0.581   1.844  -0.485  0.00  0.00     0.055 C 
ATOM      8  C   UNL d   1       0.905   1.824  -1.971  0.00  0.00     0.019 C 
ENDBRANCH   1   7
TORSDOF 1
ENDMDL
