MODEL 1
REMARK minimizedAffinity -4.65914822
REMARK minimizedRMSD -1
REMARK  1 active torsions:
REMARK  status: ('A' for Active; 'I' for Inactive)
REMARK    1  A    between atoms: C1_2  and  C2_3 
ROOT
ATOM      1  C2  UNL d   1      -0.006  -0.268   0.252  0.00  0.00    -0.077 A 
ATOM      2  C3  UNL d   1      -1.406  -0.277   0.325  0.00  0.00     0.002 A 
ATOM      3  C4  UNL d   1      -2.091  -1.462   0.598  0.00  0.00     0.002 A 
ATOM      4  C5  UNL d   1      -1.386  -2.645   0.804  0.00  0.00    -0.004 A 
ATOM      5  C6  UNL d   1       0.007  -2.647   0.731  0.00  0.00     0.002 A 
ATOM      6  C7  UNL d   1       0.694  -1.464   0.457  0.00  0.00     0.002 A 
ENDROOT
BRANCH   1   7
ATOM      7  C1  UNL d   1       0.738   1.019   0.006  0.00  0.00     0.055 C 
ATOM      8  C   UNL d   1       0.737   1.385  -1.471  0.00  0.00     0.019 C 
ENDBRANCH   1   7
TORSDOF 1
ENDMDL
