MODEL 1
REMARK minimizedAffinity -5.40169334
REMARK minimizedRMSD -1
REMARK  1 active torsions:
REMARK  status: ('A' for Active; 'I' for Inactive)
REMARK    1  A    between atoms: C1_2  and  C2_3 
ROOT
ATOM      1  C2  UNL d   1      -1.093  -0.451   0.386  0.00  0.00    -0.077 A 
ATOM      2  C3  UNL d   1       0.130   0.005  -0.127  0.00  0.00     0.002 A 
ATOM      3  C4  UNL d   1       0.377   1.373  -0.253  0.00  0.00     0.002 A 
ATOM      4  C5  UNL d   1      -0.592   2.296   0.136  0.00  0.00    -0.004 A 
ATOM      5  C6  UNL d   1      -1.812   1.853   0.646  0.00  0.00     0.002 A 
ATOM      6  C7  UNL d   1      -2.061   0.485   0.771  0.00  0.00     0.002 A 
ENDROOT
BRANCH   1   7
ATOM      7  C1  UNL d   1      -1.342  -1.925   0.568  0.00  0.00     0.055 C 
ATOM      8  C   UNL d   1      -0.407  -2.520   1.612  0.00  0.00     0.019 C 
ENDBRANCH   1   7
TORSDOF 1
ENDMDL
