MODEL 1
REMARK minimizedAffinity -3.21147084
REMARK minimizedRMSD -1
REMARK  1 active torsions:
REMARK  status: ('A' for Active; 'I' for Inactive)
REMARK    1  A    between atoms: C1_2  and  C2_3 
ROOT
ATOM      1  C2  UNL d   1       0.137  -0.350  -0.057  0.00  0.00    -0.077 A 
ATOM      2  C3  UNL d   1       0.841  -1.410   0.531  0.00  0.00     0.002 A 
ATOM      3  C4  UNL d   1       0.158  -2.514   1.044  0.00  0.00     0.002 A 
ATOM      4  C5  UNL d   1      -1.232  -2.571   0.971  0.00  0.00    -0.004 A 
ATOM      5  C6  UNL d   1      -1.942  -1.521   0.390  0.00  0.00     0.002 A 
ATOM      6  C7  UNL d   1      -1.261  -0.416  -0.122  0.00  0.00     0.002 A 
ENDROOT
BRANCH   1   7
ATOM      7  C1  UNL d   1       0.875   0.819  -0.655  0.00  0.00     0.055 C 
ATOM      8  C   UNL d   1       0.493   1.028  -2.113  0.00  0.00     0.019 C 
ENDBRANCH   1   7
TORSDOF 1
ENDMDL
