MODEL 1
REMARK minimizedAffinity -3.59227061
REMARK minimizedRMSD -1
REMARK  1 active torsions:
REMARK  status: ('A' for Active; 'I' for Inactive)
REMARK    1  A    between atoms: C1_2  and  C2_3 
ROOT
ATOM      1  C2  UNL d   1      -0.509  -0.969   0.774  0.00  0.00    -0.077 A 
ATOM      2  C3  UNL d   1       0.759  -0.756   0.214  0.00  0.00     0.002 A 
ATOM      3  C4  UNL d   1       1.076   0.473  -0.366  0.00  0.00     0.002 A 
ATOM      4  C5  UNL d   1       0.134   1.499  -0.389  0.00  0.00    -0.004 A 
ATOM      5  C6  UNL d   1      -1.130   1.296   0.164  0.00  0.00     0.002 A 
ATOM      6  C7  UNL d   1      -1.450   0.068   0.743  0.00  0.00     0.002 A 
ENDROOT
BRANCH   1   7
ATOM      7  C1  UNL d   1      -0.837  -2.278   1.445  0.00  0.00     0.055 C 
ATOM      8  C   UNL d   1      -0.023  -2.467   2.717  0.00  0.00     0.019 C 
ENDBRANCH   1   7
TORSDOF 1
ENDMDL
