MODEL 1
REMARK minimizedAffinity -3.4685328
REMARK minimizedRMSD -1
REMARK  1 active torsions:
REMARK  status: ('A' for Active; 'I' for Inactive)
REMARK    1  A    between atoms: C1_2  and  C2_3 
ROOT
ATOM      1  C2  UNL d   1       0.337   1.046  -1.297  0.00  0.00    -0.077 A 
ATOM      2  C3  UNL d   1       1.547   1.752  -1.361  0.00  0.00     0.002 A 
ATOM      3  C4  UNL d   1       1.954   2.350  -2.555  0.00  0.00     0.002 A 
ATOM      4  C5  UNL d   1       1.155   2.253  -3.692  0.00  0.00    -0.004 A 
ATOM      5  C6  UNL d   1      -0.049   1.552  -3.640  0.00  0.00     0.002 A 
ATOM      6  C7  UNL d   1      -0.457   0.952  -2.448  0.00  0.00     0.002 A 
ENDROOT
BRANCH   1   7
ATOM      7  C1  UNL d   1      -0.128   0.442   0.002  0.00  0.00     0.055 C 
ATOM      8  C   UNL d   1       0.230  -1.035   0.085  0.00  0.00     0.019 C 
ENDBRANCH   1   7
TORSDOF 1
ENDMDL
