MODEL 1
REMARK minimizedAffinity -4.99724102
REMARK minimizedRMSD -1
REMARK  1 active torsions:
REMARK  status: ('A' for Active; 'I' for Inactive)
REMARK    1  A    between atoms: C1_2  and  C2_3 
ROOT
ATOM      1  C2  UNL d   1       0.388   0.089  -0.076  0.00  0.00    -0.077 A 
ATOM      2  C3  UNL d   1       0.923  -1.157   0.280  0.00  0.00     0.002 A 
ATOM      3  C4  UNL d   1       0.107  -2.142   0.840  0.00  0.00     0.002 A 
ATOM      4  C5  UNL d   1      -1.249  -1.893   1.045  0.00  0.00    -0.004 A 
ATOM      5  C6  UNL d   1      -1.790  -0.656   0.695  0.00  0.00     0.002 A 
ATOM      6  C7  UNL d   1      -0.976   0.330   0.137  0.00  0.00     0.002 A 
ENDROOT
BRANCH   1   7
ATOM      7  C1  UNL d   1       1.256   1.135  -0.726  0.00  0.00     0.055 C 
ATOM      8  C   UNL d   1       1.016   1.198  -2.227  0.00  0.00     0.019 C 
ENDBRANCH   1   7
TORSDOF 1
ENDMDL
