MODEL 1
REMARK minimizedAffinity -3.36811209
REMARK minimizedRMSD -1
REMARK  1 active torsions:
REMARK  status: ('A' for Active; 'I' for Inactive)
REMARK    1  A    between atoms: C1_2  and  C2_3 
ROOT
ATOM      1  C2  UNL d   1      -0.232  -0.602   0.482  0.00  0.00    -0.077 A 
ATOM      2  C3  UNL d   1      -0.351  -1.780   1.233  0.00  0.00     0.002 A 
ATOM      3  C4  UNL d   1      -1.539  -2.514   1.212  0.00  0.00     0.002 A 
ATOM      4  C5  UNL d   1      -2.614  -2.081   0.440  0.00  0.00    -0.004 A 
ATOM      5  C6  UNL d   1      -2.507  -0.909  -0.309  0.00  0.00     0.002 A 
ATOM      6  C7  UNL d   1      -1.321  -0.174  -0.288  0.00  0.00     0.002 A 
ENDROOT
BRANCH   1   7
ATOM      7  C1  UNL d   1       1.064   0.164   0.465  0.00  0.00     0.055 C 
ATOM      8  C   UNL d   1       1.377   0.691  -0.928  0.00  0.00     0.019 C 
ENDBRANCH   1   7
TORSDOF 1
ENDMDL
