MODEL 1
REMARK minimizedAffinity -5.45355892
REMARK minimizedRMSD -1
REMARK  1 active torsions:
REMARK  status: ('A' for Active; 'I' for Inactive)
REMARK    1  A    between atoms: C1_2  and  C2_3 
ROOT
ATOM      1  C2  UNL d   1      -0.363   0.109   0.398  0.00  0.00    -0.077 A 
ATOM      2  C3  UNL d   1      -1.508   0.616   1.029  0.00  0.00     0.002 A 
ATOM      3  C4  UNL d   1      -2.378  -0.241   1.706  0.00  0.00     0.002 A 
ATOM      4  C5  UNL d   1      -2.110  -1.607   1.763  0.00  0.00    -0.004 A 
ATOM      5  C6  UNL d   1      -0.975  -2.120   1.136  0.00  0.00     0.002 A 
ATOM      6  C7  UNL d   1      -0.105  -1.266   0.458  0.00  0.00     0.002 A 
ENDROOT
BRANCH   1   7
ATOM      7  C1  UNL d   1       0.603   1.038  -0.292  0.00  0.00     0.055 C 
ATOM      8  C   UNL d   1       0.290   1.158  -1.776  0.00  0.00     0.019 C 
ENDBRANCH   1   7
TORSDOF 1
ENDMDL
