MODEL 1
REMARK minimizedAffinity -4.44598198
REMARK minimizedRMSD -1
REMARK  1 active torsions:
REMARK  status: ('A' for Active; 'I' for Inactive)
REMARK    1  A    between atoms: C1_2  and  C2_3 
ROOT
ATOM      1  C2  UNL d   1      -0.480  -0.875   0.168  0.00  0.00    -0.077 A 
ATOM      2  C3  UNL d   1      -1.792  -1.282  -0.109  0.00  0.00     0.002 A 
ATOM      3  C4  UNL d   1      -2.356  -2.362   0.574  0.00  0.00     0.002 A 
ATOM      4  C5  UNL d   1      -1.615  -3.040   1.540  0.00  0.00    -0.004 A 
ATOM      5  C6  UNL d   1      -0.308  -2.644   1.820  0.00  0.00     0.002 A 
ATOM      6  C7  UNL d   1       0.257  -1.566   1.138  0.00  0.00     0.002 A 
ENDROOT
BRANCH   1   7
ATOM      7  C1  UNL d   1       0.113   0.320  -0.532  0.00  0.00     0.055 C 
ATOM      8  C   UNL d   1       1.390   0.786   0.152  0.00  0.00     0.019 C 
ENDBRANCH   1   7
TORSDOF 1
ENDMDL
