MODEL 1
REMARK minimizedAffinity -4.21382189
REMARK minimizedRMSD -1
REMARK  1 active torsions:
REMARK  status: ('A' for Active; 'I' for Inactive)
REMARK    1  A    between atoms: C1_2  and  C2_3 
ROOT
ATOM      1  C2  UNL d   1      -0.169  -0.013  -0.392  0.00  0.00    -0.077 A 
ATOM      2  C3  UNL d   1       0.976  -0.720   0.002  0.00  0.00     0.002 A 
ATOM      3  C4  UNL d   1       0.859  -1.895   0.747  0.00  0.00     0.002 A 
ATOM      4  C5  UNL d   1      -0.401  -2.375   1.101  0.00  0.00    -0.004 A 
ATOM      5  C6  UNL d   1      -1.545  -1.678   0.716  0.00  0.00     0.002 A 
ATOM      6  C7  UNL d   1      -1.430  -0.503  -0.028  0.00  0.00     0.002 A 
ENDROOT
BRANCH   1   7
ATOM      7  C1  UNL d   1      -0.047   1.228  -1.237  0.00  0.00     0.055 C 
ATOM      8  C   UNL d   1       1.107   1.114  -2.224  0.00  0.00     0.019 C 
ENDBRANCH   1   7
TORSDOF 1
ENDMDL
