MODEL 1
REMARK minimizedAffinity -4.36585426
REMARK minimizedRMSD -1
REMARK  1 active torsions:
REMARK  status: ('A' for Active; 'I' for Inactive)
REMARK    1  A    between atoms: C1_2  and  C2_3 
ROOT
ATOM      1  C2  UNL d   1      -4.023  -3.609  -4.691  0.00  0.00    -0.077 A 
ATOM      2  C3  UNL d   1      -4.593  -3.375  -3.433  0.00  0.00     0.002 A 
ATOM      3  C4  UNL d   1      -5.575  -2.394  -3.274  0.00  0.00     0.002 A 
ATOM      4  C5  UNL d   1      -5.997  -1.644  -4.370  0.00  0.00    -0.004 A 
ATOM      5  C6  UNL d   1      -5.434  -1.869  -5.625  0.00  0.00     0.002 A 
ATOM      6  C7  UNL d   1      -4.452  -2.848  -5.786  0.00  0.00     0.002 A 
ENDROOT
BRANCH   1   7
ATOM      7  C1  UNL d   1      -3.000  -4.700  -4.874  0.00  0.00     0.055 C 
ATOM      8  C   UNL d   1      -1.997  -4.341  -5.961  0.00  0.00     0.019 C 
ENDBRANCH   1   7
TORSDOF 1
ENDMDL
