MODEL 1
REMARK minimizedAffinity -5.43112564
REMARK minimizedRMSD -1
REMARK  0 active torsions:
REMARK  status: ('A' for Active; 'I' for Inactive)
ROOT
ATOM      1  C2' OXE d   1       2.487  -2.667  -2.513  0.00  0.00     0.078 C 
ATOM      2  C1' OXE d   1       0.721  -0.697  -3.451  0.00  0.00     0.078 C 
ATOM      3  C1  OXE d   1       2.175  -0.581  -3.838  0.00  0.00    -0.078 A 
ATOM      4  C2  OXE d   1       3.040  -1.524  -3.336  0.00  0.00    -0.078 A 
ATOM      5  C3  OXE d   1       4.381  -1.495  -3.707  0.00  0.00     0.003 A 
ATOM      6  C4  OXE d   1       4.886  -0.428  -4.460  0.00  0.00    -0.002 A 
ATOM      7  C5  OXE d   1       4.029   0.564  -4.948  0.00  0.00    -0.002 A 
ATOM      8  C6  OXE d   1       2.666   0.480  -4.682  0.00  0.00     0.003 A 
ENDROOT
TORSDOF 0
ENDMDL
