MODEL 1
REMARK minimizedAffinity 1.24627507
REMARK minimizedRMSD -1
REMARK  0 active torsions:
REMARK  status: ('A' for Active; 'I' for Inactive)
ROOT
ATOM      1  C2' OXE d   1       4.126   2.250   2.167  0.00  0.00     0.078 C 
ATOM      2  C1' OXE d   1       6.000   2.928   4.145  0.00  0.00     0.078 C 
ATOM      3  C1  OXE d   1       5.515   1.500   4.094  0.00  0.00    -0.078 A 
ATOM      4  C2  OXE d   1       4.564   1.188   3.153  0.00  0.00    -0.078 A 
ATOM      5  C3  OXE d   1       4.123  -0.126   3.028  0.00  0.00     0.003 A 
ATOM      6  C4  OXE d   1       4.525  -1.099   3.950  0.00  0.00    -0.002 A 
ATOM      7  C5  OXE d   1       5.464  -0.794   4.941  0.00  0.00    -0.002 A 
ATOM      8  C6  OXE d   1       5.999   0.488   5.000  0.00  0.00     0.003 A 
ENDROOT
TORSDOF 0
ENDMDL
