MODEL 1
REMARK minimizedAffinity 0.945453465
REMARK minimizedRMSD -1
REMARK  0 active torsions:
REMARK  status: ('A' for Active; 'I' for Inactive)
ROOT
ATOM      1  C2' OXE d   1      -1.786  -0.552   2.895  0.00  0.00     0.078 C 
ATOM      2  C1' OXE d   1      -1.559  -2.030   0.519  0.00  0.00     0.078 C 
ATOM      3  C1  OXE d   1      -2.932  -1.556   0.924  0.00  0.00    -0.078 A 
ATOM      4  C2  OXE d   1      -3.040  -0.873   2.112  0.00  0.00    -0.078 A 
ATOM      5  C3  OXE d   1      -4.275  -0.366   2.505  0.00  0.00     0.003 A 
ATOM      6  C4  OXE d   1      -5.433  -0.675   1.780  0.00  0.00    -0.002 A 
ATOM      7  C5  OXE d   1      -5.350  -1.403   0.588  0.00  0.00    -0.002 A 
ATOM      8  C6  OXE d   1      -4.105  -1.813   0.125  0.00  0.00     0.003 A 
ENDROOT
TORSDOF 0
ENDMDL
