MODEL 1
REMARK minimizedAffinity 0.993660033
REMARK minimizedRMSD -1
REMARK  0 active torsions:
REMARK  status: ('A' for Active; 'I' for Inactive)
ROOT
ATOM      1  C2' OXE d   1      -2.441   1.179  -0.100  0.00  0.00     0.078 C 
ATOM      2  C1' OXE d   1      -4.507  -0.709   0.114  0.00  0.00     0.078 C 
ATOM      3  C1  OXE d   1      -3.659  -0.453   1.334  0.00  0.00    -0.078 A 
ATOM      4  C2  OXE d   1      -2.621   0.438   1.207  0.00  0.00    -0.078 A 
ATOM      5  C3  OXE d   1      -1.842   0.752   2.317  0.00  0.00     0.003 A 
ATOM      6  C4  OXE d   1      -2.008   0.054   3.520  0.00  0.00    -0.002 A 
ATOM      7  C5  OXE d   1      -3.034  -0.886   3.659  0.00  0.00    -0.002 A 
ATOM      8  C6  OXE d   1      -3.894  -1.120   2.591  0.00  0.00     0.003 A 
ENDROOT
TORSDOF 0
ENDMDL
