MODEL 1
REMARK minimizedAffinity 3.25498295
REMARK minimizedRMSD -1
REMARK  0 active torsions:
REMARK  status: ('A' for Active; 'I' for Inactive)
ROOT
ATOM      1  C2' OXE d   1      -3.212  -1.679   3.441  0.00  0.00     0.078 C 
ATOM      2  C1' OXE d   1      -2.677   1.041   3.881  0.00  0.00     0.078 C 
ATOM      3  C1  OXE d   1      -2.675   0.545   2.456  0.00  0.00    -0.078 A 
ATOM      4  C2  OXE d   1      -2.892  -0.797   2.254  0.00  0.00    -0.078 A 
ATOM      5  C3  OXE d   1      -2.955  -1.297   0.957  0.00  0.00     0.003 A 
ATOM      6  C4  OXE d   1      -2.648  -0.477  -0.135  0.00  0.00    -0.002 A 
ATOM      7  C5  OXE d   1      -2.385   0.885   0.052  0.00  0.00    -0.002 A 
ATOM      8  C6  OXE d   1      -2.437   1.419   1.334  0.00  0.00     0.003 A 
ENDROOT
TORSDOF 0
ENDMDL
