MODEL 1
REMARK minimizedAffinity 1.43883514
REMARK minimizedRMSD -1
REMARK  0 active torsions:
REMARK  status: ('A' for Active; 'I' for Inactive)
ROOT
ATOM      1  C2' OXE d   1      -2.393   2.204   0.388  0.00  0.00     0.078 C 
ATOM      2  C1' OXE d   1      -3.603  -0.289  -0.058  0.00  0.00     0.078 C 
ATOM      3  C1  OXE d   1      -3.280   0.091   1.365  0.00  0.00    -0.078 A 
ATOM      4  C2  OXE d   1      -2.646   1.293   1.570  0.00  0.00    -0.078 A 
ATOM      5  C3  OXE d   1      -2.375   1.718   2.868  0.00  0.00     0.003 A 
ATOM      6  C4  OXE d   1      -2.603   0.865   3.954  0.00  0.00    -0.002 A 
ATOM      7  C5  OXE d   1      -3.211  -0.380   3.764  0.00  0.00    -0.002 A 
ATOM      8  C6  OXE d   1      -3.594  -0.763   2.483  0.00  0.00     0.003 A 
ENDROOT
TORSDOF 0
ENDMDL
