MODEL 1
REMARK minimizedAffinity 3.07512093
REMARK minimizedRMSD -1
REMARK  0 active torsions:
REMARK  status: ('A' for Active; 'I' for Inactive)
ROOT
ATOM      1  C2' OXE d   1       3.746   2.268   1.643  0.00  0.00     0.078 C 
ATOM      2  C1' OXE d   1       3.294  -0.502   1.581  0.00  0.00     0.078 C 
ATOM      3  C1  OXE d   1       4.237   0.034   2.629  0.00  0.00    -0.078 A 
ATOM      4  C2  OXE d   1       4.489   1.384   2.622  0.00  0.00    -0.078 A 
ATOM      5  C3  OXE d   1       5.309   1.938   3.601  0.00  0.00     0.003 A 
ATOM      6  C4  OXE d   1       6.000   1.113   4.497  0.00  0.00    -0.002 A 
ATOM      7  C5  OXE d   1       5.789  -0.270   4.495  0.00  0.00    -0.002 A 
ATOM      8  C6  OXE d   1       4.880  -0.820   3.598  0.00  0.00     0.003 A 
ENDROOT
TORSDOF 0
ENDMDL
