MODEL 1
REMARK minimizedAffinity 5.09661722
REMARK minimizedRMSD -1
REMARK  0 active torsions:
REMARK  status: ('A' for Active; 'I' for Inactive)
ROOT
ATOM      1  C2' OXE d   1      -3.710  -0.737   0.432  0.00  0.00     0.078 C 
ATOM      2  C1' OXE d   1      -5.998  -0.685   2.059  0.00  0.00     0.078 C 
ATOM      3  C1  OXE d   1      -4.654  -0.556   2.731  0.00  0.00    -0.078 A 
ATOM      4  C2  OXE d   1      -3.538  -0.629   1.932  0.00  0.00    -0.078 A 
ATOM      5  C3  OXE d   1      -2.276  -0.460   2.494  0.00  0.00     0.003 A 
ATOM      6  C4  OXE d   1      -2.124  -0.370   3.883  0.00  0.00    -0.002 A 
ATOM      7  C5  OXE d   1      -3.246  -0.334   4.719  0.00  0.00    -0.002 A 
ATOM      8  C6  OXE d   1      -4.517  -0.382   4.156  0.00  0.00     0.003 A 
ENDROOT
TORSDOF 0
ENDMDL
