MODEL 1
REMARK minimizedAffinity -5.11874914
REMARK minimizedRMSD -1
REMARK  0 active torsions:
REMARK  status: ('A' for Active; 'I' for Inactive)
ROOT
ATOM      1  C2' OXE d   1      -2.837  -0.783   0.151  0.00  0.00     0.078 C 
ATOM      2  C1' OXE d   1      -2.612   2.015   0.169  0.00  0.00     0.078 C 
ATOM      3  C1  OXE d   1      -2.764   1.313   1.495  0.00  0.00    -0.078 A 
ATOM      4  C2  OXE d   1      -2.920  -0.052   1.474  0.00  0.00    -0.078 A 
ATOM      5  C3  OXE d   1      -3.010  -0.755   2.672  0.00  0.00     0.003 A 
ATOM      6  C4  OXE d   1      -3.096  -0.071   3.890  0.00  0.00    -0.002 A 
ATOM      7  C5  OXE d   1      -2.978   1.323   3.932  0.00  0.00    -0.002 A 
ATOM      8  C6  OXE d   1      -2.769   2.024   2.750  0.00  0.00     0.003 A 
ENDROOT
TORSDOF 0
ENDMDL
