MODEL 1
REMARK minimizedAffinity 8.65859318
REMARK minimizedRMSD -1
REMARK  0 active torsions:
REMARK  status: ('A' for Active; 'I' for Inactive)
ROOT
ATOM      1  C2' OXE d   1       3.457   0.381   1.293  0.00  0.00     0.078 C 
ATOM      2  C1' OXE d   1       3.368   3.054   2.147  0.00  0.00     0.078 C 
ATOM      3  C1  OXE d   1       4.316   2.120   2.857  0.00  0.00    -0.078 A 
ATOM      4  C2  OXE d   1       4.319   0.803   2.464  0.00  0.00    -0.078 A 
ATOM      5  C3  OXE d   1       5.213  -0.089   3.048  0.00  0.00     0.003 A 
ATOM      6  C4  OXE d   1       6.000   0.307   4.136  0.00  0.00    -0.002 A 
ATOM      7  C5  OXE d   1       5.983   1.634   4.579  0.00  0.00    -0.002 A 
ATOM      8  C6  OXE d   1       5.180   2.561   3.924  0.00  0.00     0.003 A 
ENDROOT
TORSDOF 0
ENDMDL
