MODEL 1
REMARK minimizedAffinity 1.1114521
REMARK minimizedRMSD -1
REMARK  0 active torsions:
REMARK  status: ('A' for Active; 'I' for Inactive)
ROOT
ATOM      1  C2' OXE d   1      -2.902   1.798   4.142  0.00  0.00     0.078 C 
ATOM      2  C1' OXE d   1      -2.017   2.744   1.651  0.00  0.00     0.078 C 
ATOM      3  C1  OXE d   1      -2.499   1.317   1.731  0.00  0.00    -0.078 A 
ATOM      4  C2  OXE d   1      -2.886   0.849   2.964  0.00  0.00    -0.078 A 
ATOM      5  C3  OXE d   1      -3.391  -0.443   3.083  0.00  0.00     0.003 A 
ATOM      6  C4  OXE d   1      -3.364  -1.318   1.990  0.00  0.00    -0.002 A 
ATOM      7  C5  OXE d   1      -2.937  -0.873   0.734  0.00  0.00    -0.002 A 
ATOM      8  C6  OXE d   1      -2.542   0.451   0.579  0.00  0.00     0.003 A 
ENDROOT
TORSDOF 0
ENDMDL
