MODEL 1
REMARK minimizedAffinity 5.60190821
REMARK minimizedRMSD -1
REMARK  0 active torsions:
REMARK  status: ('A' for Active; 'I' for Inactive)
ROOT
ATOM      1  C2' OXE d   1      -2.589   0.114  -0.503  0.00  0.00     0.078 C 
ATOM      2  C1' OXE d   1      -2.375   2.488   0.979  0.00  0.00     0.078 C 
ATOM      3  C1  OXE d   1      -2.711   1.221   1.725  0.00  0.00    -0.078 A 
ATOM      4  C2  OXE d   1      -2.860   0.073   0.985  0.00  0.00    -0.078 A 
ATOM      5  C3  OXE d   1      -3.116  -1.134   1.630  0.00  0.00     0.003 A 
ATOM      6  C4  OXE d   1      -3.375  -1.161   3.006  0.00  0.00    -0.002 A 
ATOM      7  C5  OXE d   1      -3.268   0.004   3.772  0.00  0.00    -0.002 A 
ATOM      8  C6  OXE d   1      -2.896   1.193   3.155  0.00  0.00     0.003 A 
ENDROOT
TORSDOF 0
ENDMDL
