MODEL 1
REMARK minimizedAffinity 6.16531277
REMARK minimizedRMSD -1
REMARK  0 active torsions:
REMARK  status: ('A' for Active; 'I' for Inactive)
ROOT
ATOM      1  C2' OXE d   1       5.998   3.693   4.080  0.00  0.00     0.078 C 
ATOM      2  C1' OXE d   1       4.052   2.920   2.210  0.00  0.00     0.078 C 
ATOM      3  C1  OXE d   1       4.554   1.876   3.176  0.00  0.00    -0.078 A 
ATOM      4  C2  OXE d   1       5.540   2.251   4.056  0.00  0.00    -0.078 A 
ATOM      5  C3  OXE d   1       6.000   1.342   5.005  0.00  0.00     0.003 A 
ATOM      6  C4  OXE d   1       5.579   0.007   4.970  0.00  0.00    -0.002 A 
ATOM      7  C5  OXE d   1       4.604  -0.406   4.055  0.00  0.00    -0.002 A 
ATOM      8  C6  OXE d   1       4.052   0.524   3.181  0.00  0.00     0.003 A 
ENDROOT
TORSDOF 0
ENDMDL
