MODEL 1
REMARK minimizedAffinity -3.306108
REMARK minimizedRMSD -1
REMARK  0 active torsions:
REMARK  status: ('A' for Active; 'I' for Inactive)
ROOT
ATOM      1  C2' OXE d   1      -1.570   0.834  -0.223  0.00  0.00     0.078 C 
ATOM      2  C1' OXE d   1      -2.383  -1.794   0.337  0.00  0.00     0.078 C 
ATOM      3  C1  OXE d   1      -2.592  -0.751   1.405  0.00  0.00    -0.078 A 
ATOM      4  C2  OXE d   1      -2.149   0.523   1.141  0.00  0.00    -0.078 A 
ATOM      5  C3  OXE d   1      -2.366   1.535   2.071  0.00  0.00     0.003 A 
ATOM      6  C4  OXE d   1      -2.892   1.237   3.334  0.00  0.00    -0.002 A 
ATOM      7  C5  OXE d   1      -3.314  -0.061   3.638  0.00  0.00    -0.002 A 
ATOM      8  C6  OXE d   1      -3.210  -1.056   2.672  0.00  0.00     0.003 A 
ENDROOT
TORSDOF 0
ENDMDL
