MODEL 1
REMARK minimizedAffinity 5.55561781
REMARK minimizedRMSD -1
REMARK  0 active torsions:
REMARK  status: ('A' for Active; 'I' for Inactive)
ROOT
ATOM      1  C2' OXE d   1       5.664  -0.294  -5.674  0.00  0.00     0.078 C 
ATOM      2  C1' OXE d   1       2.906   0.115  -5.999  0.00  0.00     0.078 C 
ATOM      3  C1  OXE d   1       3.789   1.333  -5.883  0.00  0.00    -0.078 A 
ATOM      4  C2  OXE d   1       5.131   1.123  -5.677  0.00  0.00    -0.078 A 
ATOM      5  C3  OXE d   1       5.998   2.210  -5.618  0.00  0.00     0.003 A 
ATOM      6  C4  OXE d   1       5.496   3.517  -5.612  0.00  0.00    -0.002 A 
ATOM      7  C5  OXE d   1       4.127   3.753  -5.780  0.00  0.00    -0.002 A 
ATOM      8  C6  OXE d   1       3.267   2.675  -5.960  0.00  0.00     0.003 A 
ENDROOT
TORSDOF 0
ENDMDL
