MODEL 1
REMARK minimizedAffinity 3.82369542
REMARK minimizedRMSD -1
REMARK  0 active torsions:
REMARK  status: ('A' for Active; 'I' for Inactive)
ROOT
ATOM      1  C2' OXE d   1      -3.002  -1.129   2.757  0.00  0.00     0.078 C 
ATOM      2  C1' OXE d   1      -5.797  -1.008   2.990  0.00  0.00     0.078 C 
ATOM      3  C1  OXE d   1      -5.194  -0.769   1.628  0.00  0.00    -0.078 A 
ATOM      4  C2  OXE d   1      -3.823  -0.784   1.533  0.00  0.00    -0.078 A 
ATOM      5  C3  OXE d   1      -3.216  -0.624   0.290  0.00  0.00     0.003 A 
ATOM      6  C4  OXE d   1      -3.982  -0.296  -0.835  0.00  0.00    -0.002 A 
ATOM      7  C5  OXE d   1      -5.377  -0.236  -0.752  0.00  0.00    -0.002 A 
ATOM      8  C6  OXE d   1      -6.000  -0.512   0.461  0.00  0.00     0.003 A 
ENDROOT
TORSDOF 0
ENDMDL
