MODEL 1
REMARK minimizedAffinity 1.33778167
REMARK minimizedRMSD -1
REMARK  0 active torsions:
REMARK  status: ('A' for Active; 'I' for Inactive)
ROOT
ATOM      1  C2' OXE d   1      -0.676   1.307  -1.010  0.00  0.00     0.078 C 
ATOM      2  C1' OXE d   1      -2.762   0.306   0.581  0.00  0.00     0.078 C 
ATOM      3  C1  OXE d   1      -2.880   1.722   0.074  0.00  0.00    -0.078 A 
ATOM      4  C2  OXE d   1      -1.834   2.219  -0.664  0.00  0.00    -0.078 A 
ATOM      5  C3  OXE d   1      -1.916   3.500  -1.202  0.00  0.00     0.003 A 
ATOM      6  C4  OXE d   1      -2.985   4.341  -0.869  0.00  0.00    -0.002 A 
ATOM      7  C5  OXE d   1      -4.043   3.868  -0.086  0.00  0.00    -0.002 A 
ATOM      8  C6  OXE d   1      -4.027   2.550   0.358  0.00  0.00     0.003 A 
ENDROOT
TORSDOF 0
ENDMDL
