MODEL 1
REMARK minimizedAffinity -1.85979867
REMARK minimizedRMSD -1
REMARK  0 active torsions:
REMARK  status: ('A' for Active; 'I' for Inactive)
ROOT
ATOM      1  C2' OXE d   1      -1.008   1.871  -0.862  0.00  0.00     0.078 C 
ATOM      2  C1' OXE d   1      -2.734   0.900   1.127  0.00  0.00     0.078 C 
ATOM      3  C1  OXE d   1      -2.943   2.313   0.643  0.00  0.00    -0.078 A 
ATOM      4  C2  OXE d   1      -2.065   2.795  -0.297  0.00  0.00    -0.078 A 
ATOM      5  C3  OXE d   1      -2.246   4.074  -0.818  0.00  0.00     0.003 A 
ATOM      6  C4  OXE d   1      -3.220   4.926  -0.282  0.00  0.00    -0.002 A 
ATOM      7  C5  OXE d   1      -4.100   4.467   0.704  0.00  0.00    -0.002 A 
ATOM      8  C6  OXE d   1      -4.002   3.152   1.146  0.00  0.00     0.003 A 
ENDROOT
TORSDOF 0
ENDMDL
