MODEL 1
REMARK minimizedAffinity 0.985603333
REMARK minimizedRMSD -1
REMARK  0 active torsions:
REMARK  status: ('A' for Active; 'I' for Inactive)
ROOT
ATOM      1  C   UNL d   1       5.881  -2.586   4.886  0.00  0.00     0.172 C 
ATOM      2  N   UNL d   1       5.437  -3.960   4.896  0.00  0.00    -0.070 N 
ATOM      3  C1  UNL d   1       5.377  -4.772   5.997  0.00  0.00    -0.004 A 
ATOM      4  C2  UNL d   1       4.902  -6.000   5.590  0.00  0.00    -0.047 A 
ATOM      5  C3  UNL d   1       4.669  -5.924   4.196  0.00  0.00    -0.047 A 
ATOM      6  C4  UNL d   1       5.009  -4.650   3.792  0.00  0.00    -0.004 A 
ENDROOT
TORSDOF 0
ENDMDL
