MODEL 1
REMARK minimizedAffinity -2.19455051
REMARK minimizedRMSD -1
REMARK  0 active torsions:
REMARK  status: ('A' for Active; 'I' for Inactive)
ROOT
ATOM      1  C   UNL d   1       1.859   4.655  -6.000  0.00  0.00     0.172 C 
ATOM      2  N   UNL d   1       3.108   3.931  -5.999  0.00  0.00    -0.070 N 
ATOM      3  C1  UNL d   1       4.357   4.494  -5.998  0.00  0.00    -0.004 A 
ATOM      4  C2  UNL d   1       5.281   3.472  -5.997  0.00  0.00    -0.047 A 
ATOM      5  C3  UNL d   1       4.563   2.252  -5.998  0.00  0.00    -0.047 A 
ATOM      6  C4  UNL d   1       3.220   2.566  -5.999  0.00  0.00    -0.004 A 
ENDROOT
TORSDOF 0
ENDMDL
