MODEL 1
REMARK minimizedAffinity -0.393280566
REMARK minimizedRMSD -1
REMARK  0 active torsions:
REMARK  status: ('A' for Active; 'I' for Inactive)
ROOT
ATOM      1  C   UNL d   1       5.490   5.934  -5.985  0.00  0.00     0.172 C 
ATOM      2  N   UNL d   1       4.188   5.310  -5.976  0.00  0.00    -0.070 N 
ATOM      3  C1  UNL d   1       3.949   3.962  -5.943  0.00  0.00    -0.004 A 
ATOM      4  C2  UNL d   1       2.583   3.775  -5.945  0.00  0.00    -0.047 A 
ATOM      5  C3  UNL d   1       1.981   5.055  -5.982  0.00  0.00    -0.047 A 
ATOM      6  C4  UNL d   1       2.997   5.987  -6.000  0.00  0.00    -0.004 A 
ENDROOT
TORSDOF 0
ENDMDL
