MODEL 1
REMARK minimizedAffinity 4.01724529
REMARK minimizedRMSD -1
REMARK  0 active torsions:
REMARK  status: ('A' for Active; 'I' for Inactive)
ROOT
ATOM      1  C   UNL d   1       4.503  -4.867   2.697  0.00  0.00     0.172 C 
ATOM      2  N   UNL d   1       4.999  -4.205   3.880  0.00  0.00    -0.070 N 
ATOM      3  C1  UNL d   1       4.876  -4.665   5.164  0.00  0.00    -0.004 A 
ATOM      4  C2  UNL d   1       5.478  -3.750   6.000  0.00  0.00    -0.047 A 
ATOM      5  C3  UNL d   1       5.979  -2.702   5.191  0.00  0.00    -0.047 A 
ATOM      6  C4  UNL d   1       5.669  -3.010   3.883  0.00  0.00    -0.004 A 
ENDROOT
TORSDOF 0
ENDMDL
