MODEL 1
REMARK minimizedAffinity 9.76790524
REMARK minimizedRMSD -1
REMARK  0 active torsions:
REMARK  status: ('A' for Active; 'I' for Inactive)
ROOT
ATOM      1  C   UNL d   1       4.599   2.008   0.451  0.00  0.00     0.172 C 
ATOM      2  N   UNL d   1       3.513   2.432   1.302  0.00  0.00    -0.070 N 
ATOM      3  C1  UNL d   1       2.207   2.578   0.917  0.00  0.00    -0.004 A 
ATOM      4  C2  UNL d   1       1.487   2.996   2.015  0.00  0.00    -0.047 A 
ATOM      5  C3  UNL d   1       2.391   3.105   3.098  0.00  0.00    -0.047 A 
ATOM      6  C4  UNL d   1       3.638   2.750   2.629  0.00  0.00    -0.004 A 
ENDROOT
TORSDOF 0
ENDMDL
