MODEL 1
REMARK minimizedAffinity 6.05592299
REMARK minimizedRMSD -1
REMARK  0 active torsions:
REMARK  status: ('A' for Active; 'I' for Inactive)
ROOT
ATOM      1  C   UNL d   1      -0.288   3.262  -4.951  0.00  0.00     0.172 C 
ATOM      2  N   UNL d   1       1.089   3.142  -5.370  0.00  0.00    -0.070 N 
ATOM      3  C1  UNL d   1       1.757   1.967  -5.589  0.00  0.00    -0.004 A 
ATOM      4  C2  UNL d   1       3.043   2.278  -5.976  0.00  0.00    -0.047 A 
ATOM      5  C3  UNL d   1       3.151   3.689  -5.989  0.00  0.00    -0.047 A 
ATOM      6  C4  UNL d   1       1.927   4.198  -5.610  0.00  0.00    -0.004 A 
ENDROOT
TORSDOF 0
ENDMDL
