MODEL 1
REMARK minimizedAffinity -2.47200322
REMARK minimizedRMSD -1
REMARK  0 active torsions:
REMARK  status: ('A' for Active; 'I' for Inactive)
ROOT
ATOM      1  C   UNL d   1       3.115   2.436  -5.999  0.00  0.00     0.172 C 
ATOM      2  N   UNL d   1       3.132   3.880  -5.998  0.00  0.00    -0.070 N 
ATOM      3  C1  UNL d   1       4.254   4.665  -5.999  0.00  0.00    -0.004 A 
ATOM      4  C2  UNL d   1       3.848   5.982  -5.997  0.00  0.00    -0.047 A 
ATOM      5  C3  UNL d   1       2.433   5.989  -5.995  0.00  0.00    -0.047 A 
ATOM      6  C4  UNL d   1       2.016   4.674  -5.996  0.00  0.00    -0.004 A 
ENDROOT
TORSDOF 0
ENDMDL
