MODEL 1
REMARK minimizedAffinity -1.83411717
REMARK minimizedRMSD -1
REMARK  0 active torsions:
REMARK  status: ('A' for Active; 'I' for Inactive)
ROOT
ATOM      1  C   UNL d   1       1.873   5.981  -6.000  0.00  0.00     0.172 C 
ATOM      2  N   UNL d   1       2.899   4.964  -5.999  0.00  0.00    -0.070 N 
ATOM      3  C1  UNL d   1       2.682   3.612  -6.000  0.00  0.00    -0.004 A 
ATOM      4  C2  UNL d   1       3.911   2.988  -5.999  0.00  0.00    -0.047 A 
ATOM      5  C3  UNL d   1       4.900   4.000  -5.998  0.00  0.00    -0.047 A 
ATOM      6  C4  UNL d   1       4.246   5.214  -5.998  0.00  0.00    -0.004 A 
ENDROOT
TORSDOF 0
ENDMDL
