MODEL 1
REMARK minimizedAffinity 4.49923229
REMARK minimizedRMSD -1
REMARK  1 active torsions:
REMARK  status: ('A' for Active; 'I' for Inactive)
REMARK    1  A    between atoms: C1_2  and  C2_3 
ROOT
ATOM      1  C2  UNL d   1      -0.440  -1.641   2.257  0.00  0.00    -0.081 A 
ATOM      2  C3  UNL d   1      -1.516  -1.471   1.376  0.00  0.00     0.006 A 
ATOM      3  C4  UNL d   1      -2.548  -0.582   1.683  0.00  0.00     0.002 A 
ATOM      4  C5  UNL d   1      -2.518   0.158   2.870  0.00  0.00    -0.080 A 
ATOM      5  C6  UNL d   1      -3.605   1.139   3.197  0.00  0.00     0.076 C 
ATOM      6  C7  UNL d   1      -1.453  -0.024   3.758  0.00  0.00     0.002 A 
ATOM      7  C8  UNL d   1      -0.420  -0.914   3.452  0.00  0.00     0.006 A 
ENDROOT
BRANCH   1   8
ATOM      8  C1  UNL d   1       0.707  -2.551   1.899  0.00  0.00     0.054 C 
ATOM      9  C   UNL d   1       1.452  -2.046   0.672  0.00  0.00     0.018 C 
ENDBRANCH   1   8
TORSDOF 1
ENDMDL
