MODEL 1
REMARK minimizedAffinity 5.96273375
REMARK minimizedRMSD -1
REMARK  1 active torsions:
REMARK  status: ('A' for Active; 'I' for Inactive)
REMARK    1  A    between atoms: C1_2  and  C2_3 
ROOT
ATOM      1  C2  UNL d   1      -2.944   0.185   2.275  0.00  0.00    -0.081 A 
ATOM      2  C3  UNL d   1      -2.049   0.172   3.351  0.00  0.00     0.006 A 
ATOM      3  C4  UNL d   1      -0.950  -0.691   3.348  0.00  0.00     0.002 A 
ATOM      4  C5  UNL d   1      -0.724  -1.549   2.267  0.00  0.00    -0.080 A 
ATOM      5  C6  UNL d   1       0.468  -2.458   2.237  0.00  0.00     0.076 C 
ATOM      6  C7  UNL d   1      -1.629  -1.548   1.199  0.00  0.00     0.002 A 
ATOM      7  C8  UNL d   1      -2.728  -0.686   1.202  0.00  0.00     0.006 A 
ENDROOT
BRANCH   1   8
ATOM      8  C1  UNL d   1      -4.093   1.160   2.246  0.00  0.00     0.054 C 
ATOM      9  C   UNL d   1      -4.755   1.276   3.611  0.00  0.00     0.018 C 
ENDBRANCH   1   8
TORSDOF 1
ENDMDL
