MODEL 1
REMARK minimizedAffinity 6.35818815
REMARK minimizedRMSD -1
REMARK  1 active torsions:
REMARK  status: ('A' for Active; 'I' for Inactive)
REMARK    1  A    between atoms: C1_2  and  C2_3 
ROOT
ATOM      1  C2  UNL d   1      -2.285  -0.080  -0.812  0.00  0.00    -0.081 A 
ATOM      2  C3  UNL d   1      -1.320  -0.808  -1.518  0.00  0.00     0.006 A 
ATOM      3  C4  UNL d   1      -0.614  -0.216  -2.568  0.00  0.00     0.002 A 
ATOM      4  C5  UNL d   1      -0.854   1.115  -2.923  0.00  0.00    -0.080 A 
ATOM      5  C6  UNL d   1      -0.081   1.772  -4.028  0.00  0.00     0.076 C 
ATOM      6  C7  UNL d   1      -1.831   1.838  -2.229  0.00  0.00     0.002 A 
ATOM      7  C8  UNL d   1      -2.538   1.246  -1.180  0.00  0.00     0.006 A 
ENDROOT
BRANCH   1   8
ATOM      8  C1  UNL d   1      -3.003  -0.695   0.362  0.00  0.00     0.054 C 
ATOM      9  C   UNL d   1      -3.056   0.264   1.543  0.00  0.00     0.018 C 
ENDBRANCH   1   8
TORSDOF 1
ENDMDL
