MODEL 1
REMARK minimizedAffinity 3.69075561
REMARK minimizedRMSD -1
REMARK  1 active torsions:
REMARK  status: ('A' for Active; 'I' for Inactive)
REMARK    1  A    between atoms: C1_2  and  C2_3 
ROOT
ATOM      1  C2  UNL d   1       0.742  -1.754   2.257  0.00  0.00    -0.081 A 
ATOM      2  C3  UNL d   1      -0.562  -2.235   2.088  0.00  0.00     0.006 A 
ATOM      3  C4  UNL d   1      -1.658  -1.470   2.494  0.00  0.00     0.002 A 
ATOM      4  C5  UNL d   1      -1.469  -0.208   3.067  0.00  0.00    -0.080 A 
ATOM      5  C6  UNL d   1      -2.638   0.637   3.479  0.00  0.00     0.076 C 
ATOM      6  C7  UNL d   1      -0.166   0.266   3.251  0.00  0.00     0.002 A 
ATOM      7  C8  UNL d   1       0.930  -0.499   2.846  0.00  0.00     0.006 A 
ENDROOT
BRANCH   1   8
ATOM      8  C1  UNL d   1       1.923  -2.549   1.761  0.00  0.00     0.054 C 
ATOM      9  C   UNL d   1       2.220  -2.246   0.300  0.00  0.00     0.018 C 
ENDBRANCH   1   8
TORSDOF 1
ENDMDL
