MODEL 1
REMARK minimizedAffinity -1.32642055
REMARK minimizedRMSD -1
REMARK  1 active torsions:
REMARK  status: ('A' for Active; 'I' for Inactive)
REMARK    1  A    between atoms: C1_2  and  C2_3 
ROOT
ATOM      1  C2  UNL d   1       2.685  -2.970   0.905  0.00  0.00    -0.081 A 
ATOM      2  C3  UNL d   1       4.035  -2.609   0.831  0.00  0.00     0.006 A 
ATOM      3  C4  UNL d   1       5.034  -3.581   0.924  0.00  0.00     0.002 A 
ATOM      4  C5  UNL d   1       4.699  -4.930   1.085  0.00  0.00    -0.080 A 
ATOM      5  C6  UNL d   1       5.761  -5.987   1.155  0.00  0.00     0.076 C 
ATOM      6  C7  UNL d   1       3.350  -5.289   1.176  0.00  0.00     0.002 A 
ATOM      7  C8  UNL d   1       2.351  -4.317   1.084  0.00  0.00     0.006 A 
ENDROOT
BRANCH   1   8
ATOM      8  C1  UNL d   1       1.604  -1.932   0.740  0.00  0.00     0.054 C 
ATOM      9  C   UNL d   1       1.585  -1.373  -0.676  0.00  0.00     0.018 C 
ENDBRANCH   1   8
TORSDOF 1
ENDMDL
