MODEL 1
REMARK minimizedAffinity 2.55822873
REMARK minimizedRMSD -1
REMARK  1 active torsions:
REMARK  status: ('A' for Active; 'I' for Inactive)
REMARK    1  A    between atoms: C1_2  and  C2_3 
ROOT
ATOM      1  C2  UNL d   1       0.522  -2.626   2.268  0.00  0.00    -0.081 A 
ATOM      2  C3  UNL d   1       0.113  -3.964   2.345  0.00  0.00     0.006 A 
ATOM      3  C4  UNL d   1       0.763  -4.947   1.594  0.00  0.00     0.002 A 
ATOM      4  C5  UNL d   1       1.835  -4.611   0.761  0.00  0.00    -0.080 A 
ATOM      5  C6  UNL d   1       2.560  -5.661  -0.026  0.00  0.00     0.076 C 
ATOM      6  C7  UNL d   1       2.232  -3.272   0.671  0.00  0.00     0.002 A 
ATOM      7  C8  UNL d   1       1.583  -2.289   1.421  0.00  0.00     0.006 A 
ENDROOT
BRANCH   1   8
ATOM      8  C1  UNL d   1      -0.134  -1.574   3.125  0.00  0.00     0.054 C 
ATOM      9  C   UNL d   1      -1.112  -0.733   2.317  0.00  0.00     0.018 C 
ENDBRANCH   1   8
TORSDOF 1
ENDMDL
