MODEL 1
REMARK minimizedAffinity 7.31192923
REMARK minimizedRMSD -1
REMARK  0 active torsions:
REMARK  status: ('A' for Active; 'I' for Inactive)
ROOT
ATOM      1  C2' OXE d   1       2.493  -0.338   1.837  0.00  0.00     0.078 C 
ATOM      2  C1' OXE d   1       2.759   2.379   1.185  0.00  0.00     0.078 C 
ATOM      3  C1  OXE d   1       2.313   1.434   0.096  0.00  0.00    -0.078 A 
ATOM      4  C2  OXE d   1       2.231   0.099   0.413  0.00  0.00    -0.078 A 
ATOM      5  C3  OXE d   1       1.772  -0.807  -0.539  0.00  0.00     0.003 A 
ATOM      6  C4  OXE d   1       1.542  -0.396  -1.857  0.00  0.00    -0.002 A 
ATOM      7  C5  OXE d   1       1.658   0.953  -2.210  0.00  0.00    -0.002 A 
ATOM      8  C6  OXE d   1       2.001   1.885  -1.237  0.00  0.00     0.003 A 
ENDROOT
TORSDOF 0
ENDMDL
