MODEL 1
REMARK minimizedAffinity 4.5296979
REMARK minimizedRMSD -1
REMARK  0 active torsions:
REMARK  status: ('A' for Active; 'I' for Inactive)
ROOT
ATOM      1  C2' OXE d   1       2.446   2.538  -0.803  0.00  0.00     0.078 C 
ATOM      2  C1' OXE d   1       1.662   1.020  -3.030  0.00  0.00     0.078 C 
ATOM      3  C1  OXE d   1       2.027   0.280  -1.768  0.00  0.00    -0.078 A 
ATOM      4  C2  OXE d   1       2.454   1.028  -0.697  0.00  0.00    -0.078 A 
ATOM      5  C3  OXE d   1       2.751   0.400   0.509  0.00  0.00     0.003 A 
ATOM      6  C4  OXE d   1       2.765  -0.997   0.595  0.00  0.00    -0.002 A 
ATOM      7  C5  OXE d   1       2.371  -1.780  -0.495  0.00  0.00    -0.002 A 
ATOM      8  C6  OXE d   1       1.959  -1.157  -1.668  0.00  0.00     0.003 A 
ENDROOT
TORSDOF 0
ENDMDL
