MODEL 1
REMARK minimizedAffinity 7.71972466
REMARK minimizedRMSD -1
REMARK  0 active torsions:
REMARK  status: ('A' for Active; 'I' for Inactive)
ROOT
ATOM      1  C2' OXE d   1      -1.524  -2.024   2.009  0.00  0.00     0.078 C 
ATOM      2  C1' OXE d   1      -1.950   0.467   3.230  0.00  0.00     0.078 C 
ATOM      3  C1  OXE d   1      -0.535  -0.050   3.162  0.00  0.00    -0.078 A 
ATOM      4  C2  OXE d   1      -0.342  -1.291   2.605  0.00  0.00    -0.078 A 
ATOM      5  C3  OXE d   1       0.950  -1.791   2.468  0.00  0.00     0.003 A 
ATOM      6  C4  OXE d   1       2.037  -1.111   3.031  0.00  0.00    -0.002 A 
ATOM      7  C5  OXE d   1       1.857   0.136   3.638  0.00  0.00    -0.002 A 
ATOM      8  C6  OXE d   1       0.586   0.699   3.674  0.00  0.00     0.003 A 
ENDROOT
TORSDOF 0
ENDMDL
