MODEL 1
REMARK minimizedAffinity -0.481822312
REMARK minimizedRMSD -1
REMARK  0 active torsions:
REMARK  status: ('A' for Active; 'I' for Inactive)
ROOT
ATOM      1  C2' OXE d   1      -4.008   5.999  -4.515  0.00  0.00     0.078 C 
ATOM      2  C1' OXE d   1      -5.848   4.486  -6.000  0.00  0.00     0.078 C 
ATOM      3  C1  OXE d   1      -4.537   3.837  -5.635  0.00  0.00    -0.078 A 
ATOM      4  C2  OXE d   1      -3.623   4.601  -4.948  0.00  0.00    -0.078 A 
ATOM      5  C3  OXE d   1      -2.420   4.033  -4.539  0.00  0.00     0.003 A 
ATOM      6  C4  OXE d   1      -2.068   2.743  -4.953  0.00  0.00    -0.002 A 
ATOM      7  C5  OXE d   1      -2.967   1.962  -5.687  0.00  0.00    -0.002 A 
ATOM      8  C6  OXE d   1      -4.220   2.478  -5.999  0.00  0.00     0.003 A 
ENDROOT
TORSDOF 0
ENDMDL
