MODEL 1
REMARK minimizedAffinity 7.55011129
REMARK minimizedRMSD -1
REMARK  0 active torsions:
REMARK  status: ('A' for Active; 'I' for Inactive)
ROOT
ATOM      1  C2' OXE d   1       2.238  -1.409   0.021  0.00  0.00     0.078 C 
ATOM      2  C1' OXE d   1       0.004  -1.157  -1.659  0.00  0.00     0.078 C 
ATOM      3  C1  OXE d   1       0.813   0.084  -1.373  0.00  0.00    -0.078 A 
ATOM      4  C2  OXE d   1       1.877  -0.040  -0.513  0.00  0.00    -0.078 A 
ATOM      5  C3  OXE d   1       2.689   1.062  -0.258  0.00  0.00     0.003 A 
ATOM      6  C4  OXE d   1       2.342   2.327  -0.748  0.00  0.00    -0.002 A 
ATOM      7  C5  OXE d   1       1.239   2.482  -1.595  0.00  0.00    -0.002 A 
ATOM      8  C6  OXE d   1       0.491   1.366  -1.950  0.00  0.00     0.003 A 
ENDROOT
TORSDOF 0
ENDMDL
