MODEL 1
REMARK minimizedAffinity 4.11842918
REMARK minimizedRMSD -1
REMARK  0 active torsions:
REMARK  status: ('A' for Active; 'I' for Inactive)
ROOT
ATOM      1  C2' OXE d   1       4.076  -1.565  -0.123  0.00  0.00     0.078 C 
ATOM      2  C1' OXE d   1       1.621  -1.999   1.168  0.00  0.00     0.078 C 
ATOM      3  C1  OXE d   1       1.629  -1.106  -0.047  0.00  0.00    -0.078 A 
ATOM      4  C2  OXE d   1       2.842  -0.862  -0.645  0.00  0.00    -0.078 A 
ATOM      5  C3  OXE d   1       2.897  -0.089  -1.802  0.00  0.00     0.003 A 
ATOM      6  C4  OXE d   1       1.753   0.566  -2.272  0.00  0.00    -0.002 A 
ATOM      7  C5  OXE d   1       0.514   0.362  -1.655  0.00  0.00    -0.002 A 
ATOM      8  C6  OXE d   1       0.428  -0.502  -0.569  0.00  0.00     0.003 A 
ENDROOT
TORSDOF 0
ENDMDL
