MODEL 1
REMARK minimizedAffinity -1.04994988
REMARK minimizedRMSD -1
REMARK  0 active torsions:
REMARK  status: ('A' for Active; 'I' for Inactive)
ROOT
ATOM      1  C2' OXE d   1       0.769  -1.619   2.360  0.00  0.00     0.078 C 
ATOM      2  C1' OXE d   1      -1.597  -1.820   0.863  0.00  0.00     0.078 C 
ATOM      3  C1  OXE d   1      -1.539  -0.777   1.951  0.00  0.00    -0.078 A 
ATOM      4  C2  OXE d   1      -0.395  -0.717   2.710  0.00  0.00    -0.078 A 
ATOM      5  C3  OXE d   1      -0.269   0.262   3.690  0.00  0.00     0.003 A 
ATOM      6  C4  OXE d   1      -1.354   1.086   4.014  0.00  0.00    -0.002 A 
ATOM      7  C5  OXE d   1      -2.543   1.014   3.280  0.00  0.00    -0.002 A 
ATOM      8  C6  OXE d   1      -2.637   0.119   2.220  0.00  0.00     0.003 A 
ENDROOT
TORSDOF 0
ENDMDL
