MODEL 1
REMARK minimizedAffinity 10.6538582
REMARK minimizedRMSD -1
REMARK  0 active torsions:
REMARK  status: ('A' for Active; 'I' for Inactive)
ROOT
ATOM      1  C2' OXE d   1       0.997   0.233   2.795  0.00  0.00     0.078 C 
ATOM      2  C1' OXE d   1       2.430  -1.787   1.474  0.00  0.00     0.078 C 
ATOM      3  C1  OXE d   1       1.087  -2.146   2.061  0.00  0.00    -0.078 A 
ATOM      4  C2  OXE d   1       0.414  -1.163   2.746  0.00  0.00    -0.078 A 
ATOM      5  C3  OXE d   1      -0.852  -1.425   3.260  0.00  0.00     0.003 A 
ATOM      6  C4  OXE d   1      -1.380  -2.721   3.220  0.00  0.00    -0.002 A 
ATOM      7  C5  OXE d   1      -0.693  -3.747   2.561  0.00  0.00    -0.002 A 
ATOM      8  C6  OXE d   1       0.520  -3.466   1.941  0.00  0.00     0.003 A 
ENDROOT
TORSDOF 0
ENDMDL
