MODEL 1
REMARK minimizedAffinity 4.52622843
REMARK minimizedRMSD -1
REMARK  0 active torsions:
REMARK  status: ('A' for Active; 'I' for Inactive)
ROOT
ATOM      1  C2' OXE d   1      -0.651  -1.857   1.704  0.00  0.00     0.078 C 
ATOM      2  C1' OXE d   1       2.044  -1.176   2.098  0.00  0.00     0.078 C 
ATOM      3  C1  OXE d   1       1.484  -1.053   0.703  0.00  0.00    -0.078 A 
ATOM      4  C2  OXE d   1       0.177  -1.433   0.510  0.00  0.00    -0.078 A 
ATOM      5  C3  OXE d   1      -0.405  -1.287  -0.746  0.00  0.00     0.003 A 
ATOM      6  C4  OXE d   1       0.370  -0.904  -1.846  0.00  0.00    -0.002 A 
ATOM      7  C5  OXE d   1       1.714  -0.550  -1.680  0.00  0.00    -0.002 A 
ATOM      8  C6  OXE d   1       2.273  -0.578  -0.407  0.00  0.00     0.003 A 
ENDROOT
TORSDOF 0
ENDMDL
