MODEL 1
REMARK minimizedAffinity -3.40026593
REMARK minimizedRMSD -1
REMARK  0 active torsions:
REMARK  status: ('A' for Active; 'I' for Inactive)
ROOT
ATOM      1  C4' PXY d   1       1.753  -0.947   0.082  0.00  0.00     0.077 C 
ATOM      2  C1' PXY d   1      -2.973   2.183   1.216  0.00  0.00     0.077 C 
ATOM      3  C1  PXY d   1      -1.739   1.360   0.906  0.00  0.00    -0.082 A 
ATOM      4  C2  PXY d   1      -1.057   0.807   1.896  0.00  0.00     0.003 A 
ATOM      5  C3  PXY d   1       0.081   0.086   1.637  0.00  0.00     0.003 A 
ATOM      6  C4  PXY d   1       0.494  -0.115   0.347  0.00  0.00    -0.082 A 
ATOM      7  C5  PXY d   1      -0.202   0.437  -0.669  0.00  0.00     0.003 A 
ATOM      8  C6  PXY d   1      -1.330   1.200  -0.382  0.00  0.00     0.003 A 
ENDROOT
TORSDOF 0
ENDMDL
