MODEL 1
REMARK minimizedAffinity -3.85003471
REMARK minimizedRMSD -1
REMARK  0 active torsions:
REMARK  status: ('A' for Active; 'I' for Inactive)
ROOT
ATOM      1  C4' PXY d   1      -0.347  -0.790   3.079  0.00  0.00     0.077 C 
ATOM      2  C1' PXY d   1      -0.421   2.306  -1.802  0.00  0.00     0.077 C 
ATOM      3  C1  PXY d   1      -0.404   1.505  -0.515  0.00  0.00    -0.082 A 
ATOM      4  C2  PXY d   1       0.287   0.378  -0.455  0.00  0.00     0.003 A 
ATOM      5  C3  PXY d   1       0.287  -0.375   0.691  0.00  0.00     0.003 A 
ATOM      6  C4  PXY d   1      -0.385   0.056   1.804  0.00  0.00    -0.082 A 
ATOM      7  C5  PXY d   1      -1.084   1.210   1.753  0.00  0.00     0.003 A 
ATOM      8  C6  PXY d   1      -1.105   1.939   0.567  0.00  0.00     0.003 A 
ENDROOT
TORSDOF 0
ENDMDL
