MODEL 1
REMARK minimizedAffinity -5.43736029
REMARK minimizedRMSD -1
REMARK  0 active torsions:
REMARK  status: ('A' for Active; 'I' for Inactive)
ROOT
ATOM      1  C4' PXY d   1       1.132  -1.491  -1.099  0.00  0.00     0.077 C 
ATOM      2  C1' PXY d   1      -1.827   2.676   1.601  0.00  0.00     0.077 C 
ATOM      3  C1  PXY d   1      -1.054   1.588   0.882  0.00  0.00    -0.082 A 
ATOM      4  C2  PXY d   1      -0.856   0.424   1.477  0.00  0.00     0.003 A 
ATOM      5  C3  PXY d   1      -0.132  -0.560   0.854  0.00  0.00     0.003 A 
ATOM      6  C4  PXY d   1       0.349  -0.368  -0.414  0.00  0.00    -0.082 A 
ATOM      7  C5  PXY d   1       0.142   0.814  -1.032  0.00  0.00     0.003 A 
ATOM      8  C6  PXY d   1      -0.561   1.814  -0.366  0.00  0.00     0.003 A 
ENDROOT
TORSDOF 0
ENDMDL
