MODEL 1
REMARK minimizedAffinity -4.93345737
REMARK minimizedRMSD -1
REMARK  0 active torsions:
REMARK  status: ('A' for Active; 'I' for Inactive)
ROOT
ATOM      1  C4' PXY d   1       1.638  -1.321  -0.745  0.00  0.00     0.077 C 
ATOM      2  C1' PXY d   1      -2.244   2.487   1.218  0.00  0.00     0.077 C 
ATOM      3  C1  PXY d   1      -1.223   1.485   0.716  0.00  0.00    -0.082 A 
ATOM      4  C2  PXY d   1      -0.691   1.640  -0.486  0.00  0.00     0.003 A 
ATOM      5  C3  PXY d   1       0.210   0.726  -0.969  0.00  0.00     0.003 A 
ATOM      6  C4  PXY d   1       0.610  -0.329  -0.193  0.00  0.00    -0.082 A 
ATOM      7  C5  PXY d   1       0.080  -0.488   1.039  0.00  0.00     0.003 A 
ATOM      8  C6  PXY d   1      -0.863   0.429   1.494  0.00  0.00     0.003 A 
ENDROOT
TORSDOF 0
ENDMDL
