MODEL 1
REMARK minimizedAffinity 0.961333632
REMARK minimizedRMSD -1
REMARK  0 active torsions:
REMARK  status: ('A' for Active; 'I' for Inactive)
ROOT
ATOM      1  C4' PXY d   1      -1.535  -1.742   0.979  0.00  0.00     0.077 C 
ATOM      2  C1' PXY d   1       0.365   2.830  -2.005  0.00  0.00     0.077 C 
ATOM      3  C1  PXY d   1      -0.124   1.624  -1.228  0.00  0.00    -0.082 A 
ATOM      4  C2  PXY d   1      -1.378   1.581  -0.807  0.00  0.00     0.003 A 
ATOM      5  C3  PXY d   1      -1.828   0.512  -0.075  0.00  0.00     0.003 A 
ATOM      6  C4  PXY d   1      -1.001  -0.548   0.183  0.00  0.00    -0.082 A 
ATOM      7  C5  PXY d   1       0.277  -0.517  -0.253  0.00  0.00     0.003 A 
ATOM      8  C6  PXY d   1       0.726   0.596  -0.958  0.00  0.00     0.003 A 
ENDROOT
TORSDOF 0
ENDMDL
