MODEL 1
REMARK minimizedAffinity -5.16373634
REMARK minimizedRMSD -1
REMARK  0 active torsions:
REMARK  status: ('A' for Active; 'I' for Inactive)
ROOT
ATOM      1  C4' PXY d   1      -1.976   2.039   1.429  0.00  0.00     0.077 C 
ATOM      2  C1' PXY d   1       0.931  -2.165  -1.270  0.00  0.00     0.077 C 
ATOM      3  C1  PXY d   1       0.170  -1.069  -0.551  0.00  0.00    -0.082 A 
ATOM      4  C2  PXY d   1      -0.673  -0.305  -1.227  0.00  0.00     0.003 A 
ATOM      5  C3  PXY d   1      -1.345   0.711  -0.599  0.00  0.00     0.003 A 
ATOM      6  C4  PXY d   1      -1.193   0.915   0.746  0.00  0.00    -0.082 A 
ATOM      7  C5  PXY d   1      -0.343   0.133   1.445  0.00  0.00     0.003 A 
ATOM      8  C6  PXY d   1       0.361  -0.867   0.781  0.00  0.00     0.003 A 
ENDROOT
TORSDOF 0
ENDMDL
