MODEL 1
REMARK minimizedAffinity -3.67635894
REMARK minimizedRMSD -1
REMARK  0 active torsions:
REMARK  status: ('A' for Active; 'I' for Inactive)
ROOT
ATOM      1  C4' PXY d   1      -1.274   3.453  -1.327  0.00  0.00     0.077 C 
ATOM      2  C1' PXY d   1      -0.043  -0.580   2.628  0.00  0.00     0.077 C 
ATOM      3  C1  PXY d   1      -0.375   0.483   1.599  0.00  0.00    -0.082 A 
ATOM      4  C2  PXY d   1      -0.143   0.248   0.318  0.00  0.00     0.003 A 
ATOM      5  C3  PXY d   1      -0.407   1.210  -0.623  0.00  0.00     0.003 A 
ATOM      6  C4  PXY d   1      -0.963   2.405  -0.254  0.00  0.00    -0.082 A 
ATOM      7  C5  PXY d   1      -1.213   2.648   1.050  0.00  0.00     0.003 A 
ATOM      8  C6  PXY d   1      -0.900   1.674   1.994  0.00  0.00     0.003 A 
ENDROOT
TORSDOF 0
ENDMDL
