MODEL 1
REMARK minimizedAffinity -3.40501976
REMARK minimizedRMSD -1
REMARK  0 active torsions:
REMARK  status: ('A' for Active; 'I' for Inactive)
ROOT
ATOM      1  C4' PXY d   1      -0.750  -0.895  -1.176  0.00  0.00     0.077 C 
ATOM      2  C1' PXY d   1       0.346   1.386   4.021  0.00  0.00     0.077 C 
ATOM      3  C1  PXY d   1       0.047   0.794   2.658  0.00  0.00    -0.082 A 
ATOM      4  C2  PXY d   1       0.659  -0.316   2.279  0.00  0.00     0.003 A 
ATOM      5  C3  PXY d   1       0.424  -0.848   1.037  0.00  0.00     0.003 A 
ATOM      6  C4  PXY d   1      -0.486  -0.266   0.195  0.00  0.00    -0.082 A 
ATOM      7  C5  PXY d   1      -1.122   0.861   0.579  0.00  0.00     0.003 A 
ATOM      8  C6  PXY d   1      -0.839   1.408   1.827  0.00  0.00     0.003 A 
ENDROOT
TORSDOF 0
ENDMDL
