MODEL 1
REMARK minimizedAffinity -5.06337261
REMARK minimizedRMSD -1
REMARK  0 active torsions:
REMARK  status: ('A' for Active; 'I' for Inactive)
ROOT
ATOM      1  C4' PXY d   1       1.463  -1.148  -0.900  0.00  0.00     0.077 C 
ATOM      2  C1' PXY d   1      -2.105   2.617   1.652  0.00  0.00     0.077 C 
ATOM      3  C1  PXY d   1      -1.174   1.633   0.971  0.00  0.00    -0.082 A 
ATOM      4  C2  PXY d   1      -0.701   0.602   1.651  0.00  0.00     0.003 A 
ATOM      5  C3  PXY d   1       0.167  -0.280   1.061  0.00  0.00     0.003 A 
ATOM      6  C4  PXY d   1       0.513  -0.134  -0.256  0.00  0.00    -0.082 A 
ATOM      7  C5  PXY d   1       0.026   0.909  -0.961  0.00  0.00     0.003 A 
ATOM      8  C6  PXY d   1      -0.822   1.816  -0.331  0.00  0.00     0.003 A 
ENDROOT
TORSDOF 0
ENDMDL
