MODEL 1
REMARK minimizedAffinity -4.14996099
REMARK minimizedRMSD -1
REMARK  0 active torsions:
REMARK  status: ('A' for Active; 'I' for Inactive)
ROOT
ATOM      1  C4' PXY d   1       0.863  -2.299  -2.531  0.00  0.00     0.077 C 
ATOM      2  C1' PXY d   1      -1.038   1.306   1.569  0.00  0.00     0.077 C 
ATOM      3  C1  PXY d   1      -0.530   0.369   0.491  0.00  0.00    -0.082 A 
ATOM      4  C2  PXY d   1      -1.367  -0.476  -0.089  0.00  0.00     0.003 A 
ATOM      5  C3  PXY d   1      -0.917  -1.352  -1.043  0.00  0.00     0.003 A 
ATOM      6  C4  PXY d   1       0.392  -1.328  -1.445  0.00  0.00    -0.082 A 
ATOM      7  C5  PXY d   1       1.249  -0.461  -0.865  0.00  0.00     0.003 A 
ATOM      8  C6  PXY d   1       0.782   0.392   0.130  0.00  0.00     0.003 A 
ENDROOT
TORSDOF 0
ENDMDL
