MODEL 1
REMARK minimizedAffinity -4.83881998
REMARK minimizedRMSD -1
REMARK  0 active torsions:
REMARK  status: ('A' for Active; 'I' for Inactive)
ROOT
ATOM      1  C4' PXY d   1       0.306  -1.927  -2.010  0.00  0.00     0.077 C 
ATOM      2  C1' PXY d   1      -0.796   1.903   2.176  0.00  0.00     0.077 C 
ATOM      3  C1  PXY d   1      -0.495   0.899   1.082  0.00  0.00    -0.082 A 
ATOM      4  C2  PXY d   1      -1.299   0.811   0.035  0.00  0.00     0.003 A 
ATOM      5  C3  PXY d   1      -1.059  -0.114  -0.948  0.00  0.00     0.003 A 
ATOM      6  C4  PXY d   1       0.046  -0.921  -0.886  0.00  0.00    -0.082 A 
ATOM      7  C5  PXY d   1       0.877  -0.829   0.174  0.00  0.00     0.003 A 
ATOM      8  C6  PXY d   1       0.593   0.087   1.181  0.00  0.00     0.003 A 
ENDROOT
TORSDOF 0
ENDMDL
