MODEL 1
REMARK minimizedAffinity -3.65397811
REMARK minimizedRMSD -1
REMARK  0 active torsions:
REMARK  status: ('A' for Active; 'I' for Inactive)
ROOT
ATOM      1  C4' PXY d   1       2.075  -0.371  -0.449  0.00  0.00     0.077 C 
ATOM      2  C1' PXY d   1      -3.059   1.480   1.457  0.00  0.00     0.077 C 
ATOM      3  C1  PXY d   1      -1.707   0.995   0.969  0.00  0.00    -0.082 A 
ATOM      4  C2  PXY d   1      -1.379   1.146  -0.304  0.00  0.00     0.003 A 
ATOM      5  C3  PXY d   1      -0.174   0.684  -0.768  0.00  0.00     0.003 A 
ATOM      6  C4  PXY d   1       0.726   0.111   0.090  0.00  0.00    -0.082 A 
ATOM      7  C5  PXY d   1       0.403  -0.036   1.392  0.00  0.00     0.003 A 
ATOM      8  C6  PXY d   1      -0.842   0.402   1.835  0.00  0.00     0.003 A 
ENDROOT
TORSDOF 0
ENDMDL
