MODEL 1
REMARK minimizedAffinity -5.17041874
REMARK minimizedRMSD -1
REMARK  0 active torsions:
REMARK  status: ('A' for Active; 'I' for Inactive)
ROOT
ATOM      1  C4' PXY d   1       1.065  -1.770  -1.050  0.00  0.00     0.077 C 
ATOM      2  C1' PXY d   1      -1.803   2.330   1.845  0.00  0.00     0.077 C 
ATOM      3  C1  PXY d   1      -1.044   1.252   1.097  0.00  0.00    -0.082 A 
ATOM      4  C2  PXY d   1      -0.969   1.301  -0.224  0.00  0.00     0.003 A 
ATOM      5  C3  PXY d   1      -0.314   0.318  -0.918  0.00  0.00     0.003 A 
ATOM      6  C4  PXY d   1       0.317  -0.698  -0.252  0.00  0.00    -0.082 A 
ATOM      7  C5  PXY d   1       0.255  -0.750   1.096  0.00  0.00     0.003 A 
ATOM      8  C6  PXY d   1      -0.450   0.236   1.780  0.00  0.00     0.003 A 
ENDROOT
TORSDOF 0
ENDMDL
