MODEL 1
REMARK minimizedAffinity -3.78503847
REMARK minimizedRMSD -1
REMARK  0 active torsions:
REMARK  status: ('A' for Active; 'I' for Inactive)
ROOT
ATOM      1  C4' PXY d   1       1.223  -1.474  -1.305  0.00  0.00     0.077 C 
ATOM      2  C1' PXY d   1      -1.575   2.032   2.342  0.00  0.00     0.077 C 
ATOM      3  C1  PXY d   1      -0.852   1.112   1.378  0.00  0.00    -0.082 A 
ATOM      4  C2  PXY d   1       0.165   0.383   1.807  0.00  0.00     0.003 A 
ATOM      5  C3  PXY d   1       0.851  -0.430   0.942  0.00  0.00     0.003 A 
ATOM      6  C4  PXY d   1       0.458  -0.538  -0.365  0.00  0.00    -0.082 A 
ATOM      7  C5  PXY d   1      -0.586   0.194  -0.809  0.00  0.00     0.003 A 
ATOM      8  C6  PXY d   1      -1.243   1.045   0.076  0.00  0.00     0.003 A 
ENDROOT
TORSDOF 0
ENDMDL
