MODEL 1
REMARK minimizedAffinity -4.16209221
REMARK minimizedRMSD -1
REMARK  0 active torsions:
REMARK  status: ('A' for Active; 'I' for Inactive)
ROOT
ATOM      1  C4' PXY d   1      -1.069  -1.034   3.324  0.00  0.00     0.077 C 
ATOM      2  C1' PXY d   1      -0.693   2.155  -1.482  0.00  0.00     0.077 C 
ATOM      3  C1  PXY d   1      -0.799   1.328  -0.216  0.00  0.00    -0.082 A 
ATOM      4  C2  PXY d   1       0.119   0.412   0.045  0.00  0.00     0.003 A 
ATOM      5  C3  PXY d   1       0.021  -0.367   1.170  0.00  0.00     0.003 A 
ATOM      6  C4  PXY d   1      -0.998  -0.170   2.063  0.00  0.00    -0.082 A 
ATOM      7  C5  PXY d   1      -1.932   0.770   1.809  0.00  0.00     0.003 A 
ATOM      8  C6  PXY d   1      -1.838   1.522   0.641  0.00  0.00     0.003 A 
ENDROOT
TORSDOF 0
ENDMDL
