MODEL 1
REMARK minimizedAffinity -4.25611687
REMARK minimizedRMSD -1
REMARK  0 active torsions:
REMARK  status: ('A' for Active; 'I' for Inactive)
ROOT
ATOM      1  C4' PXY d   1       1.343  -1.286  -1.098  0.00  0.00     0.077 C 
ATOM      2  C1' PXY d   1      -1.509   2.670   2.007  0.00  0.00     0.077 C 
ATOM      3  C1  PXY d   1      -0.762   1.640   1.182  0.00  0.00    -0.082 A 
ATOM      4  C2  PXY d   1      -0.771   0.371   1.556  0.00  0.00     0.003 A 
ATOM      5  C3  PXY d   1      -0.074  -0.568   0.840  0.00  0.00     0.003 A 
ATOM      6  C4  PXY d   1       0.595  -0.214  -0.301  0.00  0.00    -0.082 A 
ATOM      7  C5  PXY d   1       0.600   1.077  -0.695  0.00  0.00     0.003 A 
ATOM      8  C6  PXY d   1      -0.079   2.022   0.069  0.00  0.00     0.003 A 
ENDROOT
TORSDOF 0
ENDMDL
