MODEL 1
REMARK minimizedAffinity -2.34729147
REMARK minimizedRMSD -1
REMARK  0 active torsions:
REMARK  status: ('A' for Active; 'I' for Inactive)
ROOT
ATOM      1  C4' PXY d   1       1.336  -2.031   0.082  0.00  0.00     0.077 C 
ATOM      2  C1' PXY d   1      -2.358   2.333   0.934  0.00  0.00     0.077 C 
ATOM      3  C1  PXY d   1      -1.384   1.191   0.722  0.00  0.00    -0.082 A 
ATOM      4  C2  PXY d   1      -1.111   0.784  -0.507  0.00  0.00     0.003 A 
ATOM      5  C3  PXY d   1      -0.257  -0.268  -0.715  0.00  0.00     0.003 A 
ATOM      6  C4  PXY d   1       0.365  -0.876   0.343  0.00  0.00    -0.082 A 
ATOM      7  C5  PXY d   1       0.100  -0.459   1.599  0.00  0.00     0.003 A 
ATOM      8  C6  PXY d   1      -0.801   0.584   1.791  0.00  0.00     0.003 A 
ENDROOT
TORSDOF 0
ENDMDL
