MODEL 1
REMARK minimizedAffinity -3.32856083
REMARK minimizedRMSD -1
REMARK  0 active torsions:
REMARK  status: ('A' for Active; 'I' for Inactive)
ROOT
ATOM      1  C4' PXY d   1       0.943  -4.723  -4.339  0.00  0.00     0.077 C 
ATOM      2  C1' PXY d   1       0.399  -0.525  -0.402  0.00  0.00     0.077 C 
ATOM      3  C1  PXY d   1       0.531  -1.622  -1.440  0.00  0.00    -0.082 A 
ATOM      4  C2  PXY d   1       1.253  -2.697  -1.168  0.00  0.00     0.003 A 
ATOM      5  C3  PXY d   1       1.408  -3.684  -2.107  0.00  0.00     0.003 A 
ATOM      6  C4  PXY d   1       0.775  -3.594  -3.318  0.00  0.00    -0.082 A 
ATOM      7  C5  PXY d   1       0.028  -2.506  -3.599  0.00  0.00     0.003 A 
ATOM      8  C6  PXY d   1      -0.084  -1.496  -2.647  0.00  0.00     0.003 A 
ENDROOT
TORSDOF 0
ENDMDL
