MODEL 1
REMARK minimizedAffinity -4.19121027
REMARK minimizedRMSD -1
REMARK  0 active torsions:
REMARK  status: ('A' for Active; 'I' for Inactive)
ROOT
ATOM      1  C4' PXY d   1       1.320  -1.330  -0.481  0.00  0.00     0.077 C 
ATOM      2  C1' PXY d   1      -2.923   2.047   1.520  0.00  0.00     0.077 C 
ATOM      3  C1  PXY d   1      -1.813   1.152   1.004  0.00  0.00    -0.082 A 
ATOM      4  C2  PXY d   1      -0.801   1.684   0.338  0.00  0.00     0.003 A 
ATOM      5  C3  PXY d   1       0.195   0.886  -0.163  0.00  0.00     0.003 A 
ATOM      6  C4  PXY d   1       0.182  -0.464   0.066  0.00  0.00    -0.082 A 
ATOM      7  C5  PXY d   1      -0.842  -1.013   0.753  0.00  0.00     0.003 A 
ATOM      8  C6  PXY d   1      -1.864  -0.190   1.218  0.00  0.00     0.003 A 
ENDROOT
TORSDOF 0
ENDMDL
