MODEL 1
REMARK minimizedAffinity -1.27512383
REMARK minimizedRMSD -1
REMARK  0 active torsions:
REMARK  status: ('A' for Active; 'I' for Inactive)
ROOT
ATOM      1  C   UNL d   1       5.962  -2.440  -5.991  0.00  0.00     0.172 C 
ATOM      2  N   UNL d   1       5.977  -1.179  -5.287  0.00  0.00    -0.070 N 
ATOM      3  C1  UNL d   1       5.986  -1.025  -3.926  0.00  0.00    -0.004 A 
ATOM      4  C2  UNL d   1       5.999   0.326  -3.655  0.00  0.00    -0.047 A 
ATOM      5  C3  UNL d   1       5.998   1.007  -4.895  0.00  0.00    -0.047 A 
ATOM      6  C4  UNL d   1       5.984   0.051  -5.888  0.00  0.00    -0.004 A 
ENDROOT
TORSDOF 0
ENDMDL
