MODEL 1
REMARK minimizedAffinity 2.13446808
REMARK minimizedRMSD -1
REMARK  0 active torsions:
REMARK  status: ('A' for Active; 'I' for Inactive)
ROOT
ATOM      1  C   UNL d   1       5.975   0.736  -2.385  0.00  0.00     0.172 C 
ATOM      2  N   UNL d   1       5.976   0.321  -3.768  0.00  0.00    -0.070 N 
ATOM      3  C1  UNL d   1       5.998   1.156  -4.852  0.00  0.00    -0.004 A 
ATOM      4  C2  UNL d   1       5.992   0.375  -5.987  0.00  0.00    -0.047 A 
ATOM      5  C3  UNL d   1       5.964  -0.977  -5.571  0.00  0.00    -0.047 A 
ATOM      6  C4  UNL d   1       5.955  -0.982  -4.192  0.00  0.00    -0.004 A 
ENDROOT
TORSDOF 0
ENDMDL
