MODEL 1
REMARK minimizedAffinity -1.68570745
REMARK minimizedRMSD -1
REMARK  0 active torsions:
REMARK  status: ('A' for Active; 'I' for Inactive)
ROOT
ATOM      1  C   UNL d   1       0.803   0.401  -1.508  0.00  0.00     0.172 C 
ATOM      2  N   UNL d   1       1.431   1.430  -2.303  0.00  0.00    -0.070 N 
ATOM      3  C1  UNL d   1       1.307   1.579  -3.658  0.00  0.00    -0.004 A 
ATOM      4  C2  UNL d   1       2.055   2.674  -4.033  0.00  0.00    -0.047 A 
ATOM      5  C3  UNL d   1       2.650   3.201  -2.862  0.00  0.00    -0.047 A 
ATOM      6  C4  UNL d   1       2.247   2.412  -1.806  0.00  0.00    -0.004 A 
ENDROOT
TORSDOF 0
ENDMDL
