MODEL 1
REMARK minimizedAffinity -1.59078014
REMARK minimizedRMSD -1
REMARK  0 active torsions:
REMARK  status: ('A' for Active; 'I' for Inactive)
ROOT
ATOM      1  C   UNL d   1       5.935   0.462  -2.525  0.00  0.00     0.172 C 
ATOM      2  N   UNL d   1       5.952  -0.209  -3.804  0.00  0.00    -0.070 N 
ATOM      3  C1  UNL d   1       5.997  -1.564  -3.994  0.00  0.00    -0.004 A 
ATOM      4  C2  UNL d   1       5.998  -1.800  -5.352  0.00  0.00    -0.047 A 
ATOM      5  C3  UNL d   1       5.954  -0.543  -6.000  0.00  0.00    -0.047 A 
ATOM      6  C4  UNL d   1       5.926   0.425  -5.018  0.00  0.00    -0.004 A 
ENDROOT
TORSDOF 0
ENDMDL
