MODEL 1
REMARK minimizedAffinity 6.5601697
REMARK minimizedRMSD -1
REMARK  0 active torsions:
REMARK  status: ('A' for Active; 'I' for Inactive)
ROOT
ATOM      1  C   UNL d   1       0.689  -5.864   1.881  0.00  0.00     0.172 C 
ATOM      2  N   UNL d   1       0.680  -4.522   1.348  0.00  0.00    -0.070 N 
ATOM      3  C1  UNL d   1       1.770  -3.703   1.229  0.00  0.00    -0.004 A 
ATOM      4  C2  UNL d   1       1.346  -2.513   0.677  0.00  0.00    -0.047 A 
ATOM      5  C3  UNL d   1      -0.047  -2.622   0.456  0.00  0.00    -0.047 A 
ATOM      6  C4  UNL d   1      -0.434  -3.876   0.880  0.00  0.00    -0.004 A 
ENDROOT
TORSDOF 0
ENDMDL
