MODEL 1
REMARK minimizedAffinity 3.50834441
REMARK minimizedRMSD -1
REMARK  0 active torsions:
REMARK  status: ('A' for Active; 'I' for Inactive)
ROOT
ATOM      1  C   UNL d   1      -3.731   4.886   2.413  0.00  0.00     0.172 C 
ATOM      2  N   UNL d   1      -4.217   5.133   3.751  0.00  0.00    -0.070 N 
ATOM      3  C1  UNL d   1      -5.226   5.995   4.087  0.00  0.00    -0.004 A 
ATOM      4  C2  UNL d   1      -5.386   5.943   5.455  0.00  0.00    -0.047 A 
ATOM      5  C3  UNL d   1      -4.439   5.019   5.958  0.00  0.00    -0.047 A 
ATOM      6  C4  UNL d   1      -3.728   4.533   4.881  0.00  0.00    -0.004 A 
ENDROOT
TORSDOF 0
ENDMDL
