MODEL 1
REMARK minimizedAffinity 2.31565046
REMARK minimizedRMSD -1
REMARK  0 active torsions:
REMARK  status: ('A' for Active; 'I' for Inactive)
ROOT
ATOM      1  C   UNL d   1       5.997   1.760  -2.942  0.00  0.00     0.172 C 
ATOM      2  N   UNL d   1       5.997   0.749  -3.973  0.00  0.00    -0.070 N 
ATOM      3  C1  UNL d   1       5.999  -0.604  -3.764  0.00  0.00    -0.004 A 
ATOM      4  C2  UNL d   1       5.998  -1.222  -4.997  0.00  0.00    -0.047 A 
ATOM      5  C3  UNL d   1       5.997  -0.204  -5.980  0.00  0.00    -0.047 A 
ATOM      6  C4  UNL d   1       5.996   1.006  -5.319  0.00  0.00    -0.004 A 
ENDROOT
TORSDOF 0
ENDMDL
