MODEL 1
REMARK minimizedAffinity -2.19459629
REMARK minimizedRMSD -1
REMARK  0 active torsions:
REMARK  status: ('A' for Active; 'I' for Inactive)
ROOT
ATOM      1  C   UNL d   1       5.991   1.054  -2.535  0.00  0.00     0.172 C 
ATOM      2  N   UNL d   1       5.982   0.371  -3.807  0.00  0.00    -0.070 N 
ATOM      3  C1  UNL d   1       6.000  -0.987  -3.983  0.00  0.00    -0.004 A 
ATOM      4  C2  UNL d   1       5.982  -1.237  -5.339  0.00  0.00    -0.047 A 
ATOM      5  C3  UNL d   1       5.954   0.015  -5.999  0.00  0.00    -0.047 A 
ATOM      6  C4  UNL d   1       5.954   0.992  -5.027  0.00  0.00    -0.004 A 
ENDROOT
TORSDOF 0
ENDMDL
