MODEL 1
REMARK minimizedAffinity 3.96165872
REMARK minimizedRMSD -1
REMARK  0 active torsions:
REMARK  status: ('A' for Active; 'I' for Inactive)
ROOT
ATOM      1  C   UNL d   1      -4.995   3.478   2.932  0.00  0.00     0.172 C 
ATOM      2  N   UNL d   1      -5.033   4.380   4.059  0.00  0.00    -0.070 N 
ATOM      3  C1  UNL d   1      -4.121   5.365   4.325  0.00  0.00    -0.004 A 
ATOM      4  C2  UNL d   1      -4.510   6.000   5.484  0.00  0.00    -0.047 A 
ATOM      5  C3  UNL d   1      -5.697   5.374   5.932  0.00  0.00    -0.047 A 
ATOM      6  C4  UNL d   1      -5.999   4.374   5.031  0.00  0.00    -0.004 A 
ENDROOT
TORSDOF 0
ENDMDL
