MODEL 1
REMARK minimizedAffinity 0.642073929
REMARK minimizedRMSD -1
REMARK  0 active torsions:
REMARK  status: ('A' for Active; 'I' for Inactive)
ROOT
ATOM      1  C   UNL d   1       1.014   2.157  -0.293  0.00  0.00     0.172 C 
ATOM      2  N   UNL d   1       1.081   0.811  -0.811  0.00  0.00    -0.070 N 
ATOM      3  C1  UNL d   1       0.859  -0.334  -0.092  0.00  0.00    -0.004 A 
ATOM      4  C2  UNL d   1       1.017  -1.405  -0.944  0.00  0.00    -0.047 A 
ATOM      5  C3  UNL d   1       1.346  -0.887  -2.219  0.00  0.00    -0.047 A 
ATOM      6  C4  UNL d   1       1.379   0.487  -2.108  0.00  0.00    -0.004 A 
ENDROOT
TORSDOF 0
ENDMDL
