MODEL 1
REMARK minimizedAffinity 1.43882859
REMARK minimizedRMSD -1
REMARK  0 active torsions:
REMARK  status: ('A' for Active; 'I' for Inactive)
ROOT
ATOM      1  C   UNL d   1       1.011   0.488  -3.725  0.00  0.00     0.172 C 
ATOM      2  N   UNL d   1       0.945  -0.053  -2.388  0.00  0.00    -0.070 N 
ATOM      3  C1  UNL d   1       1.405  -1.284  -2.001  0.00  0.00    -0.004 A 
ATOM      4  C2  UNL d   1       1.157  -1.422  -0.652  0.00  0.00    -0.047 A 
ATOM      5  C3  UNL d   1       0.526  -0.234  -0.214  0.00  0.00    -0.047 A 
ATOM      6  C4  UNL d   1       0.407   0.596  -1.308  0.00  0.00    -0.004 A 
ENDROOT
TORSDOF 0
ENDMDL
