MODEL 1
REMARK minimizedAffinity 0.895043671
REMARK minimizedRMSD -1
REMARK  0 active torsions:
REMARK  status: ('A' for Active; 'I' for Inactive)
ROOT
ATOM      1  C   UNL d   1       1.325  -1.743  -3.543  0.00  0.00     0.172 C 
ATOM      2  N   UNL d   1       1.122  -0.632  -2.642  0.00  0.00    -0.070 N 
ATOM      3  C1  UNL d   1       0.912  -0.728  -1.292  0.00  0.00    -0.004 A 
ATOM      4  C2  UNL d   1       0.765   0.550  -0.797  0.00  0.00    -0.047 A 
ATOM      5  C3  UNL d   1       0.891   1.444  -1.886  0.00  0.00    -0.047 A 
ATOM      6  C4  UNL d   1       1.111   0.685  -3.017  0.00  0.00    -0.004 A 
ENDROOT
TORSDOF 0
ENDMDL
