MODEL 1
REMARK minimizedAffinity -2.6575377
REMARK minimizedRMSD -1
REMARK  0 active torsions:
REMARK  status: ('A' for Active; 'I' for Inactive)
ROOT
ATOM      1  C   UNL d   1       0.892   2.119  -2.649  0.00  0.00     0.172 C 
ATOM      2  N   UNL d   1       1.084   0.785  -2.131  0.00  0.00    -0.070 N 
ATOM      3  C1  UNL d   1       0.959   0.412  -0.819  0.00  0.00    -0.004 A 
ATOM      4  C2  UNL d   1       1.220  -0.938  -0.738  0.00  0.00    -0.047 A 
ATOM      5  C3  UNL d   1       1.514  -1.393  -2.045  0.00  0.00    -0.047 A 
ATOM      6  C4  UNL d   1       1.422  -0.305  -2.888  0.00  0.00    -0.004 A 
ENDROOT
TORSDOF 0
ENDMDL
