MODEL 1
REMARK minimizedAffinity -2.39897442
REMARK minimizedRMSD -1
REMARK  0 active torsions:
REMARK  status: ('A' for Active; 'I' for Inactive)
ROOT
ATOM      1  C   UNL d   1       1.128  -1.124  -6.000  0.00  0.00     0.172 C 
ATOM      2  N   UNL d   1       1.342  -1.075  -4.572  0.00  0.00    -0.070 N 
ATOM      3  C1  UNL d   1       1.118  -2.104  -3.696  0.00  0.00    -0.004 A 
ATOM      4  C2  UNL d   1       1.442  -1.660  -2.433  0.00  0.00    -0.047 A 
ATOM      5  C3  UNL d   1       1.876  -0.318  -2.553  0.00  0.00    -0.047 A 
ATOM      6  C4  UNL d   1       1.804   0.018  -3.889  0.00  0.00    -0.004 A 
ENDROOT
TORSDOF 0
ENDMDL
