MODEL 1
REMARK minimizedAffinity 0.681689382
REMARK minimizedRMSD -1
REMARK  0 active torsions:
REMARK  status: ('A' for Active; 'I' for Inactive)
ROOT
ATOM      1  C   UNL d   1       2.394   0.331  -4.510  0.00  0.00     0.172 C 
ATOM      2  N   UNL d   1       3.784   0.544  -4.839  0.00  0.00    -0.070 N 
ATOM      3  C1  UNL d   1       4.254   1.098  -6.000  0.00  0.00    -0.004 A 
ATOM      4  C2  UNL d   1       5.630   1.126  -5.927  0.00  0.00    -0.047 A 
ATOM      5  C3  UNL d   1       6.000   0.569  -4.680  0.00  0.00    -0.047 A 
ATOM      6  C4  UNL d   1       4.838   0.217  -4.027  0.00  0.00    -0.004 A 
ENDROOT
TORSDOF 0
ENDMDL
