MODEL 1
REMARK minimizedAffinity 4.12852764
REMARK minimizedRMSD -1
REMARK  0 active torsions:
REMARK  status: ('A' for Active; 'I' for Inactive)
ROOT
ATOM      1  C   UNL d   1       5.258   1.126  -5.999  0.00  0.00     0.172 C 
ATOM      2  N   UNL d   1       4.123   1.987  -5.764  0.00  0.00    -0.070 N 
ATOM      3  C1  UNL d   1       2.907   1.590  -5.276  0.00  0.00    -0.004 A 
ATOM      4  C2  UNL d   1       2.099   2.703  -5.197  0.00  0.00    -0.047 A 
ATOM      5  C3  UNL d   1       2.855   3.808  -5.655  0.00  0.00    -0.047 A 
ATOM      6  C4  UNL d   1       4.104   3.337  -5.999  0.00  0.00    -0.004 A 
ENDROOT
TORSDOF 0
ENDMDL
