MODEL 1
REMARK minimizedAffinity -0.805678725
REMARK minimizedRMSD -1
REMARK  0 active torsions:
REMARK  status: ('A' for Active; 'I' for Inactive)
ROOT
ATOM      1  C   UNL d   1      -0.867  -2.543   0.310  0.00  0.00     0.124 A 
ATOM      2  C1  UNL d   1      -1.805  -1.542   0.523  0.00  0.00     0.062 A 
ATOM      3  C2  UNL d   1      -1.413  -0.207   0.537  0.00  0.00     0.162 A 
ATOM      4  C3  UNL d   1      -0.076   0.136   0.337  0.00  0.00    -0.034 A 
ATOM      5  C4  UNL d   1       0.862  -0.876   0.124  0.00  0.00     0.162 A 
ATOM      6  C5  UNL d   1       0.465  -2.209   0.111  0.00  0.00     0.062 A 
ATOM      7  F   UNL d   1       1.373  -3.174  -0.095  0.00  0.00    -0.097 F 
ATOM      8  F1  UNL d   1       2.156  -0.581  -0.072  0.00  0.00    -0.096 F 
ATOM      9  I   UNL d   1       0.515   2.132   0.357  0.00  0.00    -0.060 I 
ATOM     10  F2  UNL d   1      -2.341   0.739   0.745  0.00  0.00    -0.096 F 
ATOM     11  F3  UNL d   1      -3.092  -1.862   0.716  0.00  0.00    -0.097 F 
ATOM     12  F4  UNL d   1      -1.247  -3.827   0.298  0.00  0.00    -0.092 F 
ENDROOT
TORSDOF 0
ENDMDL
