MODEL 1
REMARK minimizedAffinity 0.701132417
REMARK minimizedRMSD -1
REMARK  0 active torsions:
REMARK  status: ('A' for Active; 'I' for Inactive)
ROOT
ATOM      1  C   UNL d   1      -0.924  -2.655  -1.104  0.00  0.00     0.124 A 
ATOM      2  C1  UNL d   1      -1.075  -2.244   0.213  0.00  0.00     0.062 A 
ATOM      3  C2  UNL d   1      -0.783  -0.933   0.576  0.00  0.00     0.162 A 
ATOM      4  C3  UNL d   1      -0.336  -0.021  -0.381  0.00  0.00    -0.034 A 
ATOM      5  C4  UNL d   1      -0.185  -0.441  -1.703  0.00  0.00     0.162 A 
ATOM      6  C5  UNL d   1      -0.479  -1.753  -2.061  0.00  0.00     0.062 A 
ATOM      7  F   UNL d   1      -0.332  -2.148  -3.334  0.00  0.00    -0.097 F 
ATOM      8  F1  UNL d   1       0.242   0.409  -2.648  0.00  0.00    -0.096 F 
ATOM      9  I   UNL d   1       0.102   1.941   0.158  0.00  0.00    -0.060 I 
ATOM     10  F2  UNL d   1      -0.939  -0.564   1.856  0.00  0.00    -0.096 F 
ATOM     11  F3  UNL d   1      -1.504  -3.114   1.139  0.00  0.00    -0.097 F 
ATOM     12  F4  UNL d   1      -1.205  -3.918  -1.450  0.00  0.00    -0.092 F 
ENDROOT
TORSDOF 0
ENDMDL
