MODEL 1
REMARK minimizedAffinity -2.49507833
REMARK minimizedRMSD -1
REMARK  0 active torsions:
REMARK  status: ('A' for Active; 'I' for Inactive)
ROOT
ATOM      1  C   UNL d   1       1.842   1.914   0.425  0.00  0.00     0.124 A 
ATOM      2  C1  UNL d   1       2.046   1.258   1.631  0.00  0.00     0.062 A 
ATOM      3  C2  UNL d   1       1.140   0.295   2.066  0.00  0.00     0.162 A 
ATOM      4  C3  UNL d   1       0.022  -0.019   1.293  0.00  0.00    -0.034 A 
ATOM      5  C4  UNL d   1      -0.177   0.645   0.082  0.00  0.00     0.162 A 
ATOM      6  C5  UNL d   1       0.731   1.607  -0.349  0.00  0.00     0.062 A 
ATOM      7  F   UNL d   1       0.533   2.239  -1.514  0.00  0.00    -0.097 F 
ATOM      8  F1  UNL d   1      -1.241   0.367  -0.686  0.00  0.00    -0.096 F 
ATOM      9  I   UNL d   1      -1.335  -1.459   1.940  0.00  0.00    -0.060 I 
ATOM     10  F2  UNL d   1       1.362  -0.322   3.236  0.00  0.00    -0.096 F 
ATOM     11  F3  UNL d   1       3.118   1.554   2.381  0.00  0.00    -0.097 F 
ATOM     12  F4  UNL d   1       2.715   2.841   0.009  0.00  0.00    -0.092 F 
ENDROOT
TORSDOF 0
ENDMDL
