MODEL 1
REMARK minimizedAffinity -1.95239305
REMARK minimizedRMSD -1
REMARK  0 active torsions:
REMARK  status: ('A' for Active; 'I' for Inactive)
ROOT
ATOM      1  C   UNL d   1      -0.911  -0.525   1.091  0.00  0.00     0.124 A 
ATOM      2  C1  UNL d   1      -0.341   0.423   0.253  0.00  0.00     0.062 A 
ATOM      3  C2  UNL d   1       0.072   0.068  -1.027  0.00  0.00     0.162 A 
ATOM      4  C3  UNL d   1      -0.084  -1.242  -1.480  0.00  0.00    -0.034 A 
ATOM      5  C4  UNL d   1      -0.658  -2.191  -0.631  0.00  0.00     0.162 A 
ATOM      6  C5  UNL d   1      -1.069  -1.831   0.648  0.00  0.00     0.062 A 
ATOM      7  F   UNL d   1      -1.619  -2.749   1.456  0.00  0.00    -0.097 F 
ATOM      8  F1  UNL d   1      -0.823  -3.459  -1.034  0.00  0.00    -0.096 F 
ATOM      9  I   UNL d   1       0.532  -1.776  -3.394  0.00  0.00    -0.060 I 
ATOM     10  F2  UNL d   1       0.620   1.006  -1.815  0.00  0.00    -0.096 F 
ATOM     11  F3  UNL d   1      -0.187   1.685   0.679  0.00  0.00    -0.097 F 
ATOM     12  F4  UNL d   1      -1.307  -0.182   2.323  0.00  0.00    -0.092 F 
ENDROOT
TORSDOF 0
ENDMDL
