MODEL 1
REMARK minimizedAffinity -3.48684359
REMARK minimizedRMSD -1
REMARK  0 active torsions:
REMARK  status: ('A' for Active; 'I' for Inactive)
ROOT
ATOM      1  C   UNL d   1       0.063  -2.908  -0.649  0.00  0.00     0.124 A 
ATOM      2  C1  UNL d   1      -0.004  -2.429   0.652  0.00  0.00     0.062 A 
ATOM      3  C2  UNL d   1       0.067  -1.061   0.899  0.00  0.00     0.162 A 
ATOM      4  C3  UNL d   1       0.205  -0.162  -0.158  0.00  0.00    -0.034 A 
ATOM      5  C4  UNL d   1       0.272  -0.651  -1.464  0.00  0.00     0.162 A 
ATOM      6  C5  UNL d   1       0.201  -2.019  -1.705  0.00  0.00     0.062 A 
ATOM      7  F   UNL d   1       0.265  -2.480  -2.963  0.00  0.00    -0.097 F 
ATOM      8  F1  UNL d   1       0.405   0.186  -2.503  0.00  0.00    -0.096 F 
ATOM      9  I   UNL d   1       0.312   1.885   0.207  0.00  0.00    -0.060 I 
ATOM     10  F2  UNL d   1       0.000  -0.626   2.166  0.00  0.00    -0.096 F 
ATOM     11  F3  UNL d   1      -0.136  -3.286   1.675  0.00  0.00    -0.097 F 
ATOM     12  F4  UNL d   1      -0.005  -4.225  -0.883  0.00  0.00    -0.092 F 
ENDROOT
TORSDOF 0
ENDMDL
