MODEL 1
REMARK minimizedAffinity -4.580863
REMARK minimizedRMSD -1
REMARK  0 active torsions:
REMARK  status: ('A' for Active; 'I' for Inactive)
ROOT
ATOM      1  C   UNL d   1      -1.059  -0.555   1.224  0.00  0.00     0.124 A 
ATOM      2  C1  UNL d   1      -0.745   0.430   0.298  0.00  0.00     0.062 A 
ATOM      3  C2  UNL d   1      -0.365   0.080  -0.994  0.00  0.00     0.162 A 
ATOM      4  C3  UNL d   1      -0.297  -1.261  -1.369  0.00  0.00    -0.034 A 
ATOM      5  C4  UNL d   1      -0.613  -2.247  -0.432  0.00  0.00     0.162 A 
ATOM      6  C5  UNL d   1      -0.993  -1.892   0.858  0.00  0.00     0.062 A 
ATOM      7  F   UNL d   1      -1.296  -2.845   1.751  0.00  0.00    -0.097 F 
ATOM      8  F1  UNL d   1      -0.558  -3.546  -0.759  0.00  0.00    -0.096 F 
ATOM      9  I   UNL d   1       0.272  -1.789  -3.301  0.00  0.00    -0.060 I 
ATOM     10  F2  UNL d   1      -0.067   1.053  -1.868  0.00  0.00    -0.096 F 
ATOM     11  F3  UNL d   1      -0.808   1.723   0.649  0.00  0.00    -0.097 F 
ATOM     12  F4  UNL d   1      -1.424  -0.216   2.467  0.00  0.00    -0.092 F 
ENDROOT
TORSDOF 0
ENDMDL
