MODEL 1
REMARK minimizedAffinity -2.03848743
REMARK minimizedRMSD -1
REMARK  0 active torsions:
REMARK  status: ('A' for Active; 'I' for Inactive)
ROOT
ATOM      1  C   UNL d   1      -0.901  -2.575  -0.544  0.00  0.00     0.124 A 
ATOM      2  C1  UNL d   1      -0.464  -1.786  -1.599  0.00  0.00     0.062 A 
ATOM      3  C2  UNL d   1      -0.102  -0.460  -1.379  0.00  0.00     0.162 A 
ATOM      4  C3  UNL d   1      -0.174   0.085  -0.097  0.00  0.00    -0.034 A 
ATOM      5  C4  UNL d   1      -0.615  -0.714   0.959  0.00  0.00     0.162 A 
ATOM      6  C5  UNL d   1      -0.976  -2.038   0.734  0.00  0.00     0.062 A 
ATOM      7  F   UNL d   1      -1.398  -2.799   1.755  0.00  0.00    -0.097 F 
ATOM      8  F1  UNL d   1      -0.696  -0.221   2.204  0.00  0.00    -0.096 F 
ATOM      9  I   UNL d   1       0.367   2.067   0.236  0.00  0.00    -0.060 I 
ATOM     10  F2  UNL d   1       0.316   0.279  -2.417  0.00  0.00    -0.096 F 
ATOM     11  F3  UNL d   1      -0.392  -2.302  -2.835  0.00  0.00    -0.097 F 
ATOM     12  F4  UNL d   1      -1.250  -3.850  -0.759  0.00  0.00    -0.092 F 
ENDROOT
TORSDOF 0
ENDMDL
