MODEL 1
REMARK minimizedAffinity 2.75448656
REMARK minimizedRMSD -1
REMARK  0 active torsions:
REMARK  status: ('A' for Active; 'I' for Inactive)
ROOT
ATOM      1  C   UNL d   1      -0.748  -0.494   1.444  0.00  0.00     0.124 A 
ATOM      2  C1  UNL d   1      -0.220  -0.032   0.247  0.00  0.00     0.062 A 
ATOM      3  C2  UNL d   1      -0.314  -0.807  -0.905  0.00  0.00     0.162 A 
ATOM      4  C3  UNL d   1      -0.940  -2.053  -0.866  0.00  0.00    -0.034 A 
ATOM      5  C4  UNL d   1      -1.468  -2.512   0.342  0.00  0.00     0.162 A 
ATOM      6  C5  UNL d   1      -1.371  -1.733   1.491  0.00  0.00     0.062 A 
ATOM      7  F   UNL d   1      -1.882  -2.182   2.647  0.00  0.00    -0.097 F 
ATOM      8  F1  UNL d   1      -2.076  -3.705   0.415  0.00  0.00    -0.096 F 
ATOM      9  I   UNL d   1      -1.082  -3.215  -2.587  0.00  0.00    -0.060 I 
ATOM     10  F2  UNL d   1       0.206  -0.335  -2.048  0.00  0.00    -0.096 F 
ATOM     11  F3  UNL d   1       0.384   1.165   0.200  0.00  0.00    -0.097 F 
ATOM     12  F4  UNL d   1      -0.655   0.253   2.552  0.00  0.00    -0.092 F 
ENDROOT
TORSDOF 0
ENDMDL
