MODEL 1
REMARK minimizedAffinity -3.4596622
REMARK minimizedRMSD -1
REMARK  0 active torsions:
REMARK  status: ('A' for Active; 'I' for Inactive)
ROOT
ATOM      1  C   UNL d   1      -1.416  -0.932   1.442  0.00  0.00     0.124 A 
ATOM      2  C1  UNL d   1      -0.786   0.086   0.740  0.00  0.00     0.062 A 
ATOM      3  C2  UNL d   1      -0.101  -0.196  -0.438  0.00  0.00     0.162 A 
ATOM      4  C3  UNL d   1      -0.043  -1.503  -0.922  0.00  0.00    -0.034 A 
ATOM      5  C4  UNL d   1      -0.678  -2.522  -0.210  0.00  0.00     0.162 A 
ATOM      6  C5  UNL d   1      -1.362  -2.234   0.967  0.00  0.00     0.062 A 
ATOM      7  F   UNL d   1      -1.970  -3.219   1.644  0.00  0.00    -0.097 F 
ATOM      8  F1  UNL d   1      -0.643  -3.789  -0.648  0.00  0.00    -0.096 F 
ATOM      9  I   UNL d   1       0.981  -1.930  -2.684  0.00  0.00    -0.060 I 
ATOM     10  F2  UNL d   1       0.499   0.807  -1.096  0.00  0.00    -0.096 F 
ATOM     11  F3  UNL d   1      -0.836   1.345   1.198  0.00  0.00    -0.097 F 
ATOM     12  F4  UNL d   1      -2.074  -0.657   2.576  0.00  0.00    -0.092 F 
ENDROOT
TORSDOF 0
ENDMDL
