MODEL 1
REMARK minimizedAffinity -3.38141823
REMARK minimizedRMSD -1
REMARK  0 active torsions:
REMARK  status: ('A' for Active; 'I' for Inactive)
ROOT
ATOM      1  C   UNL d   1      -1.437  -0.343   1.482  0.00  0.00     0.124 A 
ATOM      2  C1  UNL d   1      -1.330  -1.715   1.297  0.00  0.00     0.062 A 
ATOM      3  C2  UNL d   1      -0.565  -2.223   0.250  0.00  0.00     0.162 A 
ATOM      4  C3  UNL d   1       0.099  -1.358  -0.619  0.00  0.00    -0.034 A 
ATOM      5  C4  UNL d   1      -0.014   0.020  -0.428  0.00  0.00     0.162 A 
ATOM      6  C5  UNL d   1      -0.779   0.522   0.619  0.00  0.00     0.062 A 
ATOM      7  F   UNL d   1      -0.881   1.848   0.796  0.00  0.00    -0.097 F 
ATOM      8  F1  UNL d   1       0.612   0.879  -1.246  0.00  0.00    -0.096 F 
ATOM      9  I   UNL d   1       1.244  -2.114  -2.185  0.00  0.00    -0.060 I 
ATOM     10  F2  UNL d   1      -0.480  -3.552   0.096  0.00  0.00    -0.096 F 
ATOM     11  F3  UNL d   1      -1.965  -2.553   2.128  0.00  0.00    -0.097 F 
ATOM     12  F4  UNL d   1      -2.174   0.143   2.489  0.00  0.00    -0.092 F 
ENDROOT
TORSDOF 0
ENDMDL
