MODEL 1
REMARK minimizedAffinity -0.126204729
REMARK minimizedRMSD -1
REMARK  0 active torsions:
REMARK  status: ('A' for Active; 'I' for Inactive)
ROOT
ATOM      1  C   UNL d   1       1.032   4.394   2.026  0.00  0.00     0.124 A 
ATOM      2  C1  UNL d   1       2.078   3.847   1.295  0.00  0.00     0.062 A 
ATOM      3  C2  UNL d   1       1.861   2.733   0.490  0.00  0.00     0.162 A 
ATOM      4  C3  UNL d   1       0.592   2.159   0.409  0.00  0.00    -0.034 A 
ATOM      5  C4  UNL d   1      -0.454   2.714   1.147  0.00  0.00     0.162 A 
ATOM      6  C5  UNL d   1      -0.233   3.828   1.951  0.00  0.00     0.062 A 
ATOM      7  F   UNL d   1      -1.245   4.355   2.655  0.00  0.00    -0.097 F 
ATOM      8  F1  UNL d   1      -1.687   2.187   1.092  0.00  0.00    -0.096 F 
ATOM      9  I   UNL d   1       0.264   0.493  -0.795  0.00  0.00    -0.060 I 
ATOM     10  F2  UNL d   1       2.890   2.225  -0.205  0.00  0.00    -0.096 F 
ATOM     11  F3  UNL d   1       3.301   4.392   1.367  0.00  0.00    -0.097 F 
ATOM     12  F4  UNL d   1       1.243   5.466   2.801  0.00  0.00    -0.092 F 
ENDROOT
TORSDOF 0
ENDMDL
