MODEL 1
REMARK minimizedAffinity 0.397027791
REMARK minimizedRMSD -1
REMARK  0 active torsions:
REMARK  status: ('A' for Active; 'I' for Inactive)
ROOT
ATOM      1  C   UNL d   1      -1.199  -0.607   1.311  0.00  0.00     0.124 A 
ATOM      2  C1  UNL d   1      -1.171  -1.934   0.906  0.00  0.00     0.062 A 
ATOM      3  C2  UNL d   1      -0.710  -2.269  -0.364  0.00  0.00     0.162 A 
ATOM      4  C3  UNL d   1      -0.272  -1.274  -1.238  0.00  0.00    -0.034 A 
ATOM      5  C4  UNL d   1      -0.304   0.058  -0.824  0.00  0.00     0.162 A 
ATOM      6  C5  UNL d   1      -0.766   0.388   0.446  0.00  0.00     0.062 A 
ATOM      7  F   UNL d   1      -0.792   1.671   0.835  0.00  0.00    -0.097 F 
ATOM      8  F1  UNL d   1       0.110   1.040  -1.640  0.00  0.00    -0.096 F 
ATOM      9  I   UNL d   1       0.419  -1.771  -3.138  0.00  0.00    -0.060 I 
ATOM     10  F2  UNL d   1      -0.694  -3.560  -0.729  0.00  0.00    -0.096 F 
ATOM     11  F3  UNL d   1      -1.590  -2.897   1.739  0.00  0.00    -0.097 F 
ATOM     12  F4  UNL d   1      -1.645  -0.288   2.533  0.00  0.00    -0.092 F 
ENDROOT
TORSDOF 0
ENDMDL
