MODEL 1
REMARK minimizedAffinity 0.249282703
REMARK minimizedRMSD -1
REMARK  0 active torsions:
REMARK  status: ('A' for Active; 'I' for Inactive)
ROOT
ATOM      1  C   UNL d   1      -0.824   0.826   0.028  0.00  0.00     0.124 A 
ATOM      2  C1  UNL d   1      -0.023   0.290  -0.970  0.00  0.00     0.062 A 
ATOM      3  C2  UNL d   1       0.188  -1.085  -1.036  0.00  0.00     0.162 A 
ATOM      4  C3  UNL d   1      -0.405  -1.933  -0.101  0.00  0.00    -0.034 A 
ATOM      5  C4  UNL d   1      -1.209  -1.386   0.900  0.00  0.00     0.162 A 
ATOM      6  C5  UNL d   1      -1.416  -0.012   0.962  0.00  0.00     0.062 A 
ATOM      7  F   UNL d   1      -2.191   0.504   1.927  0.00  0.00    -0.097 F 
ATOM      8  F1  UNL d   1      -1.794  -2.174   1.815  0.00  0.00    -0.096 F 
ATOM      9  I   UNL d   1      -0.093  -3.989  -0.197  0.00  0.00    -0.060 I 
ATOM     10  F2  UNL d   1       0.967  -1.575  -2.012  0.00  0.00    -0.096 F 
ATOM     11  F3  UNL d   1       0.551   1.098  -1.873  0.00  0.00    -0.097 F 
ATOM     12  F4  UNL d   1      -1.024   2.149   0.090  0.00  0.00    -0.092 F 
ENDROOT
TORSDOF 0
ENDMDL
