MODEL 1
REMARK minimizedAffinity -3.64292145
REMARK minimizedRMSD -1
REMARK  0 active torsions:
REMARK  status: ('A' for Active; 'I' for Inactive)
ROOT
ATOM      1  C   UNL d   1      -1.191  -1.649   1.296  0.00  0.00     0.124 A 
ATOM      2  C1  UNL d   1      -1.603  -0.477   0.677  0.00  0.00     0.062 A 
ATOM      3  C2  UNL d   1      -1.112  -0.139  -0.581  0.00  0.00     0.162 A 
ATOM      4  C3  UNL d   1      -0.202  -0.975  -1.229  0.00  0.00    -0.034 A 
ATOM      5  C4  UNL d   1       0.209  -2.152  -0.599  0.00  0.00     0.162 A 
ATOM      6  C5  UNL d   1      -0.285  -2.485   0.658  0.00  0.00     0.062 A 
ATOM      7  F   UNL d   1       0.115  -3.617   1.254  0.00  0.00    -0.097 F 
ATOM      8  F1  UNL d   1       1.082  -2.978  -1.194  0.00  0.00    -0.096 F 
ATOM      9  I   UNL d   1       0.535  -0.474  -3.109  0.00  0.00    -0.060 I 
ATOM     10  F2  UNL d   1      -1.528   0.999  -1.155  0.00  0.00    -0.096 F 
ATOM     11  F3  UNL d   1      -2.477   0.332   1.292  0.00  0.00    -0.097 F 
ATOM     12  F4  UNL d   1      -1.664  -1.971   2.506  0.00  0.00    -0.092 F 
ENDROOT
TORSDOF 0
ENDMDL
