MODEL 1
REMARK minimizedAffinity -4.95418406
REMARK minimizedRMSD -1
REMARK  0 active torsions:
REMARK  status: ('A' for Active; 'I' for Inactive)
ROOT
ATOM      1  C4' PXY d   1      -1.144   1.234  -0.747  0.00  0.00     0.077 C 
ATOM      2  C1' PXY d   1       0.995  -2.982   2.579  0.00  0.00     0.077 C 
ATOM      3  C1  PXY d   1       0.446  -1.875   1.702  0.00  0.00    -0.082 A 
ATOM      4  C2  PXY d   1      -0.653  -1.235   2.067  0.00  0.00     0.003 A 
ATOM      5  C3  PXY d   1      -1.181  -0.253   1.269  0.00  0.00     0.003 A 
ATOM      6  C4  PXY d   1      -0.548   0.115   0.112  0.00  0.00    -0.082 A 
ATOM      7  C5  PXY d   1       0.579  -0.526  -0.262  0.00  0.00     0.003 A 
ATOM      8  C6  PXY d   1       1.077  -1.548   0.541  0.00  0.00     0.003 A 
ENDROOT
TORSDOF 0
ENDMDL
