MODEL 1
REMARK minimizedAffinity -2.20204782
REMARK minimizedRMSD -1
REMARK  0 active torsions:
REMARK  status: ('A' for Active; 'I' for Inactive)
ROOT
ATOM      1  C4' PXY d   1       1.796  -1.486   1.051  0.00  0.00     0.077 C 
ATOM      2  C1' PXY d   1      -1.506   2.405  -1.664  0.00  0.00     0.077 C 
ATOM      3  C1  PXY d   1      -0.651   1.380  -0.946  0.00  0.00    -0.082 A 
ATOM      4  C2  PXY d   1       0.636   1.621  -0.753  0.00  0.00     0.003 A 
ATOM      5  C3  PXY d   1       1.431   0.691  -0.134  0.00  0.00     0.003 A 
ATOM      6  C4  PXY d   1       0.892  -0.475   0.339  0.00  0.00    -0.082 A 
ATOM      7  C5  PXY d   1      -0.422  -0.724   0.156  0.00  0.00     0.003 A 
ATOM      8  C6  PXY d   1      -1.203   0.215  -0.511  0.00  0.00     0.003 A 
ENDROOT
TORSDOF 0
ENDMDL
