MODEL 1
REMARK minimizedAffinity -4.6039176
REMARK minimizedRMSD -1
REMARK  0 active torsions:
REMARK  status: ('A' for Active; 'I' for Inactive)
ROOT
ATOM      1  C4' PXY d   1      -0.879   1.427  -0.621  0.00  0.00     0.077 C 
ATOM      2  C1' PXY d   1       1.885  -3.208   1.451  0.00  0.00     0.077 C 
ATOM      3  C1  PXY d   1       1.149  -1.999   0.909  0.00  0.00    -0.082 A 
ATOM      4  C2  PXY d   1       1.781  -1.150   0.116  0.00  0.00     0.003 A 
ATOM      5  C3  PXY d   1       1.140  -0.034  -0.357  0.00  0.00     0.003 A 
ATOM      6  C4  PXY d   1      -0.178   0.187  -0.058  0.00  0.00    -0.082 A 
ATOM      7  C5  PXY d   1      -0.833  -0.680   0.743  0.00  0.00     0.003 A 
ATOM      8  C6  PXY d   1      -0.152  -1.785   1.246  0.00  0.00     0.003 A 
ENDROOT
TORSDOF 0
ENDMDL
