MODEL 1
REMARK minimizedAffinity -4.63580942
REMARK minimizedRMSD -1
REMARK  0 active torsions:
REMARK  status: ('A' for Active; 'I' for Inactive)
ROOT
ATOM      1  C4' PXY d   1      -0.387   1.407  -0.409  0.00  0.00     0.077 C 
ATOM      2  C1' PXY d   1       1.509  -3.594   1.783  0.00  0.00     0.077 C 
ATOM      3  C1  PXY d   1       1.024  -2.278   1.207  0.00  0.00    -0.082 A 
ATOM      4  C2  PXY d   1      -0.198  -1.855   1.483  0.00  0.00     0.003 A 
ATOM      5  C3  PXY d   1      -0.664  -0.683   0.945  0.00  0.00     0.003 A 
ATOM      6  C4  PXY d   1       0.148   0.089   0.158  0.00  0.00    -0.082 A 
ATOM      7  C5  PXY d   1       1.400  -0.331  -0.119  0.00  0.00     0.003 A 
ATOM      8  C6  PXY d   1       1.840  -1.544   0.404  0.00  0.00     0.003 A 
ENDROOT
TORSDOF 0
ENDMDL
