MODEL 1
REMARK minimizedAffinity -5.55608082
REMARK minimizedRMSD -1
REMARK  0 active torsions:
REMARK  status: ('A' for Active; 'I' for Inactive)
ROOT
ATOM      1  C4' PXY d   1      -0.165  -2.599   3.573  0.00  0.00     0.077 C 
ATOM      2  C1' PXY d   1       1.671  -0.222  -1.366  0.00  0.00     0.077 C 
ATOM      3  C1  PXY d   1       1.197  -0.856  -0.073  0.00  0.00    -0.082 A 
ATOM      4  C2  PXY d   1       0.044  -0.479   0.456  0.00  0.00     0.003 A 
ATOM      5  C3  PXY d   1      -0.385  -1.019   1.641  0.00  0.00     0.003 A 
ATOM      6  C4  PXY d   1       0.349  -1.993   2.264  0.00  0.00    -0.082 A 
ATOM      7  C5  PXY d   1       1.521  -2.390   1.726  0.00  0.00     0.003 A 
ATOM      8  C6  PXY d   1       1.958  -1.800   0.543  0.00  0.00     0.003 A 
ENDROOT
TORSDOF 0
ENDMDL
