MODEL 1
REMARK minimizedAffinity -3.35092235
REMARK minimizedRMSD -1
REMARK  0 active torsions:
REMARK  status: ('A' for Active; 'I' for Inactive)
ROOT
ATOM      1  C4' PXY d   1      -0.632   1.749  -0.551  0.00  0.00     0.077 C 
ATOM      2  C1' PXY d   1       1.619  -3.175   1.475  0.00  0.00     0.077 C 
ATOM      3  C1  PXY d   1       1.041  -1.878   0.944  0.00  0.00    -0.082 A 
ATOM      4  C2  PXY d   1      -0.250  -1.628   1.095  0.00  0.00     0.003 A 
ATOM      5  C3  PXY d   1      -0.796  -0.475   0.593  0.00  0.00     0.003 A 
ATOM      6  C4  PXY d   1      -0.003   0.457  -0.023  0.00  0.00    -0.082 A 
ATOM      7  C5  PXY d   1       1.317   0.213  -0.170  0.00  0.00     0.003 A 
ATOM      8  C6  PXY d   1       1.844  -0.982   0.310  0.00  0.00     0.003 A 
ENDROOT
TORSDOF 0
ENDMDL
