MODEL 1
REMARK minimizedAffinity -4.47658157
REMARK minimizedRMSD -1
REMARK  0 active torsions:
REMARK  status: ('A' for Active; 'I' for Inactive)
ROOT
ATOM      1  C4' PXY d   1      -1.015   1.497  -1.108  0.00  0.00     0.077 C 
ATOM      2  C1' PXY d   1       1.688  -2.790   1.673  0.00  0.00     0.077 C 
ATOM      3  C1  PXY d   1       0.967  -1.671   0.947  0.00  0.00    -0.082 A 
ATOM      4  C2  PXY d   1       1.565  -1.052  -0.058  0.00  0.00     0.003 A 
ATOM      5  C3  PXY d   1       0.940  -0.017  -0.704  0.00  0.00     0.003 A 
ATOM      6  C4  PXY d   1      -0.330   0.355  -0.353  0.00  0.00    -0.082 A 
ATOM      7  C5  PXY d   1      -0.950  -0.279   0.665  0.00  0.00     0.003 A 
ATOM      8  C6  PXY d   1      -0.283  -1.300   1.335  0.00  0.00     0.003 A 
ENDROOT
TORSDOF 0
ENDMDL
