MODEL 1
REMARK minimizedAffinity -2.7268846
REMARK minimizedRMSD -1
REMARK  0 active torsions:
REMARK  status: ('A' for Active; 'I' for Inactive)
ROOT
ATOM      1  C4' PXY d   1      -0.432   1.681  -0.550  0.00  0.00     0.077 C 
ATOM      2  C1' PXY d   1       2.130  -3.018   1.634  0.00  0.00     0.077 C 
ATOM      3  C1  PXY d   1       1.469  -1.782   1.057  0.00  0.00    -0.082 A 
ATOM      4  C2  PXY d   1       0.345  -1.331   1.590  0.00  0.00     0.003 A 
ATOM      5  C3  PXY d   1      -0.282  -0.233   1.060  0.00  0.00     0.003 A 
ATOM      6  C4  PXY d   1       0.274   0.442   0.007  0.00  0.00    -0.082 A 
ATOM      7  C5  PXY d   1       1.427  -0.005  -0.536  0.00  0.00     0.003 A 
ATOM      8  C6  PXY d   1       2.026  -1.146  -0.010  0.00  0.00     0.003 A 
ENDROOT
TORSDOF 0
ENDMDL
