MODEL 1
REMARK minimizedAffinity -2.13658261
REMARK minimizedRMSD -1
REMARK  0 active torsions:
REMARK  status: ('A' for Active; 'I' for Inactive)
ROOT
ATOM      1  C4' PXY d   1      -1.176   1.945  -1.337  0.00  0.00     0.077 C 
ATOM      2  C1' PXY d   1       1.365  -2.318   1.628  0.00  0.00     0.077 C 
ATOM      3  C1  PXY d   1       0.710  -1.194   0.849  0.00  0.00    -0.082 A 
ATOM      4  C2  PXY d   1      -0.591  -0.986   0.970  0.00  0.00     0.003 A 
ATOM      5  C3  PXY d   1      -1.205   0.006   0.249  0.00  0.00     0.003 A 
ATOM      6  C4  PXY d   1      -0.470   0.828  -0.563  0.00  0.00    -0.082 A 
ATOM      7  C5  PXY d   1       0.859   0.629  -0.684  0.00  0.00     0.003 A 
ATOM      8  C6  PXY d   1       1.457  -0.409   0.025  0.00  0.00     0.003 A 
ENDROOT
TORSDOF 0
ENDMDL
