MODEL 1
REMARK minimizedAffinity -4.03901625
REMARK minimizedRMSD -1
REMARK  0 active torsions:
REMARK  status: ('A' for Active; 'I' for Inactive)
ROOT
ATOM      1  C4' PXY d   1       1.651  -3.531   2.031  0.00  0.00     0.077 C 
ATOM      2  C1' PXY d   1      -0.860   0.819  -0.830  0.00  0.00     0.077 C 
ATOM      3  C1  PXY d   1      -0.192  -0.322  -0.089  0.00  0.00    -0.082 A 
ATOM      4  C2  PXY d   1      -0.911  -1.091   0.713  0.00  0.00     0.003 A 
ATOM      5  C3  PXY d   1      -0.316  -2.107   1.416  0.00  0.00     0.003 A 
ATOM      6  C4  PXY d   1       1.017  -2.373   1.255  0.00  0.00    -0.082 A 
ATOM      7  C5  PXY d   1       1.755  -1.600   0.430  0.00  0.00     0.003 A 
ATOM      8  C6  PXY d   1       1.141  -0.548  -0.242  0.00  0.00     0.003 A 
ENDROOT
TORSDOF 0
ENDMDL
