MODEL 1
REMARK minimizedAffinity -1.2934227
REMARK minimizedRMSD -1
REMARK  0 active torsions:
REMARK  status: ('A' for Active; 'I' for Inactive)
ROOT
ATOM      1  C4' PXY d   1       0.434  -3.116   0.787  0.00  0.00     0.077 C 
ATOM      2  C1' PXY d   1      -0.812   2.518   0.452  0.00  0.00     0.077 C 
ATOM      3  C1  PXY d   1      -0.489   1.041   0.553  0.00  0.00    -0.082 A 
ATOM      4  C2  PXY d   1       0.369   0.500  -0.297  0.00  0.00     0.003 A 
ATOM      5  C3  PXY d   1       0.648  -0.842  -0.241  0.00  0.00     0.003 A 
ATOM      6  C4  PXY d   1       0.085  -1.627   0.729  0.00  0.00    -0.082 A 
ATOM      7  C5  PXY d   1      -0.783  -1.080   1.607  0.00  0.00     0.003 A 
ATOM      8  C6  PXY d   1      -1.085   0.275   1.507  0.00  0.00     0.003 A 
ENDROOT
TORSDOF 0
ENDMDL
