MODEL 1
REMARK minimizedAffinity -5.17197561
REMARK minimizedRMSD -1
REMARK  0 active torsions:
REMARK  status: ('A' for Active; 'I' for Inactive)
ROOT
ATOM      1  C4' PXY d   1      -0.938   1.557  -0.511  0.00  0.00     0.077 C 
ATOM      2  C1' PXY d   1       1.484  -3.500   0.896  0.00  0.00     0.077 C 
ATOM      3  C1  PXY d   1       0.860  -2.168   0.530  0.00  0.00    -0.082 A 
ATOM      4  C2  PXY d   1      -0.458  -2.049   0.500  0.00  0.00     0.003 A 
ATOM      5  C3  PXY d   1      -1.039  -0.861   0.140  0.00  0.00     0.003 A 
ATOM      6  C4  PXY d   1      -0.264   0.233  -0.139  0.00  0.00    -0.082 A 
ATOM      7  C5  PXY d   1       1.081   0.123  -0.099  0.00  0.00     0.003 A 
ATOM      8  C6  PXY d   1       1.651  -1.103   0.228  0.00  0.00     0.003 A 
ENDROOT
TORSDOF 0
ENDMDL
