MODEL 1
REMARK minimizedAffinity -5.25400019
REMARK minimizedRMSD -1
REMARK  0 active torsions:
REMARK  status: ('A' for Active; 'I' for Inactive)
ROOT
ATOM      1  C4' PXY d   1      -0.037   1.637  -0.847  0.00  0.00     0.077 C 
ATOM      2  C1' PXY d   1       1.600  -3.182   1.894  0.00  0.00     0.077 C 
ATOM      3  C1  PXY d   1       1.183  -1.913   1.177  0.00  0.00    -0.082 A 
ATOM      4  C2  PXY d   1      -0.095  -1.573   1.139  0.00  0.00     0.003 A 
ATOM      5  C3  PXY d   1      -0.494  -0.446   0.468  0.00  0.00     0.003 A 
ATOM      6  C4  PXY d   1       0.431   0.370  -0.126  0.00  0.00    -0.082 A 
ATOM      7  C5  PXY d   1       1.738   0.035  -0.083  0.00  0.00     0.003 A 
ATOM      8  C6  PXY d   1       2.118  -1.135   0.568  0.00  0.00     0.003 A 
ENDROOT
TORSDOF 0
ENDMDL
