MODEL 1
REMARK minimizedAffinity -1.82341194
REMARK minimizedRMSD -1
REMARK  0 active torsions:
REMARK  status: ('A' for Active; 'I' for Inactive)
ROOT
ATOM      1  C4' PXY d   1       2.606  -1.475   1.216  0.00  0.00     0.077 C 
ATOM      2  C1' PXY d   1      -1.537   1.377  -1.632  0.00  0.00     0.077 C 
ATOM      3  C1  PXY d   1      -0.460   0.622  -0.880  0.00  0.00    -0.082 A 
ATOM      4  C2  PXY d   1       0.718   1.190  -0.678  0.00  0.00     0.003 A 
ATOM      5  C3  PXY d   1       1.714   0.509  -0.027  0.00  0.00     0.003 A 
ATOM      6  C4  PXY d   1       1.485  -0.746   0.469  0.00  0.00    -0.082 A 
ATOM      7  C5  PXY d   1       0.283  -1.329   0.277  0.00  0.00     0.003 A 
ATOM      8  C6  PXY d   1      -0.702  -0.637  -0.422  0.00  0.00     0.003 A 
ENDROOT
TORSDOF 0
ENDMDL
