MODEL 1
REMARK minimizedAffinity -3.99174023
REMARK minimizedRMSD -1
REMARK  0 active torsions:
REMARK  status: ('A' for Active; 'I' for Inactive)
ROOT
ATOM      1  C4' PXY d   1       1.541  -2.805   1.298  0.00  0.00     0.077 C 
ATOM      2  C1' PXY d   1      -0.779   2.025  -0.870  0.00  0.00     0.077 C 
ATOM      3  C1  PXY d   1      -0.179   0.758  -0.292  0.00  0.00    -0.082 A 
ATOM      4  C2  PXY d   1       1.076   0.444  -0.568  0.00  0.00     0.003 A 
ATOM      5  C3  PXY d   1       1.625  -0.714  -0.079  0.00  0.00     0.003 A 
ATOM      6  C4  PXY d   1       0.897  -1.532   0.744  0.00  0.00    -0.082 A 
ATOM      7  C5  PXY d   1      -0.381  -1.212   1.039  0.00  0.00     0.003 A 
ATOM      8  C6  PXY d   1      -0.932  -0.053   0.499  0.00  0.00     0.003 A 
ENDROOT
TORSDOF 0
ENDMDL
