MODEL 1
REMARK minimizedAffinity -4.92712259
REMARK minimizedRMSD -1
REMARK  0 active torsions:
REMARK  status: ('A' for Active; 'I' for Inactive)
ROOT
ATOM      1  C4' PXY d   1      -1.317   1.807  -2.219  0.00  0.00     0.077 C 
ATOM      2  C1' PXY d   1       1.857  -1.518   1.286  0.00  0.00     0.077 C 
ATOM      3  C1  PXY d   1       1.014  -0.648   0.374  0.00  0.00    -0.082 A 
ATOM      4  C2  PXY d   1       1.395  -0.450  -0.877  0.00  0.00     0.003 A 
ATOM      5  C3  PXY d   1       0.662   0.359  -1.706  0.00  0.00     0.003 A 
ATOM      6  C4  PXY d   1      -0.503   0.929  -1.266  0.00  0.00    -0.082 A 
ATOM      7  C5  PXY d   1      -0.904   0.723   0.007  0.00  0.00     0.003 A 
ATOM      8  C6  PXY d   1      -0.124  -0.068   0.844  0.00  0.00     0.003 A 
ENDROOT
TORSDOF 0
ENDMDL
