MODEL 1
REMARK minimizedAffinity -2.97053242
REMARK minimizedRMSD -1
REMARK  0 active torsions:
REMARK  status: ('A' for Active; 'I' for Inactive)
ROOT
ATOM      1  C4' PXY d   1      -0.748   1.660  -0.865  0.00  0.00     0.077 C 
ATOM      2  C1' PXY d   1       1.886  -2.896   1.527  0.00  0.00     0.077 C 
ATOM      3  C1  PXY d   1       1.184  -1.707   0.902  0.00  0.00    -0.082 A 
ATOM      4  C2  PXY d   1       1.837  -0.936   0.049  0.00  0.00     0.003 A 
ATOM      5  C3  PXY d   1       1.227   0.162  -0.502  0.00  0.00     0.003 A 
ATOM      6  C4  PXY d   1      -0.082   0.443  -0.216  0.00  0.00    -0.082 A 
ATOM      7  C5  PXY d   1      -0.759  -0.345   0.645  0.00  0.00     0.003 A 
ATOM      8  C6  PXY d   1      -0.109  -1.431   1.225  0.00  0.00     0.003 A 
ENDROOT
TORSDOF 0
ENDMDL
