MODEL 1
REMARK minimizedAffinity -4.23291063
REMARK minimizedRMSD -1
REMARK  0 active torsions:
REMARK  status: ('A' for Active; 'I' for Inactive)
ROOT
ATOM      1  C4' PXY d   1      -0.683   2.144  -0.562  0.00  0.00     0.077 C 
ATOM      2  C1' PXY d   1       1.569  -2.924   1.067  0.00  0.00     0.077 C 
ATOM      3  C1  PXY d   1       0.967  -1.600   0.641  0.00  0.00    -0.082 A 
ATOM      4  C2  PXY d   1       1.690  -0.751  -0.071  0.00  0.00     0.003 A 
ATOM      5  C3  PXY d   1       1.172   0.464  -0.437  0.00  0.00     0.003 A 
ATOM      6  C4  PXY d   1      -0.118   0.792  -0.117  0.00  0.00    -0.082 A 
ATOM      7  C5  PXY d   1      -0.866  -0.073   0.600  0.00  0.00     0.003 A 
ATOM      8  C6  PXY d   1      -0.308  -1.285   0.997  0.00  0.00     0.003 A 
ENDROOT
TORSDOF 0
ENDMDL
