MODEL 1
REMARK minimizedAffinity 20.7967854
REMARK minimizedRMSD -1
REMARK  0 active torsions:
REMARK  status: ('A' for Active; 'I' for Inactive)
ROOT
ATOM      1  C   UNL d   1       2.274  -1.627  -2.521  0.00  0.00     0.124 A 
ATOM      2  C1  UNL d   1       1.173  -2.221  -3.122  0.00  0.00     0.062 A 
ATOM      3  C2  UNL d   1      -0.110  -1.959  -2.647  0.00  0.00     0.162 A 
ATOM      4  C3  UNL d   1      -0.298  -1.098  -1.566  0.00  0.00    -0.034 A 
ATOM      5  C4  UNL d   1       0.815  -0.505  -0.967  0.00  0.00     0.162 A 
ATOM      6  C5  UNL d   1       2.094  -0.770  -1.444  0.00  0.00     0.062 A 
ATOM      7  F   UNL d   1       3.157  -0.195  -0.862  0.00  0.00    -0.097 F 
ATOM      8  F1  UNL d   1       0.670   0.328   0.075  0.00  0.00    -0.096 F 
ATOM      9  I   UNL d   1      -2.213  -0.703  -0.854  0.00  0.00    -0.060 I 
ATOM     10  F2  UNL d   1      -1.156  -2.546  -3.247  0.00  0.00    -0.096 F 
ATOM     11  F3  UNL d   1       1.344  -3.050  -4.161  0.00  0.00    -0.097 F 
ATOM     12  F4  UNL d   1       3.506  -1.882  -2.978  0.00  0.00    -0.092 F 
ENDROOT
TORSDOF 0
ENDMDL
