MODEL 1
REMARK minimizedAffinity 24.3667412
REMARK minimizedRMSD -1
REMARK  0 active torsions:
REMARK  status: ('A' for Active; 'I' for Inactive)
ROOT
ATOM      1  C   UNL d   1       1.601  -1.352   2.780  0.00  0.00     0.124 A 
ATOM      2  C1  UNL d   1       2.419  -2.381   3.225  0.00  0.00     0.062 A 
ATOM      3  C2  UNL d   1       1.894  -3.400   4.016  0.00  0.00     0.162 A 
ATOM      4  C3  UNL d   1       0.544  -3.394   4.366  0.00  0.00    -0.034 A 
ATOM      5  C4  UNL d   1      -0.272  -2.355   3.915  0.00  0.00     0.162 A 
ATOM      6  C5  UNL d   1       0.257  -1.340   3.125  0.00  0.00     0.062 A 
ATOM      7  F   UNL d   1      -0.534  -0.346   2.695  0.00  0.00    -0.097 F 
ATOM      8  F1  UNL d   1      -1.575  -2.319   4.232  0.00  0.00    -0.096 F 
ATOM      9  I   UNL d   1      -0.245  -4.915   5.548  0.00  0.00    -0.060 I 
ATOM     10  F2  UNL d   1       2.707  -4.382   4.432  0.00  0.00    -0.096 F 
ATOM     11  F3  UNL d   1       3.718  -2.395   2.894  0.00  0.00    -0.097 F 
ATOM     12  F4  UNL d   1       2.109  -0.373   2.020  0.00  0.00    -0.092 F 
ENDROOT
TORSDOF 0
ENDMDL
