MODEL 1
REMARK minimizedAffinity 16.5903435
REMARK minimizedRMSD -1
REMARK  0 active torsions:
REMARK  status: ('A' for Active; 'I' for Inactive)
ROOT
ATOM      1  C   UNL d   1       5.136   4.090  -0.297  0.00  0.00     0.124 A 
ATOM      2  C1  UNL d   1       4.250   3.783   0.726  0.00  0.00     0.062 A 
ATOM      3  C2  UNL d   1       3.351   2.730   0.581  0.00  0.00     0.162 A 
ATOM      4  C3  UNL d   1       3.335   1.976  -0.592  0.00  0.00    -0.034 A 
ATOM      5  C4  UNL d   1       4.229   2.291  -1.617  0.00  0.00     0.162 A 
ATOM      6  C5  UNL d   1       5.125   3.345  -1.467  0.00  0.00     0.062 A 
ATOM      7  F   UNL d   1       5.981   3.640  -2.456  0.00  0.00    -0.097 F 
ATOM      8  F1  UNL d   1       4.240   1.586  -2.758  0.00  0.00    -0.096 F 
ATOM      9  I   UNL d   1       1.993   0.400  -0.814  0.00  0.00    -0.060 I 
ATOM     10  F2  UNL d   1       2.506   2.455   1.586  0.00  0.00    -0.096 F 
ATOM     11  F3  UNL d   1       4.258   4.503   1.857  0.00  0.00    -0.097 F 
ATOM     12  F4  UNL d   1       5.999   5.105  -0.155  0.00  0.00    -0.092 F 
ENDROOT
TORSDOF 0
ENDMDL
