MODEL 1
REMARK minimizedAffinity 20.7637844
REMARK minimizedRMSD -1
REMARK  0 active torsions:
REMARK  status: ('A' for Active; 'I' for Inactive)
ROOT
ATOM      1  C   UNL d   1      -2.855   4.815   2.398  0.00  0.00     0.124 A 
ATOM      2  C1  UNL d   1      -4.001   4.074   2.144  0.00  0.00     0.062 A 
ATOM      3  C2  UNL d   1      -4.901   3.801   3.170  0.00  0.00     0.162 A 
ATOM      4  C3  UNL d   1      -4.658   4.269   4.462  0.00  0.00    -0.034 A 
ATOM      5  C4  UNL d   1      -3.503   5.012   4.710  0.00  0.00     0.162 A 
ATOM      6  C5  UNL d   1      -2.607   5.283   3.681  0.00  0.00     0.062 A 
ATOM      7  F   UNL d   1      -1.500   5.999   3.929  0.00  0.00    -0.097 F 
ATOM      8  F1  UNL d   1      -3.239   5.478   5.940  0.00  0.00    -0.096 F 
ATOM      9  I   UNL d   1      -6.000   3.862   6.000  0.00  0.00    -0.060 I 
ATOM     10  F2  UNL d   1      -6.000   3.083   2.896  0.00  0.00    -0.096 F 
ATOM     11  F3  UNL d   1      -4.243   3.620   0.906  0.00  0.00    -0.097 F 
ATOM     12  F4  UNL d   1      -1.991   5.076   1.409  0.00  0.00    -0.092 F 
ENDROOT
TORSDOF 0
ENDMDL
