MODEL 1
REMARK minimizedAffinity 20.156332
REMARK minimizedRMSD -1
REMARK  0 active torsions:
REMARK  status: ('A' for Active; 'I' for Inactive)
ROOT
ATOM      1  C   UNL d   1       4.457   2.463   0.915  0.00  0.00     0.124 A 
ATOM      2  C1  UNL d   1       4.220   2.979   2.182  0.00  0.00     0.062 A 
ATOM      3  C2  UNL d   1       3.094   2.584   2.899  0.00  0.00     0.162 A 
ATOM      4  C3  UNL d   1       2.197   1.667   2.352  0.00  0.00    -0.034 A 
ATOM      5  C4  UNL d   1       2.441   1.154   1.077  0.00  0.00     0.162 A 
ATOM      6  C5  UNL d   1       3.568   1.551   0.364  0.00  0.00     0.062 A 
ATOM      7  F   UNL d   1       3.795   1.052  -0.859  0.00  0.00    -0.097 F 
ATOM      8  F1  UNL d   1       1.599   0.270   0.521  0.00  0.00    -0.096 F 
ATOM      9  I   UNL d   1       0.512   1.075   3.421  0.00  0.00    -0.060 I 
ATOM     10  F2  UNL d   1       2.891   3.099   4.121  0.00  0.00    -0.096 F 
ATOM     11  F3  UNL d   1       5.077   3.861   2.716  0.00  0.00    -0.097 F 
ATOM     12  F4  UNL d   1       5.540   2.845   0.227  0.00  0.00    -0.092 F 
ENDROOT
TORSDOF 0
ENDMDL
