MODEL 1
REMARK minimizedAffinity 34.1321945
REMARK minimizedRMSD -1
REMARK  0 active torsions:
REMARK  status: ('A' for Active; 'I' for Inactive)
ROOT
ATOM      1  C   UNL d   1       2.694   3.560   2.411  0.00  0.00     0.124 A 
ATOM      2  C1  UNL d   1       2.366   2.804   1.294  0.00  0.00     0.062 A 
ATOM      3  C2  UNL d   1       1.512   1.711   1.415  0.00  0.00     0.162 A 
ATOM      4  C3  UNL d   1       0.979   1.368   2.658  0.00  0.00    -0.034 A 
ATOM      5  C4  UNL d   1       1.315   2.133   3.776  0.00  0.00     0.162 A 
ATOM      6  C5  UNL d   1       2.169   3.224   3.650  0.00  0.00     0.062 A 
ATOM      7  F   UNL d   1       2.485   3.953   4.731  0.00  0.00    -0.097 F 
ATOM      8  F1  UNL d   1       0.821   1.831   4.986  0.00  0.00    -0.096 F 
ATOM      9  I   UNL d   1      -0.298  -0.264   2.843  0.00  0.00    -0.060 I 
ATOM     10  F2  UNL d   1       1.212   0.999   0.319  0.00  0.00    -0.096 F 
ATOM     11  F3  UNL d   1       2.873   3.126   0.095  0.00  0.00    -0.097 F 
ATOM     12  F4  UNL d   1       3.517   4.610   2.292  0.00  0.00    -0.092 F 
ENDROOT
TORSDOF 0
ENDMDL
