MODEL 1
REMARK minimizedAffinity 19.9012661
REMARK minimizedRMSD -1
REMARK  0 active torsions:
REMARK  status: ('A' for Active; 'I' for Inactive)
ROOT
ATOM      1  C   UNL d   1       0.542  -2.991  -2.310  0.00  0.00     0.124 A 
ATOM      2  C1  UNL d   1      -0.310  -3.580  -1.385  0.00  0.00     0.062 A 
ATOM      3  C2  UNL d   1      -0.050  -3.467  -0.023  0.00  0.00     0.162 A 
ATOM      4  C3  UNL d   1       1.068  -2.761   0.424  0.00  0.00    -0.034 A 
ATOM      5  C4  UNL d   1       1.920  -2.172  -0.512  0.00  0.00     0.162 A 
ATOM      6  C5  UNL d   1       1.656  -2.288  -1.872  0.00  0.00     0.062 A 
ATOM      7  F   UNL d   1       2.480  -1.719  -2.764  0.00  0.00    -0.097 F 
ATOM      8  F1  UNL d   1       3.003  -1.487  -0.116  0.00  0.00    -0.096 F 
ATOM      9  I   UNL d   1       1.460  -2.590   2.461  0.00  0.00    -0.060 I 
ATOM     10  F2  UNL d   1      -0.890  -4.046   0.848  0.00  0.00    -0.096 F 
ATOM     11  F3  UNL d   1      -1.386  -4.260  -1.806  0.00  0.00    -0.097 F 
ATOM     12  F4  UNL d   1       0.290  -3.102  -3.620  0.00  0.00    -0.092 F 
ENDROOT
TORSDOF 0
ENDMDL
