MODEL 1
REMARK minimizedAffinity 18.6234131
REMARK minimizedRMSD -1
REMARK  0 active torsions:
REMARK  status: ('A' for Active; 'I' for Inactive)
ROOT
ATOM      1  C   UNL d   1       3.150  -1.689  -1.002  0.00  0.00     0.124 A 
ATOM      2  C1  UNL d   1       2.419  -2.228   0.047  0.00  0.00     0.062 A 
ATOM      3  C2  UNL d   1       1.970  -1.411   1.081  0.00  0.00     0.162 A 
ATOM      4  C3  UNL d   1       2.249  -0.044   1.069  0.00  0.00    -0.034 A 
ATOM      5  C4  UNL d   1       2.986   0.491   0.011  0.00  0.00     0.162 A 
ATOM      6  C5  UNL d   1       3.433  -0.330  -1.019  0.00  0.00     0.062 A 
ATOM      7  F   UNL d   1       4.139   0.193  -2.032  0.00  0.00    -0.097 F 
ATOM      8  F1  UNL d   1       3.272   1.801  -0.031  0.00  0.00    -0.096 F 
ATOM      9  I   UNL d   1       1.579   1.181   2.612  0.00  0.00    -0.060 I 
ATOM     10  F2  UNL d   1       1.266  -1.960   2.082  0.00  0.00    -0.096 F 
ATOM     11  F3  UNL d   1       2.146  -3.541   0.067  0.00  0.00    -0.097 F 
ATOM     12  F4  UNL d   1       3.583  -2.478  -1.994  0.00  0.00    -0.092 F 
ENDROOT
TORSDOF 0
ENDMDL
