MODEL 1
REMARK minimizedAffinity -3.79776907
REMARK minimizedRMSD -1
REMARK  3 active torsions:
REMARK  status: ('A' for Active; 'I' for Inactive)
REMARK    1  A    between atoms: C3'_2  and  C2'_3 
REMARK    2  A    between atoms: C2'_3  and  C1'_4 
REMARK    3  A    between atoms: C1'_4  and  C1_5 
ROOT
ATOM      1  C1  N4B d   1      -0.530   0.540  -0.931  0.00  0.00    -0.075 A 
ATOM      2  C2  N4B d   1       0.804   0.097  -0.787  0.00  0.00     0.002 A 
ATOM      3  C3  N4B d   1       1.183  -0.584   0.343  0.00  0.00     0.002 A 
ATOM      4  C4  N4B d   1       0.255  -0.817   1.347  0.00  0.00    -0.004 A 
ATOM      5  C5  N4B d   1      -1.037  -0.408   1.189  0.00  0.00     0.002 A 
ATOM      6  C6  N4B d   1      -1.433   0.274   0.057  0.00  0.00     0.002 A 
ENDROOT
BRANCH   1   7
ATOM      7  C1' N4B d   1      -0.970   1.363  -2.110  0.00  0.00     0.057 C 
BRANCH   7   8
ATOM      8  C2' N4B d   1       0.223   2.149  -2.646  0.00  0.00     0.009 C 
BRANCH   8   9
ATOM      9  C3' N4B d   1      -0.207   3.420  -3.358  0.00  0.00     0.004 C 
ATOM     10  C4' N4B d   1      -1.452   4.020  -2.775  0.00  0.00     0.003 C 
ENDBRANCH   8   9
ENDBRANCH   7   8
ENDBRANCH   1   7
TORSDOF 3
ENDMDL
