MODEL 1
REMARK minimizedAffinity -4.76712942
REMARK minimizedRMSD -1
REMARK  3 active torsions:
REMARK  status: ('A' for Active; 'I' for Inactive)
REMARK    1  A    between atoms: C3'_2  and  C2'_3 
REMARK    2  A    between atoms: C2'_3  and  C1'_4 
REMARK    3  A    between atoms: C1'_4  and  C1_5 
ROOT
ATOM      1  C1  N4B d   1       0.001  -0.053   0.146  0.00  0.00    -0.075 A 
ATOM      2  C2  N4B d   1      -1.054  -0.382   1.026  0.00  0.00     0.002 A 
ATOM      3  C3  N4B d   1      -0.789  -0.647   2.347  0.00  0.00     0.002 A 
ATOM      4  C4  N4B d   1       0.519  -0.608   2.805  0.00  0.00    -0.004 A 
ATOM      5  C5  N4B d   1       1.529  -0.265   1.955  0.00  0.00     0.002 A 
ATOM      6  C6  N4B d   1       1.277   0.008   0.626  0.00  0.00     0.002 A 
ENDROOT
BRANCH   1   7
ATOM      7  C1' N4B d   1      -0.229   0.160  -1.325  0.00  0.00     0.057 C 
BRANCH   7   8
ATOM      8  C2' N4B d   1      -0.991   1.467  -1.528  0.00  0.00     0.009 C 
BRANCH   8   9
ATOM      9  C3' N4B d   1      -0.181   2.479  -2.319  0.00  0.00     0.004 C 
ATOM     10  C4' N4B d   1      -1.036   3.520  -2.978  0.00  0.00     0.003 C 
ENDBRANCH   8   9
ENDBRANCH   7   8
ENDBRANCH   1   7
TORSDOF 3
ENDMDL
