MODEL 1
REMARK minimizedAffinity -4.09759283
REMARK minimizedRMSD -1
REMARK  0 active torsions:
REMARK  status: ('A' for Active; 'I' for Inactive)
ROOT
ATOM      1  C1  DEN d   1       1.435  -0.014   0.802  0.00  0.00     0.130 A 
ATOM      2  C2  DEN d   1       1.443  -0.678  -0.499  0.00  0.00    -0.031 A 
ATOM      3  C3  DEN d   1       0.045  -0.788  -0.964  0.00  0.00     0.027 A 
ATOM      4  C4  DEN d   1      -2.118   0.007   0.195  0.00  0.00     0.027 A 
ATOM      5  C5  DEN d   1      -2.630   0.615   1.320  0.00  0.00    -0.003 A 
ATOM      6  C6  DEN d   1      -1.834   1.022   2.357  0.00  0.00     0.001 A 
ATOM      7  C7  DEN d   1      -0.475   0.867   2.271  0.00  0.00     0.017 A 
ATOM      8  C8  DEN d   1       0.048   0.248   1.144  0.00  0.00    -0.094 A 
ATOM      9  C9  DEN d   1      -0.772  -0.146   0.100  0.00  0.00    -0.072 A 
ENDROOT
TORSDOF 0
ENDMDL
