MODEL 1
REMARK minimizedAffinity -5.42034054
REMARK minimizedRMSD -1
REMARK  0 active torsions:
REMARK  status: ('A' for Active; 'I' for Inactive)
ROOT
ATOM      1  C1  DEN d   1       1.040   0.788   2.320  0.00  0.00     0.130 A 
ATOM      2  C2  DEN d   1      -0.100   1.346   3.042  0.00  0.00    -0.031 A 
ATOM      3  C3  DEN d   1      -1.299   1.188   2.194  0.00  0.00     0.027 A 
ATOM      4  C4  DEN d   1      -1.500   0.133  -0.151  0.00  0.00     0.027 A 
ATOM      5  C5  DEN d   1      -0.802  -0.468  -1.175  0.00  0.00    -0.003 A 
ATOM      6  C6  DEN d   1       0.553  -0.660  -1.121  0.00  0.00     0.001 A 
ATOM      7  C7  DEN d   1       1.247  -0.288  -0.000  0.00  0.00     0.017 A 
ATOM      8  C8  DEN d   1       0.551   0.325   1.034  0.00  0.00    -0.094 A 
ATOM      9  C9  DEN d   1      -0.821   0.499   0.965  0.00  0.00    -0.072 A 
ENDROOT
TORSDOF 0
ENDMDL
