MODEL 1
REMARK minimizedAffinity -3.7899332
REMARK minimizedRMSD -1
REMARK  0 active torsions:
REMARK  status: ('A' for Active; 'I' for Inactive)
ROOT
ATOM      1  C1  DEN d   1       1.130   0.592   0.181  0.00  0.00     0.130 A 
ATOM      2  C2  DEN d   1       0.716  -0.250  -0.938  0.00  0.00    -0.031 A 
ATOM      3  C3  DEN d   1      -0.700  -0.616  -0.735  0.00  0.00     0.027 A 
ATOM      4  C4  DEN d   1      -2.285   0.040   1.192  0.00  0.00     0.027 A 
ATOM      5  C5  DEN d   1      -2.382   0.732   2.378  0.00  0.00    -0.003 A 
ATOM      6  C6  DEN d   1      -1.316   1.393   2.928  0.00  0.00     0.001 A 
ATOM      7  C7  DEN d   1      -0.116   1.413   2.268  0.00  0.00     0.017 A 
ATOM      8  C8  DEN d   1      -0.008   0.711   1.075  0.00  0.00    -0.094 A 
ATOM      9  C9  DEN d   1      -1.101   0.059   0.529  0.00  0.00    -0.072 A 
ENDROOT
TORSDOF 0
ENDMDL
