MODEL 1
REMARK minimizedAffinity -3.96969151
REMARK minimizedRMSD -1
REMARK  0 active torsions:
REMARK  status: ('A' for Active; 'I' for Inactive)
ROOT
ATOM      1  C1  DEN d   1       1.063   0.047   0.030  0.00  0.00     0.130 A 
ATOM      2  C2  DEN d   1       0.589  -0.447  -1.260  0.00  0.00    -0.031 A 
ATOM      3  C3  DEN d   1      -0.887  -0.490  -1.217  0.00  0.00     0.027 A 
ATOM      4  C4  DEN d   1      -2.475   0.162   0.708  0.00  0.00     0.027 A 
ATOM      5  C5  DEN d   1      -2.537   0.625   2.003  0.00  0.00    -0.003 A 
ATOM      6  C6  DEN d   1      -1.413   0.894   2.738  0.00  0.00     0.001 A 
ATOM      7  C7  DEN d   1      -0.177   0.744   2.166  0.00  0.00     0.017 A 
ATOM      8  C8  DEN d   1      -0.106   0.270   0.862  0.00  0.00    -0.094 A 
ATOM      9  C9  DEN d   1      -1.254   0.016   0.133  0.00  0.00    -0.072 A 
ENDROOT
TORSDOF 0
ENDMDL
