MODEL 1
REMARK minimizedAffinity -2.4546411
REMARK minimizedRMSD -1
REMARK  0 active torsions:
REMARK  status: ('A' for Active; 'I' for Inactive)
ROOT
ATOM      1  C1  DEN d   1       1.147   0.006  -1.242  0.00  0.00     0.130 A 
ATOM      2  C2  DEN d   1      -0.018  -0.793  -0.873  0.00  0.00    -0.031 A 
ATOM      3  C3  DEN d   1      -0.650  -1.279  -2.115  0.00  0.00     0.027 A 
ATOM      4  C4  DEN d   1       0.062  -0.880  -4.562  0.00  0.00     0.027 A 
ATOM      5  C5  DEN d   1       0.981  -0.256  -5.376  0.00  0.00    -0.003 A 
ATOM      6  C6  DEN d   1       1.992   0.521  -4.874  0.00  0.00     0.001 A 
ATOM      7  C7  DEN d   1       2.135   0.657  -3.519  0.00  0.00     0.017 A 
ATOM      8  C8  DEN d   1       1.207   0.037  -2.692  0.00  0.00    -0.094 A 
ATOM      9  C9  DEN d   1       0.200  -0.754  -3.218  0.00  0.00    -0.072 A 
ENDROOT
TORSDOF 0
ENDMDL
