MODEL 1
REMARK minimizedAffinity -4.06116009
REMARK minimizedRMSD -1
REMARK  0 active torsions:
REMARK  status: ('A' for Active; 'I' for Inactive)
ROOT
ATOM      1  C1  DEN d   1       1.191   0.815  -0.340  0.00  0.00     0.130 A 
ATOM      2  C2  DEN d   1       0.797  -0.130  -1.382  0.00  0.00    -0.031 A 
ATOM      3  C3  DEN d   1      -0.573  -0.593  -1.082  0.00  0.00     0.027 A 
ATOM      4  C4  DEN d   1      -2.115   0.060   0.879  0.00  0.00     0.027 A 
ATOM      5  C5  DEN d   1      -2.215   0.820   2.023  0.00  0.00    -0.003 A 
ATOM      6  C6  DEN d   1      -1.183   1.599   2.475  0.00  0.00     0.001 A 
ATOM      7  C7  DEN d   1      -0.020   1.670   1.754  0.00  0.00     0.017 A 
ATOM      8  C8  DEN d   1       0.090   0.901   0.603  0.00  0.00    -0.094 A 
ATOM      9  C9  DEN d   1      -0.969   0.130   0.156  0.00  0.00    -0.072 A 
ENDROOT
TORSDOF 0
ENDMDL
