MODEL 1
REMARK minimizedAffinity 11.9559622
REMARK minimizedRMSD -1
REMARK  1 active torsions:
REMARK  status: ('A' for Active; 'I' for Inactive)
REMARK    1  A    between atoms: C1_2  and  C2_3 
ROOT
ATOM      1  C2  UNL d   1       1.716  -1.405   4.457  0.00  0.00    -0.076 A 
ATOM      2  C3  UNL d   1       1.762  -2.124   3.250  0.00  0.00     0.004 A 
ATOM      3  C4  UNL d   1       1.785  -1.464   2.023  0.00  0.00    -0.003 A 
ATOM      4  C5  UNL d   1       1.764  -0.074   1.982  0.00  0.00     0.000 A 
ATOM      5  C6  UNL d   1       1.737   0.655   3.170  0.00  0.00     0.000 A 
ATOM      6  C7  UNL d   1       1.729   0.006   4.417  0.00  0.00    -0.073 A 
ATOM      7  C8  UNL d   1       1.693   0.842   5.666  0.00  0.00     0.078 C 
ENDROOT
BRANCH   1   8
ATOM      8  C1  UNL d   1       1.665  -2.175   5.758  0.00  0.00     0.053 C 
ATOM      9  C   UNL d   1       0.313  -2.829   5.995  0.00  0.00     0.018 C 
ENDBRANCH   1   8
TORSDOF 1
ENDMDL
