MODEL 1
REMARK minimizedAffinity 4.53931093
REMARK minimizedRMSD -1
REMARK  1 active torsions:
REMARK  status: ('A' for Active; 'I' for Inactive)
REMARK    1  A    between atoms: C1_2  and  C2_3 
ROOT
ATOM      1  C2  UNL d   1       0.041  -0.250   0.837  0.00  0.00    -0.076 A 
ATOM      2  C3  UNL d   1       0.310   1.124   0.714  0.00  0.00     0.004 A 
ATOM      3  C4  UNL d   1      -0.704   2.028   0.401  0.00  0.00    -0.003 A 
ATOM      4  C5  UNL d   1      -2.004   1.573   0.208  0.00  0.00     0.000 A 
ATOM      5  C6  UNL d   1      -2.292   0.215   0.343  0.00  0.00     0.000 A 
ATOM      6  C7  UNL d   1      -1.284  -0.708   0.674  0.00  0.00    -0.073 A 
ATOM      7  C8  UNL d   1      -1.650  -2.161   0.801  0.00  0.00     0.078 C 
ENDROOT
BRANCH   1   8
ATOM      8  C1  UNL d   1       1.185  -1.187   1.151  0.00  0.00     0.053 C 
ATOM      9  C   UNL d   1       1.600  -1.131   2.613  0.00  0.00     0.018 C 
ENDBRANCH   1   8
TORSDOF 1
ENDMDL
