MODEL 1
REMARK minimizedAffinity 6.88753939
REMARK minimizedRMSD -1
REMARK  0 active torsions:
REMARK  status: ('A' for Active; 'I' for Inactive)
ROOT
ATOM      1  C   UNL d   1       0.750   2.735  -2.380  0.00  0.00     0.020 A 
ATOM      2  C1  UNL d   1       1.542   3.418  -1.458  0.00  0.00     0.020 A 
ATOM      3  C2  UNL d   1       2.253   2.709  -0.487  0.00  0.00     0.034 A 
ATOM      4  C3  UNL d   1       2.173   1.313  -0.436  0.00  0.00     0.017 A 
ATOM      5  C4  UNL d   1       1.378   0.628  -1.362  0.00  0.00     0.017 A 
ATOM      6  C5  UNL d   1       0.669   1.343  -2.332  0.00  0.00     0.034 A 
ATOM      7 Cl   UNL d   1       1.230  -1.094  -1.362  0.00  0.00    -0.070 Cl
ATOM      8 Cl1  UNL d   1       3.079   0.501   0.791  0.00  0.00    -0.070 Cl
ENDROOT
TORSDOF 0
ENDMDL
