MODEL 1
REMARK minimizedAffinity 0.729409158
REMARK minimizedRMSD -1
REMARK  0 active torsions:
REMARK  status: ('A' for Active; 'I' for Inactive)
ROOT
ATOM      1  C   UNL d   1       1.374   3.758  -0.594  0.00  0.00     0.020 A 
ATOM      2  C1  UNL d   1       0.834   3.676  -1.877  0.00  0.00     0.020 A 
ATOM      3  C2  UNL d   1       0.752   2.440  -2.522  0.00  0.00     0.034 A 
ATOM      4  C3  UNL d   1       1.211   1.282  -1.885  0.00  0.00     0.017 A 
ATOM      5  C4  UNL d   1       1.753   1.365  -0.597  0.00  0.00     0.017 A 
ATOM      6  C5  UNL d   1       1.833   2.605   0.044  0.00  0.00     0.034 A 
ATOM      7 Cl   UNL d   1       2.341  -0.020   0.253  0.00  0.00    -0.070 Cl
ATOM      8 Cl1  UNL d   1       1.078  -0.213  -2.742  0.00  0.00    -0.070 Cl
ENDROOT
TORSDOF 0
ENDMDL
