MODEL 1
REMARK minimizedAffinity 4.32624149
REMARK minimizedRMSD -1
REMARK  0 active torsions:
REMARK  status: ('A' for Active; 'I' for Inactive)
ROOT
ATOM      1  C   UNL d   1      -2.721   1.615   3.685  0.00  0.00     0.020 A 
ATOM      2  C1  UNL d   1      -3.320   0.588   2.957  0.00  0.00     0.020 A 
ATOM      3  C2  UNL d   1      -2.815  -0.712   3.039  0.00  0.00     0.034 A 
ATOM      4  C3  UNL d   1      -1.708  -0.987   3.849  0.00  0.00     0.017 A 
ATOM      5  C4  UNL d   1      -1.107   0.045   4.580  0.00  0.00     0.017 A 
ATOM      6  C5  UNL d   1      -1.617   1.344   4.494  0.00  0.00     0.034 A 
ATOM      7 Cl   UNL d   1       0.261  -0.217   5.602  0.00  0.00    -0.070 Cl
ATOM      8 Cl1  UNL d   1      -1.137  -2.617   3.903  0.00  0.00    -0.070 Cl
ENDROOT
TORSDOF 0
ENDMDL
