MODEL 1
REMARK minimizedAffinity 1.77632236
REMARK minimizedRMSD -1
REMARK  0 active torsions:
REMARK  status: ('A' for Active; 'I' for Inactive)
ROOT
ATOM      1  C   UNL d   1      -3.333  -3.738   5.107  0.00  0.00     0.020 A 
ATOM      2  C1  UNL d   1      -3.209  -4.620   4.035  0.00  0.00     0.020 A 
ATOM      3  C2  UNL d   1      -2.209  -4.423   3.080  0.00  0.00     0.034 A 
ATOM      4  C3  UNL d   1      -1.329  -3.340   3.196  0.00  0.00     0.017 A 
ATOM      5  C4  UNL d   1      -1.454  -2.455   4.273  0.00  0.00     0.017 A 
ATOM      6  C5  UNL d   1      -2.457  -2.658   5.226  0.00  0.00     0.034 A 
ATOM      7 Cl   UNL d   1      -0.406  -1.098   4.484  0.00  0.00    -0.070 Cl
ATOM      8 Cl1  UNL d   1      -0.116  -3.157   1.980  0.00  0.00    -0.070 Cl
ENDROOT
TORSDOF 0
ENDMDL
