MODEL 1
REMARK minimizedAffinity -2.18082428
REMARK minimizedRMSD -1
REMARK  0 active torsions:
REMARK  status: ('A' for Active; 'I' for Inactive)
ROOT
ATOM      1  C   UNL d   1       1.342   4.289  -1.090  0.00  0.00     0.020 A 
ATOM      2  C1  UNL d   1       1.319   3.339  -2.110  0.00  0.00     0.020 A 
ATOM      3  C2  UNL d   1       1.358   1.979  -1.797  0.00  0.00     0.034 A 
ATOM      4  C3  UNL d   1       1.421   1.565  -0.462  0.00  0.00     0.017 A 
ATOM      5  C4  UNL d   1       1.444   2.519   0.561  0.00  0.00     0.017 A 
ATOM      6  C5  UNL d   1       1.404   3.880   0.243  0.00  0.00     0.034 A 
ATOM      7 Cl   UNL d   1       1.521   2.085   2.232  0.00  0.00    -0.070 Cl
ATOM      8 Cl1  UNL d   1       1.466  -0.134  -0.149  0.00  0.00    -0.070 Cl
ENDROOT
TORSDOF 0
ENDMDL
