MODEL 1
REMARK minimizedAffinity 3.41407013
REMARK minimizedRMSD -1
REMARK  0 active torsions:
REMARK  status: ('A' for Active; 'I' for Inactive)
ROOT
ATOM      1  C   UNL d   1       2.563   3.503  -1.003  0.00  0.00     0.020 A 
ATOM      2  C1  UNL d   1       1.554   4.457  -0.876  0.00  0.00     0.020 A 
ATOM      3  C2  UNL d   1       0.280   4.198  -1.387  0.00  0.00     0.034 A 
ATOM      4  C3  UNL d   1       0.012   2.982  -2.027  0.00  0.00     0.017 A 
ATOM      5  C4  UNL d   1       1.025   2.026  -2.154  0.00  0.00     0.017 A 
ATOM      6  C5  UNL d   1       2.299   2.290  -1.641  0.00  0.00     0.034 A 
ATOM      7 Cl   UNL d   1       0.771   0.503  -2.932  0.00  0.00    -0.070 Cl
ATOM      8 Cl1  UNL d   1      -1.586   2.729  -2.634  0.00  0.00    -0.070 Cl
ENDROOT
TORSDOF 0
ENDMDL
