MODEL 1
REMARK minimizedAffinity -4.82077599
REMARK minimizedRMSD -1
REMARK  0 active torsions:
REMARK  status: ('A' for Active; 'I' for Inactive)
ROOT
ATOM      1  C   UNL d   1       1.089   3.700   0.143  0.00  0.00     0.020 A 
ATOM      2  C1  UNL d   1       1.225   2.798   1.197  0.00  0.00     0.020 A 
ATOM      3  C2  UNL d   1       1.297   1.427   0.937  0.00  0.00     0.034 A 
ATOM      4  C3  UNL d   1       1.232   0.956  -0.379  0.00  0.00     0.017 A 
ATOM      5  C4  UNL d   1       1.095   1.863  -1.436  0.00  0.00     0.017 A 
ATOM      6  C5  UNL d   1       1.023   3.234  -1.171  0.00  0.00     0.034 A 
ATOM      7 Cl   UNL d   1       1.007   1.357  -3.087  0.00  0.00    -0.070 Cl
ATOM      8 Cl1  UNL d   1       1.327  -0.752  -0.627  0.00  0.00    -0.070 Cl
ENDROOT
TORSDOF 0
ENDMDL
