MODEL 1
REMARK minimizedAffinity -1.14502811
REMARK minimizedRMSD -1
REMARK  0 active torsions:
REMARK  status: ('A' for Active; 'I' for Inactive)
ROOT
ATOM      1  C   UNL d   1       1.234   3.426  -0.647  0.00  0.00     0.020 A 
ATOM      2  C1  UNL d   1       1.305   2.711  -1.842  0.00  0.00     0.020 A 
ATOM      3  C2  UNL d   1       1.386   1.317  -1.818  0.00  0.00     0.034 A 
ATOM      4  C3  UNL d   1       1.396   0.634  -0.596  0.00  0.00     0.017 A 
ATOM      5  C4  UNL d   1       1.325   1.353   0.603  0.00  0.00     0.017 A 
ATOM      6  C5  UNL d   1       1.243   2.748   0.573  0.00  0.00     0.034 A 
ATOM      7 Cl   UNL d   1       1.332   0.579   2.148  0.00  0.00    -0.070 Cl
ATOM      8 Cl1  UNL d   1       1.498  -1.090  -0.641  0.00  0.00    -0.070 Cl
ENDROOT
TORSDOF 0
ENDMDL
