MODEL 1
REMARK minimizedAffinity -2.8402102
REMARK minimizedRMSD -1
REMARK  0 active torsions:
REMARK  status: ('A' for Active; 'I' for Inactive)
ROOT
ATOM      1  C   UNL d   1       1.123   1.535  -0.876  0.00  0.00     0.020 A 
ATOM      2  C1  UNL d   1       1.224   2.328  -2.018  0.00  0.00     0.020 A 
ATOM      3  C2  UNL d   1       1.426   3.704  -1.896  0.00  0.00     0.034 A 
ATOM      4  C3  UNL d   1       1.526   4.292  -0.630  0.00  0.00     0.017 A 
ATOM      5  C4  UNL d   1       1.425   3.495   0.516  0.00  0.00     0.017 A 
ATOM      6  C5  UNL d   1       1.223   2.117   0.388  0.00  0.00     0.034 A 
ATOM      7 Cl   UNL d   1       1.539   4.147   2.112  0.00  0.00    -0.070 Cl
ATOM      8 Cl1  UNL d   1       1.776   6.000  -0.554  0.00  0.00    -0.070 Cl
ENDROOT
TORSDOF 0
ENDMDL
