MODEL 1
REMARK minimizedAffinity -2.38001513
REMARK minimizedRMSD -1
REMARK  0 active torsions:
REMARK  status: ('A' for Active; 'I' for Inactive)
ROOT
ATOM      1  C   UNL d   1      -3.214   1.842   5.197  0.00  0.00     0.020 A 
ATOM      2  C1  UNL d   1      -1.847   1.782   5.465  0.00  0.00     0.020 A 
ATOM      3  C2  UNL d   1      -0.928   1.788   4.413  0.00  0.00     0.034 A 
ATOM      4  C3  UNL d   1      -1.375   1.855   3.088  0.00  0.00     0.017 A 
ATOM      5  C4  UNL d   1      -2.748   1.915   2.820  0.00  0.00     0.017 A 
ATOM      6  C5  UNL d   1      -3.663   1.909   3.878  0.00  0.00     0.034 A 
ATOM      7 Cl   UNL d   1      -3.376   2.000   1.212  0.00  0.00    -0.070 Cl
ATOM      8 Cl1  UNL d   1      -0.184   1.859   1.837  0.00  0.00    -0.070 Cl
ENDROOT
TORSDOF 0
ENDMDL
