MODEL 1
REMARK minimizedAffinity -3.04049277
REMARK minimizedRMSD -1
REMARK  0 active torsions:
REMARK  status: ('A' for Active; 'I' for Inactive)
ROOT
ATOM      1  C   UNL d   1       1.450   3.299  -1.898  0.00  0.00     0.020 A 
ATOM      2  C1  UNL d   1       1.521   3.862  -0.624  0.00  0.00     0.020 A 
ATOM      3  C2  UNL d   1       1.306   3.066   0.503  0.00  0.00     0.034 A 
ATOM      4  C3  UNL d   1       1.020   1.704   0.359  0.00  0.00     0.017 A 
ATOM      5  C4  UNL d   1       0.949   1.140  -0.920  0.00  0.00     0.017 A 
ATOM      6  C5  UNL d   1       1.164   1.941  -2.046  0.00  0.00     0.034 A 
ATOM      7 Cl   UNL d   1       0.601  -0.533  -1.178  0.00  0.00    -0.070 Cl
ATOM      8 Cl1  UNL d   1       0.766   0.779   1.797  0.00  0.00    -0.070 Cl
ENDROOT
TORSDOF 0
ENDMDL
