MODEL 1
REMARK minimizedAffinity -0.983465254
REMARK minimizedRMSD -1
REMARK  0 active torsions:
REMARK  status: ('A' for Active; 'I' for Inactive)
ROOT
ATOM      1  C   UNL d   1       0.996   0.677   0.090  0.00  0.00     0.020 A 
ATOM      2  C1  UNL d   1       0.921   1.124  -1.229  0.00  0.00     0.020 A 
ATOM      3  C2  UNL d   1       1.141   2.471  -1.522  0.00  0.00     0.034 A 
ATOM      4  C3  UNL d   1       1.437   3.376  -0.496  0.00  0.00     0.017 A 
ATOM      5  C4  UNL d   1       1.512   2.926   0.827  0.00  0.00     0.017 A 
ATOM      6  C5  UNL d   1       1.290   1.576   1.115  0.00  0.00     0.034 A 
ATOM      7 Cl   UNL d   1       1.872   3.983   2.147  0.00  0.00    -0.070 Cl
ATOM      8 Cl1  UNL d   1       1.698   5.028  -0.932  0.00  0.00    -0.070 Cl
ENDROOT
TORSDOF 0
ENDMDL
