MODEL 1
REMARK minimizedAffinity 1.48620629
REMARK minimizedRMSD -1
REMARK  0 active torsions:
REMARK  status: ('A' for Active; 'I' for Inactive)
ROOT
ATOM      1  C   UNL d   1       1.092   2.651  -2.298  0.00  0.00     0.020 A 
ATOM      2  C1  UNL d   1       1.372   3.440  -1.184  0.00  0.00     0.020 A 
ATOM      3  C2  UNL d   1       1.479   2.853   0.079  0.00  0.00     0.034 A 
ATOM      4  C3  UNL d   1       1.305   1.473   0.230  0.00  0.00     0.017 A 
ATOM      5  C4  UNL d   1       1.024   0.681  -0.889  0.00  0.00     0.017 A 
ATOM      6  C5  UNL d   1       0.918   1.274  -2.151  0.00  0.00     0.034 A 
ATOM      7 Cl   UNL d   1       0.796  -1.029  -0.781  0.00  0.00    -0.070 Cl
ATOM      8 Cl1  UNL d   1       1.451   0.814   1.821  0.00  0.00    -0.070 Cl
ENDROOT
TORSDOF 0
ENDMDL
