MODEL 1
REMARK minimizedAffinity 4.79475212
REMARK minimizedRMSD -1
REMARK  0 active torsions:
REMARK  status: ('A' for Active; 'I' for Inactive)
ROOT
ATOM      1  C   UNL d   1       1.410   2.487  -2.004  0.00  0.00     0.020 A 
ATOM      2  C1  UNL d   1       1.609   3.204  -0.825  0.00  0.00     0.020 A 
ATOM      3  C2  UNL d   1       1.687   2.532   0.397  0.00  0.00     0.034 A 
ATOM      4  C3  UNL d   1       1.566   1.138   0.442  0.00  0.00     0.017 A 
ATOM      5  C4  UNL d   1       1.366   0.419  -0.742  0.00  0.00     0.017 A 
ATOM      6  C5  UNL d   1       1.289   1.097  -1.962  0.00  0.00     0.034 A 
ATOM      7 Cl   UNL d   1       1.208  -1.302  -0.765  0.00  0.00    -0.070 Cl
ATOM      8 Cl1  UNL d   1       1.673   0.373   1.988  0.00  0.00    -0.070 Cl
ENDROOT
TORSDOF 0
ENDMDL
