MODEL 1
REMARK minimizedAffinity -3.44688964
REMARK minimizedRMSD -1
REMARK  0 active torsions:
REMARK  status: ('A' for Active; 'I' for Inactive)
ROOT
ATOM      1  C   UNL d   1       1.169   0.911  -1.481  0.00  0.00     0.020 A 
ATOM      2  C1  UNL d   1       1.190   0.462  -0.161  0.00  0.00     0.020 A 
ATOM      3  C2  UNL d   1       1.381   1.369   0.883  0.00  0.00     0.034 A 
ATOM      4  C3  UNL d   1       1.554   2.731   0.609  0.00  0.00     0.017 A 
ATOM      5  C4  UNL d   1       1.533   3.181  -0.716  0.00  0.00     0.017 A 
ATOM      6  C5  UNL d   1       1.341   2.268  -1.757  0.00  0.00     0.034 A 
ATOM      7 Cl   UNL d   1       1.739   4.846  -1.132  0.00  0.00    -0.070 Cl
ATOM      8 Cl1  UNL d   1       1.786   3.796   1.949  0.00  0.00    -0.070 Cl
ENDROOT
TORSDOF 0
ENDMDL
