MODEL 1
REMARK minimizedAffinity 8.56928062
REMARK minimizedRMSD -1
REMARK  0 active torsions:
REMARK  status: ('A' for Active; 'I' for Inactive)
ROOT
ATOM      1  C   UNL d   1       1.180   2.039  -2.613  0.00  0.00     0.020 A 
ATOM      2  C1  UNL d   1       1.093   1.069  -1.614  0.00  0.00     0.020 A 
ATOM      3  C2  UNL d   1       1.231   1.433  -0.273  0.00  0.00     0.034 A 
ATOM      4  C3  UNL d   1       1.457   2.770   0.073  0.00  0.00     0.017 A 
ATOM      5  C4  UNL d   1       1.544   3.743  -0.929  0.00  0.00     0.017 A 
ATOM      6  C5  UNL d   1       1.405   3.373  -2.270  0.00  0.00     0.034 A 
ATOM      7 Cl   UNL d   1       1.820   5.413  -0.579  0.00  0.00    -0.070 Cl
ATOM      8 Cl1  UNL d   1       1.617   3.149   1.752  0.00  0.00    -0.070 Cl
ENDROOT
TORSDOF 0
ENDMDL
