MODEL 1
REMARK minimizedAffinity -5.57755041
REMARK minimizedRMSD -1
REMARK  1 active torsions:
REMARK  status: ('A' for Active; 'I' for Inactive)
REMARK    1  A    between atoms: C1_2  and  C2_3 
ROOT
ATOM      1  C2  UNL d   1      -0.656  -1.871  -0.580  0.00  0.00    -0.073 A 
ATOM      2  C3  UNL d   1      -1.347  -2.203   0.590  0.00  0.00    -0.002 A 
ATOM      3  C4  UNL d   1      -1.528  -1.253   1.596  0.00  0.00     0.004 A 
ATOM      4  C5  UNL d   1      -1.026   0.039   1.440  0.00  0.00    -0.004 A 
ATOM      5  C6  UNL d   1      -0.342   0.394   0.273  0.00  0.00    -0.075 A 
ATOM      6  C7  UNL d   1       0.206   1.779   0.091  0.00  0.00     0.076 C 
ATOM      7  C8  UNL d   1      -0.163  -0.567  -0.732  0.00  0.00     0.001 A 
ENDROOT
BRANCH   1   8
ATOM      8  C1  UNL d   1      -0.464  -2.891  -1.673  0.00  0.00     0.053 C 
ATOM      9  C   UNL d   1       0.192  -2.290  -2.905  0.00  0.00     0.018 C 
ENDBRANCH   1   8
TORSDOF 1
ENDMDL
