MODEL 1
REMARK minimizedAffinity -2.44676113
REMARK minimizedRMSD -1
REMARK  1 active torsions:
REMARK  status: ('A' for Active; 'I' for Inactive)
REMARK    1  A    between atoms: C1_2  and  C2_3 
ROOT
ATOM      1  C2  UNL d   1      -0.012   0.705   0.001  0.00  0.00    -0.073 A 
ATOM      2  C3  UNL d   1      -0.492  -0.057   1.072  0.00  0.00    -0.002 A 
ATOM      3  C4  UNL d   1      -0.783  -1.411   0.899  0.00  0.00     0.004 A 
ATOM      4  C5  UNL d   1      -0.591  -2.017  -0.342  0.00  0.00    -0.004 A 
ATOM      5  C6  UNL d   1      -0.101  -1.275  -1.421  0.00  0.00    -0.075 A 
ATOM      6  C7  UNL d   1       0.109  -1.912  -2.764  0.00  0.00     0.076 C 
ATOM      7  C8  UNL d   1       0.186   0.085  -1.241  0.00  0.00     0.001 A 
ENDROOT
BRANCH   1   8
ATOM      8  C1  UNL d   1       0.309   2.166   0.185  0.00  0.00     0.053 C 
ATOM      9  C   UNL d   1       1.664   2.373   0.843  0.00  0.00     0.018 C 
ENDBRANCH   1   8
TORSDOF 1
ENDMDL
