MODEL 1
REMARK minimizedAffinity -6.02820921
REMARK minimizedRMSD -1
REMARK  1 active torsions:
REMARK  status: ('A' for Active; 'I' for Inactive)
REMARK    1  A    between atoms: C1_2  and  C2_3 
ROOT
ATOM      1  C2  UNL d   1      -0.278  -0.379  -0.820  0.00  0.00    -0.073 A 
ATOM      2  C3  UNL d   1       0.221  -1.419  -1.612  0.00  0.00    -0.002 A 
ATOM      3  C4  UNL d   1       0.065  -2.747  -1.211  0.00  0.00     0.004 A 
ATOM      4  C5  UNL d   1      -0.595  -3.048  -0.020  0.00  0.00    -0.004 A 
ATOM      5  C6  UNL d   1      -1.111  -2.022   0.779  0.00  0.00    -0.075 A 
ATOM      6  C7  UNL d   1      -1.822  -2.329   2.064  0.00  0.00     0.076 C 
ATOM      7  C8  UNL d   1      -0.948  -0.691   0.371  0.00  0.00     0.001 A 
ENDROOT
BRANCH   1   8
ATOM      8  C1  UNL d   1      -0.117   1.056  -1.252  0.00  0.00     0.053 C 
ATOM      9  C   UNL d   1      -0.088   2.008  -0.067  0.00  0.00     0.018 C 
ENDBRANCH   1   8
TORSDOF 1
ENDMDL
