MODEL 1
REMARK minimizedAffinity -5.11396837
REMARK minimizedRMSD -1
REMARK  1 active torsions:
REMARK  status: ('A' for Active; 'I' for Inactive)
REMARK    1  A    between atoms: C1_2  and  C2_3 
ROOT
ATOM      1  C2  UNL d   1       0.037   0.174   0.286  0.00  0.00    -0.073 A 
ATOM      2  C3  UNL d   1      -0.989   0.206   1.237  0.00  0.00    -0.002 A 
ATOM      3  C4  UNL d   1      -1.542  -0.982   1.717  0.00  0.00     0.004 A 
ATOM      4  C5  UNL d   1      -1.071  -2.211   1.258  0.00  0.00    -0.004 A 
ATOM      5  C6  UNL d   1      -0.038  -2.264   0.316  0.00  0.00    -0.075 A 
ATOM      6  C7  UNL d   1       0.478  -3.579  -0.191  0.00  0.00     0.076 C 
ATOM      7  C8  UNL d   1       0.510  -1.067  -0.164  0.00  0.00     0.001 A 
ENDROOT
BRANCH   1   8
ATOM      8  C1  UNL d   1       0.642   1.454  -0.231  0.00  0.00     0.053 C 
ATOM      9  C   UNL d   1       1.108   2.361   0.897  0.00  0.00     0.018 C 
ENDBRANCH   1   8
TORSDOF 1
ENDMDL
