MODEL 1
REMARK minimizedAffinity -4.96636963
REMARK minimizedRMSD -1
REMARK  1 active torsions:
REMARK  status: ('A' for Active; 'I' for Inactive)
REMARK    1  A    between atoms: C1_2  and  C2_3 
ROOT
ATOM      1  C2  UNL d   1       0.268  -0.429  -0.536  0.00  0.00    -0.073 A 
ATOM      2  C3  UNL d   1       1.093  -1.537  -0.758  0.00  0.00    -0.002 A 
ATOM      3  C4  UNL d   1       0.878  -2.727  -0.061  0.00  0.00     0.004 A 
ATOM      4  C5  UNL d   1      -0.167  -2.823   0.858  0.00  0.00    -0.004 A 
ATOM      5  C6  UNL d   1      -1.010  -1.730   1.084  0.00  0.00    -0.075 A 
ATOM      6  C7  UNL d   1      -2.137  -1.817   2.071  0.00  0.00     0.076 C 
ATOM      7  C8  UNL d   1      -0.786  -0.538   0.383  0.00  0.00     0.001 A 
ENDROOT
BRANCH   1   8
ATOM      8  C1  UNL d   1       0.493   0.856  -1.291  0.00  0.00     0.053 C 
ATOM      9  C   UNL d   1       0.544   2.060  -0.364  0.00  0.00     0.018 C 
ENDBRANCH   1   8
TORSDOF 1
ENDMDL
