MODEL 1
REMARK minimizedAffinity -6.29224682
REMARK minimizedRMSD -1
REMARK  1 active torsions:
REMARK  status: ('A' for Active; 'I' for Inactive)
REMARK    1  A    between atoms: C1_2  and  C2_3 
ROOT
ATOM      1  C2  UNL d   1      -0.435  -0.895   0.159  0.00  0.00    -0.073 A 
ATOM      2  C3  UNL d   1      -0.685  -2.130   0.768  0.00  0.00    -0.002 A 
ATOM      3  C4  UNL d   1      -0.537  -3.315   0.045  0.00  0.00     0.004 A 
ATOM      4  C5  UNL d   1      -0.132  -3.278  -1.289  0.00  0.00    -0.004 A 
ATOM      5  C6  UNL d   1       0.134  -2.054  -1.912  0.00  0.00    -0.075 A 
ATOM      6  C7  UNL d   1       0.569  -1.997  -3.347  0.00  0.00     0.076 C 
ATOM      7  C8  UNL d   1      -0.019  -0.868  -1.180  0.00  0.00     0.001 A 
ENDROOT
BRANCH   1   8
ATOM      8  C1  UNL d   1      -0.586   0.387   0.937  0.00  0.00     0.053 C 
ATOM      9  C   UNL d   1       0.060   1.565   0.226  0.00  0.00     0.018 C 
ENDBRANCH   1   8
TORSDOF 1
ENDMDL
