MODEL 1
REMARK minimizedAffinity -0.298140526
REMARK minimizedRMSD -1
REMARK  1 active torsions:
REMARK  status: ('A' for Active; 'I' for Inactive)
REMARK    1  A    between atoms: C1_2  and  C2_3 
ROOT
ATOM      1  C2  UNL d   1       0.796   1.553  -0.218  0.00  0.00    -0.073 A 
ATOM      2  C3  UNL d   1       0.120   1.716  -1.432  0.00  0.00    -0.002 A 
ATOM      3  C4  UNL d   1      -0.156   0.611  -2.239  0.00  0.00     0.004 A 
ATOM      4  C5  UNL d   1       0.235  -0.666  -1.838  0.00  0.00    -0.004 A 
ATOM      5  C6  UNL d   1       0.901  -0.851  -0.623  0.00  0.00    -0.075 A 
ATOM      6  C7  UNL d   1       1.331  -2.218  -0.178  0.00  0.00     0.076 C 
ATOM      7  C8  UNL d   1       1.177   0.263   0.181  0.00  0.00     0.001 A 
ENDROOT
BRANCH   1   8
ATOM      8  C1  UNL d   1       1.090   2.742   0.660  0.00  0.00     0.053 C 
ATOM      9  C   UNL d   1       2.450   3.351   0.358  0.00  0.00     0.018 C 
ENDBRANCH   1   8
TORSDOF 1
ENDMDL
