MODEL 1
REMARK minimizedAffinity -2.29640532
REMARK minimizedRMSD -1
REMARK  1 active torsions:
REMARK  status: ('A' for Active; 'I' for Inactive)
REMARK    1  A    between atoms: C1_2  and  C2_3 
ROOT
ATOM      1  C2  UNL d   1       0.537   1.979   0.351  0.00  0.00    -0.073 A 
ATOM      2  C3  UNL d   1       1.882   2.265   0.088  0.00  0.00    -0.002 A 
ATOM      3  C4  UNL d   1       2.581   3.168   0.890  0.00  0.00     0.004 A 
ATOM      4  C5  UNL d   1       1.946   3.788   1.966  0.00  0.00    -0.004 A 
ATOM      5  C6  UNL d   1       0.606   3.507   2.252  0.00  0.00    -0.075 A 
ATOM      6  C7  UNL d   1      -0.092   4.167   3.404  0.00  0.00     0.076 C 
ATOM      7  C8  UNL d   1      -0.090   2.601   1.440  0.00  0.00     0.001 A 
ENDROOT
BRANCH   1   8
ATOM      8  C1  UNL d   1      -0.219   1.000  -0.509  0.00  0.00     0.053 C 
ATOM      9  C   UNL d   1      -0.630  -0.241   0.268  0.00  0.00     0.018 C 
ENDBRANCH   1   8
TORSDOF 1
ENDMDL
