MODEL 1
REMARK minimizedAffinity -4.31467342
REMARK minimizedRMSD -1
REMARK  1 active torsions:
REMARK  status: ('A' for Active; 'I' for Inactive)
REMARK    1  A    between atoms: C1_2  and  C2_3 
ROOT
ATOM      1  C2  UNL d   1      -0.177  -0.424   0.118  0.00  0.00    -0.073 A 
ATOM      2  C3  UNL d   1      -1.362  -0.429   0.862  0.00  0.00    -0.002 A 
ATOM      3  C4  UNL d   1      -1.860  -1.622   1.387  0.00  0.00     0.004 A 
ATOM      4  C5  UNL d   1      -1.175  -2.820   1.180  0.00  0.00    -0.004 A 
ATOM      5  C6  UNL d   1       0.018  -2.833   0.450  0.00  0.00    -0.075 A 
ATOM      6  C7  UNL d   1       0.766  -4.113   0.217  0.00  0.00     0.076 C 
ATOM      7  C8  UNL d   1       0.510  -1.631  -0.077  0.00  0.00     0.001 A 
ENDROOT
BRANCH   1   8
ATOM      8  C1  UNL d   1       0.367   0.863  -0.446  0.00  0.00     0.053 C 
ATOM      9  C   UNL d   1       0.049   1.018  -1.925  0.00  0.00     0.018 C 
ENDBRANCH   1   8
TORSDOF 1
ENDMDL
