MODEL 1
REMARK minimizedAffinity -6.54684258
REMARK minimizedRMSD -1
REMARK  1 active torsions:
REMARK  status: ('A' for Active; 'I' for Inactive)
REMARK    1  A    between atoms: C1_2  and  C2_3 
ROOT
ATOM      1  C2  UNL d   1      -0.148  -1.168  -0.104  0.00  0.00    -0.073 A 
ATOM      2  C3  UNL d   1      -0.399  -2.405   0.501  0.00  0.00    -0.002 A 
ATOM      3  C4  UNL d   1      -0.208  -3.590  -0.211  0.00  0.00     0.004 A 
ATOM      4  C5  UNL d   1       0.241  -3.551  -1.531  0.00  0.00    -0.004 A 
ATOM      5  C6  UNL d   1       0.509  -2.325  -2.149  0.00  0.00    -0.075 A 
ATOM      6  C7  UNL d   1       0.990  -2.266  -3.569  0.00  0.00     0.076 C 
ATOM      7  C8  UNL d   1       0.312  -1.140  -1.428  0.00  0.00     0.001 A 
ENDROOT
BRANCH   1   8
ATOM      8  C1  UNL d   1      -0.346   0.113   0.664  0.00  0.00     0.053 C 
ATOM      9  C   UNL d   1       0.063   1.332  -0.148  0.00  0.00     0.018 C 
ENDBRANCH   1   8
TORSDOF 1
ENDMDL
