MODEL 1
REMARK minimizedAffinity -3.30113339
REMARK minimizedRMSD -1
REMARK  1 active torsions:
REMARK  status: ('A' for Active; 'I' for Inactive)
REMARK    1  A    between atoms: C1_2  and  C2_3 
ROOT
ATOM      1  C2  UNL d   1       0.012   1.704  -0.053  0.00  0.00    -0.073 A 
ATOM      2  C3  UNL d   1      -1.119   1.636   0.769  0.00  0.00    -0.002 A 
ATOM      3  C4  UNL d   1      -1.721   0.407   1.039  0.00  0.00     0.004 A 
ATOM      4  C5  UNL d   1      -1.197  -0.766   0.496  0.00  0.00    -0.004 A 
ATOM      5  C6  UNL d   1      -0.061  -0.720  -0.318  0.00  0.00    -0.075 A 
ATOM      6  C7  UNL d   1       0.514  -1.973  -0.911  0.00  0.00     0.076 C 
ATOM      7  C8  UNL d   1       0.537   0.518  -0.587  0.00  0.00     0.001 A 
ENDROOT
BRANCH   1   8
ATOM      8  C1  UNL d   1       0.670   3.029  -0.342  0.00  0.00     0.053 C 
ATOM      9  C   UNL d   1       2.087   3.093   0.205  0.00  0.00     0.018 C 
ENDBRANCH   1   8
TORSDOF 1
ENDMDL
