MODEL 1
REMARK minimizedAffinity 12.3378181
REMARK minimizedRMSD -1
REMARK  0 active torsions:
REMARK  status: ('A' for Active; 'I' for Inactive)
ROOT
ATOM      1  C4' PXY d   1      -3.612   4.762  -3.036  0.00  0.00     0.077 C 
ATOM      2  C1' PXY d   1      -5.990  -0.119  -5.020  0.00  0.00     0.077 C 
ATOM      3  C1  PXY d   1      -5.378   1.165  -4.496  0.00  0.00    -0.082 A 
ATOM      4  C2  PXY d   1      -4.234   1.598  -5.000  0.00  0.00     0.003 A 
ATOM      5  C3  PXY d   1      -3.650   2.740  -4.515  0.00  0.00     0.003 A 
ATOM      6  C4  PXY d   1      -4.271   3.476  -3.541  0.00  0.00    -0.082 A 
ATOM      7  C5  PXY d   1      -5.445   3.047  -3.030  0.00  0.00     0.003 A 
ATOM      8  C6  PXY d   1      -6.000   1.863  -3.507  0.00  0.00     0.003 A 
ENDROOT
TORSDOF 0
ENDMDL
