MODEL 1
REMARK minimizedAffinity 5.94496107
REMARK minimizedRMSD -1
REMARK  0 active torsions:
REMARK  status: ('A' for Active; 'I' for Inactive)
ROOT
ATOM      1  C4' PXY d   1      -2.338  -5.988   6.000  0.00  0.00     0.077 C 
ATOM      2  C1' PXY d   1       1.526  -2.710   3.217  0.00  0.00     0.077 C 
ATOM      3  C1  PXY d   1       0.508  -3.574   3.935  0.00  0.00    -0.082 A 
ATOM      4  C2  PXY d   1       0.090  -3.227   5.142  0.00  0.00     0.003 A 
ATOM      5  C3  PXY d   1      -0.805  -4.014   5.819  0.00  0.00     0.003 A 
ATOM      6  C4  PXY d   1      -1.319  -5.141   5.233  0.00  0.00    -0.082 A 
ATOM      7  C5  PXY d   1      -0.905  -5.496   3.998  0.00  0.00     0.003 A 
ATOM      8  C6  PXY d   1       0.036  -4.705   3.345  0.00  0.00     0.003 A 
ENDROOT
TORSDOF 0
ENDMDL
