MODEL 1
REMARK minimizedAffinity 12.566514
REMARK minimizedRMSD -1
REMARK  0 active torsions:
REMARK  status: ('A' for Active; 'I' for Inactive)
ROOT
ATOM      1  C4' PXY d   1       0.882  -2.696   1.847  0.00  0.00     0.077 C 
ATOM      2  C1' PXY d   1       3.200  -3.038  -3.438  0.00  0.00     0.077 C 
ATOM      3  C1  PXY d   1       2.583  -2.940  -2.056  0.00  0.00    -0.082 A 
ATOM      4  C2  PXY d   1       3.312  -3.234  -0.992  0.00  0.00     0.003 A 
ATOM      5  C3  PXY d   1       2.761  -3.181   0.263  0.00  0.00     0.003 A 
ATOM      6  C4  PXY d   1       1.465  -2.772   0.433  0.00  0.00    -0.082 A 
ATOM      7  C5  PXY d   1       0.718  -2.460  -0.647  0.00  0.00     0.003 A 
ATOM      8  C6  PXY d   1       1.284  -2.559  -1.914  0.00  0.00     0.003 A 
ENDROOT
TORSDOF 0
ENDMDL
