MODEL 1
REMARK minimizedAffinity 7.20805216
REMARK minimizedRMSD -1
REMARK  0 active torsions:
REMARK  status: ('A' for Active; 'I' for Inactive)
ROOT
ATOM      1  C4' PXY d   1      -6.000   5.055  -4.205  0.00  0.00     0.077 C 
ATOM      2  C1' PXY d   1      -3.540  -0.165  -4.546  0.00  0.00     0.077 C 
ATOM      3  C1  PXY d   1      -4.196   1.198  -4.455  0.00  0.00    -0.082 A 
ATOM      4  C2  PXY d   1      -3.598   2.250  -4.991  0.00  0.00     0.003 A 
ATOM      5  C3  PXY d   1      -4.163   3.495  -4.890  0.00  0.00     0.003 A 
ATOM      6  C4  PXY d   1      -5.378   3.658  -4.281  0.00  0.00    -0.082 A 
ATOM      7  C5  PXY d   1      -6.000   2.588  -3.741  0.00  0.00     0.003 A 
ATOM      8  C6  PXY d   1      -5.390   1.339  -3.818  0.00  0.00     0.003 A 
ENDROOT
TORSDOF 0
ENDMDL
