MODEL 1
REMARK minimizedAffinity 2.52549338
REMARK minimizedRMSD -1
REMARK  0 active torsions:
REMARK  status: ('A' for Active; 'I' for Inactive)
ROOT
ATOM      1  C4' PXY d   1      -6.000  -0.753  -5.351  0.00  0.00     0.077 C 
ATOM      2  C1' PXY d   1      -1.039   0.858  -2.860  0.00  0.00     0.077 C 
ATOM      3  C1  PXY d   1      -2.340   0.447  -3.519  0.00  0.00    -0.082 A 
ATOM      4  C2  PXY d   1      -3.083  -0.499  -2.967  0.00  0.00     0.003 A 
ATOM      5  C3  PXY d   1      -4.247  -0.905  -3.567  0.00  0.00     0.003 A 
ATOM      6  C4  PXY d   1      -4.683  -0.300  -4.716  0.00  0.00    -0.082 A 
ATOM      7  C5  PXY d   1      -3.936   0.673  -5.279  0.00  0.00     0.003 A 
ATOM      8  C6  PXY d   1      -2.737   1.043  -4.677  0.00  0.00     0.003 A 
ENDROOT
TORSDOF 0
ENDMDL
