MODEL 1
REMARK minimizedAffinity 5.20424461
REMARK minimizedRMSD -1
REMARK  0 active torsions:
REMARK  status: ('A' for Active; 'I' for Inactive)
ROOT
ATOM      1  C4' PXY d   1      -0.332  -4.418  -0.708  0.00  0.00     0.077 C 
ATOM      2  C1' PXY d   1       3.499  -0.091  -0.588  0.00  0.00     0.077 C 
ATOM      3  C1  PXY d   1       2.501  -1.232  -0.611  0.00  0.00    -0.082 A 
ATOM      4  C2  PXY d   1       1.741  -1.415  -1.678  0.00  0.00     0.003 A 
ATOM      5  C3  PXY d   1       0.811  -2.423  -1.703  0.00  0.00     0.003 A 
ATOM      6  C4  PXY d   1       0.695  -3.284  -0.645  0.00  0.00    -0.082 A 
ATOM      7  C5  PXY d   1       1.474  -3.110   0.443  0.00  0.00     0.003 A 
ATOM      8  C6  PXY d   1       2.383  -2.056   0.465  0.00  0.00     0.003 A 
ENDROOT
TORSDOF 0
ENDMDL
