MODEL 1
REMARK minimizedAffinity 5.22084951
REMARK minimizedRMSD -1
REMARK  0 active torsions:
REMARK  status: ('A' for Active; 'I' for Inactive)
ROOT
ATOM      1  C4' PXY d   1       5.398   2.269  -1.172  0.00  0.00     0.077 C 
ATOM      2  C1' PXY d   1       2.243  -2.329   0.352  0.00  0.00     0.077 C 
ATOM      3  C1  PXY d   1       3.077  -1.124  -0.036  0.00  0.00    -0.082 A 
ATOM      4  C2  PXY d   1       2.619  -0.277  -0.944  0.00  0.00     0.003 A 
ATOM      5  C3  PXY d   1       3.373   0.801  -1.330  0.00  0.00     0.003 A 
ATOM      6  C4  PXY d   1       4.586   1.043  -0.743  0.00  0.00    -0.082 A 
ATOM      7  C5  PXY d   1       5.056   0.190   0.192  0.00  0.00     0.003 A 
ATOM      8  C6  PXY d   1       4.293  -0.921   0.540  0.00  0.00     0.003 A 
ENDROOT
TORSDOF 0
ENDMDL
