MODEL 1
REMARK minimizedAffinity 11.3464613
REMARK minimizedRMSD -1
REMARK  0 active torsions:
REMARK  status: ('A' for Active; 'I' for Inactive)
ROOT
ATOM      1  C4' PXY d   1      -1.406   1.129  -2.021  0.00  0.00     0.077 C 
ATOM      2  C1' PXY d   1       1.340   0.598   3.038  0.00  0.00     0.077 C 
ATOM      3  C1  PXY d   1       0.632   0.739   1.705  0.00  0.00    -0.082 A 
ATOM      4  C2  PXY d   1      -0.628   1.142   1.674  0.00  0.00     0.003 A 
ATOM      5  C3  PXY d   1      -1.294   1.244   0.480  0.00  0.00     0.003 A 
ATOM      6  C4  PXY d   1      -0.648   0.981  -0.698  0.00  0.00    -0.082 A 
ATOM      7  C5  PXY d   1       0.640   0.580  -0.675  0.00  0.00     0.003 A 
ATOM      8  C6  PXY d   1       1.286   0.443   0.550  0.00  0.00     0.003 A 
ENDROOT
TORSDOF 0
ENDMDL
