MODEL 1
REMARK minimizedAffinity 6.43296385
REMARK minimizedRMSD -1
REMARK  0 active torsions:
REMARK  status: ('A' for Active; 'I' for Inactive)
ROOT
ATOM      1  C4' PXY d   1       5.996   3.183   0.036  0.00  0.00     0.077 C 
ATOM      2  C1' PXY d   1       2.704  -1.397  -1.229  0.00  0.00     0.077 C 
ATOM      3  C1  PXY d   1       3.576  -0.199  -0.907  0.00  0.00    -0.082 A 
ATOM      4  C2  PXY d   1       3.502   0.360   0.290  0.00  0.00     0.003 A 
ATOM      5  C3  PXY d   1       4.260   1.463   0.588  0.00  0.00     0.003 A 
ATOM      6  C4  PXY d   1       5.141   1.967  -0.331  0.00  0.00    -0.082 A 
ATOM      7  C5  PXY d   1       5.230   1.395  -1.551  0.00  0.00     0.003 A 
ATOM      8  C6  PXY d   1       4.422   0.301  -1.847  0.00  0.00     0.003 A 
ENDROOT
TORSDOF 0
ENDMDL
