MODEL 1
REMARK minimizedAffinity 5.62361908
REMARK minimizedRMSD -1
REMARK  0 active torsions:
REMARK  status: ('A' for Active; 'I' for Inactive)
ROOT
ATOM      1  C4' PXY d   1      -0.348   1.497   0.618  0.00  0.00     0.077 C 
ATOM      2  C1' PXY d   1      -6.000   0.822  -0.391  0.00  0.00     0.077 C 
ATOM      3  C1  PXY d   1      -4.515   0.989  -0.134  0.00  0.00    -0.082 A 
ATOM      4  C2  PXY d   1      -4.107   1.641   0.942  0.00  0.00     0.003 A 
ATOM      5  C3  PXY d   1      -2.769   1.829   1.174  0.00  0.00     0.003 A 
ATOM      6  C4  PXY d   1      -1.837   1.296   0.323  0.00  0.00    -0.082 A 
ATOM      7  C5  PXY d   1      -2.246   0.620  -0.772  0.00  0.00     0.003 A 
ATOM      8  C6  PXY d   1      -3.609   0.477  -1.011  0.00  0.00     0.003 A 
ENDROOT
TORSDOF 0
ENDMDL
