MODEL 1
REMARK minimizedAffinity 4.25871944
REMARK minimizedRMSD -1
REMARK  0 active torsions:
REMARK  status: ('A' for Active; 'I' for Inactive)
ROOT
ATOM      1  C4' PXY d   1       4.554  -0.532  -1.134  0.00  0.00     0.077 C 
ATOM      2  C1' PXY d   1       0.469  -4.615  -1.376  0.00  0.00     0.077 C 
ATOM      3  C1  PXY d   1       1.545  -3.548  -1.324  0.00  0.00    -0.082 A 
ATOM      4  C2  PXY d   1       1.902  -3.036  -0.158  0.00  0.00     0.003 A 
ATOM      5  C3  PXY d   1       2.851  -2.048  -0.095  0.00  0.00     0.003 A 
ATOM      6  C4  PXY d   1       3.479  -1.618  -1.234  0.00  0.00    -0.082 A 
ATOM      7  C5  PXY d   1       3.128  -2.144  -2.426  0.00  0.00     0.003 A 
ATOM      8  C6  PXY d   1       2.134  -3.116  -2.472  0.00  0.00     0.003 A 
ENDROOT
TORSDOF 0
ENDMDL
