MODEL 1
REMARK minimizedAffinity 10.1897774
REMARK minimizedRMSD -1
REMARK  0 active torsions:
REMARK  status: ('A' for Active; 'I' for Inactive)
ROOT
ATOM      1  C   UNL d   1       1.562  -2.308   5.385  0.00  0.00     0.077 C 
ATOM      2  C1  UNL d   1       2.424  -1.850   4.246  0.00  0.00    -0.074 A 
ATOM      3  C2  UNL d   1       1.926  -0.977   3.273  0.00  0.00    -0.005 A 
ATOM      4  C3  UNL d   1       2.742  -0.553   2.225  0.00  0.00     0.006 A 
ATOM      5  C4  UNL d   1       4.063  -0.996   2.138  0.00  0.00    -0.005 A 
ATOM      6  C5  UNL d   1       4.578  -1.869   3.102  0.00  0.00    -0.074 A 
ATOM      7  C6  UNL d   1       5.998  -2.347   3.030  0.00  0.00     0.077 C 
ATOM      8  C7  UNL d   1       3.754  -2.285   4.157  0.00  0.00    -0.001 A 
ENDROOT
TORSDOF 0
ENDMDL
