MODEL 1
REMARK minimizedAffinity 5.96384382
REMARK minimizedRMSD -1
REMARK  0 active torsions:
REMARK  status: ('A' for Active; 'I' for Inactive)
ROOT
ATOM      1  C   UNL d   1       2.533   0.796   1.953  0.00  0.00     0.077 C 
ATOM      2  C1  UNL d   1       2.811  -0.356   2.872  0.00  0.00    -0.074 A 
ATOM      3  C2  UNL d   1       1.766  -1.117   3.407  0.00  0.00    -0.005 A 
ATOM      4  C3  UNL d   1       2.040  -2.191   4.253  0.00  0.00     0.006 A 
ATOM      5  C4  UNL d   1       3.359  -2.516   4.572  0.00  0.00    -0.005 A 
ATOM      6  C5  UNL d   1       4.417  -1.767   4.046  0.00  0.00    -0.074 A 
ATOM      7  C6  UNL d   1       5.841  -2.108   4.371  0.00  0.00     0.077 C 
ATOM      8  C7  UNL d   1       4.133  -0.693   3.191  0.00  0.00    -0.001 A 
ENDROOT
TORSDOF 0
ENDMDL
