MODEL 1
REMARK minimizedAffinity 17.1658401
REMARK minimizedRMSD -1
REMARK  0 active torsions:
REMARK  status: ('A' for Active; 'I' for Inactive)
ROOT
ATOM      1  C   UNL d   1      -5.731  -1.929  -5.794  0.00  0.00     0.077 C 
ATOM      2  C1  UNL d   1      -5.797  -0.779  -4.834  0.00  0.00    -0.074 A 
ATOM      3  C2  UNL d   1      -5.781  -0.995  -3.452  0.00  0.00    -0.005 A 
ATOM      4  C3  UNL d   1      -5.833   0.085  -2.571  0.00  0.00     0.006 A 
ATOM      5  C4  UNL d   1      -5.901   1.390  -3.061  0.00  0.00    -0.005 A 
ATOM      6  C5  UNL d   1      -5.917   1.625  -4.439  0.00  0.00    -0.074 A 
ATOM      7  C6  UNL d   1      -5.980   3.022  -4.983  0.00  0.00     0.077 C 
ATOM      8  C7  UNL d   1      -5.857   0.535  -5.319  0.00  0.00    -0.001 A 
ENDROOT
TORSDOF 0
ENDMDL
