MODEL 1
REMARK minimizedAffinity 2.91981053
REMARK minimizedRMSD -1
REMARK  0 active torsions:
REMARK  status: ('A' for Active; 'I' for Inactive)
ROOT
ATOM      1  C   UNL d   1       4.676  -2.106   5.998  0.00  0.00     0.077 C 
ATOM      2  C1  UNL d   1       3.443  -2.053   5.147  0.00  0.00    -0.074 A 
ATOM      3  C2  UNL d   1       2.334  -2.854   5.437  0.00  0.00    -0.005 A 
ATOM      4  C3  UNL d   1       1.190  -2.787   4.642  0.00  0.00     0.006 A 
ATOM      5  C4  UNL d   1       1.143  -1.919   3.551  0.00  0.00    -0.005 A 
ATOM      6  C5  UNL d   1       2.241  -1.109   3.246  0.00  0.00    -0.074 A 
ATOM      7  C6  UNL d   1       2.204  -0.164   2.082  0.00  0.00     0.077 C 
ATOM      8  C7  UNL d   1       3.385  -1.177   4.053  0.00  0.00    -0.001 A 
ENDROOT
TORSDOF 0
ENDMDL
