MODEL 1
REMARK minimizedAffinity 7.66436768
REMARK minimizedRMSD -1
REMARK  0 active torsions:
REMARK  status: ('A' for Active; 'I' for Inactive)
ROOT
ATOM      1  C   UNL d   1       5.854  -2.170   5.987  0.00  0.00     0.077 C 
ATOM      2  C1  UNL d   1       4.616  -2.202   5.142  0.00  0.00    -0.074 A 
ATOM      3  C2  UNL d   1       3.821  -3.350   5.075  0.00  0.00    -0.005 A 
ATOM      4  C3  UNL d   1       2.666  -3.362   4.292  0.00  0.00     0.006 A 
ATOM      5  C4  UNL d   1       2.296  -2.227   3.569  0.00  0.00    -0.005 A 
ATOM      6  C5  UNL d   1       3.078  -1.069   3.625  0.00  0.00    -0.074 A 
ATOM      7  C6  UNL d   1       2.689   0.162   2.862  0.00  0.00     0.077 C 
ATOM      8  C7  UNL d   1       4.233  -1.063   4.419  0.00  0.00    -0.001 A 
ENDROOT
TORSDOF 0
ENDMDL
