MODEL 1
REMARK minimizedAffinity 14.1811209
REMARK minimizedRMSD -1
REMARK  0 active torsions:
REMARK  status: ('A' for Active; 'I' for Inactive)
ROOT
ATOM      1  C   UNL d   1      -1.959   1.631   0.664  0.00  0.00     0.077 C 
ATOM      2  C1  UNL d   1      -0.819   0.686   0.427  0.00  0.00    -0.074 A 
ATOM      3  C2  UNL d   1      -0.859  -0.240  -0.620  0.00  0.00    -0.005 A 
ATOM      4  C3  UNL d   1       0.213  -1.107  -0.834  0.00  0.00     0.006 A 
ATOM      5  C4  UNL d   1       1.333  -1.056  -0.004  0.00  0.00    -0.005 A 
ATOM      6  C5  UNL d   1       1.392  -0.136   1.047  0.00  0.00    -0.074 A 
ATOM      7  C6  UNL d   1       2.593  -0.061   1.942  0.00  0.00     0.077 C 
ATOM      8  C7  UNL d   1       0.314   0.736   1.251  0.00  0.00    -0.001 A 
ENDROOT
TORSDOF 0
ENDMDL
