MODEL 1
REMARK minimizedAffinity 9.45821667
REMARK minimizedRMSD -1
REMARK  0 active torsions:
REMARK  status: ('A' for Active; 'I' for Inactive)
ROOT
ATOM      1  C   UNL d   1      -5.931   5.981  -0.245  0.00  0.00     0.077 C 
ATOM      2  C1  UNL d   1      -5.199   4.849   0.413  0.00  0.00    -0.074 A 
ATOM      3  C2  UNL d   1      -3.822   4.683   0.235  0.00  0.00    -0.005 A 
ATOM      4  C3  UNL d   1      -3.153   3.631   0.861  0.00  0.00     0.006 A 
ATOM      5  C4  UNL d   1      -3.854   2.736   1.670  0.00  0.00    -0.005 A 
ATOM      6  C5  UNL d   1      -5.231   2.886   1.861  0.00  0.00    -0.074 A 
ATOM      7  C6  UNL d   1      -5.997   1.939   2.736  0.00  0.00     0.077 C 
ATOM      8  C7  UNL d   1      -5.894   3.950   1.234  0.00  0.00    -0.001 A 
ENDROOT
TORSDOF 0
ENDMDL
