MODEL 1
REMARK minimizedAffinity 7.89676332
REMARK minimizedRMSD -1
REMARK  0 active torsions:
REMARK  status: ('A' for Active; 'I' for Inactive)
ROOT
ATOM      1  C   UNL d   1       1.667  -3.046  -0.177  0.00  0.00     0.077 C 
ATOM      2  C1  UNL d   1       1.883  -2.631   1.248  0.00  0.00    -0.074 A 
ATOM      3  C2  UNL d   1       1.431  -1.391   1.712  0.00  0.00    -0.005 A 
ATOM      4  C3  UNL d   1       1.631  -1.022   3.042  0.00  0.00     0.006 A 
ATOM      5  C4  UNL d   1       2.284  -1.888   3.921  0.00  0.00    -0.005 A 
ATOM      6  C5  UNL d   1       2.742  -3.131   3.475  0.00  0.00    -0.074 A 
ATOM      7  C6  UNL d   1       3.437  -4.078   4.409  0.00  0.00     0.077 C 
ATOM      8  C7  UNL d   1       2.531  -3.498   2.139  0.00  0.00    -0.001 A 
ENDROOT
TORSDOF 0
ENDMDL
