MODEL 1
REMARK minimizedAffinity 12.8414965
REMARK minimizedRMSD -1
REMARK  0 active torsions:
REMARK  status: ('A' for Active; 'I' for Inactive)
ROOT
ATOM      1  C   UNL d   1       2.224  -5.989  -5.843  0.00  0.00     0.077 C 
ATOM      2  C1  UNL d   1       3.039  -5.999  -4.584  0.00  0.00    -0.074 A 
ATOM      3  C2  UNL d   1       4.437  -5.997  -4.633  0.00  0.00    -0.005 A 
ATOM      4  C3  UNL d   1       5.182  -5.996  -3.454  0.00  0.00     0.006 A 
ATOM      5  C4  UNL d   1       4.538  -5.997  -2.216  0.00  0.00    -0.005 A 
ATOM      6  C5  UNL d   1       3.141  -5.998  -2.147  0.00  0.00    -0.074 A 
ATOM      7  C6  UNL d   1       2.433  -5.988  -0.825  0.00  0.00     0.077 C 
ATOM      8  C7  UNL d   1       2.400  -5.991  -3.336  0.00  0.00    -0.001 A 
ENDROOT
TORSDOF 0
ENDMDL
