MODEL 1
REMARK minimizedAffinity -5.22851133
REMARK minimizedRMSD -1
REMARK  0 active torsions:
REMARK  status: ('A' for Active; 'I' for Inactive)
ROOT
ATOM      1  N1  IND d   1      -2.611   1.010   0.183  0.00  0.00    -0.196 N 
ATOM      2  C2  IND d   1      -3.185   1.169   1.414  0.00  0.00     0.054 A 
ATOM      3  C3  IND d   1      -2.280   0.929   2.389  0.00  0.00    -0.031 A 
ATOM      4  C4  IND d   1       0.224   0.362   2.193  0.00  0.00     0.051 A 
ATOM      5  C5  IND d   1       1.194   0.075   1.274  0.00  0.00    -0.031 A 
ATOM      6  C6  IND d   1       0.942   0.088  -0.082  0.00  0.00     0.015 A 
ATOM      7  C7  IND d   1      -0.294   0.401  -0.573  0.00  0.00    -0.016 A 
ATOM      8  C8  IND d   1      -1.284   0.686   0.356  0.00  0.00    -0.047 A 
ATOM      9  C9  IND d   1      -1.044   0.633   1.735  0.00  0.00    -0.096 A 
ATOM     10  HN1 IND d   1      -3.013   1.098  -0.573  0.00  0.00     0.298 HD
ENDROOT
TORSDOF 0
ENDMDL
