MODEL 1
REMARK minimizedAffinity 0.387886882
REMARK minimizedRMSD -1
REMARK  0 active torsions:
REMARK  status: ('A' for Active; 'I' for Inactive)
ROOT
ATOM      1  N1  IND d   1       4.303  -0.770  -4.025  0.00  0.00    -0.196 N 
ATOM      2  C2  IND d   1       4.656   0.547  -3.919  0.00  0.00     0.054 A 
ATOM      3  C3  IND d   1       3.585   1.293  -3.569  0.00  0.00    -0.031 A 
ATOM      4  C4  IND d   1       1.182   0.550  -3.019  0.00  0.00     0.051 A 
ATOM      5  C5  IND d   1       0.369  -0.548  -3.012  0.00  0.00    -0.031 A 
ATOM      6  C6  IND d   1       0.836  -1.803  -3.347  0.00  0.00     0.015 A 
ATOM      7  C7  IND d   1       2.142  -2.008  -3.691  0.00  0.00    -0.016 A 
ATOM      8  C8  IND d   1       2.969  -0.894  -3.706  0.00  0.00    -0.047 A 
ATOM      9  C9  IND d   1       2.490   0.389  -3.409  0.00  0.00    -0.096 A 
ATOM     10  HN1 IND d   1       4.827  -1.413  -4.252  0.00  0.00     0.298 HD
ENDROOT
TORSDOF 0
ENDMDL
