MODEL 1
REMARK minimizedAffinity -2.09529042
REMARK minimizedRMSD -1
REMARK  0 active torsions:
REMARK  status: ('A' for Active; 'I' for Inactive)
ROOT
ATOM      1  N1  IND d   1      -0.763   0.299  -0.819  0.00  0.00    -0.196 N 
ATOM      2  C2  IND d   1       0.600   0.267  -0.925  0.00  0.00     0.054 A 
ATOM      3  C3  IND d   1       1.170   0.407   0.292  0.00  0.00    -0.031 A 
ATOM      4  C4  IND d   1       0.059   0.601   2.606  0.00  0.00     0.051 A 
ATOM      5  C5  IND d   1      -1.163   0.713   3.209  0.00  0.00    -0.031 A 
ATOM      6  C6  IND d   1      -2.337   0.690   2.485  0.00  0.00     0.015 A 
ATOM      7  C7  IND d   1      -2.334   0.541   1.127  0.00  0.00    -0.016 A 
ATOM      8  C8  IND d   1      -1.095   0.434   0.511  0.00  0.00    -0.047 A 
ATOM      9  C9  IND d   1       0.102   0.500   1.236  0.00  0.00    -0.096 A 
ATOM     10  HN1 IND d   1      -1.319   0.243  -1.473  0.00  0.00     0.298 HD
ENDROOT
TORSDOF 0
ENDMDL
