MODEL 1
REMARK minimizedAffinity -2.49182749
REMARK minimizedRMSD -1
REMARK  0 active torsions:
REMARK  status: ('A' for Active; 'I' for Inactive)
ROOT
ATOM      1  N1  IND d   1      -2.804   0.894   0.764  0.00  0.00    -0.196 N 
ATOM      2  C2  IND d   1      -3.433   1.202   1.938  0.00  0.00     0.054 A 
ATOM      3  C3  IND d   1      -2.580   1.069   2.978  0.00  0.00    -0.031 A 
ATOM      4  C4  IND d   1      -0.079   0.456   2.973  0.00  0.00     0.051 A 
ATOM      5  C5  IND d   1       0.929   0.052   2.144  0.00  0.00    -0.031 A 
ATOM      6  C6  IND d   1       0.742  -0.091   0.785  0.00  0.00     0.015 A 
ATOM      7  C7  IND d   1      -0.463   0.175   0.199  0.00  0.00    -0.016 A 
ATOM      8  C8  IND d   1      -1.492   0.578   1.039  0.00  0.00    -0.047 A 
ATOM      9  C9  IND d   1      -1.319   0.685   2.425  0.00  0.00    -0.096 A 
ATOM     10  HN1 IND d   1      -3.167   0.897  -0.016  0.00  0.00     0.298 HD
ENDROOT
TORSDOF 0
ENDMDL
