MODEL 1
REMARK minimizedAffinity -3.79624152
REMARK minimizedRMSD -1
REMARK  0 active torsions:
REMARK  status: ('A' for Active; 'I' for Inactive)
ROOT
ATOM      1  N1  IND d   1      -2.913   0.810   0.933  0.00  0.00    -0.196 N 
ATOM      2  C2  IND d   1      -3.010   0.702  -0.426  0.00  0.00     0.054 A 
ATOM      3  C3  IND d   1      -1.787   0.516  -0.972  0.00  0.00    -0.031 A 
ATOM      4  C4  IND d   1       0.498   0.256   0.186  0.00  0.00     0.051 A 
ATOM      5  C5  IND d   1       1.097   0.319   1.413  0.00  0.00    -0.031 A 
ATOM      6  C6  IND d   1       0.375   0.550   2.566  0.00  0.00     0.015 A 
ATOM      7  C7  IND d   1      -0.981   0.717   2.536  0.00  0.00    -0.016 A 
ATOM      8  C8  IND d   1      -1.592   0.661   1.292  0.00  0.00    -0.047 A 
ATOM      9  C9  IND d   1      -0.859   0.469   0.113  0.00  0.00    -0.096 A 
ATOM     10  HN1 IND d   1      -3.568   0.948   1.473  0.00  0.00     0.298 HD
ENDROOT
TORSDOF 0
ENDMDL
