MODEL 1
REMARK minimizedAffinity 0.081304118
REMARK minimizedRMSD -1
REMARK  0 active torsions:
REMARK  status: ('A' for Active; 'I' for Inactive)
ROOT
ATOM      1  N1  IND d   1      -1.673   3.183   3.368  0.00  0.00    -0.196 N 
ATOM      2  C2  IND d   1      -2.887   2.593   3.151  0.00  0.00     0.054 A 
ATOM      3  C3  IND d   1      -2.722   1.316   2.740  0.00  0.00    -0.031 A 
ATOM      4  C4  IND d   1      -0.555  -0.044   2.454  0.00  0.00     0.051 A 
ATOM      5  C5  IND d   1       0.806   0.076   2.499  0.00  0.00    -0.031 A 
ATOM      6  C6  IND d   1       1.422   1.261   2.845  0.00  0.00     0.015 A 
ATOM      7  C7  IND d   1       0.697   2.372   3.173  0.00  0.00    -0.016 A 
ATOM      8  C8  IND d   1      -0.684   2.256   3.121  0.00  0.00    -0.047 A 
ATOM      9  C9  IND d   1      -1.315   1.068   2.729  0.00  0.00    -0.096 A 
ATOM     10  HN1 IND d   1      -1.548   3.997   3.617  0.00  0.00     0.298 HD
ENDROOT
TORSDOF 0
ENDMDL
