MODEL 1
REMARK minimizedAffinity -3.13895464
REMARK minimizedRMSD -1
REMARK  0 active torsions:
REMARK  status: ('A' for Active; 'I' for Inactive)
ROOT
ATOM      1  N1  IND d   1      -2.587   0.868   0.094  0.00  0.00    -0.196 N 
ATOM      2  C2  IND d   1      -3.239   1.016   1.287  0.00  0.00     0.054 A 
ATOM      3  C3  IND d   1      -2.382   0.837   2.316  0.00  0.00    -0.031 A 
ATOM      4  C4  IND d   1       0.154   0.393   2.275  0.00  0.00     0.051 A 
ATOM      5  C5  IND d   1       1.190   0.142   1.420  0.00  0.00    -0.031 A 
ATOM      6  C6  IND d   1       1.017   0.122   0.051  0.00  0.00     0.015 A 
ATOM      7  C7  IND d   1      -0.202   0.365  -0.516  0.00  0.00    -0.016 A 
ATOM      8  C8  IND d   1      -1.258   0.614   0.350  0.00  0.00    -0.047 A 
ATOM      9  C9  IND d   1      -1.097   0.593   1.741  0.00  0.00    -0.096 A 
ATOM     10  HN1 IND d   1      -2.947   0.925  -0.685  0.00  0.00     0.298 HD
ENDROOT
TORSDOF 0
ENDMDL
