MODEL 1
REMARK minimizedAffinity -3.13272691
REMARK minimizedRMSD -1
REMARK  0 active torsions:
REMARK  status: ('A' for Active; 'I' for Inactive)
ROOT
ATOM      1  N1  IND d   1      -1.505   0.670  -0.523  0.00  0.00    -0.196 N 
ATOM      2  C2  IND d   1      -0.505   0.584  -1.452  0.00  0.00     0.054 A 
ATOM      3  C3  IND d   1       0.677   0.329  -0.849  0.00  0.00    -0.031 A 
ATOM      4  C4  IND d   1       1.188  -0.086   1.640  0.00  0.00     0.051 A 
ATOM      5  C5  IND d   1       0.604  -0.075   2.876  0.00  0.00    -0.031 A 
ATOM      6  C6  IND d   1      -0.740   0.187   3.045  0.00  0.00     0.015 A 
ATOM      7  C7  IND d   1      -1.557   0.438   1.978  0.00  0.00    -0.016 A 
ATOM      8  C8  IND d   1      -0.966   0.435   0.723  0.00  0.00    -0.047 A 
ATOM      9  C9  IND d   1       0.406   0.212   0.549  0.00  0.00    -0.096 A 
ATOM     10  HN1 IND d   1      -2.331   0.842  -0.689  0.00  0.00     0.298 HD
ENDROOT
TORSDOF 0
ENDMDL
