MODEL 1
REMARK minimizedAffinity -1.70158279
REMARK minimizedRMSD -1
REMARK  0 active torsions:
REMARK  status: ('A' for Active; 'I' for Inactive)
ROOT
ATOM      1  N1  IND d   1       0.322  -0.996  -0.128  0.00  0.00    -0.196 N 
ATOM      2  C2  IND d   1       0.395   0.361   0.014  0.00  0.00     0.054 A 
ATOM      3  C3  IND d   1       0.898   0.926  -1.106  0.00  0.00    -0.031 A 
ATOM      4  C4  IND d   1       1.575  -0.178  -3.331  0.00  0.00     0.051 A 
ATOM      5  C5  IND d   1       1.721  -1.399  -3.927  0.00  0.00    -0.031 A 
ATOM      6  C6  IND d   1       1.399  -2.572  -3.275  0.00  0.00     0.015 A 
ATOM      7  C7  IND d   1       0.906  -2.566  -2.001  0.00  0.00    -0.016 A 
ATOM      8  C8  IND d   1       0.763  -1.329  -1.390  0.00  0.00    -0.047 A 
ATOM      9  C9  IND d   1       1.128  -0.138  -2.032  0.00  0.00    -0.096 A 
ATOM     10  HN1 IND d   1       0.047  -1.549   0.470  0.00  0.00     0.298 HD
ENDROOT
TORSDOF 0
ENDMDL
