MODEL 1
REMARK minimizedAffinity -0.515194058
REMARK minimizedRMSD -1
REMARK  0 active torsions:
REMARK  status: ('A' for Active; 'I' for Inactive)
ROOT
ATOM      1  N1  IND d   1      -2.765   0.717   0.821  0.00  0.00    -0.196 N 
ATOM      2  C2  IND d   1      -3.377   1.181   1.952  0.00  0.00     0.054 A 
ATOM      3  C3  IND d   1      -2.494   1.241   2.974  0.00  0.00    -0.031 A 
ATOM      4  C4  IND d   1       0.028   0.722   2.989  0.00  0.00     0.051 A 
ATOM      5  C5  IND d   1       1.031   0.230   2.202  0.00  0.00    -0.031 A 
ATOM      6  C6  IND d   1       0.817  -0.129   0.887  0.00  0.00     0.015 A 
ATOM      7  C7  IND d   1      -0.412   0.001   0.305  0.00  0.00    -0.016 A 
ATOM      8  C8  IND d   1      -1.435   0.493   1.103  0.00  0.00    -0.047 A 
ATOM      9  C9  IND d   1      -1.233   0.820   2.450  0.00  0.00    -0.096 A 
ATOM     10  HN1 IND d   1      -3.146   0.586   0.062  0.00  0.00     0.298 HD
ENDROOT
TORSDOF 0
ENDMDL
