MODEL 1
REMARK minimizedAffinity -2.95962501
REMARK minimizedRMSD -1
REMARK  0 active torsions:
REMARK  status: ('A' for Active; 'I' for Inactive)
ROOT
ATOM      1  N1  IND d   1      -1.123   0.590  -1.126  0.00  0.00    -0.196 N 
ATOM      2  C2  IND d   1       0.021   0.623  -1.875  0.00  0.00     0.054 A 
ATOM      3  C3  IND d   1       1.106   0.466  -1.084  0.00  0.00    -0.031 A 
ATOM      4  C4  IND d   1       1.233   0.037   1.452  0.00  0.00     0.051 A 
ATOM      5  C5  IND d   1       0.454  -0.040   2.572  0.00  0.00    -0.031 A 
ATOM      6  C6  IND d   1      -0.919   0.089   2.515  0.00  0.00     0.015 A 
ATOM      7  C7  IND d   1      -1.567   0.289   1.329  0.00  0.00    -0.016 A 
ATOM      8  C8  IND d   1      -0.778   0.375   0.191  0.00  0.00    -0.047 A 
ATOM      9  C9  IND d   1       0.619   0.288   0.247  0.00  0.00    -0.096 A 
ATOM     10  HN1 IND d   1      -1.922   0.687  -1.426  0.00  0.00     0.298 HD
ENDROOT
TORSDOF 0
ENDMDL
