MODEL 1
REMARK minimizedAffinity -3.63351202
REMARK minimizedRMSD -1
REMARK  0 active torsions:
REMARK  status: ('A' for Active; 'I' for Inactive)
ROOT
ATOM      1  N1  IND d   1      -3.046   0.708   0.573  0.00  0.00    -0.196 N 
ATOM      2  C2  IND d   1      -3.578   0.953   1.809  0.00  0.00     0.054 A 
ATOM      3  C3  IND d   1      -2.609   0.931   2.751  0.00  0.00    -0.031 A 
ATOM      4  C4  IND d   1      -0.069   0.614   2.477  0.00  0.00     0.051 A 
ATOM      5  C5  IND d   1       0.886   0.322   1.544  0.00  0.00    -0.031 A 
ATOM      6  C6  IND d   1       0.573   0.143   0.212  0.00  0.00     0.015 A 
ATOM      7  C7  IND d   1      -0.711   0.261  -0.240  0.00  0.00    -0.016 A 
ATOM      8  C8  IND d   1      -1.684   0.550   0.706  0.00  0.00    -0.047 A 
ATOM      9  C9  IND d   1      -1.379   0.691   2.066  0.00  0.00    -0.096 A 
ATOM     10  HN1 IND d   1      -3.488   0.660  -0.163  0.00  0.00     0.298 HD
ENDROOT
TORSDOF 0
ENDMDL
