MODEL 1
REMARK minimizedAffinity -1.22273135
REMARK minimizedRMSD -1
REMARK  0 active torsions:
REMARK  status: ('A' for Active; 'I' for Inactive)
ROOT
ATOM      1  N1  IND d   1       0.083  -1.691  -3.117  0.00  0.00    -0.196 N 
ATOM      2  C2  IND d   1       1.363  -1.970  -3.507  0.00  0.00     0.054 A 
ATOM      3  C3  IND d   1       2.246  -1.459  -2.620  0.00  0.00    -0.031 A 
ATOM      4  C4  IND d   1       1.811  -0.217  -0.408  0.00  0.00     0.051 A 
ATOM      5  C5  IND d   1       0.803   0.305   0.354  0.00  0.00    -0.031 A 
ATOM      6  C6  IND d   1      -0.523   0.184  -0.008  0.00  0.00     0.015 A 
ATOM      7  C7  IND d   1      -0.893  -0.477  -1.145  0.00  0.00    -0.016 A 
ATOM      8  C8  IND d   1       0.128  -1.003  -1.925  0.00  0.00    -0.047 A 
ATOM      9  C9  IND d   1       1.477  -0.846  -1.584  0.00  0.00    -0.096 A 
ATOM     10  HN1 IND d   1      -0.631  -1.909  -3.545  0.00  0.00     0.298 HD
ENDROOT
TORSDOF 0
ENDMDL
