MODEL 1
REMARK minimizedAffinity -4.00631571
REMARK minimizedRMSD -1
REMARK  0 active torsions:
REMARK  status: ('A' for Active; 'I' for Inactive)
ROOT
ATOM      1  N1  IND d   1      -2.930   0.866   0.436  0.00  0.00    -0.196 N 
ATOM      2  C2  IND d   1      -3.427   0.934   1.708  0.00  0.00     0.054 A 
ATOM      3  C3  IND d   1      -2.437   0.747   2.610  0.00  0.00    -0.031 A 
ATOM      4  C4  IND d   1       0.087   0.416   2.225  0.00  0.00     0.051 A 
ATOM      5  C5  IND d   1       1.012   0.247   1.233  0.00  0.00    -0.031 A 
ATOM      6  C6  IND d   1       0.664   0.279  -0.102  0.00  0.00     0.015 A 
ATOM      7  C7  IND d   1      -0.626   0.493  -0.497  0.00  0.00    -0.016 A 
ATOM      8  C8  IND d   1      -1.570   0.659   0.507  0.00  0.00    -0.047 A 
ATOM      9  C9  IND d   1      -1.229   0.585   1.864  0.00  0.00    -0.096 A 
ATOM     10  HN1 IND d   1      -3.389   0.940  -0.287  0.00  0.00     0.298 HD
ENDROOT
TORSDOF 0
ENDMDL
