MODEL 1
REMARK minimizedAffinity -1.7211566
REMARK minimizedRMSD -1
REMARK  0 active torsions:
REMARK  status: ('A' for Active; 'I' for Inactive)
ROOT
ATOM      1  N1  IND d   1      -0.061  -1.004   0.055  0.00  0.00    -0.196 N 
ATOM      2  C2  IND d   1       0.361   0.122   0.706  0.00  0.00     0.054 A 
ATOM      3  C3  IND d   1       1.074   0.909  -0.130  0.00  0.00    -0.031 A 
ATOM      4  C4  IND d   1       1.588   0.595  -2.633  0.00  0.00     0.051 A 
ATOM      5  C5  IND d   1       1.445  -0.297  -3.658  0.00  0.00    -0.031 A 
ATOM      6  C6  IND d   1       0.777  -1.494  -3.495  0.00  0.00     0.015 A 
ATOM      7  C7  IND d   1       0.215  -1.839  -2.299  0.00  0.00    -0.016 A 
ATOM      8  C8  IND d   1       0.364  -0.938  -1.253  0.00  0.00    -0.047 A 
ATOM      9  C9  IND d   1       1.077   0.258  -1.401  0.00  0.00    -0.096 A 
ATOM     10  HN1 IND d   1      -0.515  -1.645   0.405  0.00  0.00     0.298 HD
ENDROOT
TORSDOF 0
ENDMDL
