MODEL 1
REMARK minimizedAffinity -2.51887345
REMARK minimizedRMSD -1
REMARK  0 active torsions:
REMARK  status: ('A' for Active; 'I' for Inactive)
ROOT
ATOM      1  N1  IND d   1      -0.940   0.376  -0.754  0.00  0.00    -0.196 N 
ATOM      2  C2  IND d   1      -0.016   0.107  -1.725  0.00  0.00     0.054 A 
ATOM      3  C3  IND d   1       1.188  -0.155  -1.168  0.00  0.00    -0.031 A 
ATOM      4  C4  IND d   1       1.845  -0.298   1.317  0.00  0.00     0.051 A 
ATOM      5  C5  IND d   1       1.351  -0.095   2.575  0.00  0.00    -0.031 A 
ATOM      6  C6  IND d   1       0.041   0.280   2.792  0.00  0.00     0.015 A 
ATOM      7  C7  IND d   1      -0.831   0.456   1.755  0.00  0.00    -0.016 A 
ATOM      8  C8  IND d   1      -0.331   0.258   0.476  0.00  0.00    -0.047 A 
ATOM      9  C9  IND d   1       1.009  -0.081   0.247  0.00  0.00    -0.096 A 
ATOM     10  HN1 IND d   1      -1.764   0.584  -0.889  0.00  0.00     0.298 HD
ENDROOT
TORSDOF 0
ENDMDL
