MODEL 1
REMARK minimizedAffinity -6.10244131
REMARK minimizedRMSD -1
REMARK  2 active torsions:
REMARK  status: ('A' for Active; 'I' for Inactive)
REMARK    1  A    between atoms: C2'_3  and  C1'_4 
REMARK    2  A    between atoms: C1'_4  and  C1_5 
ROOT
ATOM      1  C1  I4B d   1      -0.151   0.326   0.142  0.00  0.00    -0.075 A 
ATOM      2  C2  I4B d   1       0.593  -0.806   0.366  0.00  0.00     0.003 A 
ATOM      3  C3  I4B d   1      -0.027  -1.980   0.859  0.00  0.00     0.002 A 
ATOM      4  C4  I4B d   1      -1.373  -1.962   1.161  0.00  0.00    -0.004 A 
ATOM      5  C5  I4B d   1      -2.130  -0.821   0.912  0.00  0.00     0.002 A 
ATOM      6  C6  I4B d   1      -1.518   0.327   0.388  0.00  0.00     0.003 A 
ENDROOT
BRANCH   1   7
ATOM      7  C1' I4B d   1       0.541   1.558  -0.348  0.00  0.00     0.060 C 
BRANCH   7   8
ATOM      8  C2' I4B d   1       0.956   1.320  -1.785  0.00  0.00    -0.013 C 
ATOM      9  C4' I4B d   1      -0.028   1.934  -2.746  0.00  0.00     0.013 C 
ATOM     10  C3' I4B d   1       2.327   1.897  -1.973  0.00  0.00     0.013 C 
ENDBRANCH   7   8
ENDBRANCH   1   7
TORSDOF 2
ENDMDL
