MODEL 1
REMARK minimizedAffinity -5.69440699
REMARK minimizedRMSD -1
REMARK  2 active torsions:
REMARK  status: ('A' for Active; 'I' for Inactive)
REMARK    1  A    between atoms: C2'_3  and  C1'_4 
REMARK    2  A    between atoms: C1'_4  and  C1_5 
ROOT
ATOM      1  C1  I4B d   1      -1.399  -1.152   0.380  0.00  0.00    -0.075 A 
ATOM      2  C2  I4B d   1      -2.034  -0.102   0.996  0.00  0.00     0.003 A 
ATOM      3  C3  I4B d   1      -3.115  -0.340   1.878  0.00  0.00     0.002 A 
ATOM      4  C4  I4B d   1      -3.559  -1.632   2.075  0.00  0.00    -0.004 A 
ATOM      5  C5  I4B d   1      -2.900  -2.697   1.469  0.00  0.00     0.002 A 
ATOM      6  C6  I4B d   1      -1.805  -2.457   0.625  0.00  0.00     0.003 A 
ENDROOT
BRANCH   1   7
ATOM      7  C1' I4B d   1      -0.282  -0.861  -0.571  0.00  0.00     0.060 C 
BRANCH   7   8
ATOM      8  C2' I4B d   1       0.488   0.330  -0.037  0.00  0.00    -0.013 C 
ATOM      9  C4' I4B d   1       1.728  -0.107   0.697  0.00  0.00     0.013 C 
ATOM     10  C3' I4B d   1       0.829   1.218  -1.197  0.00  0.00     0.013 C 
ENDBRANCH   7   8
ENDBRANCH   1   7
TORSDOF 2
ENDMDL
