MODEL 1
REMARK minimizedAffinity -1.89081192
REMARK minimizedRMSD -1
REMARK  2 active torsions:
REMARK  status: ('A' for Active; 'I' for Inactive)
REMARK    1  A    between atoms: C2'_3  and  C1'_4 
REMARK    2  A    between atoms: C1'_4  and  C1_5 
ROOT
ATOM      1  C1  I4B d   1       0.229   1.085  -0.442  0.00  0.00    -0.075 A 
ATOM      2  C2  I4B d   1      -0.820   1.673   0.219  0.00  0.00     0.003 A 
ATOM      3  C3  I4B d   1      -1.700   0.887   1.002  0.00  0.00     0.002 A 
ATOM      4  C4  I4B d   1      -1.525  -0.480   1.055  0.00  0.00    -0.004 A 
ATOM      5  C5  I4B d   1      -0.447  -1.072   0.403  0.00  0.00     0.002 A 
ATOM      6  C6  I4B d   1       0.443  -0.283  -0.340  0.00  0.00     0.003 A 
ENDROOT
BRANCH   1   7
ATOM      7  C1' I4B d   1       1.120   1.940  -1.286  0.00  0.00     0.060 C 
BRANCH   7   8
ATOM      8  C2' I4B d   1       0.924   1.533  -2.732  0.00  0.00    -0.013 C 
ATOM      9  C4' I4B d   1       0.135   2.570  -3.488  0.00  0.00     0.013 C 
ATOM     10  C3' I4B d   1       2.278   1.331  -3.344  0.00  0.00     0.013 C 
ENDBRANCH   7   8
ENDBRANCH   1   7
TORSDOF 2
ENDMDL
