MODEL 1
REMARK minimizedAffinity -3.72156215
REMARK minimizedRMSD -1
REMARK  2 active torsions:
REMARK  status: ('A' for Active; 'I' for Inactive)
REMARK    1  A    between atoms: C2'_3  and  C1'_4 
REMARK    2  A    between atoms: C1'_4  and  C1_5 
ROOT
ATOM      1  C1  I4B d   1       0.671  -0.215  -0.200  0.00  0.00    -0.075 A 
ATOM      2  C2  I4B d   1       0.500   1.097  -0.563  0.00  0.00     0.003 A 
ATOM      3  C3  I4B d   1       1.516   2.048  -0.299  0.00  0.00     0.002 A 
ATOM      4  C4  I4B d   1       2.657   1.656   0.370  0.00  0.00    -0.004 A 
ATOM      5  C5  I4B d   1       2.839   0.320   0.717  0.00  0.00     0.002 A 
ATOM      6  C6  I4B d   1       1.846  -0.624   0.419  0.00  0.00     0.003 A 
ENDROOT
BRANCH   1   7
ATOM      7  C1' I4B d   1      -0.435  -1.186  -0.464  0.00  0.00     0.060 C 
BRANCH   7   8
ATOM      8  C2' I4B d   1      -1.277  -1.287   0.792  0.00  0.00    -0.013 C 
ATOM      9  C4' I4B d   1      -2.280  -0.165   0.867  0.00  0.00     0.013 C 
ATOM     10  C3' I4B d   1      -1.959  -2.622   0.786  0.00  0.00     0.013 C 
ENDBRANCH   7   8
ENDBRANCH   1   7
TORSDOF 2
ENDMDL
