MODEL 1
REMARK minimizedAffinity -4.38845539
REMARK minimizedRMSD -1
REMARK  2 active torsions:
REMARK  status: ('A' for Active; 'I' for Inactive)
REMARK    1  A    between atoms: C2'_3  and  C1'_4 
REMARK    2  A    between atoms: C1'_4  and  C1_5 
ROOT
ATOM      1  C1  I4B d   1      -0.209   0.259  -0.012  0.00  0.00    -0.075 A 
ATOM      2  C2  I4B d   1       0.667  -0.794  -0.099  0.00  0.00     0.003 A 
ATOM      3  C3  I4B d   1       0.290  -2.076   0.369  0.00  0.00     0.002 A 
ATOM      4  C4  I4B d   1      -0.945  -2.248   0.959  0.00  0.00    -0.004 A 
ATOM      5  C5  I4B d   1      -1.841  -1.185   1.026  0.00  0.00     0.002 A 
ATOM      6  C6  I4B d   1      -1.476   0.074   0.526  0.00  0.00     0.003 A 
ENDROOT
BRANCH   1   7
ATOM      7  C1' I4B d   1       0.234   1.606  -0.487  0.00  0.00     0.060 C 
BRANCH   7   8
ATOM      8  C2' I4B d   1       0.576   1.494  -1.958  0.00  0.00    -0.013 C 
ATOM      9  C4' I4B d   1      -0.318   2.372  -2.794  0.00  0.00     0.013 C 
ATOM     10  C3' I4B d   1       2.017   1.871  -2.129  0.00  0.00     0.013 C 
ENDBRANCH   7   8
ENDBRANCH   1   7
TORSDOF 2
ENDMDL
