MODEL 1
REMARK minimizedAffinity -4.21742392
REMARK minimizedRMSD -1
REMARK  2 active torsions:
REMARK  status: ('A' for Active; 'I' for Inactive)
REMARK    1  A    between atoms: C2'_3  and  C1'_4 
REMARK    2  A    between atoms: C1'_4  and  C1_5 
ROOT
ATOM      1  C1  I4B d   1       0.030   0.278  -0.150  0.00  0.00    -0.075 A 
ATOM      2  C2  I4B d   1       1.033  -0.659  -0.155  0.00  0.00     0.003 A 
ATOM      3  C3  I4B d   1       0.769  -1.988   0.256  0.00  0.00     0.002 A 
ATOM      4  C4  I4B d   1      -0.491  -2.321   0.709  0.00  0.00    -0.004 A 
ATOM      5  C5  I4B d   1      -1.513  -1.376   0.692  0.00  0.00     0.002 A 
ATOM      6  C6  I4B d   1      -1.254  -0.071   0.248  0.00  0.00     0.003 A 
ENDROOT
BRANCH   1   7
ATOM      7  C1' I4B d   1       0.352   1.681  -0.559  0.00  0.00     0.060 C 
BRANCH   7   8
ATOM      8  C2' I4B d   1       0.706   1.668  -2.032  0.00  0.00    -0.013 C 
ATOM      9  C4' I4B d   1      -0.320   2.410  -2.846  0.00  0.00     0.013 C 
ATOM     10  C3' I4B d   1       2.066   2.280  -2.186  0.00  0.00     0.013 C 
ENDBRANCH   7   8
ENDBRANCH   1   7
TORSDOF 2
ENDMDL
