MODEL 1
REMARK minimizedAffinity 1.76711905
REMARK minimizedRMSD -1
REMARK  2 active torsions:
REMARK  status: ('A' for Active; 'I' for Inactive)
REMARK    1  A    between atoms: C2'_3  and  C1'_4 
REMARK    2  A    between atoms: C1'_4  and  C1_5 
ROOT
ATOM      1  C1  I4B d   1      -1.310  -1.101  -0.022  0.00  0.00    -0.075 A 
ATOM      2  C2  I4B d   1       0.012  -0.923   0.302  0.00  0.00     0.003 A 
ATOM      3  C3  I4B d   1       0.661  -1.832   1.172  0.00  0.00     0.002 A 
ATOM      4  C4  I4B d   1      -0.057  -2.869   1.731  0.00  0.00    -0.004 A 
ATOM      5  C5  I4B d   1      -1.391  -3.061   1.383  0.00  0.00     0.002 A 
ATOM      6  C6  I4B d   1      -2.018  -2.179   0.492  0.00  0.00     0.003 A 
ENDROOT
BRANCH   1   7
ATOM      7  C1' I4B d   1      -1.973  -0.103  -0.918  0.00  0.00     0.060 C 
BRANCH   7   8
ATOM      8  C2' I4B d   1      -2.549   0.995  -0.048  0.00  0.00    -0.013 C 
ATOM      9  C4' I4B d   1      -3.566   0.448   0.919  0.00  0.00     0.013 C 
ATOM     10  C3' I4B d   1      -1.414   1.655   0.677  0.00  0.00     0.013 C 
ENDBRANCH   7   8
ENDBRANCH   1   7
TORSDOF 2
ENDMDL
