MODEL 1
REMARK minimizedAffinity -6.05195379
REMARK minimizedRMSD -1
REMARK  2 active torsions:
REMARK  status: ('A' for Active; 'I' for Inactive)
REMARK    1  A    between atoms: C2'_3  and  C1'_4 
REMARK    2  A    between atoms: C1'_4  and  C1_5 
ROOT
ATOM      1  C1  I4B d   1      -0.183   0.253  -0.994  0.00  0.00    -0.075 A 
ATOM      2  C2  I4B d   1      -0.635  -0.087  -2.245  0.00  0.00     0.003 A 
ATOM      3  C3  I4B d   1      -0.070   0.515  -3.395  0.00  0.00     0.002 A 
ATOM      4  C4  I4B d   1       0.902   1.483  -3.247  0.00  0.00    -0.004 A 
ATOM      5  C5  I4B d   1       1.375   1.810  -1.980  0.00  0.00     0.002 A 
ATOM      6  C6  I4B d   1       0.838   1.182  -0.846  0.00  0.00     0.003 A 
ENDROOT
BRANCH   1   7
ATOM      7  C1' I4B d   1      -0.825  -0.378   0.201  0.00  0.00     0.060 C 
BRANCH   7   8
ATOM      8  C2' I4B d   1      -0.814  -1.880  -0.002  0.00  0.00    -0.013 C 
ATOM      9  C4' I4B d   1       0.590  -2.396  -0.175  0.00  0.00     0.013 C 
ATOM     10  C3' I4B d   1      -1.482  -2.512   1.182  0.00  0.00     0.013 C 
ENDBRANCH   7   8
ENDBRANCH   1   7
TORSDOF 2
ENDMDL
