MODEL 1
REMARK minimizedAffinity -4.82502651
REMARK minimizedRMSD -1
REMARK  2 active torsions:
REMARK  status: ('A' for Active; 'I' for Inactive)
REMARK    1  A    between atoms: C2'_3  and  C1'_4 
REMARK    2  A    between atoms: C1'_4  and  C1_5 
ROOT
ATOM      1  C1  I4B d   1      -0.157  -0.090  -0.086  0.00  0.00    -0.075 A 
ATOM      2  C2  I4B d   1       0.783  -1.089  -0.129  0.00  0.00     0.003 A 
ATOM      3  C3  I4B d   1       0.442  -2.405   0.266  0.00  0.00     0.002 A 
ATOM      4  C4  I4B d   1      -0.827  -2.665   0.741  0.00  0.00    -0.004 A 
ATOM      5  C5  I4B d   1      -1.785  -1.656   0.762  0.00  0.00     0.002 A 
ATOM      6  C6  I4B d   1      -1.452  -0.363   0.334  0.00  0.00     0.003 A 
ENDROOT
BRANCH   1   7
ATOM      7  C1' I4B d   1       0.246   1.296  -0.479  0.00  0.00     0.060 C 
BRANCH   7   8
ATOM      8  C2' I4B d   1       0.358   1.339  -1.990  0.00  0.00    -0.013 C 
ATOM      9  C4' I4B d   1      -0.713   2.210  -2.591  0.00  0.00     0.013 C 
ATOM     10  C3' I4B d   1       1.726   1.845  -2.338  0.00  0.00     0.013 C 
ENDBRANCH   7   8
ENDBRANCH   1   7
TORSDOF 2
ENDMDL
