MODEL 1
REMARK minimizedAffinity -5.81656265
REMARK minimizedRMSD -1
REMARK  2 active torsions:
REMARK  status: ('A' for Active; 'I' for Inactive)
REMARK    1  A    between atoms: C2'_3  and  C1'_4 
REMARK    2  A    between atoms: C1'_4  and  C1_5 
ROOT
ATOM      1  C1  I4B d   1       0.202   0.377   0.203  0.00  0.00    -0.075 A 
ATOM      2  C2  I4B d   1      -1.102   0.232   0.607  0.00  0.00     0.003 A 
ATOM      3  C3  I4B d   1      -1.581  -1.032   1.030  0.00  0.00     0.002 A 
ATOM      4  C4  I4B d   1      -0.742  -2.126   0.984  0.00  0.00    -0.004 A 
ATOM      5  C5  I4B d   1       0.586  -1.973   0.596  0.00  0.00     0.002 A 
ATOM      6  C6  I4B d   1       1.065  -0.711   0.215  0.00  0.00     0.003 A 
ENDROOT
BRANCH   1   7
ATOM      7  C1' I4B d   1       0.666   1.719  -0.268  0.00  0.00     0.060 C 
BRANCH   7   8
ATOM      8  C2' I4B d   1       1.415   1.523  -1.570  0.00  0.00    -0.013 C 
ATOM      9  C4' I4B d   1       0.569   1.922  -2.751  0.00  0.00     0.013 C 
ATOM     10  C3' I4B d   1       2.674   2.336  -1.507  0.00  0.00     0.013 C 
ENDBRANCH   7   8
ENDBRANCH   1   7
TORSDOF 2
ENDMDL
