MODEL 1
REMARK minimizedAffinity -0.0231338106
REMARK minimizedRMSD -1
REMARK  2 active torsions:
REMARK  status: ('A' for Active; 'I' for Inactive)
REMARK    1  A    between atoms: C2'_3  and  C1'_4 
REMARK    2  A    between atoms: C1'_4  and  C1_5 
ROOT
ATOM      1  C1  I4B d   1       0.480  -0.015   0.144  0.00  0.00    -0.075 A 
ATOM      2  C2  I4B d   1      -0.686  -0.312   0.806  0.00  0.00     0.003 A 
ATOM      3  C3  I4B d   1      -0.916  -1.622   1.292  0.00  0.00     0.002 A 
ATOM      4  C4  I4B d   1       0.016  -2.610   1.051  0.00  0.00    -0.004 A 
ATOM      5  C5  I4B d   1       1.208  -2.302   0.400  0.00  0.00     0.002 A 
ATOM      6  C6  I4B d   1       1.447  -0.994  -0.046  0.00  0.00     0.003 A 
ENDROOT
BRANCH   1   7
ATOM      7  C1' I4B d   1       0.676   1.371  -0.384  0.00  0.00     0.060 C 
BRANCH   7   8
ATOM      8  C2' I4B d   1       0.732   1.290  -1.896  0.00  0.00    -0.013 C 
ATOM      9  C4' I4B d   1      -0.467   1.953  -2.522  0.00  0.00     0.013 C 
ATOM     10  C3' I4B d   1       2.006   1.938  -2.347  0.00  0.00     0.013 C 
ENDBRANCH   7   8
ENDBRANCH   1   7
TORSDOF 2
ENDMDL
