MODEL 1
REMARK minimizedAffinity 27.4100456
REMARK minimizedRMSD -1
REMARK  0 active torsions:
REMARK  status: ('A' for Active; 'I' for Inactive)
ROOT
ATOM      1  C1  DEN d   1      -2.550   2.322  -5.928  0.00  0.00     0.130 A 
ATOM      2  C2  DEN d   1      -2.069   1.343  -4.958  0.00  0.00    -0.031 A 
ATOM      3  C3  DEN d   1      -1.426   2.077  -3.850  0.00  0.00     0.027 A 
ATOM      4  C4  DEN d   1      -1.133   4.621  -3.542  0.00  0.00     0.027 A 
ATOM      5  C5  DEN d   1      -1.368   5.854  -4.108  0.00  0.00    -0.003 A 
ATOM      6  C6  DEN d   1      -1.977   5.994  -5.327  0.00  0.00     0.001 A 
ATOM      7  C7  DEN d   1      -2.414   4.884  -5.999  0.00  0.00     0.017 A 
ATOM      8  C8  DEN d   1      -2.175   3.636  -5.438  0.00  0.00    -0.094 A 
ATOM      9  C9  DEN d   1      -1.568   3.516  -4.199  0.00  0.00    -0.072 A 
ENDROOT
TORSDOF 0
ENDMDL
