MODEL 1
REMARK minimizedAffinity 17.8691082
REMARK minimizedRMSD -1
REMARK  0 active torsions:
REMARK  status: ('A' for Active; 'I' for Inactive)
ROOT
ATOM      1  C1  DEN d   1      -0.231   1.847   3.963  0.00  0.00     0.130 A 
ATOM      2  C2  DEN d   1      -0.307   1.390   2.578  0.00  0.00    -0.031 A 
ATOM      3  C3  DEN d   1      -1.728   1.161   2.250  0.00  0.00     0.027 A 
ATOM      4  C4  DEN d   1      -3.808   1.471   3.743  0.00  0.00     0.027 A 
ATOM      5  C5  DEN d   1      -4.245   1.830   4.999  0.00  0.00    -0.003 A 
ATOM      6  C6  DEN d   1      -3.379   2.184   6.000  0.00  0.00     0.001 A 
ATOM      7  C7  DEN d   1      -2.034   2.230   5.748  0.00  0.00     0.017 A 
ATOM      8  C8  DEN d   1      -1.585   1.863   4.486  0.00  0.00    -0.094 A 
ATOM      9  C9  DEN d   1      -2.477   1.520   3.484  0.00  0.00    -0.072 A 
ENDROOT
TORSDOF 0
ENDMDL
