MODEL 1
REMARK minimizedAffinity 6.57812214
REMARK minimizedRMSD -1
REMARK  0 active torsions:
REMARK  status: ('A' for Active; 'I' for Inactive)
ROOT
ATOM      1  C1  DEN d   1      -1.281   5.934  -3.655  0.00  0.00     0.130 A 
ATOM      2  C2  DEN d   1      -0.529   4.830  -3.066  0.00  0.00    -0.031 A 
ATOM      3  C3  DEN d   1      -1.095   3.566  -3.579  0.00  0.00     0.027 A 
ATOM      4  C4  DEN d   1      -3.050   3.214  -5.224  0.00  0.00     0.027 A 
ATOM      5  C5  DEN d   1      -4.006   3.851  -5.985  0.00  0.00    -0.003 A 
ATOM      6  C6  DEN d   1      -4.142   5.214  -5.995  0.00  0.00     0.001 A 
ATOM      7  C7  DEN d   1      -3.278   5.988  -5.265  0.00  0.00     0.017 A 
ATOM      8  C8  DEN d   1      -2.317   5.352  -4.490  0.00  0.00    -0.094 A 
ATOM      9  C9  DEN d   1      -2.187   3.974  -4.503  0.00  0.00    -0.072 A 
ENDROOT
TORSDOF 0
ENDMDL
