MODEL 1
REMARK minimizedAffinity 20.6480694
REMARK minimizedRMSD -1
REMARK  0 active torsions:
REMARK  status: ('A' for Active; 'I' for Inactive)
ROOT
ATOM      1  C1  DEN d   1      -2.731   0.930  -4.100  0.00  0.00     0.130 A 
ATOM      2  C2  DEN d   1      -1.797   2.029  -3.870  0.00  0.00    -0.031 A 
ATOM      3  C3  DEN d   1      -0.499   1.449  -3.471  0.00  0.00     0.027 A 
ATOM      4  C4  DEN d   1       0.154  -1.031  -3.192  0.00  0.00     0.027 A 
ATOM      5  C5  DEN d   1      -0.305  -2.327  -3.265  0.00  0.00    -0.003 A 
ATOM      6  C6  DEN d   1      -1.603  -2.626  -3.585  0.00  0.00     0.001 A 
ATOM      7  C7  DEN d   1      -2.477  -1.615  -3.889  0.00  0.00     0.017 A 
ATOM      8  C8  DEN d   1      -2.023  -0.305  -3.811  0.00  0.00    -0.094 A 
ATOM      9  C9  DEN d   1      -0.704  -0.024  -3.497  0.00  0.00    -0.072 A 
ENDROOT
TORSDOF 0
ENDMDL
