MODEL 1
REMARK minimizedAffinity 19.2930908
REMARK minimizedRMSD -1
REMARK  0 active torsions:
REMARK  status: ('A' for Active; 'I' for Inactive)
ROOT
ATOM      1  C1  DEN d   1      -3.045   4.248  -6.000  0.00  0.00     0.130 A 
ATOM      2  C2  DEN d   1      -2.888   5.264  -4.962  0.00  0.00    -0.031 A 
ATOM      3  C3  DEN d   1      -2.389   4.597  -3.743  0.00  0.00     0.027 A 
ATOM      4  C4  DEN d   1      -1.843   2.105  -3.363  0.00  0.00     0.027 A 
ATOM      5  C5  DEN d   1      -1.829   0.857  -3.947  0.00  0.00    -0.003 A 
ATOM      6  C6  DEN d   1      -2.247   0.649  -5.235  0.00  0.00     0.001 A 
ATOM      7  C7  DEN d   1      -2.656   1.712  -5.996  0.00  0.00     0.017 A 
ATOM      8  C8  DEN d   1      -2.680   2.971  -5.412  0.00  0.00    -0.094 A 
ATOM      9  C9  DEN d   1      -2.241   3.164  -4.113  0.00  0.00    -0.072 A 
ENDROOT
TORSDOF 0
ENDMDL
