MODEL 1
REMARK minimizedAffinity 15.9017916
REMARK minimizedRMSD -1
REMARK  0 active torsions:
REMARK  status: ('A' for Active; 'I' for Inactive)
ROOT
ATOM      1  C1  DEN d   1      -5.267   3.686  -5.973  0.00  0.00     0.130 A 
ATOM      2  C2  DEN d   1      -5.630   5.100  -5.960  0.00  0.00    -0.031 A 
ATOM      3  C3  DEN d   1      -4.383   5.891  -5.926  0.00  0.00     0.027 A 
ATOM      4  C4  DEN d   1      -1.939   5.067  -5.898  0.00  0.00     0.027 A 
ATOM      5  C5  DEN d   1      -1.131   3.951  -5.887  0.00  0.00    -0.003 A 
ATOM      6  C6  DEN d   1      -1.640   2.680  -5.870  0.00  0.00     0.001 A 
ATOM      7  C7  DEN d   1      -2.997   2.492  -5.909  0.00  0.00     0.017 A 
ATOM      8  C8  DEN d   1      -3.818   3.612  -5.912  0.00  0.00    -0.094 A 
ATOM      9  C9  DEN d   1      -3.284   4.888  -5.941  0.00  0.00    -0.072 A 
ENDROOT
TORSDOF 0
ENDMDL
