MODEL 1
REMARK minimizedAffinity 23.7351227
REMARK minimizedRMSD -1
REMARK  0 active torsions:
REMARK  status: ('A' for Active; 'I' for Inactive)
ROOT
ATOM      1  C1  DEN d   1       1.439   4.792   0.270  0.00  0.00     0.130 A 
ATOM      2  C2  DEN d   1       1.270   5.641  -0.907  0.00  0.00    -0.031 A 
ATOM      3  C3  DEN d   1       1.911   4.965  -2.053  0.00  0.00     0.027 A 
ATOM      4  C4  DEN d   1       3.137   2.697  -2.121  0.00  0.00     0.027 A 
ATOM      5  C5  DEN d   1       3.545   1.619  -1.368  0.00  0.00    -0.003 A 
ATOM      6  C6  DEN d   1       3.311   1.539  -0.021  0.00  0.00     0.001 A 
ATOM      7  C7  DEN d   1       2.611   2.535   0.607  0.00  0.00     0.017 A 
ATOM      8  C8  DEN d   1       2.203   3.629  -0.144  0.00  0.00    -0.094 A 
ATOM      9  C9  DEN d   1       2.439   3.686  -1.507  0.00  0.00    -0.072 A 
ENDROOT
TORSDOF 0
ENDMDL
