MODEL 1
REMARK minimizedAffinity 14.5638466
REMARK minimizedRMSD -1
REMARK  0 active torsions:
REMARK  status: ('A' for Active; 'I' for Inactive)
ROOT
ATOM      1  C1  DEN d   1       0.869  -0.923  -1.516  0.00  0.00     0.130 A 
ATOM      2  C2  DEN d   1       0.604  -2.358  -1.477  0.00  0.00    -0.031 A 
ATOM      3  C3  DEN d   1       1.801  -3.029  -0.930  0.00  0.00     0.027 A 
ATOM      4  C4  DEN d   1       4.025  -1.989  -0.141  0.00  0.00     0.027 A 
ATOM      5  C5  DEN d   1       4.724  -0.811   0.008  0.00  0.00    -0.003 A 
ATOM      6  C6  DEN d   1       4.203   0.399  -0.370  0.00  0.00     0.001 A 
ATOM      7  C7  DEN d   1       2.931   0.463  -0.873  0.00  0.00     0.017 A 
ATOM      8  C8  DEN d   1       2.224  -0.721  -1.032  0.00  0.00    -0.094 A 
ATOM      9  C9  DEN d   1       2.762  -1.933  -0.633  0.00  0.00    -0.072 A 
ENDROOT
TORSDOF 0
ENDMDL
