MODEL 1
REMARK minimizedAffinity 6.25590467
REMARK minimizedRMSD -1
REMARK  0 active torsions:
REMARK  status: ('A' for Active; 'I' for Inactive)
ROOT
ATOM      1  C1  DEN d   1      -3.506   2.274  -5.932  0.00  0.00     0.130 A 
ATOM      2  C2  DEN d   1      -2.671   1.370  -5.145  0.00  0.00    -0.031 A 
ATOM      3  C3  DEN d   1      -1.846   2.189  -4.234  0.00  0.00     0.027 A 
ATOM      4  C4  DEN d   1      -1.784   4.753  -3.964  0.00  0.00     0.027 A 
ATOM      5  C5  DEN d   1      -2.304   5.943  -4.423  0.00  0.00    -0.003 A 
ATOM      6  C6  DEN d   1      -3.229   5.995  -5.432  0.00  0.00     0.001 A 
ATOM      7  C7  DEN d   1      -3.696   4.832  -5.985  0.00  0.00     0.017 A 
ATOM      8  C8  DEN d   1      -3.170   3.629  -5.533  0.00  0.00    -0.094 A 
ATOM      9  C9  DEN d   1      -2.245   3.597  -4.504  0.00  0.00    -0.072 A 
ENDROOT
TORSDOF 0
ENDMDL
