MODEL 1
REMARK minimizedAffinity 18.9330711
REMARK minimizedRMSD -1
REMARK  0 active torsions:
REMARK  status: ('A' for Active; 'I' for Inactive)
ROOT
ATOM      1  C1  DEN d   1      -3.431  -2.452  -5.225  0.00  0.00     0.130 A 
ATOM      2  C2  DEN d   1      -4.713  -3.079  -5.534  0.00  0.00    -0.031 A 
ATOM      3  C3  DEN d   1      -4.880  -4.242  -4.640  0.00  0.00     0.027 A 
ATOM      4  C4  DEN d   1      -3.289  -5.125  -2.812  0.00  0.00     0.027 A 
ATOM      5  C5  DEN d   1      -2.076  -4.930  -2.190  0.00  0.00    -0.003 A 
ATOM      6  C6  DEN d   1      -1.221  -3.924  -2.556  0.00  0.00     0.001 A 
ATOM      7  C7  DEN d   1      -1.588  -3.047  -3.542  0.00  0.00     0.017 A 
ATOM      8  C8  DEN d   1      -2.807  -3.241  -4.179  0.00  0.00    -0.094 A 
ATOM      9  C9  DEN d   1      -3.662  -4.257  -3.786  0.00  0.00    -0.072 A 
ENDROOT
TORSDOF 0
ENDMDL
