MODEL 1
REMARK minimizedAffinity 23.6249714
REMARK minimizedRMSD -1
REMARK  0 active torsions:
REMARK  status: ('A' for Active; 'I' for Inactive)
ROOT
ATOM      1  C1  DEN d   1       0.290   0.257   2.415  0.00  0.00     0.130 A 
ATOM      2  C2  DEN d   1       0.565   1.451   3.211  0.00  0.00    -0.031 A 
ATOM      3  C3  DEN d   1       1.704   2.159   2.592  0.00  0.00     0.027 A 
ATOM      4  C4  DEN d   1       3.057   1.529   0.489  0.00  0.00     0.027 A 
ATOM      5  C5  DEN d   1       3.202   0.597  -0.515  0.00  0.00    -0.003 A 
ATOM      6  C6  DEN d   1       2.415  -0.522  -0.593  0.00  0.00     0.001 A 
ATOM      7  C7  DEN d   1       1.417  -0.714   0.325  0.00  0.00     0.017 A 
ATOM      8  C8  DEN d   1       1.270   0.217   1.345  0.00  0.00    -0.094 A 
ATOM      9  C9  DEN d   1       2.067   1.348   1.399  0.00  0.00    -0.072 A 
ENDROOT
TORSDOF 0
ENDMDL
