MODEL 1
REMARK minimizedAffinity 15.7991886
REMARK minimizedRMSD -1
REMARK  0 active torsions:
REMARK  status: ('A' for Active; 'I' for Inactive)
ROOT
ATOM      1  C1  DEN d   1      -2.995   0.399   4.910  0.00  0.00     0.130 A 
ATOM      2  C2  DEN d   1      -3.345  -0.295   3.673  0.00  0.00    -0.031 A 
ATOM      3  C3  DEN d   1      -4.410   0.477   3.003  0.00  0.00     0.027 A 
ATOM      4  C4  DEN d   1      -5.543   2.670   3.753  0.00  0.00     0.027 A 
ATOM      5  C5  DEN d   1      -5.589   3.629   4.740  0.00  0.00    -0.003 A 
ATOM      6  C6  DEN d   1      -4.804   3.561   5.861  0.00  0.00     0.001 A 
ATOM      7  C7  DEN d   1      -3.906   2.536   6.000  0.00  0.00     0.017 A 
ATOM      8  C8  DEN d   1      -3.860   1.561   5.012  0.00  0.00    -0.094 A 
ATOM      9  C9  DEN d   1      -4.653   1.654   3.881  0.00  0.00    -0.072 A 
ENDROOT
TORSDOF 0
ENDMDL
