MODEL 1
REMARK minimizedAffinity 12.9465532
REMARK minimizedRMSD -1
REMARK  0 active torsions:
REMARK  status: ('A' for Active; 'I' for Inactive)
ROOT
ATOM      1  C1  DEN d   1      -4.340  -0.082   2.874  0.00  0.00     0.130 A 
ATOM      2  C2  DEN d   1      -4.308  -1.540   2.793  0.00  0.00    -0.031 A 
ATOM      3  C3  DEN d   1      -2.895  -1.964   2.737  0.00  0.00     0.027 A 
ATOM      4  C4  DEN d   1      -0.763  -0.511   2.771  0.00  0.00     0.027 A 
ATOM      5  C5  DEN d   1      -0.285   0.779   2.820  0.00  0.00    -0.003 A 
ATOM      6  C6  DEN d   1      -1.119   1.866   2.855  0.00  0.00     0.001 A 
ATOM      7  C7  DEN d   1      -2.475   1.680   2.888  0.00  0.00     0.017 A 
ATOM      8  C8  DEN d   1      -2.965   0.382   2.832  0.00  0.00    -0.094 A 
ATOM      9  C9  DEN d   1      -2.106  -0.704   2.809  0.00  0.00    -0.072 A 
ENDROOT
TORSDOF 0
ENDMDL
