MODEL 1
REMARK minimizedAffinity 13.3960238
REMARK minimizedRMSD -1
REMARK  0 active torsions:
REMARK  status: ('A' for Active; 'I' for Inactive)
ROOT
ATOM      1  N1  IND d   1       2.508   2.311  -4.021  0.00  0.00    -0.196 N 
ATOM      2  C2  IND d   1       1.985   2.775  -2.847  0.00  0.00     0.054 A 
ATOM      3  C3  IND d   1       2.832   3.657  -2.270  0.00  0.00    -0.031 A 
ATOM      4  C4  IND d   1       5.085   4.560  -3.128  0.00  0.00     0.051 A 
ATOM      5  C5  IND d   1       5.995   4.404  -4.136  0.00  0.00    -0.031 A 
ATOM      6  C6  IND d   1       5.783   3.527  -5.180  0.00  0.00     0.015 A 
ATOM      7  C7  IND d   1       4.643   2.777  -5.261  0.00  0.00    -0.016 A 
ATOM      8  C8  IND d   1       3.721   2.928  -4.235  0.00  0.00    -0.047 A 
ATOM      9  C9  IND d   1       3.949   3.785  -3.151  0.00  0.00    -0.096 A 
ATOM     10  HN1 IND d   1       2.141   1.730  -4.539  0.00  0.00     0.298 HD
ENDROOT
TORSDOF 0
ENDMDL
