MODEL 1
REMARK minimizedAffinity 1.22226322
REMARK minimizedRMSD -1
REMARK  0 active torsions:
REMARK  status: ('A' for Active; 'I' for Inactive)
ROOT
ATOM      1  N1  IND d   1      -2.773  -5.989  -5.967  0.00  0.00    -0.196 N 
ATOM      2  C2  IND d   1      -3.698  -5.665  -5.014  0.00  0.00     0.054 A 
ATOM      3  C3  IND d   1      -3.083  -5.285  -3.872  0.00  0.00    -0.031 A 
ATOM      4  C4  IND d   1      -0.570  -5.022  -3.377  0.00  0.00     0.051 A 
ATOM      5  C5  IND d   1       0.664  -5.234  -3.924  0.00  0.00    -0.031 A 
ATOM      6  C6  IND d   1       0.818  -5.716  -5.208  0.00  0.00     0.015 A 
ATOM      7  C7  IND d   1      -0.260  -5.994  -5.999  0.00  0.00    -0.016 A 
ATOM      8  C8  IND d   1      -1.515  -5.787  -5.444  0.00  0.00    -0.047 A 
ATOM      9  C9  IND d   1      -1.678  -5.338  -4.127  0.00  0.00    -0.096 A 
ATOM     10  HN1 IND d   1      -2.947  -6.272  -6.760  0.00  0.00     0.298 HD
ENDROOT
TORSDOF 0
ENDMDL
