MODEL 1
REMARK minimizedAffinity 20.5961723
REMARK minimizedRMSD -1
REMARK  0 active torsions:
REMARK  status: ('A' for Active; 'I' for Inactive)
ROOT
ATOM      1  N1  IND d   1      -2.854  -1.519  -1.729  0.00  0.00    -0.196 N 
ATOM      2  C2  IND d   1      -4.059  -1.033  -2.151  0.00  0.00     0.054 A 
ATOM      3  C3  IND d   1      -4.469  -0.027  -1.346  0.00  0.00    -0.031 A 
ATOM      4  C4  IND d   1      -3.272   1.053   0.661  0.00  0.00     0.051 A 
ATOM      5  C5  IND d   1      -2.163   0.926   1.449  0.00  0.00    -0.031 A 
ATOM      6  C6  IND d   1      -1.206  -0.040   1.212  0.00  0.00     0.015 A 
ATOM      7  C7  IND d   1      -1.319  -0.912   0.166  0.00  0.00    -0.016 A 
ATOM      8  C8  IND d   1      -2.447  -0.791  -0.632  0.00  0.00    -0.047 A 
ATOM      9  C9  IND d   1      -3.442   0.160  -0.371  0.00  0.00    -0.096 A 
ATOM     10  HN1 IND d   1      -2.422  -2.170  -2.088  0.00  0.00     0.298 HD
ENDROOT
TORSDOF 0
ENDMDL
