MODEL 1
REMARK minimizedAffinity 13.3583422
REMARK minimizedRMSD -1
REMARK  0 active torsions:
REMARK  status: ('A' for Active; 'I' for Inactive)
ROOT
ATOM      1  N1  IND d   1       4.906   3.395   1.848  0.00  0.00    -0.196 N 
ATOM      2  C2  IND d   1       5.945   4.001   1.198  0.00  0.00     0.054 A 
ATOM      3  C3  IND d   1       5.821   3.841  -0.139  0.00  0.00    -0.031 A 
ATOM      4  C4  IND d   1       3.942   2.707  -1.484  0.00  0.00     0.051 A 
ATOM      5  C5  IND d   1       2.797   1.977  -1.330  0.00  0.00    -0.031 A 
ATOM      6  C6  IND d   1       2.285   1.679  -0.084  0.00  0.00     0.015 A 
ATOM      7  C7  IND d   1       2.895   2.111   1.059  0.00  0.00    -0.016 A 
ATOM      8  C8  IND d   1       4.061   2.846   0.907  0.00  0.00    -0.047 A 
ATOM      9  C9  IND d   1       4.610   3.116  -0.353  0.00  0.00    -0.096 A 
ATOM     10  HN1 IND d   1       4.798   3.361   2.700  0.00  0.00     0.298 HD
ENDROOT
TORSDOF 0
ENDMDL
