MODEL 1
REMARK minimizedAffinity 17.1911526
REMARK minimizedRMSD -1
REMARK  0 active torsions:
REMARK  status: ('A' for Active; 'I' for Inactive)
ROOT
ATOM      1  N1  IND d   1      -0.620  -0.476   2.813  0.00  0.00    -0.196 N 
ATOM      2  C2  IND d   1      -0.411  -1.525   1.962  0.00  0.00     0.054 A 
ATOM      3  C3  IND d   1      -1.484  -1.699   1.158  0.00  0.00    -0.031 A 
ATOM      4  C4  IND d   1      -3.649  -0.315   0.999  0.00  0.00     0.051 A 
ATOM      5  C5  IND d   1      -4.314   0.719   1.597  0.00  0.00    -0.031 A 
ATOM      6  C6  IND d   1      -3.768   1.423   2.651  0.00  0.00     0.015 A 
ATOM      7  C7  IND d   1      -2.528   1.126   3.141  0.00  0.00    -0.016 A 
ATOM      8  C8  IND d   1      -1.853   0.072   2.540  0.00  0.00    -0.047 A 
ATOM      9  C9  IND d   1      -2.420  -0.674   1.498  0.00  0.00    -0.096 A 
ATOM     10  HN1 IND d   1      -0.072  -0.205   3.418  0.00  0.00     0.298 HD
ENDROOT
TORSDOF 0
ENDMDL
