MODEL 1
REMARK minimizedAffinity 11.750597
REMARK minimizedRMSD -1
REMARK  0 active torsions:
REMARK  status: ('A' for Active; 'I' for Inactive)
ROOT
ATOM      1  N1  IND d   1       5.002   4.071   0.216  0.00  0.00    -0.196 N 
ATOM      2  C2  IND d   1       6.000   4.205   1.140  0.00  0.00     0.054 A 
ATOM      3  C3  IND d   1       5.998   3.152   1.989  0.00  0.00    -0.031 A 
ATOM      4  C4  IND d   1       4.514   1.049   1.983  0.00  0.00     0.051 A 
ATOM      5  C5  IND d   1       3.436   0.493   1.353  0.00  0.00    -0.031 A 
ATOM      6  C6  IND d   1       2.814   1.112   0.289  0.00  0.00     0.015 A 
ATOM      7  C7  IND d   1       3.256   2.311  -0.195  0.00  0.00    -0.016 A 
ATOM      8  C8  IND d   1       4.346   2.882   0.447  0.00  0.00    -0.047 A 
ATOM      9  C9  IND d   1       4.955   2.278   1.554  0.00  0.00    -0.096 A 
ATOM     10  HN1 IND d   1       4.815   4.635  -0.406  0.00  0.00     0.298 HD
ENDROOT
TORSDOF 0
ENDMDL
