MODEL 1
REMARK minimizedAffinity 11.3989325
REMARK minimizedRMSD -1
REMARK  0 active torsions:
REMARK  status: ('A' for Active; 'I' for Inactive)
ROOT
ATOM      1  N1  IND d   1      -0.114   4.726  -3.257  0.00  0.00    -0.196 N 
ATOM      2  C2  IND d   1      -0.391   5.615  -2.256  0.00  0.00     0.054 A 
ATOM      3  C3  IND d   1       0.748   5.997  -1.638  0.00  0.00    -0.031 A 
ATOM      4  C4  IND d   1       3.188   5.369  -2.169  0.00  0.00     0.051 A 
ATOM      5  C5  IND d   1       3.941   4.560  -2.971  0.00  0.00    -0.031 A 
ATOM      6  C6  IND d   1       3.371   3.750  -3.932  0.00  0.00     0.015 A 
ATOM      7  C7  IND d   1       2.020   3.727  -4.133  0.00  0.00    -0.016 A 
ATOM      8  C8  IND d   1       1.251   4.543  -3.315  0.00  0.00    -0.047 A 
ATOM      9  C9  IND d   1       1.821   5.335  -2.311  0.00  0.00    -0.096 A 
ATOM     10  HN1 IND d   1      -0.694   4.345  -3.765  0.00  0.00     0.298 HD
ENDROOT
TORSDOF 0
ENDMDL
