MODEL 1
REMARK minimizedAffinity 20.9999752
REMARK minimizedRMSD -1
REMARK  0 active torsions:
REMARK  status: ('A' for Active; 'I' for Inactive)
ROOT
ATOM      1  N1  IND d   1       1.737   3.033  -4.085  0.00  0.00    -0.196 N 
ATOM      2  C2  IND d   1       1.009   3.351  -2.972  0.00  0.00     0.054 A 
ATOM      3  C3  IND d   1       1.770   4.044  -2.095  0.00  0.00    -0.031 A 
ATOM      4  C4  IND d   1       4.202   4.855  -2.324  0.00  0.00     0.051 A 
ATOM      5  C5  IND d   1       5.291   4.777  -3.146  0.00  0.00    -0.031 A 
ATOM      6  C6  IND d   1       5.249   4.102  -4.349  0.00  0.00     0.015 A 
ATOM      7  C7  IND d   1       4.108   3.487  -4.781  0.00  0.00    -0.016 A 
ATOM      8  C8  IND d   1       3.003   3.559  -3.946  0.00  0.00    -0.047 A 
ATOM      9  C9  IND d   1       3.052   4.206  -2.704  0.00  0.00    -0.096 A 
ATOM     10  HN1 IND d   1       1.452   2.581  -4.758  0.00  0.00     0.298 HD
ENDROOT
TORSDOF 0
ENDMDL
