MODEL 1
REMARK minimizedAffinity 19.6058788
REMARK minimizedRMSD -1
REMARK  0 active torsions:
REMARK  status: ('A' for Active; 'I' for Inactive)
ROOT
ATOM      1  N1  IND d   1       2.245   2.704  -4.052  0.00  0.00    -0.196 N 
ATOM      2  C2  IND d   1       1.603   2.889  -2.860  0.00  0.00     0.054 A 
ATOM      3  C3  IND d   1       2.401   3.552  -1.993  0.00  0.00    -0.031 A 
ATOM      4  C4  IND d   1       4.759   4.520  -2.354  0.00  0.00     0.051 A 
ATOM      5  C5  IND d   1       5.774   4.572  -3.268  0.00  0.00    -0.031 A 
ATOM      6  C6  IND d   1       5.661   3.994  -4.517  0.00  0.00     0.015 A 
ATOM      7  C7  IND d   1       4.520   3.351  -4.903  0.00  0.00    -0.016 A 
ATOM      8  C8  IND d   1       3.490   3.290  -3.975  0.00  0.00    -0.047 A 
ATOM      9  C9  IND d   1       3.614   3.837  -2.691  0.00  0.00    -0.096 A 
ATOM     10  HN1 IND d   1       1.926   2.291  -4.735  0.00  0.00     0.298 HD
ENDROOT
TORSDOF 0
ENDMDL
