MODEL 1
REMARK minimizedAffinity 9.93065166
REMARK minimizedRMSD -1
REMARK  0 active torsions:
REMARK  status: ('A' for Active; 'I' for Inactive)
ROOT
ATOM      1  N1  IND d   1       3.311   3.287  -5.321  0.00  0.00    -0.196 N 
ATOM      2  C2  IND d   1       4.530   3.401  -5.931  0.00  0.00     0.054 A 
ATOM      3  C3  IND d   1       5.365   4.150  -5.176  0.00  0.00    -0.031 A 
ATOM      4  C4  IND d   1       4.975   5.201  -2.858  0.00  0.00     0.051 A 
ATOM      5  C5  IND d   1       4.007   5.399  -1.915  0.00  0.00    -0.031 A 
ATOM      6  C6  IND d   1       2.732   4.891  -2.060  0.00  0.00     0.015 A 
ATOM      7  C7  IND d   1       2.380   4.153  -3.154  0.00  0.00    -0.016 A 
ATOM      8  C8  IND d   1       3.359   3.955  -4.118  0.00  0.00    -0.047 A 
ATOM      9  C9  IND d   1       4.642   4.505  -3.996  0.00  0.00    -0.096 A 
ATOM     10  HN1 IND d   1       2.630   2.868  -5.637  0.00  0.00     0.298 HD
ENDROOT
TORSDOF 0
ENDMDL
