MODEL 1
REMARK minimizedAffinity 14.4756527
REMARK minimizedRMSD -1
REMARK  0 active torsions:
REMARK  status: ('A' for Active; 'I' for Inactive)
ROOT
ATOM      1  N1  IND d   1       4.652   3.280   2.246  0.00  0.00    -0.196 N 
ATOM      2  C2  IND d   1       5.812   3.736   1.684  0.00  0.00     0.054 A 
ATOM      3  C3  IND d   1       5.999   3.174   0.469  0.00  0.00    -0.031 A 
ATOM      4  C4  IND d   1       4.479   1.559  -0.838  0.00  0.00     0.051 A 
ATOM      5  C5  IND d   1       3.329   0.829  -0.721  0.00  0.00    -0.031 A 
ATOM      6  C6  IND d   1       2.545   0.882   0.413  0.00  0.00     0.015 A 
ATOM      7  C7  IND d   1       2.876   1.679   1.472  0.00  0.00    -0.016 A 
ATOM      8  C8  IND d   1       4.046   2.416   1.360  0.00  0.00    -0.047 A 
ATOM      9  C9  IND d   1       4.869   2.334   0.229  0.00  0.00    -0.096 A 
ATOM     10  HN1 IND d   1       4.352   3.496   3.022  0.00  0.00     0.298 HD
ENDROOT
TORSDOF 0
ENDMDL
