MODEL 1
REMARK minimizedAffinity 14.3585148
REMARK minimizedRMSD -1
REMARK  0 active torsions:
REMARK  status: ('A' for Active; 'I' for Inactive)
ROOT
ATOM      1  N1  IND d   1      -3.115  -3.343  -3.359  0.00  0.00    -0.196 N 
ATOM      2  C2  IND d   1      -2.047  -2.930  -2.613  0.00  0.00     0.054 A 
ATOM      3  C3  IND d   1      -0.925  -3.579  -2.998  0.00  0.00    -0.031 A 
ATOM      4  C4  IND d   1      -0.592  -5.282  -4.899  0.00  0.00     0.051 A 
ATOM      5  C5  IND d   1      -1.281  -6.000  -5.836  0.00  0.00    -0.031 A 
ATOM      6  C6  IND d   1      -2.645  -5.864  -6.000  0.00  0.00     0.015 A 
ATOM      7  C7  IND d   1      -3.371  -4.993  -5.238  0.00  0.00    -0.016 A 
ATOM      8  C8  IND d   1      -2.675  -4.268  -4.281  0.00  0.00    -0.047 A 
ATOM      9  C9  IND d   1      -1.298  -4.433  -4.081  0.00  0.00    -0.096 A 
ATOM     10  HN1 IND d   1      -3.926  -3.071  -3.269  0.00  0.00     0.298 HD
ENDROOT
TORSDOF 0
ENDMDL
