MODEL 1
REMARK minimizedAffinity 21.904686
REMARK minimizedRMSD -1
REMARK  0 active torsions:
REMARK  status: ('A' for Active; 'I' for Inactive)
ROOT
ATOM      1  N1  IND d   1      -0.933  -0.410   2.629  0.00  0.00    -0.196 N 
ATOM      2  C2  IND d   1      -0.752  -1.737   2.356  0.00  0.00     0.054 A 
ATOM      3  C3  IND d   1      -1.852  -2.250   1.760  0.00  0.00    -0.031 A 
ATOM      4  C4  IND d   1      -4.025  -1.069   1.046  0.00  0.00     0.051 A 
ATOM      5  C5  IND d   1      -4.671   0.134   1.116  0.00  0.00    -0.031 A 
ATOM      6  C6  IND d   1      -4.091   1.239   1.704  0.00  0.00     0.015 A 
ATOM      7  C7  IND d   1      -2.833   1.187   2.235  0.00  0.00    -0.016 A 
ATOM      8  C8  IND d   1      -2.178  -0.035   2.172  0.00  0.00    -0.047 A 
ATOM      9  C9  IND d   1      -2.777  -1.171   1.615  0.00  0.00    -0.096 A 
ATOM     10  HN1 IND d   1      -0.366   0.104   3.021  0.00  0.00     0.298 HD
ENDROOT
TORSDOF 0
ENDMDL
