MODEL 1
REMARK minimizedAffinity 10.3279057
REMARK minimizedRMSD -1
REMARK  0 active torsions:
REMARK  status: ('A' for Active; 'I' for Inactive)
ROOT
ATOM      1  N1  IND d   1       3.651   6.000  -1.854  0.00  0.00    -0.196 N 
ATOM      2  C2  IND d   1       4.881   5.414  -1.959  0.00  0.00     0.054 A 
ATOM      3  C3  IND d   1       4.755   4.114  -2.309  0.00  0.00    -0.031 A 
ATOM      4  C4  IND d   1       2.631   2.768  -2.860  0.00  0.00     0.051 A 
ATOM      5  C5  IND d   1       1.267   2.862  -2.868  0.00  0.00    -0.031 A 
ATOM      6  C6  IND d   1       0.616   4.032  -2.535  0.00  0.00     0.015 A 
ATOM      7  C7  IND d   1       1.307   5.159  -2.190  0.00  0.00    -0.016 A 
ATOM      8  C8  IND d   1       2.691   5.065  -2.174  0.00  0.00    -0.047 A 
ATOM      9  C9  IND d   1       3.357   3.868  -2.470  0.00  0.00    -0.096 A 
ATOM     10  HN1 IND d   1       3.501   6.816  -1.627  0.00  0.00     0.298 HD
ENDROOT
TORSDOF 0
ENDMDL
