MODEL 1
REMARK minimizedAffinity 4.8324604
REMARK minimizedRMSD -1
REMARK  0 active torsions:
REMARK  status: ('A' for Active; 'I' for Inactive)
ROOT
ATOM      1  N1  IND d   1      -4.679   0.819   1.587  0.00  0.00    -0.196 N 
ATOM      2  C2  IND d   1      -4.731   0.000   0.494  0.00  0.00     0.054 A 
ATOM      3  C3  IND d   1      -3.674  -0.843   0.488  0.00  0.00    -0.031 A 
ATOM      4  C4  IND d   1      -1.794  -1.122   2.224  0.00  0.00     0.051 A 
ATOM      5  C5  IND d   1      -1.301  -0.575   3.375  0.00  0.00    -0.031 A 
ATOM      6  C6  IND d   1      -1.923   0.485   4.003  0.00  0.00     0.015 A 
ATOM      7  C7  IND d   1      -3.072   1.032   3.508  0.00  0.00    -0.016 A 
ATOM      8  C8  IND d   1      -3.572   0.483   2.335  0.00  0.00    -0.047 A 
ATOM      9  C9  IND d   1      -2.922  -0.564   1.670  0.00  0.00    -0.096 A 
ATOM     10  HN1 IND d   1      -5.244   1.440   1.776  0.00  0.00     0.298 HD
ENDROOT
TORSDOF 0
ENDMDL
