MODEL 1
REMARK minimizedAffinity 18.7012329
REMARK minimizedRMSD -1
REMARK  0 active torsions:
REMARK  status: ('A' for Active; 'I' for Inactive)
ROOT
ATOM      1  N1  IND d   1       0.896  -1.330   4.498  0.00  0.00    -0.196 N 
ATOM      2  C2  IND d   1       1.504  -2.311   3.765  0.00  0.00     0.054 A 
ATOM      3  C3  IND d   1       0.826  -2.528   2.616  0.00  0.00    -0.031 A 
ATOM      4  C4  IND d   1      -1.249  -1.319   1.688  0.00  0.00     0.051 A 
ATOM      5  C5  IND d   1      -2.183  -0.377   2.015  0.00  0.00    -0.031 A 
ATOM      6  C6  IND d   1      -2.136   0.312   3.210  0.00  0.00     0.015 A 
ATOM      7  C7  IND d   1      -1.142   0.091   4.121  0.00  0.00    -0.016 A 
ATOM      8  C8  IND d   1      -0.195  -0.871   3.795  0.00  0.00    -0.047 A 
ATOM      9  C9  IND d   1      -0.262  -1.603   2.603  0.00  0.00    -0.096 A 
ATOM     10  HN1 IND d   1       1.153  -1.048   5.269  0.00  0.00     0.298 HD
ENDROOT
TORSDOF 0
ENDMDL
