MODEL 1
REMARK minimizedAffinity 8.7700634
REMARK minimizedRMSD -1
REMARK  0 active torsions:
REMARK  status: ('A' for Active; 'I' for Inactive)
ROOT
ATOM      1  N1  IND d   1       4.143   3.973   1.938  0.00  0.00    -0.196 N 
ATOM      2  C2  IND d   1       5.474   4.223   1.757  0.00  0.00     0.054 A 
ATOM      3  C3  IND d   1       5.999   3.357   0.862  0.00  0.00    -0.031 A 
ATOM      4  C4  IND d   1       4.834   1.514  -0.507  0.00  0.00     0.051 A 
ATOM      5  C5  IND d   1       3.631   0.884  -0.660  0.00  0.00    -0.031 A 
ATOM      6  C6  IND d   1       2.514   1.260   0.058  0.00  0.00     0.015 A 
ATOM      7  C7  IND d   1       2.556   2.293   0.951  0.00  0.00    -0.016 A 
ATOM      8  C8  IND d   1       3.777   2.931   1.114  0.00  0.00    -0.047 A 
ATOM      9  C9  IND d   1       4.924   2.526   0.420  0.00  0.00    -0.096 A 
ATOM     10  HN1 IND d   1       3.621   4.395   2.475  0.00  0.00     0.298 HD
ENDROOT
TORSDOF 0
ENDMDL
