MODEL 1
REMARK minimizedAffinity 23.6080551
REMARK minimizedRMSD -1
REMARK  0 active torsions:
REMARK  status: ('A' for Active; 'I' for Inactive)
ROOT
ATOM      1  N1  IND d   1      -0.795  -0.557   2.781  0.00  0.00    -0.196 N 
ATOM      2  C2  IND d   1      -0.600  -1.793   2.231  0.00  0.00     0.054 A 
ATOM      3  C3  IND d   1      -1.654  -2.134   1.456  0.00  0.00    -0.031 A 
ATOM      4  C4  IND d   1      -3.760  -0.776   0.869  0.00  0.00     0.051 A 
ATOM      5  C5  IND d   1      -4.403   0.395   1.161  0.00  0.00    -0.031 A 
ATOM      6  C6  IND d   1      -3.864   1.328   2.023  0.00  0.00     0.015 A 
ATOM      7  C7  IND d   1      -2.651   1.129   2.619  0.00  0.00    -0.016 A 
ATOM      8  C8  IND d   1      -1.998  -0.061   2.331  0.00  0.00    -0.047 A 
ATOM      9  C9  IND d   1      -2.560  -1.031   1.490  0.00  0.00    -0.096 A 
ATOM     10  HN1 IND d   1      -0.256  -0.156   3.319  0.00  0.00     0.298 HD
ENDROOT
TORSDOF 0
ENDMDL
