MODEL 1
REMARK minimizedAffinity 8.51639938
REMARK minimizedRMSD -1
REMARK  1 active torsions:
REMARK  status: ('A' for Active; 'I' for Inactive)
REMARK    1  A    between atoms: C1_2  and  C2_3 
ROOT
ATOM      1  C2  UNL d   1      -0.788  -3.153   1.944  0.00  0.00    -0.077 A 
ATOM      2  C3  UNL d   1       0.462  -3.763   2.122  0.00  0.00     0.002 A 
ATOM      3  C4  UNL d   1       1.423  -3.177   2.948  0.00  0.00     0.002 A 
ATOM      4  C5  UNL d   1       1.143  -1.981   3.606  0.00  0.00    -0.004 A 
ATOM      5  C6  UNL d   1      -0.096  -1.366   3.434  0.00  0.00     0.002 A 
ATOM      6  C7  UNL d   1      -1.058  -1.949   2.608  0.00  0.00     0.002 A 
ENDROOT
BRANCH   1   7
ATOM      7  C1  UNL d   1      -1.843  -3.809   1.093  0.00  0.00     0.055 C 
ATOM      8  C   UNL d   1      -3.216  -3.713   1.741  0.00  0.00     0.019 C 
ENDBRANCH   1   7
TORSDOF 1
ENDMDL
