MODEL 1
REMARK minimizedAffinity 13.7691479
REMARK minimizedRMSD -1
REMARK  1 active torsions:
REMARK  status: ('A' for Active; 'I' for Inactive)
REMARK    1  A    between atoms: C1_2  and  C2_3 
ROOT
ATOM      1  C2  UNL d   1       3.775   2.401   0.301  0.00  0.00    -0.077 A 
ATOM      2  C3  UNL d   1       4.763   2.596  -0.674  0.00  0.00     0.002 A 
ATOM      3  C4  UNL d   1       5.869   3.406  -0.407  0.00  0.00     0.002 A 
ATOM      4  C5  UNL d   1       5.999   4.022   0.836  0.00  0.00    -0.004 A 
ATOM      5  C6  UNL d   1       5.021   3.835   1.812  0.00  0.00     0.002 A 
ATOM      6  C7  UNL d   1       3.914   3.027   1.546  0.00  0.00     0.002 A 
ENDROOT
BRANCH   1   7
ATOM      7  C1  UNL d   1       2.607   1.489   0.032  0.00  0.00     0.055 C 
ATOM      8  C   UNL d   1       3.002   0.338  -0.883  0.00  0.00     0.019 C 
ENDBRANCH   1   7
TORSDOF 1
ENDMDL
