MODEL 1
REMARK minimizedAffinity 3.52540493
REMARK minimizedRMSD -1
REMARK  1 active torsions:
REMARK  status: ('A' for Active; 'I' for Inactive)
REMARK    1  A    between atoms: C1_2  and  C2_3 
ROOT
ATOM      1  C2  UNL d   1       5.062   3.552   1.256  0.00  0.00    -0.077 A 
ATOM      2  C3  UNL d   1       4.488   4.731   1.751  0.00  0.00     0.002 A 
ATOM      3  C4  UNL d   1       4.664   5.940   1.075  0.00  0.00     0.002 A 
ATOM      4  C5  UNL d   1       5.410   5.980  -0.101  0.00  0.00    -0.004 A 
ATOM      5  C6  UNL d   1       5.987   4.813  -0.600  0.00  0.00     0.002 A 
ATOM      6  C7  UNL d   1       5.813   3.604   0.075  0.00  0.00     0.002 A 
ENDROOT
BRANCH   1   7
ATOM      7  C1  UNL d   1       4.832   2.238   1.957  0.00  0.00     0.055 C 
ATOM      8  C   UNL d   1       3.809   1.388   1.219  0.00  0.00     0.019 C 
ENDBRANCH   1   7
TORSDOF 1
ENDMDL
