MODEL 1
REMARK minimizedAffinity 9.72923279
REMARK minimizedRMSD -1
REMARK  1 active torsions:
REMARK  status: ('A' for Active; 'I' for Inactive)
REMARK    1  A    between atoms: C1_2  and  C2_3 
ROOT
ATOM      1  C2  UNL d   1       5.527   3.759  -0.159  0.00  0.00    -0.077 A 
ATOM      2  C3  UNL d   1       4.579   2.845  -0.640  0.00  0.00     0.002 A 
ATOM      3  C4  UNL d   1       4.114   1.813   0.178  0.00  0.00     0.002 A 
ATOM      4  C5  UNL d   1       4.588   1.689   1.482  0.00  0.00    -0.004 A 
ATOM      5  C6  UNL d   1       5.531   2.593   1.969  0.00  0.00     0.002 A 
ATOM      6  C7  UNL d   1       5.998   3.623   1.153  0.00  0.00     0.002 A 
ENDROOT
BRANCH   1   7
ATOM      7  C1  UNL d   1       5.993   4.901  -1.024  0.00  0.00     0.055 C 
ATOM      8  C   UNL d   1       4.855   5.458  -1.867  0.00  0.00     0.019 C 
ENDBRANCH   1   7
TORSDOF 1
ENDMDL
