MODEL 1
REMARK minimizedAffinity 12.3785849
REMARK minimizedRMSD -1
REMARK  1 active torsions:
REMARK  status: ('A' for Active; 'I' for Inactive)
REMARK    1  A    between atoms: C1_2  and  C2_3 
ROOT
ATOM      1  C2  UNL d   1       4.479   1.909   0.460  0.00  0.00    -0.077 A 
ATOM      2  C3  UNL d   1       4.493   2.292   1.809  0.00  0.00     0.002 A 
ATOM      3  C4  UNL d   1       5.252   3.389   2.223  0.00  0.00     0.002 A 
ATOM      4  C5  UNL d   1       5.998   4.113   1.296  0.00  0.00    -0.004 A 
ATOM      5  C6  UNL d   1       5.992   3.738  -0.047  0.00  0.00     0.002 A 
ATOM      6  C7  UNL d   1       5.236   2.642  -0.463  0.00  0.00     0.002 A 
ENDROOT
BRANCH   1   7
ATOM      7  C1  UNL d   1       3.623   0.757   0.002  0.00  0.00     0.055 C 
ATOM      8  C   UNL d   1       2.213   1.217  -0.340  0.00  0.00     0.019 C 
ENDBRANCH   1   7
TORSDOF 1
ENDMDL
