MODEL 1
REMARK minimizedAffinity 20.1640511
REMARK minimizedRMSD -1
REMARK  1 active torsions:
REMARK  status: ('A' for Active; 'I' for Inactive)
REMARK    1  A    between atoms: C1_2  and  C2_3 
ROOT
ATOM      1  C2  UNL d   1      -0.141   4.501  -3.679  0.00  0.00    -0.077 A 
ATOM      2  C3  UNL d   1       0.342   3.186  -3.728  0.00  0.00     0.002 A 
ATOM      3  C4  UNL d   1       1.459   2.816  -2.977  0.00  0.00     0.002 A 
ATOM      4  C5  UNL d   1       2.099   3.753  -2.168  0.00  0.00    -0.004 A 
ATOM      5  C6  UNL d   1       1.627   5.064  -2.113  0.00  0.00     0.002 A 
ATOM      6  C7  UNL d   1       0.511   5.436  -2.865  0.00  0.00     0.002 A 
ENDROOT
BRANCH   1   7
ATOM      7  C1  UNL d   1      -1.375   4.890  -4.451  0.00  0.00     0.055 C 
ATOM      8  C   UNL d   1      -1.076   5.999  -5.449  0.00  0.00     0.019 C 
ENDBRANCH   1   7
TORSDOF 1
ENDMDL
