MODEL 1
REMARK minimizedAffinity 11.0843287
REMARK minimizedRMSD -1
REMARK  1 active torsions:
REMARK  status: ('A' for Active; 'I' for Inactive)
REMARK    1  A    between atoms: C1_2  and  C2_3 
ROOT
ATOM      1  C2  UNL d   1       4.708   3.769  -4.125  0.00  0.00    -0.077 A 
ATOM      2  C3  UNL d   1       3.804   2.993  -4.864  0.00  0.00     0.002 A 
ATOM      3  C4  UNL d   1       2.586   2.603  -4.303  0.00  0.00     0.002 A 
ATOM      4  C5  UNL d   1       2.259   2.987  -3.005  0.00  0.00    -0.004 A 
ATOM      5  C6  UNL d   1       3.153   3.758  -2.261  0.00  0.00     0.002 A 
ATOM      6  C7  UNL d   1       4.371   4.148  -2.820  0.00  0.00     0.002 A 
ENDROOT
BRANCH   1   7
ATOM      7  C1  UNL d   1       6.000   4.233  -4.745  0.00  0.00     0.055 C 
ATOM      8  C   UNL d   1       6.000   5.739  -4.966  0.00  0.00     0.019 C 
ENDBRANCH   1   7
TORSDOF 1
ENDMDL
