MODEL 1
REMARK minimizedAffinity 16.1469879
REMARK minimizedRMSD -1
REMARK  1 active torsions:
REMARK  status: ('A' for Active; 'I' for Inactive)
REMARK    1  A    between atoms: C1_2  and  C2_3 
ROOT
ATOM      1  C2  UNL d   1      -4.962   2.806   4.641  0.00  0.00    -0.077 A 
ATOM      2  C3  UNL d   1      -3.642   2.690   4.182  0.00  0.00     0.002 A 
ATOM      3  C4  UNL d   1      -3.368   2.047   2.974  0.00  0.00     0.002 A 
ATOM      4  C5  UNL d   1      -4.409   1.520   2.211  0.00  0.00    -0.004 A 
ATOM      5  C6  UNL d   1      -5.725   1.629   2.659  0.00  0.00     0.002 A 
ATOM      6  C7  UNL d   1      -6.000   2.270   3.868  0.00  0.00     0.002 A 
ENDROOT
BRANCH   1   7
ATOM      7  C1  UNL d   1      -5.263   3.542   5.920  0.00  0.00     0.055 C 
ATOM      8  C   UNL d   1      -5.994   4.849   5.647  0.00  0.00     0.019 C 
ENDBRANCH   1   7
TORSDOF 1
ENDMDL
