MODEL 1
REMARK minimizedAffinity 4.38658714
REMARK minimizedRMSD -1
REMARK  1 active torsions:
REMARK  status: ('A' for Active; 'I' for Inactive)
REMARK    1  A    between atoms: C1_2  and  C2_3 
ROOT
ATOM      1  C2  UNL d   1       3.901   2.301   0.890  0.00  0.00    -0.077 A 
ATOM      2  C3  UNL d   1       4.511   1.802  -0.269  0.00  0.00     0.002 A 
ATOM      3  C4  UNL d   1       3.761   1.104  -1.217  0.00  0.00     0.002 A 
ATOM      4  C5  UNL d   1       2.397   0.903  -1.019  0.00  0.00    -0.004 A 
ATOM      5  C6  UNL d   1       1.781   1.395   0.131  0.00  0.00     0.002 A 
ATOM      6  C7  UNL d   1       2.529   2.091   1.081  0.00  0.00     0.002 A 
ENDROOT
BRANCH   1   7
ATOM      7  C1  UNL d   1       4.698   3.097   1.891  0.00  0.00     0.055 C 
ATOM      8  C   UNL d   1       5.849   3.834   1.221  0.00  0.00     0.019 C 
ENDBRANCH   1   7
TORSDOF 1
ENDMDL
