MODEL 1
REMARK minimizedAffinity 4.34632158
REMARK minimizedRMSD -1
REMARK  1 active torsions:
REMARK  status: ('A' for Active; 'I' for Inactive)
REMARK    1  A    between atoms: C1_2  and  C2_3 
ROOT
ATOM      1  C2  UNL d   1       2.881   3.046  -3.497  0.00  0.00    -0.077 A 
ATOM      2  C3  UNL d   1       2.256   4.256  -3.165  0.00  0.00     0.002 A 
ATOM      3  C4  UNL d   1       1.555   4.383  -1.964  0.00  0.00     0.002 A 
ATOM      4  C5  UNL d   1       1.476   3.306  -1.084  0.00  0.00    -0.004 A 
ATOM      5  C6  UNL d   1       2.093   2.097  -1.406  0.00  0.00     0.002 A 
ATOM      6  C7  UNL d   1       2.793   1.968  -2.606  0.00  0.00     0.002 A 
ENDROOT
BRANCH   1   7
ATOM      7  C1  UNL d   1       3.679   2.922  -4.768  0.00  0.00     0.055 C 
ATOM      8  C   UNL d   1       2.851   3.316  -5.982  0.00  0.00     0.019 C 
ENDBRANCH   1   7
TORSDOF 1
ENDMDL
