MODEL 1
REMARK minimizedAffinity 11.7717934
REMARK minimizedRMSD -1
REMARK  1 active torsions:
REMARK  status: ('A' for Active; 'I' for Inactive)
REMARK    1  A    between atoms: C1_2  and  C2_3 
ROOT
ATOM      1  C2  UNL d   1       4.864  -3.461  -0.529  0.00  0.00    -0.077 A 
ATOM      2  C3  UNL d   1       3.732  -4.284  -0.606  0.00  0.00     0.002 A 
ATOM      3  C4  UNL d   1       3.736  -5.549  -0.014  0.00  0.00     0.002 A 
ATOM      4  C5  UNL d   1       4.868  -5.999   0.663  0.00  0.00    -0.004 A 
ATOM      5  C6  UNL d   1       6.000  -5.189   0.743  0.00  0.00     0.002 A 
ATOM      6  C7  UNL d   1       5.998  -3.925   0.151  0.00  0.00     0.002 A 
ENDROOT
BRANCH   1   7
ATOM      7  C1  UNL d   1       4.844  -2.078  -1.125  0.00  0.00     0.055 C 
ATOM      8  C   UNL d   1       4.120  -1.094  -0.217  0.00  0.00     0.019 C 
ENDBRANCH   1   7
TORSDOF 1
ENDMDL
