MODEL 1
REMARK minimizedAffinity 11.625823
REMARK minimizedRMSD -1
REMARK  1 active torsions:
REMARK  status: ('A' for Active; 'I' for Inactive)
REMARK    1  A    between atoms: C1_2  and  C2_3 
ROOT
ATOM      1  C2  UNL d   1       4.837   3.912  -3.637  0.00  0.00    -0.077 A 
ATOM      2  C3  UNL d   1       3.909   2.960  -4.081  0.00  0.00     0.002 A 
ATOM      3  C4  UNL d   1       2.817   2.613  -3.284  0.00  0.00     0.002 A 
ATOM      4  C5  UNL d   1       2.640   3.215  -2.040  0.00  0.00    -0.004 A 
ATOM      5  C6  UNL d   1       3.559   4.162  -1.588  0.00  0.00     0.002 A 
ATOM      6  C7  UNL d   1       4.652   4.509  -2.383  0.00  0.00     0.002 A 
ENDROOT
BRANCH   1   7
ATOM      7  C1  UNL d   1       5.988   4.325  -4.516  0.00  0.00     0.055 C 
ATOM      8  C   UNL d   1       5.983   5.825  -4.768  0.00  0.00     0.019 C 
ENDBRANCH   1   7
TORSDOF 1
ENDMDL
