MODEL 1
REMARK minimizedAffinity -4.37884712
REMARK minimizedRMSD -1
REMARK  0 active torsions:
REMARK  status: ('A' for Active; 'I' for Inactive)
ROOT
ATOM      1  C2' OXE d   1      -0.800   1.508   2.225  0.00  0.00     0.078 C 
ATOM      2  C1' OXE d   1      -2.052   0.411  -0.036  0.00  0.00     0.078 C 
ATOM      3  C1  OXE d   1      -0.642  -0.028   0.270  0.00  0.00    -0.078 A 
ATOM      4  C2  OXE d   1      -0.021   0.549   1.352  0.00  0.00    -0.078 A 
ATOM      5  C3  OXE d   1       1.260   0.139   1.710  0.00  0.00     0.003 A 
ATOM      6  C4  OXE d   1       1.978  -0.741   0.891  0.00  0.00    -0.002 A 
ATOM      7  C5  OXE d   1       1.378  -1.310  -0.237  0.00  0.00    -0.002 A 
ATOM      8  C6  OXE d   1       0.057  -0.997  -0.537  0.00  0.00     0.003 A 
ENDROOT
TORSDOF 0
ENDMDL
