MODEL 1
REMARK minimizedAffinity 1.90517485
REMARK minimizedRMSD -1
REMARK  0 active torsions:
REMARK  status: ('A' for Active; 'I' for Inactive)
ROOT
ATOM      1  C2' OXE d   1       2.342   1.006   1.813  0.00  0.00     0.078 C 
ATOM      2  C1' OXE d   1       1.988  -1.411   0.430  0.00  0.00     0.078 C 
ATOM      3  C1  OXE d   1       0.757  -0.610   0.773  0.00  0.00    -0.078 A 
ATOM      4  C2  OXE d   1       0.936   0.548   1.491  0.00  0.00    -0.078 A 
ATOM      5  C3  OXE d   1      -0.161   1.353   1.786  0.00  0.00     0.003 A 
ATOM      6  C4  OXE d   1      -1.459   0.917   1.493  0.00  0.00    -0.002 A 
ATOM      7  C5  OXE d   1      -1.666  -0.279   0.798  0.00  0.00    -0.002 A 
ATOM      8  C6  OXE d   1      -0.569  -1.031   0.394  0.00  0.00     0.003 A 
ENDROOT
TORSDOF 0
ENDMDL
