MODEL 1
REMARK minimizedAffinity 7.95586061
REMARK minimizedRMSD -1
REMARK  0 active torsions:
REMARK  status: ('A' for Active; 'I' for Inactive)
ROOT
ATOM      1  C2' OXE d   1      -1.920   0.029   0.233  0.00  0.00     0.078 C 
ATOM      2  C1' OXE d   1      -0.183   0.773   2.308  0.00  0.00     0.078 C 
ATOM      3  C1  OXE d   1      -1.413  -0.021   2.671  0.00  0.00    -0.078 A 
ATOM      4  C2  OXE d   1      -2.281  -0.340   1.655  0.00  0.00    -0.078 A 
ATOM      5  C3  OXE d   1      -3.403  -1.118   1.927  0.00  0.00     0.003 A 
ATOM      6  C4  OXE d   1      -3.735  -1.447   3.247  0.00  0.00    -0.002 A 
ATOM      7  C5  OXE d   1      -2.885  -1.097   4.301  0.00  0.00    -0.002 A 
ATOM      8  C6  OXE d   1      -1.701  -0.422   4.026  0.00  0.00     0.003 A 
ENDROOT
TORSDOF 0
ENDMDL
