MODEL 1
REMARK minimizedAffinity 6.8601141
REMARK minimizedRMSD -1
REMARK  0 active torsions:
REMARK  status: ('A' for Active; 'I' for Inactive)
ROOT
ATOM      1  C2' OXE d   1       3.732   1.035  -3.462  0.00  0.00     0.078 C 
ATOM      2  C1' OXE d   1       1.751   0.049  -1.734  0.00  0.00     0.078 C 
ATOM      3  C1  OXE d   1       1.437   0.099  -3.209  0.00  0.00    -0.078 A 
ATOM      4  C2  OXE d   1       2.394   0.627  -4.041  0.00  0.00    -0.078 A 
ATOM      5  C3  OXE d   1       2.177   0.646  -5.416  0.00  0.00     0.003 A 
ATOM      6  C4  OXE d   1       0.934   0.276  -5.943  0.00  0.00    -0.002 A 
ATOM      7  C5  OXE d   1      -0.070  -0.227  -5.108  0.00  0.00    -0.002 A 
ATOM      8  C6  OXE d   1       0.181  -0.361  -3.747  0.00  0.00     0.003 A 
ENDROOT
TORSDOF 0
ENDMDL
