MODEL 1
REMARK minimizedAffinity 1.33416283
REMARK minimizedRMSD -1
REMARK  0 active torsions:
REMARK  status: ('A' for Active; 'I' for Inactive)
ROOT
ATOM      1  C2' OXE d   1       1.464   0.445  -4.151  0.00  0.00     0.078 C 
ATOM      2  C1' OXE d   1       4.188  -0.053  -3.688  0.00  0.00     0.078 C 
ATOM      3  C1  OXE d   1       3.186  -0.718  -2.777  0.00  0.00    -0.078 A 
ATOM      4  C2  OXE d   1       1.858  -0.432  -2.982  0.00  0.00    -0.078 A 
ATOM      5  C3  OXE d   1       0.890  -1.061  -2.205  0.00  0.00     0.003 A 
ATOM      6  C4  OXE d   1       1.263  -1.863  -1.119  0.00  0.00    -0.002 A 
ATOM      7  C5  OXE d   1       2.612  -2.135  -0.869  0.00  0.00    -0.002 A 
ATOM      8  C6  OXE d   1       3.582  -1.606  -1.713  0.00  0.00     0.003 A 
ENDROOT
TORSDOF 0
ENDMDL
