MODEL 1
REMARK minimizedAffinity 9.11979485
REMARK minimizedRMSD -1
REMARK  0 active torsions:
REMARK  status: ('A' for Active; 'I' for Inactive)
ROOT
ATOM      1  C2' OXE d   1      -0.417  -1.507  -2.900  0.00  0.00     0.078 C 
ATOM      2  C1' OXE d   1       0.136  -0.701  -5.531  0.00  0.00     0.078 C 
ATOM      3  C1  OXE d   1       0.910  -0.043  -4.417  0.00  0.00    -0.078 A 
ATOM      4  C2  OXE d   1       0.600  -0.410  -3.129  0.00  0.00    -0.078 A 
ATOM      5  C3  OXE d   1       1.322   0.125  -2.067  0.00  0.00     0.003 A 
ATOM      6  C4  OXE d   1       2.255   1.146  -2.287  0.00  0.00    -0.002 A 
ATOM      7  C5  OXE d   1       2.557   1.563  -3.588  0.00  0.00    -0.002 A 
ATOM      8  C6  OXE d   1       1.926   0.950  -4.664  0.00  0.00     0.003 A 
ENDROOT
TORSDOF 0
ENDMDL
