MODEL 1
REMARK minimizedAffinity 2.02369928
REMARK minimizedRMSD -1
REMARK  0 active torsions:
REMARK  status: ('A' for Active; 'I' for Inactive)
ROOT
ATOM      1  C2' OXE d   1       2.111   1.712  -2.418  0.00  0.00     0.078 C 
ATOM      2  C1' OXE d   1       0.532   0.094  -4.082  0.00  0.00     0.078 C 
ATOM      3  C1  OXE d   1       1.976  -0.295  -3.887  0.00  0.00    -0.078 A 
ATOM      4  C2  OXE d   1       2.753   0.528  -3.109  0.00  0.00    -0.078 A 
ATOM      5  C3  OXE d   1       4.078   0.185  -2.852  0.00  0.00     0.003 A 
ATOM      6  C4  OXE d   1       4.666  -0.906  -3.503  0.00  0.00    -0.002 A 
ATOM      7  C5  OXE d   1       3.903  -1.735  -4.331  0.00  0.00    -0.002 A 
ATOM      8  C6  OXE d   1       2.548  -1.468  -4.500  0.00  0.00     0.003 A 
ENDROOT
TORSDOF 0
ENDMDL
