MODEL 1
REMARK minimizedAffinity 12.0606537
REMARK minimizedRMSD -1
REMARK  0 active torsions:
REMARK  status: ('A' for Active; 'I' for Inactive)
ROOT
ATOM      1  C2' OXE d   1       2.345   1.517   1.848  0.00  0.00     0.078 C 
ATOM      2  C1' OXE d   1       1.237  -0.952   1.101  0.00  0.00     0.078 C 
ATOM      3  C1  OXE d   1       0.316   0.079   1.703  0.00  0.00    -0.078 A 
ATOM      4  C2  OXE d   1       0.875   1.267   2.109  0.00  0.00    -0.078 A 
ATOM      5  C3  OXE d   1       0.060   2.273   2.620  0.00  0.00     0.003 A 
ATOM      6  C4  OXE d   1      -1.296   2.030   2.867  0.00  0.00    -0.002 A 
ATOM      7  C5  OXE d   1      -1.878   0.813   2.498  0.00  0.00    -0.002 A 
ATOM      8  C6  OXE d   1      -1.097  -0.156   1.877  0.00  0.00     0.003 A 
ENDROOT
TORSDOF 0
ENDMDL
