MODEL 1
REMARK minimizedAffinity 4.52011728
REMARK minimizedRMSD -1
REMARK  0 active torsions:
REMARK  status: ('A' for Active; 'I' for Inactive)
ROOT
ATOM      1  C2' OXE d   1      -0.417   1.683   3.426  0.00  0.00     0.078 C 
ATOM      2  C1' OXE d   1      -2.151   0.216   1.776  0.00  0.00     0.078 C 
ATOM      3  C1  OXE d   1      -0.667   0.025   1.584  0.00  0.00    -0.078 A 
ATOM      4  C2  OXE d   1       0.174   0.782   2.363  0.00  0.00    -0.078 A 
ATOM      5  C3  OXE d   1       1.551   0.605   2.264  0.00  0.00     0.003 A 
ATOM      6  C4  OXE d   1       2.090  -0.223   1.272  0.00  0.00    -0.002 A 
ATOM      7  C5  OXE d   1       1.251  -0.973   0.441  0.00  0.00    -0.002 A 
ATOM      8  C6  OXE d   1      -0.126  -0.893   0.612  0.00  0.00     0.003 A 
ENDROOT
TORSDOF 0
ENDMDL
