MODEL 1
REMARK minimizedAffinity 3.0608027
REMARK minimizedRMSD -1
REMARK  0 active torsions:
REMARK  status: ('A' for Active; 'I' for Inactive)
ROOT
ATOM      1  C2' OXE d   1       1.966  -0.602  -1.121  0.00  0.00     0.078 C 
ATOM      2  C1' OXE d   1       3.570   1.221  -2.529  0.00  0.00     0.078 C 
ATOM      3  C1  OXE d   1       2.306   0.736  -3.194  0.00  0.00    -0.078 A 
ATOM      4  C2  OXE d   1       1.551  -0.192  -2.517  0.00  0.00    -0.078 A 
ATOM      5  C3  OXE d   1       0.348  -0.631  -3.062  0.00  0.00     0.003 A 
ATOM      6  C4  OXE d   1      -0.023  -0.254  -4.359  0.00  0.00    -0.002 A 
ATOM      7  C5  OXE d   1       0.752   0.660  -5.081  0.00  0.00    -0.002 A 
ATOM      8  C6  OXE d   1       1.894   1.196  -4.498  0.00  0.00     0.003 A 
ENDROOT
TORSDOF 0
ENDMDL
