MODEL 1
REMARK minimizedAffinity 7.19334173
REMARK minimizedRMSD -1
REMARK  0 active torsions:
REMARK  status: ('A' for Active; 'I' for Inactive)
ROOT
ATOM      1  C2' OXE d   1       1.826  -1.278  -0.622  0.00  0.00     0.078 C 
ATOM      2  C1' OXE d   1      -0.282  -2.228  -2.213  0.00  0.00     0.078 C 
ATOM      3  C1  OXE d   1       0.578  -1.122  -2.772  0.00  0.00    -0.078 A 
ATOM      4  C2  OXE d   1       1.578  -0.632  -1.967  0.00  0.00    -0.078 A 
ATOM      5  C3  OXE d   1       2.436   0.351  -2.455  0.00  0.00     0.003 A 
ATOM      6  C4  OXE d   1       2.193   0.951  -3.696  0.00  0.00    -0.002 A 
ATOM      7  C5  OXE d   1       1.155   0.493  -4.515  0.00  0.00    -0.002 A 
ATOM      8  C6  OXE d   1       0.367  -0.569  -4.087  0.00  0.00     0.003 A 
ENDROOT
TORSDOF 0
ENDMDL
