MODEL 1
REMARK minimizedAffinity -4.48062801
REMARK minimizedRMSD -1
REMARK  0 active torsions:
REMARK  status: ('A' for Active; 'I' for Inactive)
ROOT
ATOM      1  C   UNL d   1      -1.565   0.112  -0.405  0.00  0.00     0.078 C 
ATOM      2  C1  UNL d   1      -0.117   0.363  -0.108  0.00  0.00    -0.077 A 
ATOM      3  C2  UNL d   1       0.646  -0.572   0.602  0.00  0.00    -0.001 A 
ATOM      4  C3  UNL d   1       1.991  -0.320   0.879  0.00  0.00     0.003 A 
ATOM      5  C4  UNL d   1       2.583   0.867   0.452  0.00  0.00    -0.005 A 
ATOM      6  C5  UNL d   1       1.831   1.804  -0.252  0.00  0.00     0.003 A 
ATOM      7  C6  UNL d   1       0.486   1.554  -0.531  0.00  0.00    -0.001 A 
ENDROOT
TORSDOF 0
ENDMDL
