MODEL 1
REMARK minimizedAffinity -5.04434347
REMARK minimizedRMSD -1
REMARK  0 active torsions:
REMARK  status: ('A' for Active; 'I' for Inactive)
ROOT
ATOM      1  C   UNL d   1      -0.849  -0.009  -0.037  0.00  0.00     0.078 C 
ATOM      2  C1  UNL d   1       0.296  -0.472   0.813  0.00  0.00    -0.077 A 
ATOM      3  C2  UNL d   1       0.217  -1.666   1.541  0.00  0.00    -0.001 A 
ATOM      4  C3  UNL d   1       1.286  -2.080   2.337  0.00  0.00     0.003 A 
ATOM      5  C4  UNL d   1       2.442  -1.305   2.413  0.00  0.00    -0.005 A 
ATOM      6  C5  UNL d   1       2.529  -0.115   1.694  0.00  0.00     0.003 A 
ATOM      7  C6  UNL d   1       1.461   0.300   0.898  0.00  0.00    -0.001 A 
ENDROOT
TORSDOF 0
ENDMDL
