MODEL 1
REMARK minimizedAffinity -5.49974108
REMARK minimizedRMSD -1
REMARK  0 active torsions:
REMARK  status: ('A' for Active; 'I' for Inactive)
ROOT
ATOM      1  C   UNL d   1      -0.749  -0.038  -0.528  0.00  0.00     0.078 C 
ATOM      2  C1  UNL d   1       0.547  -0.501   0.067  0.00  0.00    -0.077 A 
ATOM      3  C2  UNL d   1       0.568  -1.312   1.208  0.00  0.00    -0.001 A 
ATOM      4  C3  UNL d   1       1.782  -1.728   1.757  0.00  0.00     0.003 A 
ATOM      5  C4  UNL d   1       2.985  -1.336   1.172  0.00  0.00    -0.005 A 
ATOM      6  C5  UNL d   1       2.974  -0.528   0.037  0.00  0.00     0.003 A 
ATOM      7  C6  UNL d   1       1.761  -0.111  -0.513  0.00  0.00    -0.001 A 
ENDROOT
TORSDOF 0
ENDMDL
