MODEL 1
REMARK minimizedAffinity -4.34831858
REMARK minimizedRMSD -1
REMARK  0 active torsions:
REMARK  status: ('A' for Active; 'I' for Inactive)
ROOT
ATOM      1  C   UNL d   1      -0.847   0.276  -0.953  0.00  0.00     0.078 C 
ATOM      2  C1  UNL d   1       0.455   0.337  -0.210  0.00  0.00    -0.077 A 
ATOM      3  C2  UNL d   1       1.563   1.000  -0.751  0.00  0.00    -0.001 A 
ATOM      4  C3  UNL d   1       2.771   1.041  -0.053  0.00  0.00     0.003 A 
ATOM      5  C4  UNL d   1       2.882   0.420   1.189  0.00  0.00    -0.005 A 
ATOM      6  C5  UNL d   1       1.785  -0.244   1.735  0.00  0.00     0.003 A 
ATOM      7  C6  UNL d   1       0.577  -0.286   1.038  0.00  0.00    -0.001 A 
ENDROOT
TORSDOF 0
ENDMDL
