MODEL 1
REMARK minimizedAffinity -3.94176793
REMARK minimizedRMSD -1
REMARK  0 active torsions:
REMARK  status: ('A' for Active; 'I' for Inactive)
ROOT
ATOM      1  C   UNL d   1      -1.169  -0.013  -0.714  0.00  0.00     0.078 C 
ATOM      2  C1  UNL d   1       0.054  -0.032   0.154  0.00  0.00    -0.077 A 
ATOM      3  C2  UNL d   1       1.067   0.921  -0.007  0.00  0.00    -0.001 A 
ATOM      4  C3  UNL d   1       2.204   0.886   0.802  0.00  0.00     0.003 A 
ATOM      5  C4  UNL d   1       2.340  -0.102   1.775  0.00  0.00    -0.005 A 
ATOM      6  C5  UNL d   1       1.339  -1.057   1.940  0.00  0.00     0.003 A 
ATOM      7  C6  UNL d   1       0.201  -1.023   1.133  0.00  0.00    -0.001 A 
ENDROOT
TORSDOF 0
ENDMDL
