MODEL 1
REMARK minimizedAffinity -3.99634051
REMARK minimizedRMSD -1
REMARK  0 active torsions:
REMARK  status: ('A' for Active; 'I' for Inactive)
ROOT
ATOM      1  C   UNL d   1      -0.728  -0.071  -0.491  0.00  0.00     0.078 C 
ATOM      2  C1  UNL d   1       0.462  -0.184   0.414  0.00  0.00    -0.077 A 
ATOM      3  C2  UNL d   1       0.593  -1.258   1.303  0.00  0.00    -0.001 A 
ATOM      4  C3  UNL d   1       1.702  -1.345   2.147  0.00  0.00     0.003 A 
ATOM      5  C4  UNL d   1       2.687  -0.361   2.111  0.00  0.00    -0.005 A 
ATOM      6  C5  UNL d   1       2.565   0.713   1.231  0.00  0.00     0.003 A 
ATOM      7  C6  UNL d   1       1.457   0.802   0.387  0.00  0.00    -0.001 A 
ENDROOT
TORSDOF 0
ENDMDL
