MODEL 1
REMARK minimizedAffinity -3.53971481
REMARK minimizedRMSD -1
REMARK  0 active torsions:
REMARK  status: ('A' for Active; 'I' for Inactive)
ROOT
ATOM      1  C   UNL d   1      -1.238   0.257  -0.573  0.00  0.00     0.078 C 
ATOM      2  C1  UNL d   1       0.014   0.079   0.232  0.00  0.00    -0.077 A 
ATOM      3  C2  UNL d   1       1.049   1.021   0.176  0.00  0.00    -0.001 A 
ATOM      4  C3  UNL d   1       2.213   0.837   0.924  0.00  0.00     0.003 A 
ATOM      5  C4  UNL d   1       2.354  -0.289   1.732  0.00  0.00    -0.005 A 
ATOM      6  C5  UNL d   1       1.331  -1.233   1.793  0.00  0.00     0.003 A 
ATOM      7  C6  UNL d   1       0.167  -1.051   1.046  0.00  0.00    -0.001 A 
ENDROOT
TORSDOF 0
ENDMDL
