MODEL 1
REMARK minimizedAffinity -4.54772568
REMARK minimizedRMSD -1
REMARK  0 active torsions:
REMARK  status: ('A' for Active; 'I' for Inactive)
ROOT
ATOM      1  C   UNL d   1       3.072  -0.232   0.994  0.00  0.00     0.078 C 
ATOM      2  C1  UNL d   1       1.686   0.042   0.491  0.00  0.00    -0.077 A 
ATOM      3  C2  UNL d   1       0.612  -0.780   0.853  0.00  0.00    -0.001 A 
ATOM      4  C3  UNL d   1      -0.671  -0.518   0.370  0.00  0.00     0.003 A 
ATOM      5  C4  UNL d   1      -0.892   0.565  -0.478  0.00  0.00    -0.005 A 
ATOM      6  C5  UNL d   1       0.171   1.387  -0.846  0.00  0.00     0.003 A 
ATOM      7  C6  UNL d   1       1.455   1.127  -0.364  0.00  0.00    -0.001 A 
ENDROOT
TORSDOF 0
ENDMDL
