MODEL 1
REMARK minimizedAffinity -3.31621265
REMARK minimizedRMSD -1
REMARK  0 active torsions:
REMARK  status: ('A' for Active; 'I' for Inactive)
ROOT
ATOM      1  C   UNL d   1      -1.557   0.078  -0.500  0.00  0.00     0.078 C 
ATOM      2  C1  UNL d   1      -0.151  -0.009   0.013  0.00  0.00    -0.077 A 
ATOM      3  C2  UNL d   1       0.345  -1.198   0.562  0.00  0.00    -0.001 A 
ATOM      4  C3  UNL d   1       1.653  -1.261   1.045  0.00  0.00     0.003 A 
ATOM      5  C4  UNL d   1       2.476  -0.139   0.984  0.00  0.00    -0.005 A 
ATOM      6  C5  UNL d   1       1.991   1.049   0.441  0.00  0.00     0.003 A 
ATOM      7  C6  UNL d   1       0.684   1.115  -0.042  0.00  0.00    -0.001 A 
ENDROOT
TORSDOF 0
ENDMDL
