MODEL 1
REMARK minimizedAffinity -2.36090589
REMARK minimizedRMSD -1
REMARK  0 active torsions:
REMARK  status: ('A' for Active; 'I' for Inactive)
ROOT
ATOM      1  C   UNL d   1      -1.459   0.760  -0.791  0.00  0.00     0.078 C 
ATOM      2  C1  UNL d   1      -0.099   0.866  -0.168  0.00  0.00    -0.077 A 
ATOM      3  C2  UNL d   1       1.052   0.521  -0.887  0.00  0.00    -0.001 A 
ATOM      4  C3  UNL d   1       2.311   0.615  -0.291  0.00  0.00     0.003 A 
ATOM      5  C4  UNL d   1       2.430   1.055   1.026  0.00  0.00    -0.005 A 
ATOM      6  C5  UNL d   1       1.291   1.399   1.749  0.00  0.00     0.003 A 
ATOM      7  C6  UNL d   1       0.031   1.305   1.156  0.00  0.00    -0.001 A 
ENDROOT
TORSDOF 0
ENDMDL
