MODEL 1
REMARK minimizedAffinity 9.72275734
REMARK minimizedRMSD -1
REMARK  1 active torsions:
REMARK  status: ('A' for Active; 'I' for Inactive)
REMARK    1  A    between atoms: C1_2  and  C2_3 
ROOT
ATOM      1  C2  UNL d   1      -3.683   2.333   2.626  0.00  0.00    -0.081 A 
ATOM      2  C3  UNL d   1      -4.186   1.026   2.605  0.00  0.00     0.006 A 
ATOM      3  C4  UNL d   1      -3.358  -0.047   2.268  0.00  0.00     0.002 A 
ATOM      4  C5  UNL d   1      -2.011   0.168   1.953  0.00  0.00    -0.080 A 
ATOM      5  C6  UNL d   1      -1.104  -0.979   1.618  0.00  0.00     0.076 C 
ATOM      6  C7  UNL d   1      -1.513   1.475   1.956  0.00  0.00     0.002 A 
ATOM      7  C8  UNL d   1      -2.341   2.548   2.293  0.00  0.00     0.006 A 
ENDROOT
BRANCH   1   8
ATOM      8  C1  UNL d   1      -4.557   3.484   3.052  0.00  0.00     0.054 C 
ATOM      9  C   UNL d   1      -5.998   3.039   3.254  0.00  0.00     0.018 C 
ENDBRANCH   1   8
TORSDOF 1
ENDMDL
