MODEL 1
REMARK minimizedAffinity 9.47890568
REMARK minimizedRMSD -1
REMARK  1 active torsions:
REMARK  status: ('A' for Active; 'I' for Inactive)
REMARK    1  A    between atoms: C1_2  and  C2_3 
ROOT
ATOM      1  C2  UNL d   1       4.248   4.536  -4.700  0.00  0.00    -0.081 A 
ATOM      2  C3  UNL d   1       3.741   5.442  -3.761  0.00  0.00     0.006 A 
ATOM      3  C4  UNL d   1       2.411   5.863  -3.829  0.00  0.00     0.002 A 
ATOM      4  C5  UNL d   1       1.564   5.379  -4.832  0.00  0.00    -0.080 A 
ATOM      5  C6  UNL d   1       0.126   5.800  -4.899  0.00  0.00     0.076 C 
ATOM      6  C7  UNL d   1       2.075   4.487  -5.781  0.00  0.00     0.002 A 
ATOM      7  C8  UNL d   1       3.405   4.066  -5.713  0.00  0.00     0.006 A 
ENDROOT
BRANCH   1   8
ATOM      8  C1  UNL d   1       5.664   4.030  -4.590  0.00  0.00     0.054 C 
ATOM      9  C   UNL d   1       5.975   3.016  -5.682  0.00  0.00     0.018 C 
ENDBRANCH   1   8
TORSDOF 1
ENDMDL
