MODEL 1
REMARK minimizedAffinity 6.08321905
REMARK minimizedRMSD -1
REMARK  1 active torsions:
REMARK  status: ('A' for Active; 'I' for Inactive)
REMARK    1  A    between atoms: C1_2  and  C2_3 
ROOT
ATOM      1  C2  UNL d   1      -3.974   0.043   1.662  0.00  0.00    -0.081 A 
ATOM      2  C3  UNL d   1      -3.778   1.371   2.059  0.00  0.00     0.006 A 
ATOM      3  C4  UNL d   1      -2.500   1.832   2.385  0.00  0.00     0.002 A 
ATOM      4  C5  UNL d   1      -1.397   0.974   2.313  0.00  0.00    -0.080 A 
ATOM      5  C6  UNL d   1      -0.016   1.464   2.631  0.00  0.00     0.076 C 
ATOM      6  C7  UNL d   1      -1.596  -0.357   1.933  0.00  0.00     0.002 A 
ATOM      7  C8  UNL d   1      -2.873  -0.818   1.608  0.00  0.00     0.006 A 
ENDROOT
BRANCH   1   8
ATOM      8  C1  UNL d   1      -5.341  -0.439   1.248  0.00  0.00     0.054 C 
ATOM      9  C   UNL d   1      -5.376  -1.955   1.115  0.00  0.00     0.018 C 
ENDBRANCH   1   8
TORSDOF 1
ENDMDL
