MODEL 1
REMARK minimizedAffinity 11.0481672
REMARK minimizedRMSD -1
REMARK  1 active torsions:
REMARK  status: ('A' for Active; 'I' for Inactive)
REMARK    1  A    between atoms: C1_2  and  C2_3 
ROOT
ATOM      1  C2  UNL d   1      -0.331  -1.939  -5.197  0.00  0.00    -0.081 A 
ATOM      2  C3  UNL d   1      -0.375  -0.597  -5.594  0.00  0.00     0.006 A 
ATOM      3  C4  UNL d   1       0.333   0.375  -4.883  0.00  0.00     0.002 A 
ATOM      4  C5  UNL d   1       1.101   0.021  -3.769  0.00  0.00    -0.080 A 
ATOM      5  C6  UNL d   1       1.889   1.051  -3.015  0.00  0.00     0.076 C 
ATOM      6  C7  UNL d   1       1.130  -1.317  -3.362  0.00  0.00     0.002 A 
ATOM      7  C8  UNL d   1       0.423  -2.289  -4.071  0.00  0.00     0.006 A 
ENDROOT
BRANCH   1   8
ATOM      8  C1  UNL d   1      -1.041  -3.000  -5.999  0.00  0.00     0.054 C 
ATOM      9  C   UNL d   1      -2.547  -2.779  -5.999  0.00  0.00     0.018 C 
ENDBRANCH   1   8
TORSDOF 1
ENDMDL
