MODEL 1
REMARK minimizedAffinity 5.13285685
REMARK minimizedRMSD -1
REMARK  1 active torsions:
REMARK  status: ('A' for Active; 'I' for Inactive)
REMARK    1  A    between atoms: C1_2  and  C2_3 
ROOT
ATOM      1  C2  UNL d   1      -5.740  -2.064  -1.892  0.00  0.00    -0.081 A 
ATOM      2  C3  UNL d   1      -5.335  -1.144  -2.867  0.00  0.00     0.006 A 
ATOM      3  C4  UNL d   1      -5.171  -1.546  -4.195  0.00  0.00     0.002 A 
ATOM      4  C5  UNL d   1      -5.417  -2.871  -4.571  0.00  0.00    -0.080 A 
ATOM      5  C6  UNL d   1      -5.274  -3.309  -5.999  0.00  0.00     0.076 C 
ATOM      6  C7  UNL d   1      -5.805  -3.794  -3.594  0.00  0.00     0.002 A 
ATOM      7  C8  UNL d   1      -5.969  -3.393  -2.266  0.00  0.00     0.006 A 
ENDROOT
BRANCH   1   8
ATOM      8  C1  UNL d   1      -5.980  -1.619  -0.472  0.00  0.00     0.054 C 
ATOM      9  C   UNL d   1      -5.910  -2.792   0.495  0.00  0.00     0.018 C 
ENDBRANCH   1   8
TORSDOF 1
ENDMDL
