MODEL 1
REMARK minimizedAffinity 8.76758194
REMARK minimizedRMSD -1
REMARK  1 active torsions:
REMARK  status: ('A' for Active; 'I' for Inactive)
REMARK    1  A    between atoms: C1_2  and  C2_3 
ROOT
ATOM      1  C2  UNL d   1       0.495  -0.815  -5.107  0.00  0.00    -0.081 A 
ATOM      2  C3  UNL d   1       0.062   0.367  -5.720  0.00  0.00     0.006 A 
ATOM      3  C4  UNL d   1       0.968   1.393  -5.999  0.00  0.00     0.002 A 
ATOM      4  C5  UNL d   1       2.322   1.251  -5.678  0.00  0.00    -0.080 A 
ATOM      5  C6  UNL d   1       3.310   2.332  -6.000  0.00  0.00     0.076 C 
ATOM      6  C7  UNL d   1       2.752   0.077  -5.049  0.00  0.00     0.002 A 
ATOM      7  C8  UNL d   1       1.846  -0.948  -4.769  0.00  0.00     0.006 A 
ENDROOT
BRANCH   1   8
ATOM      8  C1  UNL d   1      -0.468  -1.949  -4.863  0.00  0.00     0.054 C 
ATOM      9  C   UNL d   1      -0.430  -2.961  -5.999  0.00  0.00     0.018 C 
ENDBRANCH   1   8
TORSDOF 1
ENDMDL
