MODEL 1
REMARK minimizedAffinity 15.357935
REMARK minimizedRMSD -1
REMARK  1 active torsions:
REMARK  status: ('A' for Active; 'I' for Inactive)
REMARK    1  A    between atoms: C1_2  and  C2_3 
ROOT
ATOM      1  C2  UNL d   1      -2.800  -0.289   1.087  0.00  0.00    -0.081 A 
ATOM      2  C3  UNL d   1      -2.107  -1.501   1.196  0.00  0.00     0.006 A 
ATOM      3  C4  UNL d   1      -2.709  -2.699   0.802  0.00  0.00     0.002 A 
ATOM      4  C5  UNL d   1      -4.009  -2.704   0.286  0.00  0.00    -0.080 A 
ATOM      5  C6  UNL d   1      -4.656  -3.978  -0.168  0.00  0.00     0.076 C 
ATOM      6  C7  UNL d   1      -4.708  -1.495   0.194  0.00  0.00     0.002 A 
ATOM      7  C8  UNL d   1      -4.107  -0.298   0.588  0.00  0.00     0.006 A 
ENDROOT
BRANCH   1   8
ATOM      8  C1  UNL d   1      -2.131   1.012   1.450  0.00  0.00     0.054 C 
ATOM      9  C   UNL d   1      -3.071   2.192   1.252  0.00  0.00     0.018 C 
ENDBRANCH   1   8
TORSDOF 1
ENDMDL
