MODEL 1
REMARK minimizedAffinity 12.2139864
REMARK minimizedRMSD -1
REMARK  1 active torsions:
REMARK  status: ('A' for Active; 'I' for Inactive)
REMARK    1  A    between atoms: C1_2  and  C2_3 
ROOT
ATOM      1  C2  UNL d   1       3.794   2.532  -4.833  0.00  0.00    -0.081 A 
ATOM      2  C3  UNL d   1       3.671   2.128  -3.498  0.00  0.00     0.006 A 
ATOM      3  C4  UNL d   1       3.016   0.937  -3.176  0.00  0.00     0.002 A 
ATOM      4  C5  UNL d   1       2.479   0.127  -4.183  0.00  0.00    -0.080 A 
ATOM      5  C6  UNL d   1       1.800  -1.169  -3.853  0.00  0.00     0.076 C 
ATOM      6  C7  UNL d   1       2.586   0.540  -5.515  0.00  0.00     0.002 A 
ATOM      7  C8  UNL d   1       3.241   1.731  -5.838  0.00  0.00     0.006 A 
ENDROOT
BRANCH   1   8
ATOM      8  C1  UNL d   1       4.556   3.783  -5.188  0.00  0.00     0.054 C 
ATOM      9  C   UNL d   1       5.998   3.466  -5.557  0.00  0.00     0.018 C 
ENDBRANCH   1   8
TORSDOF 1
ENDMDL
