MODEL 1
REMARK minimizedAffinity 10.5501833
REMARK minimizedRMSD -1
REMARK  1 active torsions:
REMARK  status: ('A' for Active; 'I' for Inactive)
REMARK    1  A    between atoms: C1_2  and  C2_3 
ROOT
ATOM      1  C2  UNL d   1      -2.204   2.572   1.747  0.00  0.00    -0.081 A 
ATOM      2  C3  UNL d   1      -1.714   1.267   1.617  0.00  0.00     0.006 A 
ATOM      3  C4  UNL d   1      -0.490   0.910   2.187  0.00  0.00     0.002 A 
ATOM      4  C5  UNL d   1       0.261   1.849   2.902  0.00  0.00    -0.080 A 
ATOM      5  C6  UNL d   1       1.563   1.471   3.545  0.00  0.00     0.076 C 
ATOM      6  C7  UNL d   1      -0.219   3.158   3.016  0.00  0.00     0.002 A 
ATOM      7  C8  UNL d   1      -1.443   3.516   2.446  0.00  0.00     0.006 A 
ENDROOT
BRANCH   1   8
ATOM      8  C1  UNL d   1      -3.554   2.944   1.189  0.00  0.00     0.054 C 
ATOM      9  C   UNL d   1      -4.325   3.834   2.152  0.00  0.00     0.018 C 
ENDBRANCH   1   8
TORSDOF 1
ENDMDL
