MODEL 1
REMARK minimizedAffinity 10.8507481
REMARK minimizedRMSD -1
REMARK  0 active torsions:
REMARK  status: ('A' for Active; 'I' for Inactive)
ROOT
ATOM      1  C   UNL d   1      -3.075   1.318   3.615  0.00  0.00     0.124 A 
ATOM      2  C1  UNL d   1      -2.197   1.721   4.611  0.00  0.00     0.062 A 
ATOM      3  C2  UNL d   1      -0.856   1.947   4.313  0.00  0.00     0.162 A 
ATOM      4  C3  UNL d   1      -0.386   1.772   3.011  0.00  0.00    -0.034 A 
ATOM      5  C4  UNL d   1      -1.275   1.365   2.015  0.00  0.00     0.162 A 
ATOM      6  C5  UNL d   1      -2.614   1.141   2.319  0.00  0.00     0.062 A 
ATOM      7  F   UNL d   1      -3.462   0.752   1.355  0.00  0.00    -0.097 F 
ATOM      8  F1  UNL d   1      -0.857   1.187   0.753  0.00  0.00    -0.096 F 
ATOM      9  I   UNL d   1       1.618   2.108   2.561  0.00  0.00    -0.060 I 
ATOM     10  F2  UNL d   1      -0.029   2.336   5.295  0.00  0.00    -0.096 F 
ATOM     11  F3  UNL d   1      -2.640   1.893   5.865  0.00  0.00    -0.097 F 
ATOM     12  F4  UNL d   1      -4.365   1.101   3.906  0.00  0.00    -0.092 F 
ENDROOT
TORSDOF 0
ENDMDL
