MODEL 1
REMARK minimizedAffinity 21.1531391
REMARK minimizedRMSD -1
REMARK  0 active torsions:
REMARK  status: ('A' for Active; 'I' for Inactive)
ROOT
ATOM      1  C   UNL d   1      -0.259   2.884  -4.458  0.00  0.00     0.124 A 
ATOM      2  C1  UNL d   1       0.970   2.539  -3.914  0.00  0.00     0.062 A 
ATOM      3  C2  UNL d   1       1.500   3.276  -2.858  0.00  0.00     0.162 A 
ATOM      4  C3  UNL d   1       0.800   4.365  -2.339  0.00  0.00    -0.034 A 
ATOM      5  C4  UNL d   1      -0.435   4.707  -2.893  0.00  0.00     0.162 A 
ATOM      6  C5  UNL d   1      -0.960   3.967  -3.948  0.00  0.00     0.062 A 
ATOM      7  F   UNL d   1      -2.148   4.302  -4.473  0.00  0.00    -0.097 F 
ATOM      8  F1  UNL d   1      -1.135   5.748  -2.419  0.00  0.00    -0.096 F 
ATOM      9  I   UNL d   1       1.588   5.470  -0.761  0.00  0.00    -0.060 I 
ATOM     10  F2  UNL d   1       2.689   2.920  -2.351  0.00  0.00    -0.096 F 
ATOM     11  F3  UNL d   1       1.650   1.494  -4.406  0.00  0.00    -0.097 F 
ATOM     12  F4  UNL d   1      -0.766   2.174  -5.475  0.00  0.00    -0.092 F 
ENDROOT
TORSDOF 0
ENDMDL
