MODEL 1
REMARK minimizedAffinity 21.7648506
REMARK minimizedRMSD -1
REMARK  0 active torsions:
REMARK  status: ('A' for Active; 'I' for Inactive)
ROOT
ATOM      1  C   UNL d   1       2.086   0.040  -1.527  0.00  0.00     0.124 A 
ATOM      2  C1  UNL d   1       1.420  -0.836  -0.681  0.00  0.00     0.062 A 
ATOM      3  C2  UNL d   1       1.110  -0.452   0.621  0.00  0.00     0.162 A 
ATOM      4  C3  UNL d   1       1.464   0.815   1.084  0.00  0.00    -0.034 A 
ATOM      5  C4  UNL d   1       2.134   1.690   0.227  0.00  0.00     0.162 A 
ATOM      6  C5  UNL d   1       2.442   1.301  -1.072  0.00  0.00     0.062 A 
ATOM      7  F   UNL d   1       3.086   2.149  -1.888  0.00  0.00    -0.097 F 
ATOM      8  F1  UNL d   1       2.489   2.916   0.640  0.00  0.00    -0.096 F 
ATOM      9  I   UNL d   1       1.001   1.393   3.029  0.00  0.00    -0.060 I 
ATOM     10  F2  UNL d   1       0.466  -1.319   1.416  0.00  0.00    -0.096 F 
ATOM     11  F3  UNL d   1       1.076  -2.056  -1.117  0.00  0.00    -0.097 F 
ATOM     12  F4  UNL d   1       2.385  -0.333  -2.778  0.00  0.00    -0.092 F 
ENDROOT
TORSDOF 0
ENDMDL
