MODEL 1
REMARK minimizedAffinity 21.9318275
REMARK minimizedRMSD -1
REMARK  0 active torsions:
REMARK  status: ('A' for Active; 'I' for Inactive)
ROOT
ATOM      1  C   UNL d   1       2.490   1.132   0.937  0.00  0.00     0.124 A 
ATOM      2  C1  UNL d   1       1.123   1.125   1.178  0.00  0.00     0.062 A 
ATOM      3  C2  UNL d   1       0.240   0.709   0.186  0.00  0.00     0.162 A 
ATOM      4  C3  UNL d   1       0.721   0.296  -1.057  0.00  0.00    -0.034 A 
ATOM      5  C4  UNL d   1       2.097   0.307  -1.292  0.00  0.00     0.162 A 
ATOM      6  C5  UNL d   1       2.976   0.724  -0.298  0.00  0.00     0.062 A 
ATOM      7  F   UNL d   1       4.296   0.730  -0.533  0.00  0.00    -0.097 F 
ATOM      8  F1  UNL d   1       2.593  -0.084  -2.475  0.00  0.00    -0.096 F 
ATOM      9  I   UNL d   1      -0.597  -0.327  -2.542  0.00  0.00    -0.060 I 
ATOM     10  F2  UNL d   1      -1.076   0.712   0.447  0.00  0.00    -0.096 F 
ATOM     11  F3  UNL d   1       0.652   1.520   2.369  0.00  0.00    -0.097 F 
ATOM     12  F4  UNL d   1       3.338   1.534   1.892  0.00  0.00    -0.092 F 
ENDROOT
TORSDOF 0
ENDMDL
