MODEL 1
REMARK minimizedAffinity 29.18964
REMARK minimizedRMSD -1
REMARK  0 active torsions:
REMARK  status: ('A' for Active; 'I' for Inactive)
ROOT
ATOM      1  C   UNL d   1      -2.556  -2.382  -3.727  0.00  0.00     0.124 A 
ATOM      2  C1  UNL d   1      -2.177  -1.072  -3.984  0.00  0.00     0.062 A 
ATOM      3  C2  UNL d   1      -0.982  -0.576  -3.470  0.00  0.00     0.162 A 
ATOM      4  C3  UNL d   1      -0.157  -1.391  -2.696  0.00  0.00    -0.034 A 
ATOM      5  C4  UNL d   1      -0.545  -2.708  -2.442  0.00  0.00     0.162 A 
ATOM      6  C5  UNL d   1      -1.741  -3.199  -2.957  0.00  0.00     0.062 A 
ATOM      7  F   UNL d   1      -2.106  -4.465  -2.708  0.00  0.00    -0.097 F 
ATOM      8  F1  UNL d   1       0.224  -3.519  -1.701  0.00  0.00    -0.096 F 
ATOM      9  I   UNL d   1       1.631  -0.654  -1.926  0.00  0.00    -0.060 I 
ATOM     10  F2  UNL d   1      -0.640   0.694  -3.734  0.00  0.00    -0.096 F 
ATOM     11  F3  UNL d   1      -2.963  -0.281  -4.727  0.00  0.00    -0.097 F 
ATOM     12  F4  UNL d   1      -3.707  -2.856  -4.222  0.00  0.00    -0.092 F 
ENDROOT
TORSDOF 0
ENDMDL
