MODEL 1
REMARK minimizedAffinity 42.584938
REMARK minimizedRMSD -1
REMARK  0 active torsions:
REMARK  status: ('A' for Active; 'I' for Inactive)
ROOT
ATOM      1  C   UNL d   1       2.638  -0.275  -0.333  0.00  0.00     0.124 A 
ATOM      2  C1  UNL d   1       1.611  -0.900   0.360  0.00  0.00     0.062 A 
ATOM      3  C2  UNL d   1       1.101  -0.329   1.522  0.00  0.00     0.162 A 
ATOM      4  C3  UNL d   1       1.617   0.876   1.999  0.00  0.00    -0.034 A 
ATOM      5  C4  UNL d   1       2.651   1.499   1.297  0.00  0.00     0.162 A 
ATOM      6  C5  UNL d   1       3.157   0.924   0.136  0.00  0.00     0.062 A 
ATOM      7  F   UNL d   1       4.150   1.529  -0.532  0.00  0.00    -0.097 F 
ATOM      8  F1  UNL d   1       3.171   2.658   1.728  0.00  0.00    -0.096 F 
ATOM      9  I   UNL d   1       0.858   1.734   3.736  0.00  0.00    -0.060 I 
ATOM     10  F2  UNL d   1       0.108  -0.955   2.171  0.00  0.00    -0.096 F 
ATOM     11  F3  UNL d   1       1.108  -2.059  -0.091  0.00  0.00    -0.097 F 
ATOM     12  F4  UNL d   1       3.128  -0.827  -1.450  0.00  0.00    -0.092 F 
ENDROOT
TORSDOF 0
ENDMDL
