MODEL 1
REMARK minimizedAffinity 27.7295074
REMARK minimizedRMSD -1
REMARK  0 active torsions:
REMARK  status: ('A' for Active; 'I' for Inactive)
ROOT
ATOM      1  C   UNL d   1      -1.104   2.189   2.808  0.00  0.00     0.124 A 
ATOM      2  C1  UNL d   1      -0.354   1.054   3.082  0.00  0.00     0.062 A 
ATOM      3  C2  UNL d   1      -0.971  -0.088   3.585  0.00  0.00     0.162 A 
ATOM      4  C3  UNL d   1      -2.346  -0.100   3.817  0.00  0.00    -0.034 A 
ATOM      5  C4  UNL d   1      -3.094   1.046   3.540  0.00  0.00     0.162 A 
ATOM      6  C5  UNL d   1      -2.472   2.185   3.037  0.00  0.00     0.062 A 
ATOM      7  F   UNL d   1      -3.198   3.281   2.774  0.00  0.00    -0.097 F 
ATOM      8  F1  UNL d   1      -4.418   1.069   3.752  0.00  0.00    -0.096 F 
ATOM      9  I   UNL d   1      -3.273  -1.805   4.570  0.00  0.00    -0.060 I 
ATOM     10  F2  UNL d   1      -0.222  -1.171   3.840  0.00  0.00    -0.096 F 
ATOM     11  F3  UNL d   1       0.969   1.056   2.862  0.00  0.00    -0.097 F 
ATOM     12  F4  UNL d   1      -0.507   3.287   2.325  0.00  0.00    -0.092 F 
ENDROOT
TORSDOF 0
ENDMDL
