MODEL 1
REMARK minimizedAffinity 33.000309
REMARK minimizedRMSD -1
REMARK  0 active torsions:
REMARK  status: ('A' for Active; 'I' for Inactive)
ROOT
ATOM      1  C   UNL d   1       2.353   1.112   1.435  0.00  0.00     0.124 A 
ATOM      2  C1  UNL d   1       1.101   0.622   1.780  0.00  0.00     0.062 A 
ATOM      3  C2  UNL d   1       0.631   0.760   3.083  0.00  0.00     0.162 A 
ATOM      4  C3  UNL d   1       1.412   1.393   4.050  0.00  0.00    -0.034 A 
ATOM      5  C4  UNL d   1       2.670   1.882   3.695  0.00  0.00     0.162 A 
ATOM      6  C5  UNL d   1       3.136   1.741   2.392  0.00  0.00     0.062 A 
ATOM      7  F   UNL d   1       4.346   2.216   2.060  0.00  0.00    -0.097 F 
ATOM      8  F1  UNL d   1       3.447   2.495   4.600  0.00  0.00    -0.096 F 
ATOM      9  I   UNL d   1       0.712   1.601   5.999  0.00  0.00    -0.060 I 
ATOM     10  F2  UNL d   1      -0.583   0.277   3.389  0.00  0.00    -0.096 F 
ATOM     11  F3  UNL d   1       0.343   0.013   0.858  0.00  0.00    -0.097 F 
ATOM     12  F4  UNL d   1       2.804   0.977   0.181  0.00  0.00    -0.092 F 
ENDROOT
TORSDOF 0
ENDMDL
