MODEL 1
REMARK minimizedAffinity 27.0967083
REMARK minimizedRMSD -1
REMARK  0 active torsions:
REMARK  status: ('A' for Active; 'I' for Inactive)
ROOT
ATOM      1  C   UNL d   1       3.865  -0.178  -0.443  0.00  0.00     0.124 A 
ATOM      2  C1  UNL d   1       2.805  -0.909  -0.960  0.00  0.00     0.062 A 
ATOM      3  C2  UNL d   1       1.970  -0.347  -1.922  0.00  0.00     0.162 A 
ATOM      4  C3  UNL d   1       2.193   0.953  -2.374  0.00  0.00    -0.034 A 
ATOM      5  C4  UNL d   1       3.261   1.683  -1.848  0.00  0.00     0.162 A 
ATOM      6  C5  UNL d   1       4.092   1.117  -0.887  0.00  0.00     0.062 A 
ATOM      7  F   UNL d   1       5.116   1.825  -0.388  0.00  0.00    -0.097 F 
ATOM      8  F1  UNL d   1       3.504   2.936  -2.261  0.00  0.00    -0.096 F 
ATOM      9  I   UNL d   1       0.948   1.797  -3.812  0.00  0.00    -0.060 I 
ATOM     10  F2  UNL d   1       0.953  -1.077  -2.405  0.00  0.00    -0.096 F 
ATOM     11  F3  UNL d   1       2.582  -2.160  -0.532  0.00  0.00    -0.097 F 
ATOM     12  F4  UNL d   1       4.666  -0.721   0.483  0.00  0.00    -0.092 F 
ENDROOT
TORSDOF 0
ENDMDL
