MODEL 1
REMARK minimizedAffinity 22.6048946
REMARK minimizedRMSD -1
REMARK  0 active torsions:
REMARK  status: ('A' for Active; 'I' for Inactive)
ROOT
ATOM      1  C   UNL d   1      -1.756   2.377  -4.069  0.00  0.00     0.124 A 
ATOM      2  C1  UNL d   1      -2.887   2.005  -4.782  0.00  0.00     0.062 A 
ATOM      3  C2  UNL d   1      -3.755   2.976  -5.274  0.00  0.00     0.162 A 
ATOM      4  C3  UNL d   1      -3.495   4.329  -5.054  0.00  0.00    -0.034 A 
ATOM      5  C4  UNL d   1      -2.356   4.695  -4.335  0.00  0.00     0.162 A 
ATOM      6  C5  UNL d   1      -1.492   3.721  -3.846  0.00  0.00     0.062 A 
ATOM      7  F   UNL d   1      -0.399   4.082  -3.157  0.00  0.00    -0.097 F 
ATOM      8  F1  UNL d   1      -2.076   5.987  -4.105  0.00  0.00    -0.096 F 
ATOM      9  I   UNL d   1      -4.791   5.783  -5.787  0.00  0.00    -0.060 I 
ATOM     10  F2  UNL d   1      -4.841   2.588  -5.960  0.00  0.00    -0.096 F 
ATOM     11  F3  UNL d   1      -3.145   0.708  -4.998  0.00  0.00    -0.097 F 
ATOM     12  F4  UNL d   1      -0.923   1.441  -3.596  0.00  0.00    -0.092 F 
ENDROOT
TORSDOF 0
ENDMDL
