MODEL 1
REMARK minimizedAffinity 42.4768448
REMARK minimizedRMSD -1
REMARK  0 active torsions:
REMARK  status: ('A' for Active; 'I' for Inactive)
ROOT
ATOM      1  C   UNL d   1      -1.004   1.163   2.658  0.00  0.00     0.124 A 
ATOM      2  C1  UNL d   1      -2.311   0.776   2.394  0.00  0.00     0.062 A 
ATOM      3  C2  UNL d   1      -3.306   0.975   3.346  0.00  0.00     0.162 A 
ATOM      4  C3  UNL d   1      -2.998   1.564   4.573  0.00  0.00    -0.034 A 
ATOM      5  C4  UNL d   1      -1.682   1.950   4.831  0.00  0.00     0.162 A 
ATOM      6  C5  UNL d   1      -0.691   1.749   3.876  0.00  0.00     0.062 A 
ATOM      7  F   UNL d   1       0.571   2.123   4.133  0.00  0.00    -0.097 F 
ATOM      8  F1  UNL d   1      -1.352   2.519   6.000  0.00  0.00    -0.096 F 
ATOM      9  I   UNL d   1      -4.483   1.863   6.000  0.00  0.00    -0.060 I 
ATOM     10  F2  UNL d   1      -4.560   0.591   3.064  0.00  0.00    -0.096 F 
ATOM     11  F3  UNL d   1      -2.615   0.208   1.218  0.00  0.00    -0.097 F 
ATOM     12  F4  UNL d   1      -0.048   0.970   1.740  0.00  0.00    -0.092 F 
ENDROOT
TORSDOF 0
ENDMDL
