MODEL 1
REMARK minimizedAffinity 20.9015064
REMARK minimizedRMSD -1
REMARK  0 active torsions:
REMARK  status: ('A' for Active; 'I' for Inactive)
ROOT
ATOM      1  C   UNL d   1       3.957  -0.432  -0.432  0.00  0.00     0.124 A 
ATOM      2  C1  UNL d   1       4.009  -1.796  -0.180  0.00  0.00     0.062 A 
ATOM      3  C2  UNL d   1       2.965  -2.623  -0.586  0.00  0.00     0.162 A 
ATOM      4  C3  UNL d   1       1.861  -2.088  -1.250  0.00  0.00    -0.034 A 
ATOM      5  C4  UNL d   1       1.816  -0.716  -1.500  0.00  0.00     0.162 A 
ATOM      6  C5  UNL d   1       2.862   0.107  -1.092  0.00  0.00     0.062 A 
ATOM      7  F   UNL d   1       2.810   1.424  -1.337  0.00  0.00    -0.097 F 
ATOM      8  F1  UNL d   1       0.770  -0.169  -2.136  0.00  0.00    -0.096 F 
ATOM      9  I   UNL d   1       0.299  -3.321  -1.859  0.00  0.00    -0.060 I 
ATOM     10  F2  UNL d   1       3.041  -3.937  -0.328  0.00  0.00    -0.096 F 
ATOM     11  F3  UNL d   1       5.066  -2.319   0.458  0.00  0.00    -0.097 F 
ATOM     12  F4  UNL d   1       4.962   0.361  -0.039  0.00  0.00    -0.092 F 
ENDROOT
TORSDOF 0
ENDMDL
