MODEL 1
REMARK minimizedAffinity 32.4248924
REMARK minimizedRMSD -1
REMARK  0 active torsions:
REMARK  status: ('A' for Active; 'I' for Inactive)
ROOT
ATOM      1  C   UNL d   1      -1.779  -3.696  -2.708  0.00  0.00     0.124 A 
ATOM      2  C1  UNL d   1      -2.095  -2.489  -3.316  0.00  0.00     0.062 A 
ATOM      3  C2  UNL d   1      -3.150  -2.416  -4.221  0.00  0.00     0.162 A 
ATOM      4  C3  UNL d   1      -3.897  -3.554  -4.523  0.00  0.00    -0.034 A 
ATOM      5  C4  UNL d   1      -3.573  -4.765  -3.909  0.00  0.00     0.162 A 
ATOM      6  C5  UNL d   1      -2.518  -4.832  -3.005  0.00  0.00     0.062 A 
ATOM      7  F   UNL d   1      -2.214  -6.000  -2.419  0.00  0.00    -0.097 F 
ATOM      8  F1  UNL d   1      -4.271  -5.878  -4.177  0.00  0.00    -0.096 F 
ATOM      9  I   UNL d   1      -5.475  -3.449  -5.876  0.00  0.00    -0.060 I 
ATOM     10  F2  UNL d   1      -3.432  -1.236  -4.793  0.00  0.00    -0.096 F 
ATOM     11  F3  UNL d   1      -1.382  -1.390  -3.031  0.00  0.00    -0.097 F 
ATOM     12  F4  UNL d   1      -0.763  -3.764  -1.838  0.00  0.00    -0.092 F 
ENDROOT
TORSDOF 0
ENDMDL
