MODEL 1
REMARK minimizedAffinity 28.2394543
REMARK minimizedRMSD -1
REMARK  0 active torsions:
REMARK  status: ('A' for Active; 'I' for Inactive)
ROOT
ATOM      1  C   UNL d   1       0.742   0.875   4.848  0.00  0.00     0.124 A 
ATOM      2  C1  UNL d   1       1.980   1.503   4.846  0.00  0.00     0.062 A 
ATOM      3  C2  UNL d   1       2.542   1.940   3.650  0.00  0.00     0.162 A 
ATOM      4  C3  UNL d   1       1.865   1.753   2.445  0.00  0.00    -0.034 A 
ATOM      5  C4  UNL d   1       0.620   1.120   2.454  0.00  0.00     0.162 A 
ATOM      6  C5  UNL d   1       0.063   0.685   3.652  0.00  0.00     0.062 A 
ATOM      7  F   UNL d   1      -1.133   0.079   3.652  0.00  0.00    -0.097 F 
ATOM      8  F1  UNL d   1      -0.058   0.924   1.314  0.00  0.00    -0.096 F 
ATOM      9  I   UNL d   1       2.701   2.405   0.654  0.00  0.00    -0.060 I 
ATOM     10  F2  UNL d   1       3.739   2.543   3.678  0.00  0.00    -0.096 F 
ATOM     11  F3  UNL d   1       2.638   1.687   5.999  0.00  0.00    -0.097 F 
ATOM     12  F4  UNL d   1       0.205   0.455   6.000  0.00  0.00    -0.092 F 
ENDROOT
TORSDOF 0
ENDMDL
