MODEL 1
REMARK minimizedAffinity 29.5315609
REMARK minimizedRMSD -1
REMARK  0 active torsions:
REMARK  status: ('A' for Active; 'I' for Inactive)
ROOT
ATOM      1  C   UNL d   1       0.390   1.481   3.646  0.00  0.00     0.124 A 
ATOM      2  C1  UNL d   1      -0.309   1.275   2.465  0.00  0.00     0.062 A 
ATOM      3  C2  UNL d   1      -1.701   1.270   2.467  0.00  0.00     0.162 A 
ATOM      4  C3  UNL d   1      -2.404   1.475   3.655  0.00  0.00    -0.034 A 
ATOM      5  C4  UNL d   1      -1.693   1.681   4.839  0.00  0.00     0.162 A 
ATOM      6  C5  UNL d   1      -0.302   1.684   4.832  0.00  0.00     0.062 A 
ATOM      7  F   UNL d   1       0.371   1.884   5.974  0.00  0.00    -0.097 F 
ATOM      8  F1  UNL d   1      -2.337   1.880   5.998  0.00  0.00    -0.096 F 
ATOM      9  I   UNL d   1      -4.485   1.469   3.662  0.00  0.00    -0.060 I 
ATOM     10  F2  UNL d   1      -2.351   1.068   1.311  0.00  0.00    -0.096 F 
ATOM     11  F3  UNL d   1       0.358   1.077   1.319  0.00  0.00    -0.097 F 
ATOM     12  F4  UNL d   1       1.729   1.484   3.642  0.00  0.00    -0.092 F 
ENDROOT
TORSDOF 0
ENDMDL
