MODEL 1
REMARK minimizedAffinity 18.083744
REMARK minimizedRMSD -1
REMARK  0 active torsions:
REMARK  status: ('A' for Active; 'I' for Inactive)
ROOT
ATOM      1  C   UNL d   1      -3.851  -0.958   2.939  0.00  0.00     0.124 A 
ATOM      2  C1  UNL d   1      -2.593  -1.531   2.814  0.00  0.00     0.062 A 
ATOM      3  C2  UNL d   1      -1.453  -0.735   2.869  0.00  0.00     0.162 A 
ATOM      4  C3  UNL d   1      -1.565   0.644   3.051  0.00  0.00    -0.034 A 
ATOM      5  C4  UNL d   1      -2.833   1.213   3.175  0.00  0.00     0.162 A 
ATOM      6  C5  UNL d   1      -3.970   0.413   3.119  0.00  0.00     0.062 A 
ATOM      7  F   UNL d   1      -5.185   0.969   3.240  0.00  0.00    -0.097 F 
ATOM      8  F1  UNL d   1      -2.977   2.535   3.351  0.00  0.00    -0.096 F 
ATOM      9  I   UNL d   1       0.138   1.838   3.134  0.00  0.00    -0.060 I 
ATOM     10  F2  UNL d   1      -0.250  -1.315   2.746  0.00  0.00    -0.096 F 
ATOM     11  F3  UNL d   1      -2.475  -2.855   2.639  0.00  0.00    -0.097 F 
ATOM     12  F4  UNL d   1      -4.947  -1.726   2.885  0.00  0.00    -0.092 F 
ENDROOT
TORSDOF 0
ENDMDL
