MODEL 1
REMARK minimizedAffinity 8.94645977
REMARK minimizedRMSD -1
REMARK  1 active torsions:
REMARK  status: ('A' for Active; 'I' for Inactive)
REMARK    1  A    between atoms: C1_2  and  C2_3 
ROOT
ATOM      1  C2  UNL d   1       4.826   1.125  -0.914  0.00  0.00    -0.081 A 
ATOM      2  C3  UNL d   1       4.952   0.833   0.450  0.00  0.00     0.006 A 
ATOM      3  C4  UNL d   1       4.214  -0.206   1.022  0.00  0.00     0.002 A 
ATOM      4  C5  UNL d   1       3.344  -0.974   0.240  0.00  0.00    -0.080 A 
ATOM      5  C6  UNL d   1       2.569  -2.112   0.836  0.00  0.00     0.076 C 
ATOM      6  C7  UNL d   1       3.206  -0.671  -1.118  0.00  0.00     0.002 A 
ATOM      7  C8  UNL d   1       3.943   0.368  -1.691  0.00  0.00     0.006 A 
ENDROOT
BRANCH   1   8
ATOM      8  C1  UNL d   1       5.669   2.202  -1.548  0.00  0.00     0.054 C 
ATOM      9  C   UNL d   1       5.005   3.566  -1.428  0.00  0.00     0.018 C 
ENDBRANCH   1   8
TORSDOF 1
ENDMDL
