MODEL 1
REMARK minimizedAffinity 18.5315342
REMARK minimizedRMSD -1
REMARK  1 active torsions:
REMARK  status: ('A' for Active; 'I' for Inactive)
REMARK    1  A    between atoms: C1_2  and  C2_3 
ROOT
ATOM      1  C2  UNL d   1      -5.355   2.408   3.221  0.00  0.00    -0.081 A 
ATOM      2  C3  UNL d   1      -5.057   3.710   2.799  0.00  0.00     0.006 A 
ATOM      3  C4  UNL d   1      -5.225   4.792   3.667  0.00  0.00     0.002 A 
ATOM      4  C5  UNL d   1      -5.685   4.590   4.972  0.00  0.00    -0.080 A 
ATOM      5  C6  UNL d   1      -5.841   5.739   5.923  0.00  0.00     0.076 C 
ATOM      6  C7  UNL d   1      -5.999   3.292   5.389  0.00  0.00     0.002 A 
ATOM      7  C8  UNL d   1      -5.832   2.210   4.521  0.00  0.00     0.006 A 
ENDROOT
BRANCH   1   8
ATOM      8  C1  UNL d   1      -5.113   1.233   2.310  0.00  0.00     0.054 C 
ATOM      9  C   UNL d   1      -3.626   1.009   2.078  0.00  0.00     0.018 C 
ENDBRANCH   1   8
TORSDOF 1
ENDMDL
