MODEL 1
REMARK minimizedAffinity 12.222496
REMARK minimizedRMSD -1
REMARK  1 active torsions:
REMARK  status: ('A' for Active; 'I' for Inactive)
REMARK    1  A    between atoms: C1_2  and  C2_3 
ROOT
ATOM      1  C2  UNL d   1       1.800  -3.155  -1.253  0.00  0.00    -0.081 A 
ATOM      2  C3  UNL d   1       2.012  -2.822   0.091  0.00  0.00     0.006 A 
ATOM      3  C4  UNL d   1       2.663  -1.634   0.432  0.00  0.00     0.002 A 
ATOM      4  C5  UNL d   1       3.106  -0.757  -0.563  0.00  0.00    -0.080 A 
ATOM      5  C6  UNL d   1       3.780   0.536  -0.210  0.00  0.00     0.076 C 
ATOM      6  C7  UNL d   1       2.911  -1.098  -1.906  0.00  0.00     0.002 A 
ATOM      7  C8  UNL d   1       2.260  -2.286  -2.248  0.00  0.00     0.006 A 
ENDROOT
BRANCH   1   8
ATOM      8  C1  UNL d   1       1.041  -4.404  -1.622  0.00  0.00     0.054 C 
ATOM      9  C   UNL d   1      -0.439  -4.113  -1.820  0.00  0.00     0.018 C 
ENDBRANCH   1   8
TORSDOF 1
ENDMDL
