MODEL 1
REMARK minimizedAffinity 2.07707691
REMARK minimizedRMSD -1
REMARK  0 active torsions:
REMARK  status: ('A' for Active; 'I' for Inactive)
ROOT
ATOM      1  C   UNL d   1       3.318   5.548  -5.308  0.00  0.00     0.078 C 
ATOM      2  C1  UNL d   1       1.865   5.707  -4.973  0.00  0.00    -0.077 A 
ATOM      3  C2  UNL d   1       1.426   5.700  -3.643  0.00  0.00    -0.001 A 
ATOM      4  C3  UNL d   1       0.070   5.840  -3.346  0.00  0.00     0.003 A 
ATOM      5  C4  UNL d   1      -0.860   5.986  -4.374  0.00  0.00    -0.005 A 
ATOM      6  C5  UNL d   1      -0.434   5.992  -5.700  0.00  0.00     0.003 A 
ATOM      7  C6  UNL d   1       0.923   5.852  -5.999  0.00  0.00    -0.001 A 
ENDROOT
TORSDOF 0
ENDMDL
