MODEL 1
REMARK minimizedAffinity 0.448555827
REMARK minimizedRMSD -1
REMARK  0 active torsions:
REMARK  status: ('A' for Active; 'I' for Inactive)
ROOT
ATOM      1  C   UNL d   1       0.364   5.982  -5.969  0.00  0.00     0.078 C 
ATOM      2  C1  UNL d   1       1.681   5.448  -5.492  0.00  0.00    -0.077 A 
ATOM      3  C2  UNL d   1       1.742   4.407  -4.557  0.00  0.00    -0.001 A 
ATOM      4  C3  UNL d   1       2.975   3.926  -4.115  0.00  0.00     0.003 A 
ATOM      5  C4  UNL d   1       4.157   4.480  -4.602  0.00  0.00    -0.005 A 
ATOM      6  C5  UNL d   1       4.107   5.517  -5.531  0.00  0.00     0.003 A 
ATOM      7  C6  UNL d   1       2.875   6.000  -5.974  0.00  0.00    -0.001 A 
ENDROOT
TORSDOF 0
ENDMDL
