MODEL 1
REMARK minimizedAffinity 1.9732455
REMARK minimizedRMSD -1
REMARK  0 active torsions:
REMARK  status: ('A' for Active; 'I' for Inactive)
ROOT
ATOM      1  C   UNL d   1       1.633   5.547  -5.143  0.00  0.00     0.078 C 
ATOM      2  C1  UNL d   1       0.298   5.696  -4.477  0.00  0.00    -0.077 A 
ATOM      3  C2  UNL d   1      -0.885   5.699  -5.226  0.00  0.00    -0.001 A 
ATOM      4  C3  UNL d   1      -2.120   5.849  -4.594  0.00  0.00     0.003 A 
ATOM      5  C4  UNL d   1      -2.185   5.998  -3.210  0.00  0.00    -0.005 A 
ATOM      6  C5  UNL d   1      -1.013   5.998  -2.456  0.00  0.00     0.003 A 
ATOM      7  C6  UNL d   1       0.224   5.848  -3.087  0.00  0.00    -0.001 A 
ENDROOT
TORSDOF 0
ENDMDL
