MODEL 1
REMARK minimizedAffinity -3.0168891
REMARK minimizedRMSD -1
REMARK  0 active torsions:
REMARK  status: ('A' for Active; 'I' for Inactive)
ROOT
ATOM      1  C   UNL d   1       1.871   5.653  -5.993  0.00  0.00     0.078 C 
ATOM      2  C1  UNL d   1       3.223   5.273  -5.468  0.00  0.00    -0.077 A 
ATOM      3  C2  UNL d   1       4.366   6.000  -5.825  0.00  0.00    -0.001 A 
ATOM      4  C3  UNL d   1       5.619   5.629  -5.336  0.00  0.00     0.003 A 
ATOM      5  C4  UNL d   1       5.743   4.530  -4.488  0.00  0.00    -0.005 A 
ATOM      6  C5  UNL d   1       4.612   3.799  -4.130  0.00  0.00     0.003 A 
ATOM      7  C6  UNL d   1       3.357   4.168  -4.618  0.00  0.00    -0.001 A 
ENDROOT
TORSDOF 0
ENDMDL
