MODEL 1
REMARK minimizedAffinity -2.34334946
REMARK minimizedRMSD -1
REMARK  0 active torsions:
REMARK  status: ('A' for Active; 'I' for Inactive)
ROOT
ATOM      1  C   UNL d   1       0.145   5.986  -4.633  0.00  0.00     0.078 C 
ATOM      2  C1  UNL d   1      -1.174   5.996  -3.918  0.00  0.00    -0.077 A 
ATOM      3  C2  UNL d   1      -1.236   6.000  -2.519  0.00  0.00    -0.001 A 
ATOM      4  C3  UNL d   1      -2.470   5.999  -1.868  0.00  0.00     0.003 A 
ATOM      5  C4  UNL d   1      -3.652   5.994  -2.607  0.00  0.00    -0.005 A 
ATOM      6  C5  UNL d   1      -3.600   5.988  -3.999  0.00  0.00     0.003 A 
ATOM      7  C6  UNL d   1      -2.366   5.988  -4.653  0.00  0.00    -0.001 A 
ENDROOT
TORSDOF 0
ENDMDL
