MODEL 1
REMARK minimizedAffinity -1.33259356
REMARK minimizedRMSD -1
REMARK  0 active torsions:
REMARK  status: ('A' for Active; 'I' for Inactive)
ROOT
ATOM      1  C   UNL d   1       4.764   5.892  -4.792  0.00  0.00     0.078 C 
ATOM      2  C1  UNL d   1       3.265   5.910  -4.784  0.00  0.00    -0.077 A 
ATOM      3  C2  UNL d   1       2.550   5.920  -3.580  0.00  0.00    -0.001 A 
ATOM      4  C3  UNL d   1       1.154   5.927  -3.587  0.00  0.00     0.003 A 
ATOM      5  C4  UNL d   1       0.461   5.921  -4.796  0.00  0.00    -0.005 A 
ATOM      6  C5  UNL d   1       1.164   5.908  -5.999  0.00  0.00     0.003 A 
ATOM      7  C6  UNL d   1       2.560   5.902  -5.994  0.00  0.00    -0.001 A 
ENDROOT
TORSDOF 0
ENDMDL
