MODEL 1
REMARK minimizedAffinity 3.70751405
REMARK minimizedRMSD -1
REMARK  0 active torsions:
REMARK  status: ('A' for Active; 'I' for Inactive)
ROOT
ATOM      1  C   UNL d   1       5.254   2.484  -4.079  0.00  0.00     0.078 C 
ATOM      2  C1  UNL d   1       4.478   3.696  -4.500  0.00  0.00    -0.077 A 
ATOM      3  C2  UNL d   1       5.131   4.876  -4.876  0.00  0.00    -0.001 A 
ATOM      4  C3  UNL d   1       4.395   6.000  -5.256  0.00  0.00     0.003 A 
ATOM      5  C4  UNL d   1       3.002   5.955  -5.262  0.00  0.00    -0.005 A 
ATOM      6  C5  UNL d   1       2.344   4.786  -4.887  0.00  0.00     0.003 A 
ATOM      7  C6  UNL d   1       3.078   3.661  -4.507  0.00  0.00    -0.001 A 
ENDROOT
TORSDOF 0
ENDMDL
