MODEL 1
REMARK minimizedAffinity -0.943635881
REMARK minimizedRMSD -1
REMARK  0 active torsions:
REMARK  status: ('A' for Active; 'I' for Inactive)
ROOT
ATOM      1  C   UNL d   1      -0.475   5.951  -2.268  0.00  0.00     0.078 C 
ATOM      2  C1  UNL d   1       0.264   5.956  -3.573  0.00  0.00    -0.077 A 
ATOM      3  C2  UNL d   1      -0.425   5.917  -4.792  0.00  0.00    -0.001 A 
ATOM      4  C3  UNL d   1       0.276   5.912  -5.999  0.00  0.00     0.003 A 
ATOM      5  C4  UNL d   1       1.669   5.946  -6.000  0.00  0.00    -0.005 A 
ATOM      6  C5  UNL d   1       2.363   5.983  -4.792  0.00  0.00     0.003 A 
ATOM      7  C6  UNL d   1       1.664   5.988  -3.584  0.00  0.00    -0.001 A 
ENDROOT
TORSDOF 0
ENDMDL
