MODEL 1
REMARK minimizedAffinity -0.609739721
REMARK minimizedRMSD -1
REMARK  0 active torsions:
REMARK  status: ('A' for Active; 'I' for Inactive)
ROOT
ATOM      1  C   UNL d   1      -2.797  -2.754   5.228  0.00  0.00     0.078 C 
ATOM      2  C1  UNL d   1      -1.916  -3.522   4.289  0.00  0.00    -0.077 A 
ATOM      3  C2  UNL d   1      -1.696  -3.076   2.980  0.00  0.00    -0.001 A 
ATOM      4  C3  UNL d   1      -0.881  -3.806   2.113  0.00  0.00     0.003 A 
ATOM      5  C4  UNL d   1      -0.281  -4.987   2.545  0.00  0.00    -0.005 A 
ATOM      6  C5  UNL d   1      -0.496  -5.439   3.845  0.00  0.00     0.003 A 
ATOM      7  C6  UNL d   1      -1.310  -4.711   4.713  0.00  0.00    -0.001 A 
ENDROOT
TORSDOF 0
ENDMDL
