MODEL 1
REMARK minimizedAffinity -2.83431101
REMARK minimizedRMSD -1
REMARK  0 active torsions:
REMARK  status: ('A' for Active; 'I' for Inactive)
ROOT
ATOM      1  C   UNL d   1      -3.003   5.452  -1.877  0.00  0.00     0.078 C 
ATOM      2  C1  UNL d   1      -1.949   5.636  -2.928  0.00  0.00    -0.077 A 
ATOM      3  C2  UNL d   1      -0.605   5.817  -2.577  0.00  0.00    -0.001 A 
ATOM      4  C3  UNL d   1       0.364   5.997  -3.566  0.00  0.00     0.003 A 
ATOM      5  C4  UNL d   1      -0.000   6.000  -4.911  0.00  0.00    -0.005 A 
ATOM      6  C5  UNL d   1      -1.335   5.823  -5.269  0.00  0.00     0.003 A 
ATOM      7  C6  UNL d   1      -2.306   5.643  -4.282  0.00  0.00    -0.001 A 
ENDROOT
TORSDOF 0
ENDMDL
