MODEL 1
REMARK minimizedAffinity -3.07449055
REMARK minimizedRMSD -1
REMARK  0 active torsions:
REMARK  status: ('A' for Active; 'I' for Inactive)
ROOT
ATOM      1  C   UNL d   1       0.426   5.973  -4.510  0.00  0.00     0.078 C 
ATOM      2  C1  UNL d   1      -0.871   5.975  -3.757  0.00  0.00    -0.077 A 
ATOM      3  C2  UNL d   1      -2.097   5.988  -4.434  0.00  0.00    -0.001 A 
ATOM      4  C3  UNL d   1      -3.297   5.999  -3.720  0.00  0.00     0.003 A 
ATOM      5  C4  UNL d   1      -3.282   5.999  -2.327  0.00  0.00    -0.005 A 
ATOM      6  C5  UNL d   1      -2.067   5.989  -1.645  0.00  0.00     0.003 A 
ATOM      7  C6  UNL d   1      -0.866   5.977  -2.357  0.00  0.00    -0.001 A 
ENDROOT
TORSDOF 0
ENDMDL
