MODEL 1
REMARK minimizedAffinity -2.57301116
REMARK minimizedRMSD -1
REMARK  0 active torsions:
REMARK  status: ('A' for Active; 'I' for Inactive)
ROOT
ATOM      1  C   UNL d   1       1.318   5.973  -5.316  0.00  0.00     0.078 C 
ATOM      2  C1  UNL d   1       0.156   5.989  -4.367  0.00  0.00    -0.077 A 
ATOM      3  C2  UNL d   1       0.357   5.984  -2.981  0.00  0.00    -0.001 A 
ATOM      4  C3  UNL d   1      -0.734   5.989  -2.110  0.00  0.00     0.003 A 
ATOM      5  C4  UNL d   1      -2.032   5.997  -2.615  0.00  0.00    -0.005 A 
ATOM      6  C5  UNL d   1      -2.242   6.000  -3.993  0.00  0.00     0.003 A 
ATOM      7  C6  UNL d   1      -1.153   5.995  -4.865  0.00  0.00    -0.001 A 
ENDROOT
TORSDOF 0
ENDMDL
