MODEL 1
REMARK minimizedAffinity 1.71283567
REMARK minimizedRMSD -1
REMARK  0 active torsions:
REMARK  status: ('A' for Active; 'I' for Inactive)
ROOT
ATOM      1  C   UNL d   1       0.757   5.996  -5.958  0.00  0.00     0.078 C 
ATOM      2  C1  UNL d   1       1.999   5.314  -5.467  0.00  0.00    -0.077 A 
ATOM      3  C2  UNL d   1       1.958   3.998  -4.991  0.00  0.00    -0.001 A 
ATOM      4  C3  UNL d   1       3.121   3.379  -4.528  0.00  0.00     0.003 A 
ATOM      5  C4  UNL d   1       4.331   4.068  -4.535  0.00  0.00    -0.005 A 
ATOM      6  C5  UNL d   1       4.381   5.379  -5.005  0.00  0.00     0.003 A 
ATOM      7  C6  UNL d   1       3.220   6.000  -5.468  0.00  0.00    -0.001 A 
ENDROOT
TORSDOF 0
ENDMDL
