MODEL 1
REMARK minimizedAffinity 1.30770481
REMARK minimizedRMSD -1
REMARK  0 active torsions:
REMARK  status: ('A' for Active; 'I' for Inactive)
ROOT
ATOM      1  C   UNL d   1       1.480   4.945  -5.998  0.00  0.00     0.078 C 
ATOM      2  C1  UNL d   1       2.929   4.925  -5.611  0.00  0.00    -0.077 A 
ATOM      3  C2  UNL d   1       3.469   3.852  -4.892  0.00  0.00    -0.001 A 
ATOM      4  C3  UNL d   1       4.817   3.851  -4.530  0.00  0.00     0.003 A 
ATOM      5  C4  UNL d   1       5.636   4.923  -4.881  0.00  0.00    -0.005 A 
ATOM      6  C5  UNL d   1       5.107   5.997  -5.594  0.00  0.00     0.003 A 
ATOM      7  C6  UNL d   1       3.759   5.999  -5.957  0.00  0.00    -0.001 A 
ENDROOT
TORSDOF 0
ENDMDL
