MODEL 1
REMARK minimizedAffinity 3.75004721
REMARK minimizedRMSD -1
REMARK  0 active torsions:
REMARK  status: ('A' for Active; 'I' for Inactive)
ROOT
ATOM      1  C4' PXY d   1       5.717   5.894   5.901  0.00  0.00     0.077 C 
ATOM      2  C1' PXY d   1       2.416   1.150   5.999  0.00  0.00     0.077 C 
ATOM      3  C1  PXY d   1       3.272   2.401   5.968  0.00  0.00    -0.082 A 
ATOM      4  C2  PXY d   1       4.590   2.291   5.931  0.00  0.00     0.003 A 
ATOM      5  C3  PXY d   1       5.380   3.412   5.935  0.00  0.00     0.003 A 
ATOM      6  C4  PXY d   1       4.813   4.659   5.923  0.00  0.00    -0.082 A 
ATOM      7  C5  PXY d   1       3.469   4.779   5.950  0.00  0.00     0.003 A 
ATOM      8  C6  PXY d   1       2.686   3.629   5.988  0.00  0.00     0.003 A 
ENDROOT
TORSDOF 0
ENDMDL
