MODEL 1
REMARK minimizedAffinity -3.88973665
REMARK minimizedRMSD -1
REMARK  0 active torsions:
REMARK  status: ('A' for Active; 'I' for Inactive)
ROOT
ATOM      1  C4' PXY d   1       3.372   0.409   5.251  0.00  0.00     0.077 C 
ATOM      2  C1' PXY d   1       5.017   5.939   5.621  0.00  0.00     0.077 C 
ATOM      3  C1  PXY d   1       4.593   4.487   5.514  0.00  0.00    -0.082 A 
ATOM      4  C2  PXY d   1       3.422   4.109   6.000  0.00  0.00     0.003 A 
ATOM      5  C3  PXY d   1       3.037   2.795   5.940  0.00  0.00     0.003 A 
ATOM      6  C4  PXY d   1       3.837   1.866   5.328  0.00  0.00    -0.082 A 
ATOM      7  C5  PXY d   1       5.029   2.246   4.821  0.00  0.00     0.003 A 
ATOM      8  C6  PXY d   1       5.419   3.577   4.928  0.00  0.00     0.003 A 
ENDROOT
TORSDOF 0
ENDMDL
