MODEL 1
REMARK minimizedAffinity 1.00969267
REMARK minimizedRMSD -1
REMARK  0 active torsions:
REMARK  status: ('A' for Active; 'I' for Inactive)
ROOT
ATOM      1  C4' PXY d   1       0.444  -5.999   5.999  0.00  0.00     0.077 C 
ATOM      2  C1' PXY d   1       1.500  -0.680   3.998  0.00  0.00     0.077 C 
ATOM      3  C1  PXY d   1       1.211  -2.075   4.518  0.00  0.00    -0.082 A 
ATOM      4  C2  PXY d   1       1.908  -2.550   5.538  0.00  0.00     0.003 A 
ATOM      5  C3  PXY d   1       1.681  -3.821   6.000  0.00  0.00     0.003 A 
ATOM      6  C4  PXY d   1       0.695  -4.594   5.447  0.00  0.00    -0.082 A 
ATOM      7  C5  PXY d   1      -0.027  -4.112   4.414  0.00  0.00     0.003 A 
ATOM      8  C6  PXY d   1       0.246  -2.835   3.933  0.00  0.00     0.003 A 
ENDROOT
TORSDOF 0
ENDMDL
