MODEL 1
REMARK minimizedAffinity 1.62178874
REMARK minimizedRMSD -1
REMARK  0 active torsions:
REMARK  status: ('A' for Active; 'I' for Inactive)
ROOT
ATOM      1  C4' PXY d   1       5.293   2.003   5.855  0.00  0.00     0.077 C 
ATOM      2  C1' PXY d   1       1.118   5.999   5.995  0.00  0.00     0.077 C 
ATOM      3  C1  PXY d   1       2.221   4.960   5.953  0.00  0.00    -0.082 A 
ATOM      4  C2  PXY d   1       1.909   3.674   5.972  0.00  0.00     0.003 A 
ATOM      5  C3  PXY d   1       2.895   2.721   5.967  0.00  0.00     0.003 A 
ATOM      6  C4  PXY d   1       4.212   3.087   5.887  0.00  0.00    -0.082 A 
ATOM      7  C5  PXY d   1       4.538   4.397   5.856  0.00  0.00     0.003 A 
ATOM      8  C6  PXY d   1       3.524   5.349   5.904  0.00  0.00     0.003 A 
ENDROOT
TORSDOF 0
ENDMDL
