MODEL 1
REMARK minimizedAffinity 3.58873129
REMARK minimizedRMSD -1
REMARK  0 active torsions:
REMARK  status: ('A' for Active; 'I' for Inactive)
ROOT
ATOM      1  C4' PXY d   1       1.132   5.302   5.998  0.00  0.00     0.077 C 
ATOM      2  C1' PXY d   1       5.976   2.251   5.198  0.00  0.00     0.077 C 
ATOM      3  C1  PXY d   1       4.699   3.040   5.406  0.00  0.00    -0.082 A 
ATOM      4  C2  PXY d   1       4.695   4.346   5.193  0.00  0.00     0.003 A 
ATOM      5  C3  PXY d   1       3.556   5.080   5.407  0.00  0.00     0.003 A 
ATOM      6  C4  PXY d   1       2.396   4.463   5.791  0.00  0.00    -0.082 A 
ATOM      7  C5  PXY d   1       2.389   3.130   6.000  0.00  0.00     0.003 A 
ATOM      8  C6  PXY d   1       3.566   2.409   5.817  0.00  0.00     0.003 A 
ENDROOT
TORSDOF 0
ENDMDL
