MODEL 1
REMARK minimizedAffinity 5.15319538
REMARK minimizedRMSD -1
REMARK  0 active torsions:
REMARK  status: ('A' for Active; 'I' for Inactive)
ROOT
ATOM      1  C4' PXY d   1      -2.999   5.663   0.670  0.00  0.00     0.077 C 
ATOM      2  C1' PXY d   1      -6.000   0.738   1.059  0.00  0.00     0.077 C 
ATOM      3  C1  PXY d   1      -5.218   2.031   0.945  0.00  0.00    -0.082 A 
ATOM      4  C2  PXY d   1      -4.130   2.204   1.678  0.00  0.00     0.003 A 
ATOM      5  C3  PXY d   1      -3.428   3.381   1.611  0.00  0.00     0.003 A 
ATOM      6  C4  PXY d   1      -3.815   4.369   0.746  0.00  0.00    -0.082 A 
ATOM      7  C5  PXY d   1      -4.918   4.196  -0.013  0.00  0.00     0.003 A 
ATOM      8  C6  PXY d   1      -5.639   3.011   0.100  0.00  0.00     0.003 A 
ENDROOT
TORSDOF 0
ENDMDL
