MODEL 1
REMARK minimizedAffinity 4.05196905
REMARK minimizedRMSD -1
REMARK  0 active torsions:
REMARK  status: ('A' for Active; 'I' for Inactive)
ROOT
ATOM      1  C4' PXY d   1       3.401   0.536   5.705  0.00  0.00     0.077 C 
ATOM      2  C1' PXY d   1       5.854   5.768   5.869  0.00  0.00     0.077 C 
ATOM      3  C1  PXY d   1       5.221   4.391   5.819  0.00  0.00    -0.082 A 
ATOM      4  C2  PXY d   1       3.916   4.265   5.999  0.00  0.00     0.003 A 
ATOM      5  C3  PXY d   1       3.332   3.024   5.989  0.00  0.00     0.003 A 
ATOM      6  C4  PXY d   1       4.082   1.907   5.738  0.00  0.00    -0.082 A 
ATOM      7  C5  PXY d   1       5.412   2.029   5.543  0.00  0.00     0.003 A 
ATOM      8  C6  PXY d   1       5.993   3.293   5.598  0.00  0.00     0.003 A 
ENDROOT
TORSDOF 0
ENDMDL
