MODEL 1
REMARK minimizedAffinity 13.6828117
REMARK minimizedRMSD -1
REMARK  0 active torsions:
REMARK  status: ('A' for Active; 'I' for Inactive)
ROOT
ATOM      1  C4' PXY d   1       5.877   0.999   5.839  0.00  0.00     0.077 C 
ATOM      2  C1' PXY d   1       1.282   4.503   6.000  0.00  0.00     0.077 C 
ATOM      3  C1  PXY d   1       2.480   3.574   5.964  0.00  0.00    -0.082 A 
ATOM      4  C2  PXY d   1       3.699   4.083   5.889  0.00  0.00     0.003 A 
ATOM      5  C3  PXY d   1       4.792   3.257   5.823  0.00  0.00     0.003 A 
ATOM      6  C4  PXY d   1       4.639   1.898   5.888  0.00  0.00    -0.082 A 
ATOM      7  C5  PXY d   1       3.399   1.372   5.975  0.00  0.00     0.003 A 
ATOM      8  C6  PXY d   1       2.300   2.226   5.999  0.00  0.00     0.003 A 
ENDROOT
TORSDOF 0
ENDMDL
