MODEL 1
REMARK minimizedAffinity 7.20600224
REMARK minimizedRMSD -1
REMARK  0 active torsions:
REMARK  status: ('A' for Active; 'I' for Inactive)
ROOT
ATOM      1  C4' PXY d   1      -0.274  -0.167  -0.424  0.00  0.00     0.077 C 
ATOM      2  C1' PXY d   1      -6.000   0.558  -0.102  0.00  0.00     0.077 C 
ATOM      3  C1  PXY d   1      -4.500   0.358  -0.195  0.00  0.00    -0.082 A 
ATOM      4  C2  PXY d   1      -3.726   0.739   0.808  0.00  0.00     0.003 A 
ATOM      5  C3  PXY d   1      -2.364   0.594   0.727  0.00  0.00     0.003 A 
ATOM      6  C4  PXY d   1      -1.794   0.006  -0.370  0.00  0.00    -0.082 A 
ATOM      7  C5  PXY d   1      -2.578  -0.394  -1.393  0.00  0.00     0.003 A 
ATOM      8  C6  PXY d   1      -3.954  -0.201  -1.309  0.00  0.00     0.003 A 
ENDROOT
TORSDOF 0
ENDMDL
