MODEL 1
REMARK minimizedAffinity 11.3586369
REMARK minimizedRMSD -1
REMARK  0 active torsions:
REMARK  status: ('A' for Active; 'I' for Inactive)
ROOT
ATOM      1  C4' PXY d   1       5.690   4.564   4.880  0.00  0.00     0.077 C 
ATOM      2  C1' PXY d   1       4.308   1.656   0.079  0.00  0.00     0.077 C 
ATOM      3  C1  PXY d   1       4.659   2.416   1.343  0.00  0.00    -0.082 A 
ATOM      4  C2  PXY d   1       5.592   3.353   1.305  0.00  0.00     0.003 A 
ATOM      5  C3  PXY d   1       5.944   4.028   2.446  0.00  0.00     0.003 A 
ATOM      6  C4  PXY d   1       5.297   3.778   3.626  0.00  0.00    -0.082 A 
ATOM      7  C5  PXY d   1       4.336   2.831   3.671  0.00  0.00     0.003 A 
ATOM      8  C6  PXY d   1       4.022   2.128   2.511  0.00  0.00     0.003 A 
ENDROOT
TORSDOF 0
ENDMDL
