MODEL 1
REMARK minimizedAffinity 4.74859238
REMARK minimizedRMSD -1
REMARK  0 active torsions:
REMARK  status: ('A' for Active; 'I' for Inactive)
ROOT
ATOM      1  C4' PXY d   1       5.999   3.050   1.012  0.00  0.00     0.077 C 
ATOM      2  C1' PXY d   1       3.086   2.834   6.000  0.00  0.00     0.077 C 
ATOM      3  C1  PXY d   1       3.845   2.879   4.689  0.00  0.00    -0.082 A 
ATOM      4  C2  PXY d   1       4.933   3.625   4.588  0.00  0.00     0.003 A 
ATOM      5  C3  PXY d   1       5.613   3.702   3.400  0.00  0.00     0.003 A 
ATOM      6  C4  PXY d   1       5.207   2.967   2.319  0.00  0.00    -0.082 A 
ATOM      7  C5  PXY d   1       4.104   2.195   2.417  0.00  0.00     0.003 A 
ATOM      8  C6  PXY d   1       3.403   2.162   3.620  0.00  0.00     0.003 A 
ENDROOT
TORSDOF 0
ENDMDL
