MODEL 1
REMARK minimizedAffinity -0.787302673
REMARK minimizedRMSD -1
REMARK  0 active torsions:
REMARK  status: ('A' for Active; 'I' for Inactive)
ROOT
ATOM      1  C   UNL d   1      -3.045  -0.637  -3.019  0.00  0.00    -0.002 A 
ATOM      2  C1  UNL d   1      -3.153   0.727  -2.790  0.00  0.00     0.010 A 
ATOM      3  C2  UNL d   1      -2.418   1.336  -1.771  0.00  0.00     0.041 A 
ATOM      4  C3  UNL d   1      -1.564   0.544  -0.979  0.00  0.00    -0.075 A 
ATOM      5  S   UNL d   1      -0.567   1.073   0.324  0.00  0.00     0.015 SA
ATOM      6  C4  UNL d   1       0.027  -0.500   0.607  0.00  0.00     0.022 A 
ATOM      7  C5  UNL d   1      -0.513  -1.418  -0.263  0.00  0.00     0.026 A 
ATOM      8  C6  UNL d   1      -1.437  -0.832  -1.192  0.00  0.00    -0.082 A 
ATOM      9  C7  UNL d   1      -2.196  -1.420  -2.232  0.00  0.00     0.045 A 
ENDROOT
TORSDOF 0
ENDMDL
