MODEL 1
REMARK minimizedAffinity 9.77287388
REMARK minimizedRMSD -1
REMARK  0 active torsions:
REMARK  status: ('A' for Active; 'I' for Inactive)
ROOT
ATOM      1  C   UNL d   1       2.320   0.920  -1.209  0.00  0.00    -0.002 A 
ATOM      2  C1  UNL d   1       0.980   1.277  -1.261  0.00  0.00     0.010 A 
ATOM      3  C2  UNL d   1       0.301   1.654  -0.101  0.00  0.00     0.041 A 
ATOM      4  C3  UNL d   1       0.998   1.668   1.123  0.00  0.00    -0.075 A 
ATOM      5  S   UNL d   1       0.371   2.095   2.672  0.00  0.00     0.015 SA
ATOM      6  C4  UNL d   1       1.867   1.815   3.438  0.00  0.00     0.022 A 
ATOM      7  C5  UNL d   1       2.833   1.405   2.549  0.00  0.00     0.026 A 
ATOM      8  C6  UNL d   1       2.348   1.313   1.200  0.00  0.00    -0.082 A 
ATOM      9  C7  UNL d   1       3.008   0.935   0.007  0.00  0.00     0.045 A 
ENDROOT
TORSDOF 0
ENDMDL
