MODEL 1
REMARK minimizedAffinity 0.224347278
REMARK minimizedRMSD -1
REMARK  0 active torsions:
REMARK  status: ('A' for Active; 'I' for Inactive)
ROOT
ATOM      1  C   UNL d   1       1.989   1.243  -0.127  0.00  0.00    -0.002 A 
ATOM      2  C1  UNL d   1       2.613   0.183   0.516  0.00  0.00     0.010 A 
ATOM      3  C2  UNL d   1       1.872  -0.913   0.961  0.00  0.00     0.041 A 
ATOM      4  C3  UNL d   1       0.480  -0.928   0.745  0.00  0.00    -0.075 A 
ATOM      5  S   UNL d   1      -0.631  -2.165   1.203  0.00  0.00     0.015 SA
ATOM      6  C4  UNL d   1      -1.959  -1.316   0.555  0.00  0.00     0.022 A 
ATOM      7  C5  UNL d   1      -1.583  -0.116  -0.000  0.00  0.00     0.026 A 
ATOM      8  C6  UNL d   1      -0.171   0.128   0.100  0.00  0.00    -0.082 A 
ATOM      9  C7  UNL d   1       0.608   1.225  -0.339  0.00  0.00     0.045 A 
ENDROOT
TORSDOF 0
ENDMDL
