MODEL 1
REMARK minimizedAffinity -2.0194397
REMARK minimizedRMSD -1
REMARK  0 active torsions:
REMARK  status: ('A' for Active; 'I' for Inactive)
ROOT
ATOM      1  C   UNL d   1       2.868  -0.152   1.118  0.00  0.00    -0.002 A 
ATOM      2  C1  UNL d   1       3.605  -0.057  -0.053  0.00  0.00     0.010 A 
ATOM      3  C2  UNL d   1       2.988   0.304  -1.253  0.00  0.00     0.041 A 
ATOM      4  C3  UNL d   1       1.605   0.572  -1.255  0.00  0.00    -0.075 A 
ATOM      5  S   UNL d   1       0.637   1.032  -2.605  0.00  0.00     0.015 SA
ATOM      6  C4  UNL d   1      -0.778   1.113  -1.658  0.00  0.00     0.022 A 
ATOM      7  C5  UNL d   1      -0.535   0.800  -0.341  0.00  0.00     0.026 A 
ATOM      8  C6  UNL d   1       0.842   0.483  -0.087  0.00  0.00    -0.082 A 
ATOM      9  C7  UNL d   1       1.496   0.114   1.113  0.00  0.00     0.045 A 
ENDROOT
TORSDOF 0
ENDMDL
