MODEL 1
REMARK minimizedAffinity 1.47971487
REMARK minimizedRMSD -1
REMARK  0 active torsions:
REMARK  status: ('A' for Active; 'I' for Inactive)
ROOT
ATOM      1  C   UNL d   1       2.076   1.478   0.021  0.00  0.00    -0.002 A 
ATOM      2  C1  UNL d   1       1.983   0.842   1.250  0.00  0.00     0.010 A 
ATOM      3  C2  UNL d   1       0.856   0.082   1.573  0.00  0.00     0.041 A 
ATOM      4  C3  UNL d   1      -0.183  -0.030   0.629  0.00  0.00    -0.075 A 
ATOM      5  S   UNL d   1      -1.657  -0.908   0.804  0.00  0.00     0.015 SA
ATOM      6  C4  UNL d   1      -2.196  -0.461  -0.749  0.00  0.00     0.022 A 
ATOM      7  C5  UNL d   1      -1.286   0.339  -1.400  0.00  0.00     0.026 A 
ATOM      8  C6  UNL d   1      -0.111   0.600  -0.617  0.00  0.00    -0.082 A 
ATOM      9  C7  UNL d   1       1.043   1.364  -0.913  0.00  0.00     0.045 A 
ENDROOT
TORSDOF 0
ENDMDL
