MODEL 1
REMARK minimizedAffinity -1.72881269
REMARK minimizedRMSD -1
REMARK  0 active torsions:
REMARK  status: ('A' for Active; 'I' for Inactive)
ROOT
ATOM      1  C   UNL d   1      -3.039  -0.407  -3.252  0.00  0.00    -0.002 A 
ATOM      2  C1  UNL d   1      -2.279   0.710  -3.570  0.00  0.00     0.010 A 
ATOM      3  C2  UNL d   1      -1.263   1.144  -2.717  0.00  0.00     0.041 A 
ATOM      4  C3  UNL d   1      -1.019   0.429  -1.528  0.00  0.00    -0.075 A 
ATOM      5  S   UNL d   1       0.174   0.775  -0.332  0.00  0.00     0.015 SA
ATOM      6  C4  UNL d   1      -0.297  -0.552   0.629  0.00  0.00     0.022 A 
ATOM      7  C5  UNL d   1      -1.338  -1.252   0.066  0.00  0.00     0.026 A 
ATOM      8  C6  UNL d   1      -1.771  -0.699  -1.186  0.00  0.00    -0.082 A 
ATOM      9  C7  UNL d   1      -2.795  -1.114  -2.072  0.00  0.00     0.045 A 
ENDROOT
TORSDOF 0
ENDMDL
