MODEL 1
REMARK minimizedAffinity -3.50447774
REMARK minimizedRMSD -1
REMARK  0 active torsions:
REMARK  status: ('A' for Active; 'I' for Inactive)
ROOT
ATOM      1  C   UNL d   1      -3.571  -0.317  -2.092  0.00  0.00    -0.002 A 
ATOM      2  C1  UNL d   1      -2.844  -0.340  -3.274  0.00  0.00     0.010 A 
ATOM      3  C2  UNL d   1      -1.463  -0.137  -3.263  0.00  0.00     0.041 A 
ATOM      4  C3  UNL d   1      -0.817   0.091  -2.032  0.00  0.00    -0.075 A 
ATOM      5  S   UNL d   1       0.865   0.364  -1.775  0.00  0.00     0.015 SA
ATOM      6  C4  UNL d   1       0.660   0.517  -0.090  0.00  0.00     0.022 A 
ATOM      7  C5  UNL d   1      -0.654   0.367   0.285  0.00  0.00     0.026 A 
ATOM      8  C6  UNL d   1      -1.527   0.118  -0.828  0.00  0.00    -0.082 A 
ATOM      9  C7  UNL d   1      -2.927  -0.091  -0.873  0.00  0.00     0.045 A 
ENDROOT
TORSDOF 0
ENDMDL
