MODEL 1
REMARK minimizedAffinity 2.24805284
REMARK minimizedRMSD -1
REMARK  0 active torsions:
REMARK  status: ('A' for Active; 'I' for Inactive)
ROOT
ATOM      1  C   UNL d   1      -2.168  -5.998   2.254  0.00  0.00     0.020 A 
ATOM      2  C1  UNL d   1      -1.436  -5.997   1.067  0.00  0.00     0.020 A 
ATOM      3  C2  UNL d   1      -0.041  -5.998   1.108  0.00  0.00     0.034 A 
ATOM      4  C3  UNL d   1       0.628  -5.999   2.337  0.00  0.00     0.017 A 
ATOM      5  C4  UNL d   1      -0.107  -5.999   3.528  0.00  0.00     0.017 A 
ATOM      6  C5  UNL d   1      -1.505  -5.998   3.482  0.00  0.00     0.034 A 
ATOM      7 Cl   UNL d   1       0.647  -6.000   5.083  0.00  0.00    -0.070 Cl
ATOM      8 Cl1  UNL d   1       2.356  -5.999   2.312  0.00  0.00    -0.070 Cl
ENDROOT
TORSDOF 0
ENDMDL
