MODEL 1
REMARK minimizedAffinity 12.3523026
REMARK minimizedRMSD -1
REMARK  0 active torsions:
REMARK  status: ('A' for Active; 'I' for Inactive)
ROOT
ATOM      1  C   UNL d   1      -0.407  -4.717   2.762  0.00  0.00     0.020 A 
ATOM      2  C1  UNL d   1      -0.713  -5.672   3.732  0.00  0.00     0.020 A 
ATOM      3  C2  UNL d   1       0.228  -5.998   4.710  0.00  0.00     0.034 A 
ATOM      4  C3  UNL d   1       1.479  -5.370   4.721  0.00  0.00     0.017 A 
ATOM      5  C4  UNL d   1       1.785  -4.413   3.747  0.00  0.00     0.017 A 
ATOM      6  C5  UNL d   1       0.839  -4.089   2.770  0.00  0.00     0.034 A 
ATOM      7 Cl   UNL d   1       3.307  -3.596   3.696  0.00  0.00    -0.070 Cl
ATOM      8 Cl1  UNL d   1       2.595  -5.823   5.961  0.00  0.00    -0.070 Cl
ENDROOT
TORSDOF 0
ENDMDL
