MODEL 1
REMARK minimizedAffinity 6.19469929
REMARK minimizedRMSD -1
REMARK  0 active torsions:
REMARK  status: ('A' for Active; 'I' for Inactive)
ROOT
ATOM      1  C   UNL d   1      -1.877  -0.817   3.505  0.00  0.00     0.020 A 
ATOM      2  C1  UNL d   1      -1.862  -1.931   2.667  0.00  0.00     0.020 A 
ATOM      3  C2  UNL d   1      -1.048  -1.940   1.532  0.00  0.00     0.034 A 
ATOM      4  C3  UNL d   1      -0.246  -0.833   1.233  0.00  0.00     0.017 A 
ATOM      5  C4  UNL d   1      -0.261   0.285   2.075  0.00  0.00     0.017 A 
ATOM      6  C5  UNL d   1      -1.078   0.289   3.210  0.00  0.00     0.034 A 
ATOM      7 Cl   UNL d   1       0.701   1.688   1.771  0.00  0.00    -0.070 Cl
ATOM      8 Cl1  UNL d   1       0.736  -0.912  -0.187  0.00  0.00    -0.070 Cl
ENDROOT
TORSDOF 0
ENDMDL
