MODEL 1
REMARK minimizedAffinity 0.671561778
REMARK minimizedRMSD -1
REMARK  0 active torsions:
REMARK  status: ('A' for Active; 'I' for Inactive)
ROOT
ATOM      1  C   UNL d   1      -3.448  -5.999   2.576  0.00  0.00     0.020 A 
ATOM      2  C1  UNL d   1      -3.041  -5.998   1.242  0.00  0.00     0.020 A 
ATOM      3  C2  UNL d   1      -1.680  -5.997   0.927  0.00  0.00     0.034 A 
ATOM      4  C3  UNL d   1      -0.722  -5.997   1.948  0.00  0.00     0.017 A 
ATOM      5  C4  UNL d   1      -1.132  -5.998   3.286  0.00  0.00     0.017 A 
ATOM      6  C5  UNL d   1      -2.495  -6.000   3.595  0.00  0.00     0.034 A 
ATOM      7 Cl   UNL d   1      -0.008  -5.999   4.599  0.00  0.00    -0.070 Cl
ATOM      8 Cl1  UNL d   1       0.943  -5.996   1.486  0.00  0.00    -0.070 Cl
ENDROOT
TORSDOF 0
ENDMDL
