MODEL 1
REMARK minimizedAffinity 9.62922955
REMARK minimizedRMSD -1
REMARK  0 active torsions:
REMARK  status: ('A' for Active; 'I' for Inactive)
ROOT
ATOM      1  C   UNL d   1      -1.818  -3.864  -4.126  0.00  0.00     0.020 A 
ATOM      2  C1  UNL d   1      -2.713  -3.443  -3.144  0.00  0.00     0.020 A 
ATOM      3  C2  UNL d   1      -2.595  -2.165  -2.594  0.00  0.00     0.034 A 
ATOM      4  C3  UNL d   1      -1.579  -1.303  -3.025  0.00  0.00     0.017 A 
ATOM      5  C4  UNL d   1      -0.681  -1.727  -4.012  0.00  0.00     0.017 A 
ATOM      6  C5  UNL d   1      -0.804  -3.008  -4.559  0.00  0.00     0.034 A 
ATOM      7 Cl   UNL d   1       0.597  -0.722  -4.596  0.00  0.00    -0.070 Cl
ATOM      8 Cl1  UNL d   1      -1.492   0.263  -2.302  0.00  0.00    -0.070 Cl
ENDROOT
TORSDOF 0
ENDMDL
