MODEL 1
REMARK minimizedAffinity 7.28249264
REMARK minimizedRMSD -1
REMARK  0 active torsions:
REMARK  status: ('A' for Active; 'I' for Inactive)
ROOT
ATOM      1  C   UNL d   1       3.182  -1.010  -3.599  0.00  0.00     0.020 A 
ATOM      2  C1  UNL d   1       2.717  -0.728  -4.883  0.00  0.00     0.020 A 
ATOM      3  C2  UNL d   1       3.265   0.333  -5.607  0.00  0.00     0.034 A 
ATOM      4  C3  UNL d   1       4.282   1.116  -5.048  0.00  0.00     0.017 A 
ATOM      5  C4  UNL d   1       4.748   0.832  -3.759  0.00  0.00     0.017 A 
ATOM      6  C5  UNL d   1       4.195  -0.232  -3.039  0.00  0.00     0.034 A 
ATOM      7 Cl   UNL d   1       6.000   1.752  -3.002  0.00  0.00    -0.070 Cl
ATOM      8 Cl1  UNL d   1       4.915   2.411  -6.000  0.00  0.00    -0.070 Cl
ENDROOT
TORSDOF 0
ENDMDL
