MODEL 1
REMARK minimizedAffinity 2.97468734
REMARK minimizedRMSD -1
REMARK  0 active torsions:
REMARK  status: ('A' for Active; 'I' for Inactive)
ROOT
ATOM      1  C   UNL d   1      -0.156  -6.000   0.746  0.00  0.00     0.020 A 
ATOM      2  C1  UNL d   1      -1.184  -6.000   1.688  0.00  0.00     0.020 A 
ATOM      3  C2  UNL d   1      -0.883  -6.000   3.051  0.00  0.00     0.034 A 
ATOM      4  C3  UNL d   1       0.450  -6.000   3.477  0.00  0.00     0.017 A 
ATOM      5  C4  UNL d   1       1.482  -6.000   2.531  0.00  0.00     0.017 A 
ATOM      6  C5  UNL d   1       1.174  -6.000   1.167  0.00  0.00     0.034 A 
ATOM      7 Cl   UNL d   1       3.151  -6.000   2.980  0.00  0.00    -0.070 Cl
ATOM      8 Cl1  UNL d   1       0.750  -6.000   5.179  0.00  0.00    -0.070 Cl
ENDROOT
TORSDOF 0
ENDMDL
