MODEL 1
REMARK minimizedAffinity 4.18069983
REMARK minimizedRMSD -1
REMARK  0 active torsions:
REMARK  status: ('A' for Active; 'I' for Inactive)
ROOT
ATOM      1  C   UNL d   1      -5.911   3.575   4.112  0.00  0.00     0.020 A 
ATOM      2  C1  UNL d   1      -5.701   3.393   5.478  0.00  0.00     0.020 A 
ATOM      3  C2  UNL d   1      -5.580   2.103   6.000  0.00  0.00     0.034 A 
ATOM      4  C3  UNL d   1      -5.668   0.991   5.155  0.00  0.00     0.017 A 
ATOM      5  C4  UNL d   1      -5.879   1.175   3.784  0.00  0.00     0.017 A 
ATOM      6  C5  UNL d   1      -6.000   2.468   3.267  0.00  0.00     0.034 A 
ATOM      7 Cl   UNL d   1      -6.000  -0.149   2.679  0.00  0.00    -0.070 Cl
ATOM      8 Cl1  UNL d   1      -5.509  -0.575   5.869  0.00  0.00    -0.070 Cl
ENDROOT
TORSDOF 0
ENDMDL
