MODEL 1
REMARK minimizedAffinity 5.15459776
REMARK minimizedRMSD -1
REMARK  0 active torsions:
REMARK  status: ('A' for Active; 'I' for Inactive)
ROOT
ATOM      1  C   UNL d   1      -2.097  -5.997   3.036  0.00  0.00     0.020 A 
ATOM      2  C1  UNL d   1      -1.575  -5.996   1.743  0.00  0.00     0.020 A 
ATOM      3  C2  UNL d   1      -0.192  -5.994   1.548  0.00  0.00     0.034 A 
ATOM      4  C3  UNL d   1       0.673  -5.995   2.648  0.00  0.00     0.017 A 
ATOM      5  C4  UNL d   1       0.149  -5.996   3.945  0.00  0.00     0.017 A 
ATOM      6  C5  UNL d   1      -1.237  -5.998   4.134  0.00  0.00     0.034 A 
ATOM      7 Cl   UNL d   1       1.153  -5.997   5.351  0.00  0.00    -0.070 Cl
ATOM      8 Cl1  UNL d   1       2.372  -5.993   2.333  0.00  0.00    -0.070 Cl
ENDROOT
TORSDOF 0
ENDMDL
