MODEL 1
REMARK minimizedAffinity 9.32860565
REMARK minimizedRMSD -1
REMARK  0 active torsions:
REMARK  status: ('A' for Active; 'I' for Inactive)
ROOT
ATOM      1  C   UNL d   1       0.665   0.351   0.502  0.00  0.00     0.020 A 
ATOM      2  C1  UNL d   1       0.269   1.227   1.513  0.00  0.00     0.020 A 
ATOM      3  C2  UNL d   1      -0.678   0.822   2.456  0.00  0.00     0.034 A 
ATOM      4  C3  UNL d   1      -1.231  -0.461   2.392  0.00  0.00     0.017 A 
ATOM      5  C4  UNL d   1      -0.834  -1.340   1.378  0.00  0.00     0.017 A 
ATOM      6  C5  UNL d   1       0.114  -0.929   0.435  0.00  0.00     0.034 A 
ATOM      7 Cl   UNL d   1      -1.472  -2.939   1.233  0.00  0.00    -0.070 Cl
ATOM      8 Cl1  UNL d   1      -2.396  -0.895   3.592  0.00  0.00    -0.070 Cl
ENDROOT
TORSDOF 0
ENDMDL
