MODEL 1
REMARK minimizedAffinity 12.9720173
REMARK minimizedRMSD -1
REMARK  0 active torsions:
REMARK  status: ('A' for Active; 'I' for Inactive)
ROOT
ATOM      1  C   UNL d   1       1.950  -1.506  -3.121  0.00  0.00     0.020 A 
ATOM      2  C1  UNL d   1       2.159  -2.689  -3.828  0.00  0.00     0.020 A 
ATOM      3  C2  UNL d   1       1.082  -3.344  -4.429  0.00  0.00     0.034 A 
ATOM      4  C3  UNL d   1      -0.210  -2.816  -4.323  0.00  0.00     0.017 A 
ATOM      5  C4  UNL d   1      -0.419  -1.628  -3.613  0.00  0.00     0.017 A 
ATOM      6  C5  UNL d   1       0.663  -0.977  -3.013  0.00  0.00     0.034 A 
ATOM      7 Cl   UNL d   1      -1.984  -0.916  -3.439  0.00  0.00    -0.070 Cl
ATOM      8 Cl1  UNL d   1      -1.496  -3.678  -5.091  0.00  0.00    -0.070 Cl
ENDROOT
TORSDOF 0
ENDMDL
