MODEL 1
REMARK minimizedAffinity 11.3770742
REMARK minimizedRMSD -1
REMARK  0 active torsions:
REMARK  status: ('A' for Active; 'I' for Inactive)
ROOT
ATOM      1  C   UNL d   1      -1.376  -0.868   2.919  0.00  0.00     0.020 A 
ATOM      2  C1  UNL d   1      -1.338   0.502   3.172  0.00  0.00     0.020 A 
ATOM      3  C2  UNL d   1      -0.632   1.351   2.316  0.00  0.00     0.034 A 
ATOM      4  C3  UNL d   1       0.037   0.830   1.203  0.00  0.00     0.017 A 
ATOM      5  C4  UNL d   1      -0.002  -0.546   0.950  0.00  0.00     0.017 A 
ATOM      6  C5  UNL d   1      -0.710  -1.391   1.810  0.00  0.00     0.034 A 
ATOM      7 Cl   UNL d   1       0.799  -1.263  -0.403  0.00  0.00    -0.070 Cl
ATOM      8 Cl1  UNL d   1       0.890   1.937   0.187  0.00  0.00    -0.070 Cl
ENDROOT
TORSDOF 0
ENDMDL
