MODEL 1
REMARK minimizedAffinity 11.4453125
REMARK minimizedRMSD -1
REMARK  0 active torsions:
REMARK  status: ('A' for Active; 'I' for Inactive)
ROOT
ATOM      1  C   UNL d   1      -5.722   2.683   5.334  0.00  0.00     0.020 A 
ATOM      2  C1  UNL d   1      -5.918   2.810   3.959  0.00  0.00     0.020 A 
ATOM      3  C2  UNL d   1      -6.000   1.669   3.158  0.00  0.00     0.034 A 
ATOM      4  C3  UNL d   1      -5.886   0.397   3.730  0.00  0.00     0.017 A 
ATOM      5  C4  UNL d   1      -5.689   0.270   5.110  0.00  0.00     0.017 A 
ATOM      6  C5  UNL d   1      -5.607   1.416   5.908  0.00  0.00     0.034 A 
ATOM      7 Cl   UNL d   1      -5.539  -1.266   5.888  0.00  0.00    -0.070 Cl
ATOM      8 Cl1  UNL d   1      -5.997  -0.970   2.678  0.00  0.00    -0.070 Cl
ENDROOT
TORSDOF 0
ENDMDL
