MODEL 1
REMARK minimizedAffinity 11.573638
REMARK minimizedRMSD -1
REMARK  0 active torsions:
REMARK  status: ('A' for Active; 'I' for Inactive)
ROOT
ATOM      1  C   UNL d   1      -0.798  -3.034  -4.407  0.00  0.00     0.020 A 
ATOM      2  C1  UNL d   1      -1.697  -2.896  -3.350  0.00  0.00     0.020 A 
ATOM      3  C2  UNL d   1      -1.327  -2.181  -2.208  0.00  0.00     0.034 A 
ATOM      4  C3  UNL d   1      -0.056  -1.601  -2.121  0.00  0.00     0.017 A 
ATOM      5  C4  UNL d   1       0.845  -1.740  -3.183  0.00  0.00     0.017 A 
ATOM      6  C5  UNL d   1       0.470  -2.457  -4.324  0.00  0.00     0.034 A 
ATOM      7 Cl   UNL d   1       2.431  -1.054  -3.149  0.00  0.00    -0.070 Cl
ATOM      8 Cl1  UNL d   1       0.333  -0.731  -0.680  0.00  0.00    -0.070 Cl
ENDROOT
TORSDOF 0
ENDMDL
