MODEL 1
REMARK minimizedAffinity 3.5928371
REMARK minimizedRMSD -1
REMARK  0 active torsions:
REMARK  status: ('A' for Active; 'I' for Inactive)
ROOT
ATOM      1  C   UNL d   1      -0.144  -5.997   1.127  0.00  0.00     0.020 A 
ATOM      2  C1  UNL d   1      -1.158  -5.997   2.083  0.00  0.00     0.020 A 
ATOM      3  C2  UNL d   1      -0.836  -5.992   3.442  0.00  0.00     0.034 A 
ATOM      4  C3  UNL d   1       0.503  -5.987   3.848  0.00  0.00     0.017 A 
ATOM      5  C4  UNL d   1       1.521  -5.986   2.888  0.00  0.00     0.017 A 
ATOM      6  C5  UNL d   1       1.193  -5.992   1.528  0.00  0.00     0.034 A 
ATOM      7 Cl   UNL d   1       3.196  -5.980   3.312  0.00  0.00    -0.070 Cl
ATOM      8 Cl1  UNL d   1       0.828  -5.980   5.546  0.00  0.00    -0.070 Cl
ENDROOT
TORSDOF 0
ENDMDL
