MODEL 1
REMARK minimizedAffinity 9.41441441
REMARK minimizedRMSD -1
REMARK  0 active torsions:
REMARK  status: ('A' for Active; 'I' for Inactive)
ROOT
ATOM      1  C   UNL d   1      -1.995  -1.715   2.949  0.00  0.00     0.020 A 
ATOM      2  C1  UNL d   1      -2.110  -2.404   1.743  0.00  0.00     0.020 A 
ATOM      3  C2  UNL d   1      -3.355  -2.525   1.123  0.00  0.00     0.034 A 
ATOM      4  C3  UNL d   1      -4.492  -1.957   1.710  0.00  0.00     0.017 A 
ATOM      5  C4  UNL d   1      -4.376  -1.265   2.921  0.00  0.00     0.017 A 
ATOM      6  C5  UNL d   1      -3.126  -1.147   3.537  0.00  0.00     0.034 A 
ATOM      7 Cl   UNL d   1      -5.732  -0.537   3.706  0.00  0.00    -0.070 Cl
ATOM      8 Cl1  UNL d   1      -6.000  -2.145   0.889  0.00  0.00    -0.070 Cl
ENDROOT
TORSDOF 0
ENDMDL
