MODEL 1
REMARK minimizedAffinity 6.65816545
REMARK minimizedRMSD -1
REMARK  0 active torsions:
REMARK  status: ('A' for Active; 'I' for Inactive)
ROOT
ATOM      1  C   UNL d   1      -2.034  -1.758  -3.115  0.00  0.00     0.020 A 
ATOM      2  C1  UNL d   1      -2.290  -2.817  -3.985  0.00  0.00     0.020 A 
ATOM      3  C2  UNL d   1      -1.273  -3.308  -4.806  0.00  0.00     0.034 A 
ATOM      4  C3  UNL d   1       0.005  -2.740  -4.759  0.00  0.00     0.017 A 
ATOM      5  C4  UNL d   1       0.262  -1.678  -3.885  0.00  0.00     0.017 A 
ATOM      6  C5  UNL d   1      -0.760  -1.190  -3.065  0.00  0.00     0.034 A 
ATOM      7 Cl   UNL d   1       1.814  -0.925  -3.771  0.00  0.00    -0.070 Cl
ATOM      8 Cl1  UNL d   1       1.216  -3.398  -5.802  0.00  0.00    -0.070 Cl
ENDROOT
TORSDOF 0
ENDMDL
