MODEL 1
REMARK minimizedAffinity 7.42770958
REMARK minimizedRMSD -1
REMARK  0 active torsions:
REMARK  status: ('A' for Active; 'I' for Inactive)
ROOT
ATOM      1  C   UNL d   1      -1.373  -1.129   3.260  0.00  0.00     0.020 A 
ATOM      2  C1  UNL d   1      -1.285  -2.219   2.395  0.00  0.00     0.020 A 
ATOM      3  C2  UNL d   1      -0.425  -2.171   1.296  0.00  0.00     0.034 A 
ATOM      4  C3  UNL d   1       0.349  -1.030   1.058  0.00  0.00     0.017 A 
ATOM      5  C4  UNL d   1       0.260   0.064   1.926  0.00  0.00     0.017 A 
ATOM      6  C5  UNL d   1      -0.603   0.010   3.025  0.00  0.00     0.034 A 
ATOM      7 Cl   UNL d   1       1.184   1.507   1.698  0.00  0.00    -0.070 Cl
ATOM      8 Cl1  UNL d   1       1.391  -1.039  -0.321  0.00  0.00    -0.070 Cl
ENDROOT
TORSDOF 0
ENDMDL
