MODEL 1
REMARK minimizedAffinity 9.73522758
REMARK minimizedRMSD -1
REMARK  0 active torsions:
REMARK  status: ('A' for Active; 'I' for Inactive)
ROOT
ATOM      1  C   UNL d   1      -3.103  -5.999   2.357  0.00  0.00     0.020 A 
ATOM      2  C1  UNL d   1      -2.959  -5.999   0.970  0.00  0.00     0.020 A 
ATOM      3  C2  UNL d   1      -1.684  -5.999   0.401  0.00  0.00     0.034 A 
ATOM      4  C3  UNL d   1      -0.548  -5.999   1.218  0.00  0.00     0.017 A 
ATOM      5  C4  UNL d   1      -0.693  -5.998   2.610  0.00  0.00     0.017 A 
ATOM      6  C5  UNL d   1      -1.972  -5.999   3.175  0.00  0.00     0.034 A 
ATOM      7 Cl   UNL d   1       0.661  -5.998   3.684  0.00  0.00    -0.070 Cl
ATOM      8 Cl1  UNL d   1       0.998  -5.999   0.446  0.00  0.00    -0.070 Cl
ENDROOT
TORSDOF 0
ENDMDL
