MODEL 1
REMARK minimizedAffinity -0.247082174
REMARK minimizedRMSD -1
REMARK  1 active torsions:
REMARK  status: ('A' for Active; 'I' for Inactive)
REMARK    1  A    between atoms: C1_2  and  C2_3 
ROOT
ATOM      1  C2  UNL d   1      -1.891  -1.647  -1.790  0.00  0.00    -0.077 A 
ATOM      2  C3  UNL d   1      -2.024  -2.892  -1.159  0.00  0.00     0.002 A 
ATOM      3  C4  UNL d   1      -2.370  -4.025  -1.897  0.00  0.00     0.002 A 
ATOM      4  C5  UNL d   1      -2.581  -3.927  -3.270  0.00  0.00    -0.004 A 
ATOM      5  C6  UNL d   1      -2.453  -2.693  -3.908  0.00  0.00     0.002 A 
ATOM      6  C7  UNL d   1      -2.108  -1.559  -3.171  0.00  0.00     0.002 A 
ENDROOT
BRANCH   1   7
ATOM      7  C1  UNL d   1      -1.470  -0.433  -1.004  0.00  0.00     0.055 C 
ATOM      8  C   UNL d   1      -0.474  -0.798   0.087  0.00  0.00     0.019 C 
ENDBRANCH   1   7
TORSDOF 1
ENDMDL
