MODEL 1
REMARK minimizedAffinity -0.842052817
REMARK minimizedRMSD -1
REMARK  1 active torsions:
REMARK  status: ('A' for Active; 'I' for Inactive)
REMARK    1  A    between atoms: C1_2  and  C2_3 
ROOT
ATOM      1  C2  UNL d   1      -5.331   5.370   2.158  0.00  0.00    -0.077 A 
ATOM      2  C3  UNL d   1      -6.000   4.162   1.913  0.00  0.00     0.002 A 
ATOM      3  C4  UNL d   1      -5.925   3.556   0.658  0.00  0.00     0.002 A 
ATOM      4  C5  UNL d   1      -5.180   4.148  -0.360  0.00  0.00    -0.004 A 
ATOM      5  C6  UNL d   1      -4.514   5.350  -0.127  0.00  0.00     0.002 A 
ATOM      6  C7  UNL d   1      -4.588   5.958   1.127  0.00  0.00     0.002 A 
ENDROOT
BRANCH   1   7
ATOM      7  C1  UNL d   1      -5.370   6.000   3.526  0.00  0.00     0.055 C 
ATOM      8  C   UNL d   1      -4.112   5.678   4.320  0.00  0.00     0.019 C 
ENDBRANCH   1   7
TORSDOF 1
ENDMDL
