MODEL 1
REMARK minimizedAffinity -1.54231095
REMARK minimizedRMSD -1
REMARK  1 active torsions:
REMARK  status: ('A' for Active; 'I' for Inactive)
REMARK    1  A    between atoms: C1_2  and  C2_3 
ROOT
ATOM      1  C2  UNL d   1      -2.035  -1.389  -2.499  0.00  0.00    -0.077 A 
ATOM      2  C3  UNL d   1      -1.527  -0.330  -3.264  0.00  0.00     0.002 A 
ATOM      3  C4  UNL d   1      -0.591   0.550  -2.717  0.00  0.00     0.002 A 
ATOM      4  C5  UNL d   1      -0.153   0.378  -1.405  0.00  0.00    -0.004 A 
ATOM      5  C6  UNL d   1      -0.654  -0.672  -0.636  0.00  0.00     0.002 A 
ATOM      6  C7  UNL d   1      -1.591  -1.552  -1.181  0.00  0.00     0.002 A 
ENDROOT
BRANCH   1   7
ATOM      7  C1  UNL d   1      -3.008  -2.369  -3.103  0.00  0.00     0.055 C 
ATOM      8  C   UNL d   1      -2.562  -3.805  -2.872  0.00  0.00     0.019 C 
ENDBRANCH   1   7
TORSDOF 1
ENDMDL
