MODEL 1
REMARK minimizedAffinity -3.83157253
REMARK minimizedRMSD -1
REMARK  1 active torsions:
REMARK  status: ('A' for Active; 'I' for Inactive)
REMARK    1  A    between atoms: C1_2  and  C2_3 
ROOT
ATOM      1  C2  UNL d   1      -5.440   5.061   3.598  0.00  0.00    -0.077 A 
ATOM      2  C3  UNL d   1      -4.876   3.793   3.402  0.00  0.00     0.002 A 
ATOM      3  C4  UNL d   1      -4.507   3.007   4.496  0.00  0.00     0.002 A 
ATOM      4  C5  UNL d   1      -4.702   3.479   5.792  0.00  0.00    -0.004 A 
ATOM      5  C6  UNL d   1      -5.261   4.740   5.998  0.00  0.00     0.002 A 
ATOM      6  C7  UNL d   1      -5.629   5.527   4.906  0.00  0.00     0.002 A 
ENDROOT
BRANCH   1   7
ATOM      7  C1  UNL d   1      -5.884   5.889   2.421  0.00  0.00     0.055 C 
ATOM      8  C   UNL d   1      -4.882   5.811   1.279  0.00  0.00     0.019 C 
ENDBRANCH   1   7
TORSDOF 1
ENDMDL
