MODEL 1
REMARK minimizedAffinity 0.866531789
REMARK minimizedRMSD -1
REMARK  1 active torsions:
REMARK  status: ('A' for Active; 'I' for Inactive)
REMARK    1  A    between atoms: C1_2  and  C2_3 
ROOT
ATOM      1  C2  UNL d   1       1.625  -0.224  -0.850  0.00  0.00    -0.077 A 
ATOM      2  C3  UNL d   1       1.481  -0.563   0.503  0.00  0.00     0.002 A 
ATOM      3  C4  UNL d   1       0.211  -0.686   1.069  0.00  0.00     0.002 A 
ATOM      4  C5  UNL d   1      -0.925  -0.475   0.289  0.00  0.00    -0.004 A 
ATOM      5  C6  UNL d   1      -0.792  -0.136  -1.056  0.00  0.00     0.002 A 
ATOM      6  C7  UNL d   1       0.477  -0.012  -1.624  0.00  0.00     0.002 A 
ENDROOT
BRANCH   1   7
ATOM      7  C1  UNL d   1       2.993  -0.139  -1.475  0.00  0.00     0.055 C 
ATOM      8  C   UNL d   1       2.917  -0.248  -2.991  0.00  0.00     0.019 C 
ENDBRANCH   1   7
TORSDOF 1
ENDMDL
