MODEL 1
REMARK minimizedAffinity 0.190948591
REMARK minimizedRMSD -1
REMARK  1 active torsions:
REMARK  status: ('A' for Active; 'I' for Inactive)
REMARK    1  A    between atoms: C1_2  and  C2_3 
ROOT
ATOM      1  C2  UNL d   1       0.594   0.280  -1.779  0.00  0.00    -0.077 A 
ATOM      2  C3  UNL d   1       0.195   0.330  -3.122  0.00  0.00     0.002 A 
ATOM      3  C4  UNL d   1       1.097   0.013  -4.140  0.00  0.00     0.002 A 
ATOM      4  C5  UNL d   1       2.401  -0.360  -3.825  0.00  0.00    -0.004 A 
ATOM      5  C6  UNL d   1       2.809  -0.411  -2.493  0.00  0.00     0.002 A 
ATOM      6  C7  UNL d   1       1.909  -0.094  -1.474  0.00  0.00     0.002 A 
ENDROOT
BRANCH   1   7
ATOM      7  C1  UNL d   1      -0.391   0.574  -0.678  0.00  0.00     0.055 C 
ATOM      8  C   UNL d   1      -0.259  -0.424   0.463  0.00  0.00     0.019 C 
ENDBRANCH   1   7
TORSDOF 1
ENDMDL
