MODEL 1
REMARK minimizedAffinity 4.32643366
REMARK minimizedRMSD -1
REMARK  1 active torsions:
REMARK  status: ('A' for Active; 'I' for Inactive)
REMARK    1  A    between atoms: C1_2  and  C2_3 
ROOT
ATOM      1  C2  UNL d   1       1.407  -0.275  -1.872  0.00  0.00    -0.077 A 
ATOM      2  C3  UNL d   1       0.612   0.130  -2.954  0.00  0.00     0.002 A 
ATOM      3  C4  UNL d   1       1.106   0.060  -4.258  0.00  0.00     0.002 A 
ATOM      4  C5  UNL d   1       2.393  -0.418  -4.492  0.00  0.00    -0.004 A 
ATOM      5  C6  UNL d   1       3.192  -0.822  -3.423  0.00  0.00     0.002 A 
ATOM      6  C7  UNL d   1       2.701  -0.751  -2.119  0.00  0.00     0.002 A 
ENDROOT
BRANCH   1   7
ATOM      7  C1  UNL d   1       0.859  -0.246  -0.469  0.00  0.00     0.055 C 
ATOM      8  C   UNL d   1      -0.641  -0.505  -0.455  0.00  0.00     0.019 C 
ENDBRANCH   1   7
TORSDOF 1
ENDMDL
