MODEL 1
REMARK minimizedAffinity 7.89683962
REMARK minimizedRMSD -1
REMARK  1 active torsions:
REMARK  status: ('A' for Active; 'I' for Inactive)
REMARK    1  A    between atoms: C1_2  and  C2_3 
ROOT
ATOM      1  C2  UNL d   1      -2.046  -2.167  -2.050  0.00  0.00    -0.077 A 
ATOM      2  C3  UNL d   1      -2.715  -3.397  -2.127  0.00  0.00     0.002 A 
ATOM      3  C4  UNL d   1      -3.124  -3.902  -3.362  0.00  0.00     0.002 A 
ATOM      4  C5  UNL d   1      -2.866  -3.187  -4.530  0.00  0.00    -0.004 A 
ATOM      5  C6  UNL d   1      -2.203  -1.962  -4.464  0.00  0.00     0.002 A 
ATOM      6  C7  UNL d   1      -1.794  -1.455  -3.230  0.00  0.00     0.002 A 
ENDROOT
BRANCH   1   7
ATOM      7  C1  UNL d   1      -1.560  -1.644  -0.724  0.00  0.00     0.055 C 
ATOM      8  C   UNL d   1      -0.639  -0.446  -0.905  0.00  0.00     0.019 C 
ENDBRANCH   1   7
TORSDOF 1
ENDMDL
