MODEL 1
REMARK minimizedAffinity 4.82648134
REMARK minimizedRMSD -1
REMARK  1 active torsions:
REMARK  status: ('A' for Active; 'I' for Inactive)
REMARK    1  A    between atoms: C1_2  and  C2_3 
ROOT
ATOM      1  C2  UNL d   1      -2.194  -2.045  -1.912  0.00  0.00    -0.077 A 
ATOM      2  C3  UNL d   1      -2.518  -0.779  -2.419  0.00  0.00     0.002 A 
ATOM      3  C4  UNL d   1      -1.966   0.371  -1.851  0.00  0.00     0.002 A 
ATOM      4  C5  UNL d   1      -1.086   0.266  -0.776  0.00  0.00    -0.004 A 
ATOM      5  C6  UNL d   1      -0.760  -0.989  -0.263  0.00  0.00     0.002 A 
ATOM      6  C7  UNL d   1      -1.311  -2.139  -0.829  0.00  0.00     0.002 A 
ENDROOT
BRANCH   1   7
ATOM      7  C1  UNL d   1      -2.749  -3.289  -2.555  0.00  0.00     0.055 C 
ATOM      8  C   UNL d   1      -2.438  -3.329  -4.044  0.00  0.00     0.019 C 
ENDBRANCH   1   7
TORSDOF 1
ENDMDL
