MODEL 1
REMARK minimizedAffinity -2.23303771
REMARK minimizedRMSD -1
REMARK  1 active torsions:
REMARK  status: ('A' for Active; 'I' for Inactive)
REMARK    1  A    between atoms: C1_2  and  C2_3 
ROOT
ATOM      1  C2  UNL d   1      -4.735   3.538   5.273  0.00  0.00    -0.077 A 
ATOM      2  C3  UNL d   1      -4.583   4.736   5.986  0.00  0.00     0.002 A 
ATOM      3  C4  UNL d   1      -4.576   5.961   5.315  0.00  0.00     0.002 A 
ATOM      4  C5  UNL d   1      -4.724   6.000   3.931  0.00  0.00    -0.004 A 
ATOM      5  C6  UNL d   1      -4.874   4.814   3.212  0.00  0.00     0.002 A 
ATOM      6  C7  UNL d   1      -4.880   3.589   3.880  0.00  0.00     0.002 A 
ENDROOT
BRANCH   1   7
ATOM      7  C1  UNL d   1      -4.793   2.220   5.999  0.00  0.00     0.055 C 
ATOM      8  C   UNL d   1      -4.439   1.063   5.075  0.00  0.00     0.019 C 
ENDBRANCH   1   7
TORSDOF 1
ENDMDL
