MODEL 1
REMARK minimizedAffinity -1.81207716
REMARK minimizedRMSD -1
REMARK  1 active torsions:
REMARK  status: ('A' for Active; 'I' for Inactive)
REMARK    1  A    between atoms: C1_2  and  C2_3 
ROOT
ATOM      1  C2  UNL d   1      -5.334   5.435   1.334  0.00  0.00    -0.077 A 
ATOM      2  C3  UNL d   1      -4.059   4.882   1.519  0.00  0.00     0.002 A 
ATOM      3  C4  UNL d   1      -3.462   4.890   2.781  0.00  0.00     0.002 A 
ATOM      4  C5  UNL d   1      -4.133   5.446   3.868  0.00  0.00    -0.004 A 
ATOM      5  C6  UNL d   1      -5.401   6.000   3.694  0.00  0.00     0.002 A 
ATOM      6  C7  UNL d   1      -5.999   5.994   2.433  0.00  0.00     0.002 A 
ENDROOT
BRANCH   1   7
ATOM      7  C1  UNL d   1      -6.000   5.383  -0.016  0.00  0.00     0.055 C 
ATOM      8  C   UNL d   1      -5.016   5.705  -1.131  0.00  0.00     0.019 C 
ENDBRANCH   1   7
TORSDOF 1
ENDMDL
