MODEL 1
REMARK minimizedAffinity 1.64686275
REMARK minimizedRMSD -1
REMARK  1 active torsions:
REMARK  status: ('A' for Active; 'I' for Inactive)
REMARK    1  A    between atoms: C1_2  and  C2_3 
ROOT
ATOM      1  C2  UNL d   1       2.434   2.202   3.405  0.00  0.00    -0.077 A 
ATOM      2  C3  UNL d   1       2.950   0.902   3.314  0.00  0.00     0.002 A 
ATOM      3  C4  UNL d   1       2.511  -0.094   4.188  0.00  0.00     0.002 A 
ATOM      4  C5  UNL d   1       1.551   0.198   5.155  0.00  0.00    -0.004 A 
ATOM      5  C6  UNL d   1       1.033   1.489   5.254  0.00  0.00     0.002 A 
ATOM      6  C7  UNL d   1       1.472   2.486   4.383  0.00  0.00     0.002 A 
ENDROOT
BRANCH   1   7
ATOM      7  C1  UNL d   1       2.870   3.266   2.431  0.00  0.00     0.055 C 
ATOM      8  C   UNL d   1       2.370   2.968   1.025  0.00  0.00     0.019 C 
ENDBRANCH   1   7
TORSDOF 1
ENDMDL
