MODEL 1
REMARK minimizedAffinity -1.72199178
REMARK minimizedRMSD -1
REMARK  2 active torsions:
REMARK  status: ('A' for Active; 'I' for Inactive)
REMARK    1  A    between atoms: C1_2  and  C2_3 
REMARK    2  A    between atoms: C2_3  and  C3_4 
ROOT
ATOM      1  C3  UNL d   1      -0.106   0.293   0.896  0.00  0.00    -0.075 A 
ATOM      2  C4  UNL d   1      -0.239   0.962   2.122  0.00  0.00     0.002 A 
ATOM      3  C5  UNL d   1      -1.168   1.993   2.268  0.00  0.00     0.002 A 
ATOM      4  C6  UNL d   1      -1.965   2.375   1.191  0.00  0.00    -0.004 A 
ATOM      5  C7  UNL d   1      -1.828   1.728  -0.036  0.00  0.00     0.002 A 
ATOM      6  C8  UNL d   1      -0.904   0.693  -0.184  0.00  0.00     0.002 A 
ENDROOT
BRANCH   1   7
ATOM      7  C2  UNL d   1       0.876  -0.844   0.740  0.00  0.00     0.056 C 
BRANCH   7   8
ATOM      8  C1  UNL d   1       1.317  -1.093  -0.706  0.00  0.00     0.007 C 
ATOM      9  C   UNL d   1       1.118  -2.535  -1.155  0.00  0.00     0.009 C 
ENDBRANCH   7   8
ENDBRANCH   1   7
TORSDOF 2
ENDMDL
