MODEL 1
REMARK minimizedAffinity -5.91353083
REMARK minimizedRMSD -1
REMARK  2 active torsions:
REMARK  status: ('A' for Active; 'I' for Inactive)
REMARK    1  A    between atoms: C1_2  and  C2_3 
REMARK    2  A    between atoms: C2_3  and  C3_4 
ROOT
ATOM      1  C3  UNL d   1       0.062   0.056  -0.010  0.00  0.00    -0.075 A 
ATOM      2  C4  UNL d   1      -0.314   1.398  -0.161  0.00  0.00     0.002 A 
ATOM      3  C5  UNL d   1      -1.002   2.060   0.856  0.00  0.00     0.002 A 
ATOM      4  C6  UNL d   1      -1.332   1.387   2.030  0.00  0.00    -0.004 A 
ATOM      5  C7  UNL d   1      -0.977   0.049   2.185  0.00  0.00     0.002 A 
ATOM      6  C8  UNL d   1      -0.285  -0.615   1.170  0.00  0.00     0.002 A 
ENDROOT
BRANCH   1   7
ATOM      7  C2  UNL d   1       0.833  -0.657  -1.095  0.00  0.00     0.056 C 
BRANCH   7   8
ATOM      8  C1  UNL d   1       1.164  -2.117  -0.768  0.00  0.00     0.007 C 
ATOM      9  C   UNL d   1       0.846  -3.075  -1.909  0.00  0.00     0.009 C 
ENDBRANCH   7   8
ENDBRANCH   1   7
TORSDOF 2
ENDMDL
