MODEL 1
REMARK minimizedAffinity -3.31991839
REMARK minimizedRMSD -1
REMARK  2 active torsions:
REMARK  status: ('A' for Active; 'I' for Inactive)
REMARK    1  A    between atoms: C1_2  and  C2_3 
REMARK    2  A    between atoms: C2_3  and  C3_4 
ROOT
ATOM      1  C3  UNL d   1      -1.064   1.243   0.080  0.00  0.00    -0.075 A 
ATOM      2  C4  UNL d   1      -0.650  -0.019   0.528  0.00  0.00     0.002 A 
ATOM      3  C5  UNL d   1       0.571  -0.553   0.114  0.00  0.00     0.002 A 
ATOM      4  C6  UNL d   1       1.386   0.163  -0.760  0.00  0.00    -0.004 A 
ATOM      5  C7  UNL d   1       0.977   1.411  -1.224  0.00  0.00     0.002 A 
ATOM      6  C8  UNL d   1      -0.242   1.949  -0.808  0.00  0.00     0.002 A 
ENDROOT
BRANCH   1   7
ATOM      7  C2  UNL d   1      -2.371   1.839   0.548  0.00  0.00     0.056 C 
BRANCH   7   8
ATOM      8  C1  UNL d   1      -2.232   2.785   1.745  0.00  0.00     0.007 C 
ATOM      9  C   UNL d   1      -1.035   2.462   2.629  0.00  0.00     0.009 C 
ENDBRANCH   7   8
ENDBRANCH   1   7
TORSDOF 2
ENDMDL
