MODEL 1
REMARK minimizedAffinity -5.83734226
REMARK minimizedRMSD -1
REMARK  2 active torsions:
REMARK  status: ('A' for Active; 'I' for Inactive)
REMARK    1  A    between atoms: C1_2  and  C2_3 
REMARK    2  A    between atoms: C2_3  and  C3_4 
ROOT
ATOM      1  C3  UNL d   1       0.205  -0.018   0.231  0.00  0.00    -0.075 A 
ATOM      2  C4  UNL d   1      -0.626   0.841  -0.503  0.00  0.00     0.002 A 
ATOM      3  C5  UNL d   1      -1.573   1.635   0.144  0.00  0.00     0.002 A 
ATOM      4  C6  UNL d   1      -1.708   1.574   1.529  0.00  0.00    -0.004 A 
ATOM      5  C7  UNL d   1      -0.899   0.713   2.267  0.00  0.00     0.002 A 
ATOM      6  C8  UNL d   1       0.052  -0.080   1.623  0.00  0.00     0.002 A 
ENDROOT
BRANCH   1   7
ATOM      7  C2  UNL d   1       1.252  -0.858  -0.460  0.00  0.00     0.056 C 
BRANCH   7   8
ATOM      8  C1  UNL d   1       0.697  -1.756  -1.571  0.00  0.00     0.007 C 
ATOM      9  C   UNL d   1       1.386  -3.112  -1.648  0.00  0.00     0.009 C 
ENDBRANCH   7   8
ENDBRANCH   1   7
TORSDOF 2
ENDMDL
