MODEL 1
REMARK minimizedAffinity -5.56174707
REMARK minimizedRMSD -1
REMARK  2 active torsions:
REMARK  status: ('A' for Active; 'I' for Inactive)
REMARK    1  A    between atoms: C1_2  and  C2_3 
REMARK    2  A    between atoms: C2_3  and  C3_4 
ROOT
ATOM      1  C3  UNL d   1       0.108   0.022   0.389  0.00  0.00    -0.075 A 
ATOM      2  C4  UNL d   1      -0.433   1.085  -0.349  0.00  0.00     0.002 A 
ATOM      3  C5  UNL d   1      -1.232   2.045   0.273  0.00  0.00     0.002 A 
ATOM      4  C6  UNL d   1      -1.508   1.950   1.635  0.00  0.00    -0.004 A 
ATOM      5  C7  UNL d   1      -0.989   0.889   2.374  0.00  0.00     0.002 A 
ATOM      6  C8  UNL d   1      -0.186  -0.071   1.755  0.00  0.00     0.002 A 
ENDROOT
BRANCH   1   7
ATOM      7  C2  UNL d   1       0.997  -1.004  -0.273  0.00  0.00     0.056 C 
BRANCH   7   8
ATOM      8  C1  UNL d   1       0.492  -1.478  -1.639  0.00  0.00     0.007 C 
ATOM      9  C   UNL d   1       0.818  -2.938  -1.926  0.00  0.00     0.009 C 
ENDBRANCH   7   8
ENDBRANCH   1   7
TORSDOF 2
ENDMDL
