MODEL 1
REMARK minimizedAffinity -4.49276114
REMARK minimizedRMSD -1
REMARK  2 active torsions:
REMARK  status: ('A' for Active; 'I' for Inactive)
REMARK    1  A    between atoms: C1_2  and  C2_3 
REMARK    2  A    between atoms: C2_3  and  C3_4 
ROOT
ATOM      1  C3  UNL d   1       1.186  -2.266  -1.359  0.00  0.00    -0.075 A 
ATOM      2  C4  UNL d   1       0.334  -2.822  -2.324  0.00  0.00     0.002 A 
ATOM      3  C5  UNL d   1       0.310  -4.200  -2.539  0.00  0.00     0.002 A 
ATOM      4  C6  UNL d   1       1.143  -5.038  -1.801  0.00  0.00    -0.004 A 
ATOM      5  C7  UNL d   1       2.006  -4.495  -0.851  0.00  0.00     0.002 A 
ATOM      6  C8  UNL d   1       2.029  -3.117  -0.631  0.00  0.00     0.002 A 
ENDROOT
BRANCH   1   7
ATOM      7  C2  UNL d   1       1.195  -0.779  -1.100  0.00  0.00     0.056 C 
BRANCH   7   8
ATOM      8  C1  UNL d   1       0.366  -0.352   0.116  0.00  0.00     0.007 C 
ATOM      9  C   UNL d   1      -0.587   0.798  -0.181  0.00  0.00     0.009 C 
ENDBRANCH   7   8
ENDBRANCH   1   7
TORSDOF 2
ENDMDL
