MODEL 1
REMARK minimizedAffinity -4.77293491
REMARK minimizedRMSD -1
REMARK  2 active torsions:
REMARK  status: ('A' for Active; 'I' for Inactive)
REMARK    1  A    between atoms: C1_2  and  C2_3 
REMARK    2  A    between atoms: C2_3  and  C3_4 
ROOT
ATOM      1  C3  UNL d   1       0.244   0.106   0.224  0.00  0.00    -0.075 A 
ATOM      2  C4  UNL d   1      -0.274   1.222  -0.448  0.00  0.00     0.002 A 
ATOM      3  C5  UNL d   1      -1.206   2.053   0.174  0.00  0.00     0.002 A 
ATOM      4  C6  UNL d   1      -1.639   1.774   1.468  0.00  0.00    -0.004 A 
ATOM      5  C7  UNL d   1      -1.143   0.659   2.139  0.00  0.00     0.002 A 
ATOM      6  C8  UNL d   1      -0.207  -0.172   1.521  0.00  0.00     0.002 A 
ENDROOT
BRANCH   1   7
ATOM      7  C2  UNL d   1       1.275  -0.781  -0.433  0.00  0.00     0.056 C 
BRANCH   7   8
ATOM      8  C1  UNL d   1       0.704  -1.710  -1.509  0.00  0.00     0.007 C 
ATOM      9  C   UNL d   1       1.373  -3.078  -1.538  0.00  0.00     0.009 C 
ENDBRANCH   7   8
ENDBRANCH   1   7
TORSDOF 2
ENDMDL
