MODEL 1
REMARK minimizedAffinity -6.07209444
REMARK minimizedRMSD -1
REMARK  2 active torsions:
REMARK  status: ('A' for Active; 'I' for Inactive)
REMARK    1  A    between atoms: C1_2  and  C2_3 
REMARK    2  A    between atoms: C2_3  and  C3_4 
ROOT
ATOM      1  C3  UNL d   1       0.093   0.188   0.130  0.00  0.00    -0.075 A 
ATOM      2  C4  UNL d   1      -0.579   1.335  -0.320  0.00  0.00     0.002 A 
ATOM      3  C5  UNL d   1      -1.484   1.997   0.510  0.00  0.00     0.002 A 
ATOM      4  C6  UNL d   1      -1.737   1.517   1.793  0.00  0.00    -0.004 A 
ATOM      5  C7  UNL d   1      -1.088   0.370   2.245  0.00  0.00     0.002 A 
ATOM      6  C8  UNL d   1      -0.178  -0.292   1.418  0.00  0.00     0.002 A 
ENDROOT
BRANCH   1   7
ATOM      7  C2  UNL d   1       1.095  -0.516  -0.753  0.00  0.00     0.056 C 
BRANCH   7   8
ATOM      8  C1  UNL d   1       0.621  -1.878  -1.272  0.00  0.00     0.007 C 
ATOM      9  C   UNL d   1       1.754  -2.879  -1.451  0.00  0.00     0.009 C 
ENDBRANCH   7   8
ENDBRANCH   1   7
TORSDOF 2
ENDMDL
