MODEL 1
REMARK minimizedAffinity -3.51519203
REMARK minimizedRMSD -1
REMARK  2 active torsions:
REMARK  status: ('A' for Active; 'I' for Inactive)
REMARK    1  A    between atoms: C1_2  and  C2_3 
REMARK    2  A    between atoms: C2_3  and  C3_4 
ROOT
ATOM      1  C3  UNL d   1       0.494  -1.546  -0.978  0.00  0.00    -0.075 A 
ATOM      2  C4  UNL d   1       0.246  -1.593  -2.358  0.00  0.00     0.002 A 
ATOM      3  C5  UNL d   1       0.472  -2.766  -3.078  0.00  0.00     0.002 A 
ATOM      4  C6  UNL d   1       0.956  -3.901  -2.433  0.00  0.00    -0.004 A 
ATOM      5  C7  UNL d   1       1.222  -3.861  -1.066  0.00  0.00     0.002 A 
ATOM      6  C8  UNL d   1       0.993  -2.690  -0.341  0.00  0.00     0.002 A 
ENDROOT
BRANCH   1   7
ATOM      7  C2  UNL d   1       0.224  -0.288  -0.187  0.00  0.00     0.056 C 
BRANCH   7   8
ATOM      8  C1  UNL d   1      -0.067  -0.535   1.297  0.00  0.00     0.007 C 
ATOM      9  C   UNL d   1      -1.279   0.233   1.807  0.00  0.00     0.009 C 
ENDBRANCH   7   8
ENDBRANCH   1   7
TORSDOF 2
ENDMDL
