MODEL 1
REMARK minimizedAffinity -5.3176899
REMARK minimizedRMSD -1
REMARK  2 active torsions:
REMARK  status: ('A' for Active; 'I' for Inactive)
REMARK    1  A    between atoms: C1_2  and  C2_3 
REMARK    2  A    between atoms: C2_3  and  C3_4 
ROOT
ATOM      1  C3  UNL d   1      -0.457   0.368   0.855  0.00  0.00    -0.075 A 
ATOM      2  C4  UNL d   1      -0.204   1.495   0.060  0.00  0.00     0.002 A 
ATOM      3  C5  UNL d   1      -0.981   2.646   0.194  0.00  0.00     0.002 A 
ATOM      4  C6  UNL d   1      -2.024   2.682   1.116  0.00  0.00    -0.004 A 
ATOM      5  C7  UNL d   1      -2.295   1.562   1.900  0.00  0.00     0.002 A 
ATOM      6  C8  UNL d   1      -1.517   0.410   1.770  0.00  0.00     0.002 A 
ENDROOT
BRANCH   1   7
ATOM      7  C2  UNL d   1       0.399  -0.870   0.735  0.00  0.00     0.056 C 
BRANCH   7   8
ATOM      8  C1  UNL d   1       1.141  -0.989  -0.601  0.00  0.00     0.007 C 
ATOM      9  C   UNL d   1       0.857  -2.294  -1.332  0.00  0.00     0.009 C 
ENDBRANCH   7   8
ENDBRANCH   1   7
TORSDOF 2
ENDMDL
