MODEL 1
REMARK minimizedAffinity -0.791376054
REMARK minimizedRMSD -1
REMARK  2 active torsions:
REMARK  status: ('A' for Active; 'I' for Inactive)
REMARK    1  A    between atoms: C1_2  and  C2_3 
REMARK    2  A    between atoms: C2_3  and  C3_4 
ROOT
ATOM      1  C3  UNL d   1      -1.079   1.713   1.309  0.00  0.00    -0.075 A 
ATOM      2  C4  UNL d   1      -1.779   1.073   2.342  0.00  0.00     0.002 A 
ATOM      3  C5  UNL d   1      -1.454  -0.232   2.715  0.00  0.00     0.002 A 
ATOM      4  C6  UNL d   1      -0.436  -0.915   2.054  0.00  0.00    -0.004 A 
ATOM      5  C7  UNL d   1       0.255  -0.295   1.015  0.00  0.00     0.002 A 
ATOM      6  C8  UNL d   1      -0.064   1.012   0.644  0.00  0.00     0.002 A 
ENDROOT
BRANCH   1   7
ATOM      7  C2  UNL d   1      -1.405   3.136   0.921  0.00  0.00     0.056 C 
BRANCH   7   8
ATOM      8  C1  UNL d   1      -0.248   3.879   0.247  0.00  0.00     0.007 C 
ATOM      9  C   UNL d   1      -0.041   3.475  -1.207  0.00  0.00     0.009 C 
ENDBRANCH   7   8
ENDBRANCH   1   7
TORSDOF 2
ENDMDL
