MODEL 1
REMARK minimizedAffinity -3.12387061
REMARK minimizedRMSD -1
REMARK  2 active torsions:
REMARK  status: ('A' for Active; 'I' for Inactive)
REMARK    1  A    between atoms: C1_2  and  C2_3 
REMARK    2  A    between atoms: C2_3  and  C3_4 
ROOT
ATOM      1  C3  UNL d   1       0.954  -1.800  -1.293  0.00  0.00    -0.075 A 
ATOM      2  C4  UNL d   1       0.488  -0.740  -2.084  0.00  0.00     0.002 A 
ATOM      3  C5  UNL d   1      -0.027   0.413  -1.491  0.00  0.00     0.002 A 
ATOM      4  C6  UNL d   1      -0.092   0.517  -0.103  0.00  0.00    -0.004 A 
ATOM      5  C7  UNL d   1       0.352  -0.537   0.692  0.00  0.00     0.002 A 
ATOM      6  C8  UNL d   1       0.872  -1.690   0.102  0.00  0.00     0.002 A 
ENDROOT
BRANCH   1   7
ATOM      7  C2  UNL d   1       1.539  -3.039  -1.928  0.00  0.00     0.056 C 
BRANCH   7   8
ATOM      8  C1  UNL d   1       0.592  -4.244  -1.934  0.00  0.00     0.007 C 
ATOM      9  C   UNL d   1       1.115  -5.423  -1.124  0.00  0.00     0.009 C 
ENDBRANCH   7   8
ENDBRANCH   1   7
TORSDOF 2
ENDMDL
