MODEL 1
REMARK minimizedAffinity -4.2889576
REMARK minimizedRMSD -1
REMARK  2 active torsions:
REMARK  status: ('A' for Active; 'I' for Inactive)
REMARK    1  A    between atoms: C1_2  and  C2_3 
REMARK    2  A    between atoms: C2_3  and  C3_4 
ROOT
ATOM      1  C3  UNL d   1       0.798  -1.855  -1.147  0.00  0.00    -0.075 A 
ATOM      2  C4  UNL d   1      -0.157  -2.022  -2.160  0.00  0.00     0.002 A 
ATOM      3  C5  UNL d   1      -0.324  -3.262  -2.779  0.00  0.00     0.002 A 
ATOM      4  C6  UNL d   1       0.467  -4.344  -2.401  0.00  0.00    -0.004 A 
ATOM      5  C7  UNL d   1       1.431  -4.185  -1.407  0.00  0.00     0.002 A 
ATOM      6  C8  UNL d   1       1.597  -2.948  -0.783  0.00  0.00     0.002 A 
ENDROOT
BRANCH   1   7
ATOM      7  C2  UNL d   1       0.963  -0.524  -0.453  0.00  0.00     0.056 C 
BRANCH   7   8
ATOM      8  C1  UNL d   1      -0.360   0.152  -0.077  0.00  0.00     0.007 C 
ATOM      9  C   UNL d   1      -0.697   0.032   1.403  0.00  0.00     0.009 C 
ENDBRANCH   7   8
ENDBRANCH   1   7
TORSDOF 2
ENDMDL
