MODEL 1
REMARK minimizedAffinity 14.3424788
REMARK minimizedRMSD -1
REMARK  0 active torsions:
REMARK  status: ('A' for Active; 'I' for Inactive)
ROOT
ATOM      1  C   UNL d   1      -0.087  -1.059   2.324  0.00  0.00     0.124 A 
ATOM      2  C1  UNL d   1      -0.693  -2.296   2.147  0.00  0.00     0.062 A 
ATOM      3  C2  UNL d   1      -1.267  -2.626   0.923  0.00  0.00     0.162 A 
ATOM      4  C3  UNL d   1      -1.239  -1.717  -0.135  0.00  0.00    -0.034 A 
ATOM      5  C4  UNL d   1      -0.629  -0.475   0.050  0.00  0.00     0.162 A 
ATOM      6  C5  UNL d   1      -0.056  -0.151   1.276  0.00  0.00     0.062 A 
ATOM      7  F   UNL d   1       0.528   1.045   1.444  0.00  0.00    -0.097 F 
ATOM      8  F1  UNL d   1      -0.584   0.422  -0.946  0.00  0.00    -0.096 F 
ATOM      9  I   UNL d   1      -2.097  -2.206  -1.967  0.00  0.00    -0.060 I 
ATOM     10  F2  UNL d   1      -1.846  -3.827   0.781  0.00  0.00    -0.096 F 
ATOM     11  F3  UNL d   1      -0.725  -3.175   3.159  0.00  0.00    -0.097 F 
ATOM     12  F4  UNL d   1       0.464  -0.744   3.503  0.00  0.00    -0.092 F 
ENDROOT
TORSDOF 0
ENDMDL
