MODEL 1
REMARK minimizedAffinity 18.5052757
REMARK minimizedRMSD -1
REMARK  0 active torsions:
REMARK  status: ('A' for Active; 'I' for Inactive)
ROOT
ATOM      1  C   UNL d   1       2.293   1.895  -0.007  0.00  0.00     0.124 A 
ATOM      2  C1  UNL d   1       3.369   1.931  -0.884  0.00  0.00     0.062 A 
ATOM      3  C2  UNL d   1       4.428   1.041  -0.729  0.00  0.00     0.162 A 
ATOM      4  C3  UNL d   1       4.416   0.107   0.306  0.00  0.00    -0.034 A 
ATOM      5  C4  UNL d   1       3.332   0.077   1.184  0.00  0.00     0.162 A 
ATOM      6  C5  UNL d   1       2.276   0.969   1.026  0.00  0.00     0.062 A 
ATOM      7  F   UNL d   1       1.238   0.932   1.874  0.00  0.00    -0.097 F 
ATOM      8  F1  UNL d   1       3.289  -0.809   2.191  0.00  0.00    -0.096 F 
ATOM      9  I   UNL d   1       5.998  -1.226   0.540  0.00  0.00    -0.060 I 
ATOM     10  F2  UNL d   1       5.454   1.099  -1.592  0.00  0.00    -0.096 F 
ATOM     11  F3  UNL d   1       3.388   2.826  -1.882  0.00  0.00    -0.097 F 
ATOM     12  F4  UNL d   1       1.276   2.753  -0.157  0.00  0.00    -0.092 F 
ENDROOT
TORSDOF 0
ENDMDL
