MODEL 1
REMARK minimizedAffinity 26.0650616
REMARK minimizedRMSD -1
REMARK  0 active torsions:
REMARK  status: ('A' for Active; 'I' for Inactive)
ROOT
ATOM      1  C   UNL d   1      -2.020  -0.656   2.349  0.00  0.00     0.124 A 
ATOM      2  C1  UNL d   1      -1.412   0.551   2.668  0.00  0.00     0.062 A 
ATOM      3  C2  UNL d   1      -2.188   1.667   2.967  0.00  0.00     0.162 A 
ATOM      4  C3  UNL d   1      -3.580   1.582   2.950  0.00  0.00    -0.034 A 
ATOM      5  C4  UNL d   1      -4.183   0.366   2.627  0.00  0.00     0.162 A 
ATOM      6  C5  UNL d   1      -3.404  -0.747   2.329  0.00  0.00     0.062 A 
ATOM      7  F   UNL d   1      -3.993  -1.912   2.020  0.00  0.00    -0.097 F 
ATOM      8  F1  UNL d   1      -5.519   0.249   2.601  0.00  0.00    -0.096 F 
ATOM      9  I   UNL d   1      -4.743   3.249   3.397  0.00  0.00    -0.060 I 
ATOM     10  F2  UNL d   1      -1.574   2.820   3.273  0.00  0.00    -0.096 F 
ATOM     11  F3  UNL d   1      -0.075   0.642   2.687  0.00  0.00    -0.097 F 
ATOM     12  F4  UNL d   1      -1.271  -1.728   2.060  0.00  0.00    -0.092 F 
ENDROOT
TORSDOF 0
ENDMDL
