MODEL 1
REMARK minimizedAffinity 20.3799629
REMARK minimizedRMSD -1
REMARK  0 active torsions:
REMARK  status: ('A' for Active; 'I' for Inactive)
ROOT
ATOM      1  C   UNL d   1       2.991   1.673   0.790  0.00  0.00     0.124 A 
ATOM      2  C1  UNL d   1       3.744   1.854  -0.363  0.00  0.00     0.062 A 
ATOM      3  C2  UNL d   1       4.603   0.850  -0.801  0.00  0.00     0.162 A 
ATOM      4  C3  UNL d   1       4.714  -0.343  -0.088  0.00  0.00    -0.034 A 
ATOM      5  C4  UNL d   1       3.955  -0.517   1.071  0.00  0.00     0.162 A 
ATOM      6  C5  UNL d   1       3.098   0.489   1.505  0.00  0.00     0.062 A 
ATOM      7  F   UNL d   1       2.372   0.313   2.619  0.00  0.00    -0.097 F 
ATOM      8  F1  UNL d   1       4.038  -1.652   1.781  0.00  0.00    -0.096 F 
ATOM      9  I   UNL d   1       5.998  -1.845  -0.741  0.00  0.00    -0.060 I 
ATOM     10  F2  UNL d   1       5.318   1.052  -1.918  0.00  0.00    -0.096 F 
ATOM     11  F3  UNL d   1       3.643   2.997  -1.055  0.00  0.00    -0.097 F 
ATOM     12  F4  UNL d   1       2.166   2.641   1.210  0.00  0.00    -0.092 F 
ENDROOT
TORSDOF 0
ENDMDL
