MODEL 1
REMARK minimizedAffinity 18.9180698
REMARK minimizedRMSD -1
REMARK  0 active torsions:
REMARK  status: ('A' for Active; 'I' for Inactive)
ROOT
ATOM      1  C   UNL d   1       4.524   1.007  -0.356  0.00  0.00     0.124 A 
ATOM      2  C1  UNL d   1       4.516   0.121   0.712  0.00  0.00     0.062 A 
ATOM      3  C2  UNL d   1       3.423   0.073   1.573  0.00  0.00     0.162 A 
ATOM      4  C3  UNL d   1       2.328   0.913   1.368  0.00  0.00    -0.034 A 
ATOM      5  C4  UNL d   1       2.344   1.802   0.292  0.00  0.00     0.162 A 
ATOM      6  C5  UNL d   1       3.439   1.846  -0.565  0.00  0.00     0.062 A 
ATOM      7  F   UNL d   1       3.445   2.703  -1.597  0.00  0.00    -0.097 F 
ATOM      8  F1  UNL d   1       1.308   2.623   0.066  0.00  0.00    -0.096 F 
ATOM      9  I   UNL d   1       0.692   0.843   2.653  0.00  0.00    -0.060 I 
ATOM     10  F2  UNL d   1       3.442  -0.793   2.597  0.00  0.00    -0.096 F 
ATOM     11  F3  UNL d   1       5.564  -0.690   0.917  0.00  0.00    -0.097 F 
ATOM     12  F4  UNL d   1       5.577   1.052  -1.182  0.00  0.00    -0.092 F 
ENDROOT
TORSDOF 0
ENDMDL
