MODEL 1
REMARK minimizedAffinity 19.0591335
REMARK minimizedRMSD -1
REMARK  0 active torsions:
REMARK  status: ('A' for Active; 'I' for Inactive)
ROOT
ATOM      1  C   UNL d   1      -2.415   0.366   2.766  0.00  0.00     0.124 A 
ATOM      2  C1  UNL d   1      -2.055   1.490   3.497  0.00  0.00     0.062 A 
ATOM      3  C2  UNL d   1      -3.025   2.230   4.167  0.00  0.00     0.162 A 
ATOM      4  C3  UNL d   1      -4.366   1.848   4.109  0.00  0.00    -0.034 A 
ATOM      5  C4  UNL d   1      -4.720   0.717   3.371  0.00  0.00     0.162 A 
ATOM      6  C5  UNL d   1      -3.747  -0.019   2.704  0.00  0.00     0.062 A 
ATOM      7  F   UNL d   1      -4.097  -1.104   1.998  0.00  0.00    -0.097 F 
ATOM      8  F1  UNL d   1      -6.000   0.322   3.295  0.00  0.00    -0.096 F 
ATOM      9  I   UNL d   1      -5.819   2.952   5.109  0.00  0.00    -0.060 I 
ATOM     10  F2  UNL d   1      -2.649   3.311   4.866  0.00  0.00    -0.096 F 
ATOM     11  F3  UNL d   1      -0.769   1.864   3.558  0.00  0.00    -0.097 F 
ATOM     12  F4  UNL d   1      -1.480  -0.344   2.122  0.00  0.00    -0.092 F 
ENDROOT
TORSDOF 0
ENDMDL
