MODEL 1
REMARK minimizedAffinity 19.8982067
REMARK minimizedRMSD -1
REMARK  0 active torsions:
REMARK  status: ('A' for Active; 'I' for Inactive)
ROOT
ATOM      1  C   UNL d   1      -4.842   1.547   3.616  0.00  0.00     0.124 A 
ATOM      2  C1  UNL d   1      -3.641   2.146   3.972  0.00  0.00     0.062 A 
ATOM      3  C2  UNL d   1      -2.437   1.486   3.746  0.00  0.00     0.162 A 
ATOM      4  C3  UNL d   1      -2.427   0.220   3.160  0.00  0.00    -0.034 A 
ATOM      5  C4  UNL d   1      -3.638  -0.376   2.806  0.00  0.00     0.162 A 
ATOM      6  C5  UNL d   1      -4.840   0.288   3.034  0.00  0.00     0.062 A 
ATOM      7  F   UNL d   1      -5.999  -0.292   2.690  0.00  0.00    -0.097 F 
ATOM      8  F1  UNL d   1      -3.665  -1.592   2.241  0.00  0.00    -0.096 F 
ATOM      9  I   UNL d   1      -0.627  -0.769   2.821  0.00  0.00    -0.060 I 
ATOM     10  F2  UNL d   1      -1.291   2.088   4.100  0.00  0.00    -0.096 F 
ATOM     11  F3  UNL d   1      -3.641   3.362   4.535  0.00  0.00    -0.097 F 
ATOM     12  F4  UNL d   1      -6.000   2.184   3.836  0.00  0.00    -0.092 F 
ENDROOT
TORSDOF 0
ENDMDL
