MODEL 1
REMARK minimizedAffinity 27.7604065
REMARK minimizedRMSD -1
REMARK  0 active torsions:
REMARK  status: ('A' for Active; 'I' for Inactive)
ROOT
ATOM      1  C   UNL d   1       4.985   0.619  -0.394  0.00  0.00     0.124 A 
ATOM      2  C1  UNL d   1       4.984  -0.306   0.640  0.00  0.00     0.062 A 
ATOM      3  C2  UNL d   1       3.932  -0.337   1.550  0.00  0.00     0.162 A 
ATOM      4  C3  UNL d   1       2.870   0.560   1.430  0.00  0.00    -0.034 A 
ATOM      5  C4  UNL d   1       2.879   1.489   0.387  0.00  0.00     0.162 A 
ATOM      6  C5  UNL d   1       3.933   1.515  -0.520  0.00  0.00     0.062 A 
ATOM      7  F   UNL d   1       3.933   2.410  -1.519  0.00  0.00    -0.097 F 
ATOM      8  F1  UNL d   1       1.875   2.365   0.242  0.00  0.00    -0.096 F 
ATOM      9  I   UNL d   1       1.295   0.517   2.789  0.00  0.00    -0.060 I 
ATOM     10  F2  UNL d   1       3.957  -1.242   2.540  0.00  0.00    -0.096 F 
ATOM     11  F3  UNL d   1       6.000  -1.173   0.764  0.00  0.00    -0.097 F 
ATOM     12  F4  UNL d   1       6.000   0.647  -1.268  0.00  0.00    -0.092 F 
ENDROOT
TORSDOF 0
ENDMDL
