MODEL 1
REMARK minimizedAffinity 19.9818287
REMARK minimizedRMSD -1
REMARK  0 active torsions:
REMARK  status: ('A' for Active; 'I' for Inactive)
ROOT
ATOM      1  C   UNL d   1      -2.492  -2.365  -2.001  0.00  0.00     0.124 A 
ATOM      2  C1  UNL d   1      -3.443  -3.328  -2.307  0.00  0.00     0.062 A 
ATOM      3  C2  UNL d   1      -3.699  -4.367  -1.416  0.00  0.00     0.162 A 
ATOM      4  C3  UNL d   1      -3.002  -4.448  -0.210  0.00  0.00    -0.034 A 
ATOM      5  C4  UNL d   1      -2.046  -3.476   0.090  0.00  0.00     0.162 A 
ATOM      6  C5  UNL d   1      -1.794  -2.440  -0.804  0.00  0.00     0.062 A 
ATOM      7  F   UNL d   1      -0.875  -1.510  -0.506  0.00  0.00    -0.097 F 
ATOM      8  F1  UNL d   1      -1.358  -3.523   1.240  0.00  0.00    -0.096 F 
ATOM      9  I   UNL d   1      -3.381  -6.000   1.123  0.00  0.00    -0.060 I 
ATOM     10  F2  UNL d   1      -4.623  -5.284  -1.738  0.00  0.00    -0.096 F 
ATOM     11  F3  UNL d   1      -4.118  -3.259  -3.463  0.00  0.00    -0.097 F 
ATOM     12  F4  UNL d   1      -2.247  -1.367  -2.860  0.00  0.00    -0.092 F 
ENDROOT
TORSDOF 0
ENDMDL
