MODEL 1
REMARK minimizedAffinity 27.0088558
REMARK minimizedRMSD -1
REMARK  0 active torsions:
REMARK  status: ('A' for Active; 'I' for Inactive)
ROOT
ATOM      1  C   UNL d   1       2.327   2.502   1.397  0.00  0.00     0.124 A 
ATOM      2  C1  UNL d   1       3.618   2.264   1.847  0.00  0.00     0.062 A 
ATOM      3  C2  UNL d   1       4.320   3.261   2.517  0.00  0.00     0.162 A 
ATOM      4  C3  UNL d   1       3.733   4.506   2.743  0.00  0.00    -0.034 A 
ATOM      5  C4  UNL d   1       2.434   4.738   2.287  0.00  0.00     0.162 A 
ATOM      6  C5  UNL d   1       1.736   3.738   1.617  0.00  0.00     0.062 A 
ATOM      7  F   UNL d   1       0.488   3.970   1.183  0.00  0.00    -0.097 F 
ATOM      8  F1  UNL d   1       1.839   5.924   2.487  0.00  0.00    -0.096 F 
ATOM      9  I   UNL d   1       4.780   6.000   3.745  0.00  0.00    -0.060 I 
ATOM     10  F2  UNL d   1       5.567   3.004   2.941  0.00  0.00    -0.096 F 
ATOM     11  F3  UNL d   1       4.191   1.071   1.635  0.00  0.00    -0.097 F 
ATOM     12  F4  UNL d   1       1.653   1.541   0.752  0.00  0.00    -0.092 F 
ENDROOT
TORSDOF 0
ENDMDL
