MODEL 1
REMARK minimizedAffinity 21.8268013
REMARK minimizedRMSD -1
REMARK  0 active torsions:
REMARK  status: ('A' for Active; 'I' for Inactive)
ROOT
ATOM      1  C   UNL d   1      -2.178  -2.045  -1.138  0.00  0.00     0.124 A 
ATOM      2  C1  UNL d   1      -3.027  -3.020  -1.641  0.00  0.00     0.062 A 
ATOM      3  C2  UNL d   1      -3.322  -4.150  -0.883  0.00  0.00     0.162 A 
ATOM      4  C3  UNL d   1      -2.767  -4.310   0.387  0.00  0.00    -0.034 A 
ATOM      5  C4  UNL d   1      -1.912  -3.325   0.885  0.00  0.00     0.162 A 
ATOM      6  C5  UNL d   1      -1.621  -2.198   0.124  0.00  0.00     0.062 A 
ATOM      7  F   UNL d   1      -0.800  -1.256   0.611  0.00  0.00    -0.097 F 
ATOM      8  F1  UNL d   1      -1.361  -3.447   2.102  0.00  0.00    -0.096 F 
ATOM      9  I   UNL d   1      -3.205  -5.998   1.523  0.00  0.00    -0.060 I 
ATOM     10  F2  UNL d   1      -4.146  -5.077  -1.393  0.00  0.00    -0.096 F 
ATOM     11  F3  UNL d   1      -3.566  -2.875  -2.860  0.00  0.00    -0.097 F 
ATOM     12  F4  UNL d   1      -1.895  -0.959  -1.870  0.00  0.00    -0.092 F 
ENDROOT
TORSDOF 0
ENDMDL
