MODEL 1
REMARK minimizedAffinity 30.0938931
REMARK minimizedRMSD -1
REMARK  0 active torsions:
REMARK  status: ('A' for Active; 'I' for Inactive)
ROOT
ATOM      1  C   UNL d   1       0.283   2.978   0.875  0.00  0.00     0.124 A 
ATOM      2  C1  UNL d   1       1.387   2.139   0.949  0.00  0.00     0.062 A 
ATOM      3  C2  UNL d   1       1.446   1.143   1.919  0.00  0.00     0.162 A 
ATOM      4  C3  UNL d   1       0.398   0.979   2.824  0.00  0.00    -0.034 A 
ATOM      5  C4  UNL d   1      -0.708   1.827   2.745  0.00  0.00     0.162 A 
ATOM      6  C5  UNL d   1      -0.763   2.821   1.773  0.00  0.00     0.062 A 
ATOM      7  F   UNL d   1      -1.830   3.630   1.704  0.00  0.00    -0.097 F 
ATOM      8  F1  UNL d   1      -1.734   1.697   3.600  0.00  0.00    -0.096 F 
ATOM      9  I   UNL d   1       0.483  -0.509   4.277  0.00  0.00    -0.060 I 
ATOM     10  F2  UNL d   1       2.525   0.347   1.966  0.00  0.00    -0.096 F 
ATOM     11  F3  UNL d   1       2.400   2.289   0.083  0.00  0.00    -0.097 F 
ATOM     12  F4  UNL d   1       0.229   3.936  -0.059  0.00  0.00    -0.092 F 
ENDROOT
TORSDOF 0
ENDMDL
