MODEL 1
REMARK minimizedAffinity 30.4175091
REMARK minimizedRMSD -1
REMARK  0 active torsions:
REMARK  status: ('A' for Active; 'I' for Inactive)
ROOT
ATOM      1  C   UNL d   1      -1.616  -1.785  -1.482  0.00  0.00     0.124 A 
ATOM      2  C1  UNL d   1      -2.189  -2.262  -0.311  0.00  0.00     0.062 A 
ATOM      3  C2  UNL d   1      -2.889  -3.465  -0.314  0.00  0.00     0.162 A 
ATOM      4  C3  UNL d   1      -3.021  -4.200  -1.492  0.00  0.00    -0.034 A 
ATOM      5  C4  UNL d   1      -2.444  -3.713  -2.666  0.00  0.00     0.162 A 
ATOM      6  C5  UNL d   1      -1.745  -2.510  -2.658  0.00  0.00     0.062 A 
ATOM      7  F   UNL d   1      -1.192  -2.051  -3.791  0.00  0.00    -0.097 F 
ATOM      8  F1  UNL d   1      -2.552  -4.394  -3.817  0.00  0.00    -0.096 F 
ATOM      9  I   UNL d   1      -4.069  -5.998  -1.501  0.00  0.00    -0.060 I 
ATOM     10  F2  UNL d   1      -3.432  -3.902   0.832  0.00  0.00    -0.096 F 
ATOM     11  F3  UNL d   1      -2.067  -1.563   0.826  0.00  0.00    -0.097 F 
ATOM     12  F4  UNL d   1      -0.943  -0.627  -1.477  0.00  0.00    -0.092 F 
ENDROOT
TORSDOF 0
ENDMDL
