MODEL 1
REMARK minimizedAffinity 16.719553
REMARK minimizedRMSD -1
REMARK  0 active torsions:
REMARK  status: ('A' for Active; 'I' for Inactive)
ROOT
ATOM      1  C   UNL d   1      -0.020   1.925   3.643  0.00  0.00     0.124 A 
ATOM      2  C1  UNL d   1       0.555   2.485   2.511  0.00  0.00     0.062 A 
ATOM      3  C2  UNL d   1       1.660   1.884   1.917  0.00  0.00     0.162 A 
ATOM      4  C3  UNL d   1       2.199   0.715   2.453  0.00  0.00    -0.034 A 
ATOM      5  C4  UNL d   1       1.616   0.158   3.593  0.00  0.00     0.162 A 
ATOM      6  C5  UNL d   1       0.511   0.762   4.183  0.00  0.00     0.062 A 
ATOM      7  F   UNL d   1      -0.043   0.219   5.277  0.00  0.00    -0.097 F 
ATOM      8  F1  UNL d   1       2.109  -0.966   4.135  0.00  0.00    -0.096 F 
ATOM      9  I   UNL d   1       3.853  -0.187   1.568  0.00  0.00    -0.060 I 
ATOM     10  F2  UNL d   1       2.195   2.448   0.823  0.00  0.00    -0.096 F 
ATOM     11  F3  UNL d   1       0.044   3.609   1.988  0.00  0.00    -0.097 F 
ATOM     12  F4  UNL d   1      -1.083   2.506   4.214  0.00  0.00    -0.092 F 
ENDROOT
TORSDOF 0
ENDMDL
