MODEL 1
REMARK minimizedAffinity 30.5565987
REMARK minimizedRMSD -1
REMARK  0 active torsions:
REMARK  status: ('A' for Active; 'I' for Inactive)
ROOT
ATOM      1  C   UNL d   1      -2.213  -3.785  -2.057  0.00  0.00     0.124 A 
ATOM      2  C1  UNL d   1      -1.559  -4.688  -2.884  0.00  0.00     0.062 A 
ATOM      3  C2  UNL d   1      -0.876  -4.238  -4.011  0.00  0.00     0.162 A 
ATOM      4  C3  UNL d   1      -0.842  -2.878  -4.316  0.00  0.00    -0.034 A 
ATOM      5  C4  UNL d   1      -1.502  -1.976  -3.481  0.00  0.00     0.162 A 
ATOM      6  C5  UNL d   1      -2.184  -2.430  -2.356  0.00  0.00     0.062 A 
ATOM      7  F   UNL d   1      -2.814  -1.556  -1.558  0.00  0.00    -0.097 F 
ATOM      8  F1  UNL d   1      -1.490  -0.661  -3.745  0.00  0.00    -0.096 F 
ATOM      9  I   UNL d   1       0.178  -2.202  -6.000  0.00  0.00    -0.060 I 
ATOM     10  F2  UNL d   1      -0.254  -5.134  -4.792  0.00  0.00    -0.096 F 
ATOM     11  F3  UNL d   1      -1.587  -5.998  -2.598  0.00  0.00    -0.097 F 
ATOM     12  F4  UNL d   1      -2.870  -4.220  -0.975  0.00  0.00    -0.092 F 
ENDROOT
TORSDOF 0
ENDMDL
