MODEL 1
REMARK minimizedAffinity 18.034708
REMARK minimizedRMSD -1
REMARK  0 active torsions:
REMARK  status: ('A' for Active; 'I' for Inactive)
ROOT
ATOM      1  C   UNL d   1       4.240   0.604  -0.157  0.00  0.00     0.124 A 
ATOM      2  C1  UNL d   1       4.547  -0.197   0.934  0.00  0.00     0.062 A 
ATOM      3  C2  UNL d   1       3.714  -0.210   2.049  0.00  0.00     0.162 A 
ATOM      4  C3  UNL d   1       2.564   0.579   2.078  0.00  0.00    -0.034 A 
ATOM      5  C4  UNL d   1       2.262   1.383   0.977  0.00  0.00     0.162 A 
ATOM      6  C5  UNL d   1       3.098   1.393  -0.134  0.00  0.00     0.062 A 
ATOM      7  F   UNL d   1       2.800   2.167  -1.188  0.00  0.00    -0.097 F 
ATOM      8  F1  UNL d   1       1.165   2.154   0.972  0.00  0.00    -0.096 F 
ATOM      9  I   UNL d   1       1.316   0.562   3.744  0.00  0.00    -0.060 I 
ATOM     10  F2  UNL d   1       4.035  -0.994   3.090  0.00  0.00    -0.096 F 
ATOM     11  F3  UNL d   1       5.649  -0.960   0.916  0.00  0.00    -0.097 F 
ATOM     12  F4  UNL d   1       5.044   0.615  -1.228  0.00  0.00    -0.092 F 
ENDROOT
TORSDOF 0
ENDMDL
