MODEL 1
REMARK minimizedAffinity 32.5692978
REMARK minimizedRMSD -1
REMARK  0 active torsions:
REMARK  status: ('A' for Active; 'I' for Inactive)
ROOT
ATOM      1  C   UNL d   1      -2.659  -2.218  -1.273  0.00  0.00     0.124 A 
ATOM      2  C1  UNL d   1      -3.547  -2.683  -2.233  0.00  0.00     0.062 A 
ATOM      3  C2  UNL d   1      -3.210  -2.631  -3.582  0.00  0.00     0.162 A 
ATOM      4  C3  UNL d   1      -1.978  -2.113  -3.981  0.00  0.00    -0.034 A 
ATOM      5  C4  UNL d   1      -1.090  -1.646  -3.010  0.00  0.00     0.162 A 
ATOM      6  C5  UNL d   1      -1.431  -1.700  -1.663  0.00  0.00     0.062 A 
ATOM      7  F   UNL d   1      -0.572  -1.250  -0.737  0.00  0.00    -0.097 F 
ATOM      8  F1  UNL d   1       0.103  -1.141  -3.358  0.00  0.00    -0.096 F 
ATOM      9  I   UNL d   1      -1.471  -2.034  -5.998  0.00  0.00    -0.060 I 
ATOM     10  F2  UNL d   1      -4.088  -3.088  -4.488  0.00  0.00    -0.096 F 
ATOM     11  F3  UNL d   1      -4.734  -3.183  -1.859  0.00  0.00    -0.097 F 
ATOM     12  F4  UNL d   1      -2.986  -2.268   0.024  0.00  0.00    -0.092 F 
ENDROOT
TORSDOF 0
ENDMDL
