MODEL 1
REMARK minimizedAffinity -1.5881108
REMARK minimizedRMSD -1
REMARK  2 active torsions:
REMARK  status: ('A' for Active; 'I' for Inactive)
REMARK    1  A    between atoms: C1_2  and  C2_3 
REMARK    2  A    between atoms: C2_3  and  C3_4 
ROOT
ATOM      1  C3  UNL d   1       1.032  -0.749  -0.475  0.00  0.00    -0.075 A 
ATOM      2  C4  UNL d   1      -0.015  -1.545   0.013  0.00  0.00     0.002 A 
ATOM      3  C5  UNL d   1      -1.192  -0.959   0.478  0.00  0.00     0.002 A 
ATOM      4  C6  UNL d   1      -1.335   0.427   0.471  0.00  0.00    -0.004 A 
ATOM      5  C7  UNL d   1      -0.295   1.228   0.004  0.00  0.00     0.002 A 
ATOM      6  C8  UNL d   1       0.883   0.644  -0.466  0.00  0.00     0.002 A 
ENDROOT
BRANCH   1   7
ATOM      7  C2  UNL d   1       2.297  -1.378  -1.007  0.00  0.00     0.056 C 
BRANCH   7   8
ATOM      8  C1  UNL d   1       3.099  -0.470  -1.945  0.00  0.00     0.007 C 
ATOM      9  C   UNL d   1       2.268   0.094  -3.090  0.00  0.00     0.009 C 
ENDBRANCH   7   8
ENDBRANCH   1   7
TORSDOF 2
ENDMDL
