MODEL 1
REMARK minimizedAffinity -5.36430693
REMARK minimizedRMSD -1
REMARK  2 active torsions:
REMARK  status: ('A' for Active; 'I' for Inactive)
REMARK    1  A    between atoms: C1_2  and  C2_3 
REMARK    2  A    between atoms: C2_3  and  C3_4 
ROOT
ATOM      1  C3  UNL d   1      -0.776  -0.321   2.088  0.00  0.00    -0.075 A 
ATOM      2  C4  UNL d   1      -1.157   0.312   0.896  0.00  0.00     0.002 A 
ATOM      3  C5  UNL d   1      -0.772  -0.212  -0.339  0.00  0.00     0.002 A 
ATOM      4  C6  UNL d   1       0.004  -1.368  -0.397  0.00  0.00    -0.004 A 
ATOM      5  C7  UNL d   1       0.402  -1.995   0.782  0.00  0.00     0.002 A 
ATOM      6  C8  UNL d   1       0.015  -1.475   2.018  0.00  0.00     0.002 A 
ENDROOT
BRANCH   1   7
ATOM      7  C2  UNL d   1      -1.213   0.225   3.426  0.00  0.00     0.056 C 
BRANCH   7   8
ATOM      8  C1  UNL d   1      -1.027   1.739   3.573  0.00  0.00     0.007 C 
ATOM      9  C   UNL d   1      -2.265   2.537   3.184  0.00  0.00     0.009 C 
ENDBRANCH   7   8
ENDBRANCH   1   7
TORSDOF 2
ENDMDL
