MODEL 1
REMARK minimizedAffinity -2.7771287
REMARK minimizedRMSD -1
REMARK  2 active torsions:
REMARK  status: ('A' for Active; 'I' for Inactive)
REMARK    1  A    between atoms: C1_2  and  C2_3 
REMARK    2  A    between atoms: C2_3  and  C3_4 
ROOT
ATOM      1  C3  UNL d   1      -0.194  -0.152   0.284  0.00  0.00    -0.075 A 
ATOM      2  C4  UNL d   1       0.448  -1.398   0.226  0.00  0.00     0.002 A 
ATOM      3  C5  UNL d   1       1.466  -1.628  -0.701  0.00  0.00     0.002 A 
ATOM      4  C6  UNL d   1       1.847  -0.622  -1.586  0.00  0.00    -0.004 A 
ATOM      5  C7  UNL d   1       1.204   0.614  -1.549  0.00  0.00     0.002 A 
ATOM      6  C8  UNL d   1       0.189   0.848  -0.620  0.00  0.00     0.002 A 
ENDROOT
BRANCH   1   7
ATOM      7  C2  UNL d   1      -1.275   0.113   1.304  0.00  0.00     0.056 C 
BRANCH   7   8
ATOM      8  C1  UNL d   1      -0.788   0.863   2.548  0.00  0.00     0.007 C 
ATOM      9  C   UNL d   1      -1.482   0.417   3.828  0.00  0.00     0.009 C 
ENDBRANCH   7   8
ENDBRANCH   1   7
TORSDOF 2
ENDMDL
