MODEL 1
REMARK minimizedAffinity -2.11906672
REMARK minimizedRMSD -1
REMARK  2 active torsions:
REMARK  status: ('A' for Active; 'I' for Inactive)
REMARK    1  A    between atoms: C1_2  and  C2_3 
REMARK    2  A    between atoms: C2_3  and  C3_4 
ROOT
ATOM      1  C3  UNL d   1      -1.445   0.304   1.034  0.00  0.00    -0.075 A 
ATOM      2  C4  UNL d   1      -0.482  -0.710   1.148  0.00  0.00     0.002 A 
ATOM      3  C5  UNL d   1       0.584  -0.778   0.251  0.00  0.00     0.002 A 
ATOM      4  C6  UNL d   1       0.696   0.157  -0.775  0.00  0.00    -0.004 A 
ATOM      5  C7  UNL d   1      -0.264   1.159  -0.908  0.00  0.00     0.002 A 
ATOM      6  C8  UNL d   1      -1.329   1.232  -0.009  0.00  0.00     0.002 A 
ENDROOT
BRANCH   1   7
ATOM      7  C2  UNL d   1      -2.585   0.401   2.020  0.00  0.00     0.056 C 
BRANCH   7   8
ATOM      8  C1  UNL d   1      -2.213   1.086   3.339  0.00  0.00     0.007 C 
ATOM      9  C   UNL d   1      -2.132   0.122   4.514  0.00  0.00     0.009 C 
ENDBRANCH   7   8
ENDBRANCH   1   7
TORSDOF 2
ENDMDL
