MODEL 1
REMARK minimizedAffinity -4.86820889
REMARK minimizedRMSD -1
REMARK  2 active torsions:
REMARK  status: ('A' for Active; 'I' for Inactive)
REMARK    1  A    between atoms: C1_2  and  C2_3 
REMARK    2  A    between atoms: C2_3  and  C3_4 
ROOT
ATOM      1  C3  UNL d   1       0.267  -0.283  -0.441  0.00  0.00    -0.075 A 
ATOM      2  C4  UNL d   1       1.172  -1.286  -0.817  0.00  0.00     0.002 A 
ATOM      3  C5  UNL d   1       2.072  -1.072  -1.861  0.00  0.00     0.002 A 
ATOM      4  C6  UNL d   1       2.072   0.140  -2.548  0.00  0.00    -0.004 A 
ATOM      5  C7  UNL d   1       1.166   1.137  -2.194  0.00  0.00     0.002 A 
ATOM      6  C8  UNL d   1       0.267   0.928  -1.146  0.00  0.00     0.002 A 
ENDROOT
BRANCH   1   7
ATOM      7  C2  UNL d   1      -0.690  -0.497   0.707  0.00  0.00     0.056 C 
BRANCH   7   8
ATOM      8  C1  UNL d   1      -1.508   0.744   1.078  0.00  0.00     0.007 C 
ATOM      9  C   UNL d   1      -1.864   0.810   2.557  0.00  0.00     0.009 C 
ENDBRANCH   7   8
ENDBRANCH   1   7
TORSDOF 2
ENDMDL
