MODEL 1
REMARK minimizedAffinity -2.46874928
REMARK minimizedRMSD -1
REMARK  2 active torsions:
REMARK  status: ('A' for Active; 'I' for Inactive)
REMARK    1  A    between atoms: C1_2  and  C2_3 
REMARK    2  A    between atoms: C2_3  and  C3_4 
ROOT
ATOM      1  C3  UNL d   1       1.480  -0.434  -1.229  0.00  0.00    -0.075 A 
ATOM      2  C4  UNL d   1       1.708  -1.756  -0.818  0.00  0.00     0.002 A 
ATOM      3  C5  UNL d   1       0.821  -2.389   0.053  0.00  0.00     0.002 A 
ATOM      4  C6  UNL d   1      -0.296  -1.709   0.531  0.00  0.00    -0.004 A 
ATOM      5  C7  UNL d   1      -0.523  -0.390   0.143  0.00  0.00     0.002 A 
ATOM      6  C8  UNL d   1       0.360   0.245  -0.732  0.00  0.00     0.002 A 
ENDROOT
BRANCH   1   7
ATOM      7  C2  UNL d   1       2.420   0.248  -2.194  0.00  0.00     0.056 C 
BRANCH   7   8
ATOM      8  C1  UNL d   1       1.713   1.032  -3.304  0.00  0.00     0.007 C 
ATOM      9  C   UNL d   1       1.349   2.454  -2.897  0.00  0.00     0.009 C 
ENDBRANCH   7   8
ENDBRANCH   1   7
TORSDOF 2
ENDMDL
