MODEL 1
REMARK minimizedAffinity -0.782499492
REMARK minimizedRMSD -1
REMARK  2 active torsions:
REMARK  status: ('A' for Active; 'I' for Inactive)
REMARK    1  A    between atoms: C1_2  and  C2_3 
REMARK    2  A    between atoms: C2_3  and  C3_4 
ROOT
ATOM      1  C3  UNL d   1      -0.157  -0.163   0.107  0.00  0.00    -0.075 A 
ATOM      2  C4  UNL d   1       0.726   0.023  -0.967  0.00  0.00     0.002 A 
ATOM      3  C5  UNL d   1       1.541  -1.023  -1.404  0.00  0.00     0.002 A 
ATOM      4  C6  UNL d   1       1.491  -2.261  -0.767  0.00  0.00    -0.004 A 
ATOM      5  C7  UNL d   1       0.630  -2.452   0.311  0.00  0.00     0.002 A 
ATOM      6  C8  UNL d   1      -0.189  -1.409   0.747  0.00  0.00     0.002 A 
ENDROOT
BRANCH   1   7
ATOM      7  C2  UNL d   1      -1.062   0.955   0.565  0.00  0.00     0.056 C 
BRANCH   7   8
ATOM      8  C1  UNL d   1      -1.896   0.614   1.805  0.00  0.00     0.007 C 
ATOM      9  C   UNL d   1      -2.009   1.770   2.789  0.00  0.00     0.009 C 
ENDBRANCH   7   8
ENDBRANCH   1   7
TORSDOF 2
ENDMDL
