MODEL 1
REMARK minimizedAffinity -2.17622209
REMARK minimizedRMSD -1
REMARK  2 active torsions:
REMARK  status: ('A' for Active; 'I' for Inactive)
REMARK    1  A    between atoms: C1_2  and  C2_3 
REMARK    2  A    between atoms: C2_3  and  C3_4 
ROOT
ATOM      1  C3  UNL d   1      -0.028   0.285  -0.089  0.00  0.00    -0.075 A 
ATOM      2  C4  UNL d   1       0.723   0.775  -1.167  0.00  0.00     0.002 A 
ATOM      3  C5  UNL d   1       1.623  -0.053  -1.838  0.00  0.00     0.002 A 
ATOM      4  C6  UNL d   1       1.792  -1.376  -1.434  0.00  0.00    -0.004 A 
ATOM      5  C7  UNL d   1       1.063  -1.869  -0.354  0.00  0.00     0.002 A 
ATOM      6  C8  UNL d   1       0.159  -1.044   0.317  0.00  0.00     0.002 A 
ENDROOT
BRANCH   1   7
ATOM      7  C2  UNL d   1      -1.025   1.167   0.623  0.00  0.00     0.056 C 
BRANCH   7   8
ATOM      8  C1  UNL d   1      -1.898   0.427   1.642  0.00  0.00     0.007 C 
ATOM      9  C   UNL d   1      -2.136   1.222   2.919  0.00  0.00     0.009 C 
ENDBRANCH   7   8
ENDBRANCH   1   7
TORSDOF 2
ENDMDL
