MODEL 1
REMARK minimizedAffinity -4.33174324
REMARK minimizedRMSD -1
REMARK  2 active torsions:
REMARK  status: ('A' for Active; 'I' for Inactive)
REMARK    1  A    between atoms: C1_2  and  C2_3 
REMARK    2  A    between atoms: C2_3  and  C3_4 
ROOT
ATOM      1  C3  UNL d   1      -0.318  -0.084  -0.198  0.00  0.00    -0.075 A 
ATOM      2  C4  UNL d   1       0.436   0.571  -1.182  0.00  0.00     0.002 A 
ATOM      3  C5  UNL d   1       1.586  -0.020  -1.704  0.00  0.00     0.002 A 
ATOM      4  C6  UNL d   1       2.003  -1.268  -1.243  0.00  0.00    -0.004 A 
ATOM      5  C7  UNL d   1       1.271  -1.920  -0.254  0.00  0.00     0.002 A 
ATOM      6  C8  UNL d   1       0.117  -1.333   0.267  0.00  0.00     0.002 A 
ENDROOT
BRANCH   1   7
ATOM      7  C2  UNL d   1      -1.580   0.538   0.351  0.00  0.00     0.056 C 
BRANCH   7   8
ATOM      8  C1  UNL d   1      -1.767   0.342   1.859  0.00  0.00     0.007 C 
ATOM      9  C   UNL d   1      -1.710   1.645   2.645  0.00  0.00     0.009 C 
ENDBRANCH   7   8
ENDBRANCH   1   7
TORSDOF 2
ENDMDL
