MODEL 1
REMARK minimizedAffinity -4.09155226
REMARK minimizedRMSD -1
REMARK  2 active torsions:
REMARK  status: ('A' for Active; 'I' for Inactive)
REMARK    1  A    between atoms: C1_2  and  C2_3 
REMARK    2  A    between atoms: C2_3  and  C3_4 
ROOT
ATOM      1  C3  UNL d   1      -1.012   0.312   0.914  0.00  0.00    -0.075 A 
ATOM      2  C4  UNL d   1      -0.147   0.370   2.017  0.00  0.00     0.002 A 
ATOM      3  C5  UNL d   1      -0.592   0.872   3.240  0.00  0.00     0.002 A 
ATOM      4  C6  UNL d   1      -1.900   1.331   3.374  0.00  0.00    -0.004 A 
ATOM      5  C7  UNL d   1      -2.763   1.294   2.280  0.00  0.00     0.002 A 
ATOM      6  C8  UNL d   1      -2.322   0.788   1.056  0.00  0.00     0.002 A 
ENDROOT
BRANCH   1   7
ATOM      7  C2  UNL d   1      -0.545  -0.257  -0.405  0.00  0.00     0.056 C 
BRANCH   7   8
ATOM      8  C1  UNL d   1       0.310  -1.522  -0.270  0.00  0.00     0.007 C 
ATOM      9  C   UNL d   1       1.450  -1.586  -1.278  0.00  0.00     0.009 C 
ENDBRANCH   7   8
ENDBRANCH   1   7
TORSDOF 2
ENDMDL
