MODEL 1
REMARK minimizedAffinity -3.17012715
REMARK minimizedRMSD -1
REMARK  2 active torsions:
REMARK  status: ('A' for Active; 'I' for Inactive)
REMARK    1  A    between atoms: C1_2  and  C2_3 
REMARK    2  A    between atoms: C2_3  and  C3_4 
ROOT
ATOM      1  C3  UNL d   1       0.634   0.939  -1.633  0.00  0.00    -0.075 A 
ATOM      2  C4  UNL d   1       0.920  -0.298  -1.039  0.00  0.00     0.002 A 
ATOM      3  C5  UNL d   1       1.802  -1.190  -1.650  0.00  0.00     0.002 A 
ATOM      4  C6  UNL d   1       2.399  -0.862  -2.866  0.00  0.00    -0.004 A 
ATOM      5  C7  UNL d   1       2.108   0.358  -3.473  0.00  0.00     0.002 A 
ATOM      6  C8  UNL d   1       1.230   1.254  -2.862  0.00  0.00     0.002 A 
ENDROOT
BRANCH   1   7
ATOM      7  C2  UNL d   1      -0.297   1.921  -0.962  0.00  0.00     0.056 C 
BRANCH   7   8
ATOM      8  C1  UNL d   1      -0.826   1.450   0.397  0.00  0.00     0.007 C 
ATOM      9  C   UNL d   1      -1.734   0.232   0.298  0.00  0.00     0.009 C 
ENDBRANCH   7   8
ENDBRANCH   1   7
TORSDOF 2
ENDMDL
