MODEL 1
REMARK minimizedAffinity -4.02308702
REMARK minimizedRMSD -1
REMARK  2 active torsions:
REMARK  status: ('A' for Active; 'I' for Inactive)
REMARK    1  A    between atoms: C1_2  and  C2_3 
REMARK    2  A    between atoms: C2_3  and  C3_4 
ROOT
ATOM      1  C3  UNL d   1       0.517  -0.284   0.741  0.00  0.00    -0.075 A 
ATOM      2  C4  UNL d   1       1.261  -1.470   0.663  0.00  0.00     0.002 A 
ATOM      3  C5  UNL d   1       1.780  -1.901  -0.558  0.00  0.00     0.002 A 
ATOM      4  C6  UNL d   1       1.554  -1.160  -1.716  0.00  0.00    -0.004 A 
ATOM      5  C7  UNL d   1       0.802   0.011  -1.653  0.00  0.00     0.002 A 
ATOM      6  C8  UNL d   1       0.285   0.447  -0.432  0.00  0.00     0.002 A 
ENDROOT
BRANCH   1   7
ATOM      7  C2  UNL d   1      -0.023   0.205   2.064  0.00  0.00     0.056 C 
BRANCH   7   8
ATOM      8  C1  UNL d   1      -1.397   0.876   1.967  0.00  0.00     0.007 C 
ATOM      9  C   UNL d   1      -2.002   1.203   3.326  0.00  0.00     0.009 C 
ENDBRANCH   7   8
ENDBRANCH   1   7
TORSDOF 2
ENDMDL
