MODEL 1
REMARK minimizedAffinity -5.2544322
REMARK minimizedRMSD -1
REMARK  2 active torsions:
REMARK  status: ('A' for Active; 'I' for Inactive)
REMARK    1  A    between atoms: C1_2  and  C2_3 
REMARK    2  A    between atoms: C2_3  and  C3_4 
ROOT
ATOM      1  C3  UNL d   1      -0.456   0.059  -0.255  0.00  0.00    -0.075 A 
ATOM      2  C4  UNL d   1      -0.316  -1.325  -0.076  0.00  0.00     0.002 A 
ATOM      3  C5  UNL d   1       0.804  -1.994  -0.571  0.00  0.00     0.002 A 
ATOM      4  C6  UNL d   1       1.792  -1.291  -1.258  0.00  0.00    -0.004 A 
ATOM      5  C7  UNL d   1       1.655   0.081  -1.457  0.00  0.00     0.002 A 
ATOM      6  C8  UNL d   1       0.537   0.753  -0.959  0.00  0.00     0.002 A 
ENDROOT
BRANCH   1   7
ATOM      7  C2  UNL d   1      -1.651   0.793   0.303  0.00  0.00     0.056 C 
BRANCH   7   8
ATOM      8  C1  UNL d   1      -2.174   0.220   1.624  0.00  0.00     0.007 C 
ATOM      9  C   UNL d   1      -2.026   1.180   2.797  0.00  0.00     0.009 C 
ENDBRANCH   7   8
ENDBRANCH   1   7
TORSDOF 2
ENDMDL
