MODEL 1
REMARK minimizedAffinity -3.07177567
REMARK minimizedRMSD -1
REMARK  2 active torsions:
REMARK  status: ('A' for Active; 'I' for Inactive)
REMARK    1  A    between atoms: C1_2  and  C2_3 
REMARK    2  A    between atoms: C2_3  and  C3_4 
ROOT
ATOM      1  C3  UNL d   1      -0.174  -0.275  -0.101  0.00  0.00    -0.075 A 
ATOM      2  C4  UNL d   1       0.297  -1.432   0.536  0.00  0.00     0.002 A 
ATOM      3  C5  UNL d   1       1.473  -2.048   0.107  0.00  0.00     0.002 A 
ATOM      4  C6  UNL d   1       2.186  -1.522  -0.968  0.00  0.00    -0.004 A 
ATOM      5  C7  UNL d   1       1.718  -0.383  -1.619  0.00  0.00     0.002 A 
ATOM      6  C8  UNL d   1       0.544   0.238  -1.189  0.00  0.00     0.002 A 
ENDROOT
BRANCH   1   7
ATOM      7  C2  UNL d   1      -1.430   0.413   0.378  0.00  0.00     0.056 C 
BRANCH   7   8
ATOM      8  C1  UNL d   1      -1.854   0.022   1.798  0.00  0.00     0.007 C 
ATOM      9  C   UNL d   1      -1.948   1.210   2.745  0.00  0.00     0.009 C 
ENDBRANCH   7   8
ENDBRANCH   1   7
TORSDOF 2
ENDMDL
