MODEL 1
REMARK minimizedAffinity -2.04933858
REMARK minimizedRMSD -1
REMARK  0 active torsions:
REMARK  status: ('A' for Active; 'I' for Inactive)
ROOT
ATOM      1  C   UNL d   1       1.470  -1.312   3.978  0.00  0.00     0.172 C 
ATOM      2  N   UNL d   1       0.678  -0.701   2.937  0.00  0.00    -0.070 N 
ATOM      3  C1  UNL d   1      -0.556  -0.133   3.102  0.00  0.00    -0.004 A 
ATOM      4  C2  UNL d   1      -0.973   0.335   1.874  0.00  0.00    -0.047 A 
ATOM      5  C3  UNL d   1       0.046   0.036   0.939  0.00  0.00    -0.047 A 
ATOM      6  C4  UNL d   1       1.057  -0.605   1.623  0.00  0.00    -0.004 A 
ENDROOT
TORSDOF 0
ENDMDL
