MODEL 1
REMARK minimizedAffinity -0.618641257
REMARK minimizedRMSD -1
REMARK  0 active torsions:
REMARK  status: ('A' for Active; 'I' for Inactive)
ROOT
ATOM      1  C   UNL d   1       1.075  -0.777   1.091  0.00  0.00     0.172 C 
ATOM      2  N   UNL d   1      -0.318  -0.509   0.817  0.00  0.00    -0.070 N 
ATOM      3  C1  UNL d   1      -1.238  -0.061   1.727  0.00  0.00    -0.004 A 
ATOM      4  C2  UNL d   1      -2.446   0.069   1.076  0.00  0.00    -0.047 A 
ATOM      5  C3  UNL d   1      -2.245  -0.315  -0.271  0.00  0.00    -0.047 A 
ATOM      6  C4  UNL d   1      -0.918  -0.668  -0.403  0.00  0.00    -0.004 A 
ENDROOT
TORSDOF 0
ENDMDL
