MODEL 1
REMARK minimizedAffinity -1.46070731
REMARK minimizedRMSD -1
REMARK  0 active torsions:
REMARK  status: ('A' for Active; 'I' for Inactive)
ROOT
ATOM      1  C   UNL d   1       1.192  -0.557   0.328  0.00  0.00     0.172 C 
ATOM      2  N   UNL d   1      -0.189  -0.174   0.505  0.00  0.00    -0.070 N 
ATOM      3  C1  UNL d   1      -0.754   0.256   1.676  0.00  0.00    -0.004 A 
ATOM      4  C2  UNL d   1      -2.083   0.522   1.430  0.00  0.00    -0.047 A 
ATOM      5  C3  UNL d   1      -2.326   0.240   0.065  0.00  0.00    -0.047 A 
ATOM      6  C4  UNL d   1      -1.136  -0.189  -0.484  0.00  0.00    -0.004 A 
ENDROOT
TORSDOF 0
ENDMDL
