MODEL 1
REMARK minimizedAffinity -0.424929261
REMARK minimizedRMSD -1
REMARK  0 active torsions:
REMARK  status: ('A' for Active; 'I' for Inactive)
ROOT
ATOM      1  C   UNL d   1       1.168  -0.663   1.253  0.00  0.00     0.172 C 
ATOM      2  N   UNL d   1       0.950  -0.997   2.641  0.00  0.00    -0.070 N 
ATOM      3  C1  UNL d   1       1.910  -1.424   3.519  0.00  0.00    -0.004 A 
ATOM      4  C2  UNL d   1       1.302  -1.635   4.738  0.00  0.00    -0.047 A 
ATOM      5  C3  UNL d   1      -0.070  -1.324   4.587  0.00  0.00    -0.047 A 
ATOM      6  C4  UNL d   1      -0.261  -0.932   3.279  0.00  0.00    -0.004 A 
ENDROOT
TORSDOF 0
ENDMDL
