MODEL 1
REMARK minimizedAffinity -0.0779615715
REMARK minimizedRMSD -1
REMARK  0 active torsions:
REMARK  status: ('A' for Active; 'I' for Inactive)
ROOT
ATOM      1  C   UNL d   1      -2.268   0.332   2.248  0.00  0.00     0.172 C 
ATOM      2  N   UNL d   1      -1.765  -0.614   3.216  0.00  0.00    -0.070 N 
ATOM      3  C1  UNL d   1      -2.474  -1.650   3.763  0.00  0.00    -0.004 A 
ATOM      4  C2  UNL d   1      -1.643  -2.315   4.638  0.00  0.00    -0.047 A 
ATOM      5  C3  UNL d   1      -0.391  -1.656   4.617  0.00  0.00    -0.047 A 
ATOM      6  C4  UNL d   1      -0.494  -0.607   3.728  0.00  0.00    -0.004 A 
ENDROOT
TORSDOF 0
ENDMDL
