MODEL 1
REMARK minimizedAffinity -0.399220347
REMARK minimizedRMSD -1
REMARK  0 active torsions:
REMARK  status: ('A' for Active; 'I' for Inactive)
ROOT
ATOM      1  C   UNL d   1      -4.385   0.599  -1.130  0.00  0.00     0.172 C 
ATOM      2  N   UNL d   1      -3.278   0.364  -0.232  0.00  0.00    -0.070 N 
ATOM      3  C1  UNL d   1      -3.131   0.911   1.015  0.00  0.00    -0.004 A 
ATOM      4  C2  UNL d   1      -1.951   0.439   1.546  0.00  0.00    -0.047 A 
ATOM      5  C3  UNL d   1      -1.367  -0.420   0.585  0.00  0.00    -0.047 A 
ATOM      6  C4  UNL d   1      -2.210  -0.449  -0.506  0.00  0.00    -0.004 A 
ENDROOT
TORSDOF 0
ENDMDL
