MODEL 1
REMARK minimizedAffinity 4.53475046
REMARK minimizedRMSD -1
REMARK  0 active torsions:
REMARK  status: ('A' for Active; 'I' for Inactive)
ROOT
ATOM      1  C   UNL d   1      -3.697  -1.813   3.148  0.00  0.00     0.172 C 
ATOM      2  N   UNL d   1      -3.109  -1.171   1.996  0.00  0.00    -0.070 N 
ATOM      3  C1  UNL d   1      -2.482   0.046   1.995  0.00  0.00    -0.004 A 
ATOM      4  C2  UNL d   1      -2.061   0.303   0.708  0.00  0.00    -0.047 A 
ATOM      5  C3  UNL d   1      -2.449  -0.798  -0.092  0.00  0.00    -0.047 A 
ATOM      6  C4  UNL d   1      -3.096  -1.696   0.731  0.00  0.00    -0.004 A 
ENDROOT
TORSDOF 0
ENDMDL
