MODEL 1
REMARK minimizedAffinity 3.89104581
REMARK minimizedRMSD -1
REMARK  0 active torsions:
REMARK  status: ('A' for Active; 'I' for Inactive)
ROOT
ATOM      1  C   UNL d   1       1.130  -0.737   0.747  0.00  0.00     0.172 C 
ATOM      2  N   UNL d   1      -0.298  -0.523   0.744  0.00  0.00    -0.070 N 
ATOM      3  C1  UNL d   1      -1.153  -0.852  -0.274  0.00  0.00    -0.004 A 
ATOM      4  C2  UNL d   1      -2.426  -0.489   0.109  0.00  0.00    -0.047 A 
ATOM      5  C3  UNL d   1      -2.333   0.078   1.402  0.00  0.00    -0.047 A 
ATOM      6  C4  UNL d   1      -1.005   0.045   1.771  0.00  0.00    -0.004 A 
ENDROOT
TORSDOF 0
ENDMDL
