MODEL 1
REMARK minimizedAffinity -4.23498631
REMARK minimizedRMSD -1
REMARK  0 active torsions:
REMARK  status: ('A' for Active; 'I' for Inactive)
ROOT
ATOM      1  C   UNL d   1      -3.176  -0.514  -0.625  0.00  0.00     0.023 A 
ATOM      2  C1  UNL d   1      -2.407  -1.090   0.387  0.00  0.00     0.003 A 
ATOM      3  C2  UNL d   1      -1.073  -0.711   0.553  0.00  0.00     0.048 A 
ATOM      4  C3  UNL d   1      -0.515   0.244  -0.296  0.00  0.00     0.023 A 
ATOM      5  C4  UNL d   1      -1.281   0.823  -1.309  0.00  0.00     0.048 A 
ATOM      6  C5  UNL d   1      -2.614   0.441  -1.472  0.00  0.00     0.003 A 
ATOM      7  I   UNL d   1       1.470   0.809  -0.051  0.00  0.00    -0.146 I 
ENDROOT
TORSDOF 0
ENDMDL
