MODEL 1
REMARK minimizedAffinity -2.16128445
REMARK minimizedRMSD -1
REMARK  0 active torsions:
REMARK  status: ('A' for Active; 'I' for Inactive)
ROOT
ATOM      1  C   UNL d   1      -1.232   0.666  -1.534  0.00  0.00     0.023 A 
ATOM      2  C1  UNL d   1       0.013   0.731  -0.910  0.00  0.00     0.003 A 
ATOM      3  C2  UNL d   1       0.360  -0.211   0.061  0.00  0.00     0.048 A 
ATOM      4  C3  UNL d   1      -0.544  -1.217   0.401  0.00  0.00     0.023 A 
ATOM      5  C4  UNL d   1      -1.791  -1.287  -0.221  0.00  0.00     0.048 A 
ATOM      6  C5  UNL d   1      -2.134  -0.342  -1.190  0.00  0.00     0.003 A 
ATOM      7  I   UNL d   1      -0.031  -2.621   1.845  0.00  0.00    -0.146 I 
ENDROOT
TORSDOF 0
ENDMDL
