MODEL 1
REMARK minimizedAffinity -1.39116311
REMARK minimizedRMSD -1
REMARK  0 active torsions:
REMARK  status: ('A' for Active; 'I' for Inactive)
ROOT
ATOM      1  C   UNL d   1       2.798   2.517   2.187  0.00  0.00     0.023 A 
ATOM      2  C1  UNL d   1       2.899   2.802   0.825  0.00  0.00     0.003 A 
ATOM      3  C2  UNL d   1       2.147   2.073  -0.099  0.00  0.00     0.048 A 
ATOM      4  C3  UNL d   1       1.296   1.062   0.346  0.00  0.00     0.023 A 
ATOM      5  C4  UNL d   1       1.192   0.774   1.707  0.00  0.00     0.048 A 
ATOM      6  C5  UNL d   1       1.946   1.504   2.628  0.00  0.00     0.003 A 
ATOM      7  I   UNL d   1       0.177  -0.024  -1.028  0.00  0.00    -0.146 I 
ENDROOT
TORSDOF 0
ENDMDL
