MODEL 1
REMARK minimizedAffinity -1.68619204
REMARK minimizedRMSD -1
REMARK  0 active torsions:
REMARK  status: ('A' for Active; 'I' for Inactive)
ROOT
ATOM      1  C   UNL d   1      -2.755  -1.081  -0.863  0.00  0.00     0.023 A 
ATOM      2  C1  UNL d   1      -2.346  -1.177   0.468  0.00  0.00     0.003 A 
ATOM      3  C2  UNL d   1      -1.090  -0.703   0.850  0.00  0.00     0.048 A 
ATOM      4  C3  UNL d   1      -0.247  -0.132  -0.103  0.00  0.00     0.023 A 
ATOM      5  C4  UNL d   1      -0.652  -0.033  -1.435  0.00  0.00     0.048 A 
ATOM      6  C5  UNL d   1      -1.909  -0.509  -1.813  0.00  0.00     0.003 A 
ATOM      7  I   UNL d   1       1.623   0.575   0.463  0.00  0.00    -0.146 I 
ENDROOT
TORSDOF 0
ENDMDL
