MODEL 1
REMARK minimizedAffinity 0.332937568
REMARK minimizedRMSD -1
REMARK  0 active torsions:
REMARK  status: ('A' for Active; 'I' for Inactive)
ROOT
ATOM      1  C   UNL d   1      -1.319  -1.232  -0.709  0.00  0.00     0.023 A 
ATOM      2  C1  UNL d   1      -1.389   0.032  -1.294  0.00  0.00     0.003 A 
ATOM      3  C2  UNL d   1      -0.559   1.060  -0.841  0.00  0.00     0.048 A 
ATOM      4  C3  UNL d   1       0.341   0.815   0.196  0.00  0.00     0.023 A 
ATOM      5  C4  UNL d   1       0.416  -0.449   0.783  0.00  0.00     0.048 A 
ATOM      6  C5  UNL d   1      -0.417  -1.472   0.328  0.00  0.00     0.003 A 
ATOM      7  I   UNL d   1       1.578   2.342   0.871  0.00  0.00    -0.146 I 
ENDROOT
TORSDOF 0
ENDMDL
