MODEL 1
REMARK minimizedAffinity -4.57071972
REMARK minimizedRMSD -1
REMARK  0 active torsions:
REMARK  status: ('A' for Active; 'I' for Inactive)
ROOT
ATOM      1  C   UNL d   1      -2.275  -0.608  -0.958  0.00  0.00     0.023 A 
ATOM      2  C1  UNL d   1      -1.779  -1.065   0.263  0.00  0.00     0.003 A 
ATOM      3  C2  UNL d   1      -0.498  -0.695   0.680  0.00  0.00     0.048 A 
ATOM      4  C3  UNL d   1       0.280   0.132  -0.129  0.00  0.00     0.023 A 
ATOM      5  C4  UNL d   1      -0.213   0.592  -1.351  0.00  0.00     0.048 A 
ATOM      6  C5  UNL d   1      -1.493   0.219  -1.764  0.00  0.00     0.003 A 
ATOM      7  I   UNL d   1       2.186   0.684   0.489  0.00  0.00    -0.146 I 
ENDROOT
TORSDOF 0
ENDMDL
