MODEL 1
REMARK minimizedAffinity -2.38548779
REMARK minimizedRMSD -1
REMARK  0 active torsions:
REMARK  status: ('A' for Active; 'I' for Inactive)
ROOT
ATOM      1  C   UNL d   1      -2.882  -1.043  -0.544  0.00  0.00     0.023 A 
ATOM      2  C1  UNL d   1      -2.455  -0.736   0.748  0.00  0.00     0.003 A 
ATOM      3  C2  UNL d   1      -1.253  -0.053   0.943  0.00  0.00     0.048 A 
ATOM      4  C3  UNL d   1      -0.483   0.321  -0.158  0.00  0.00     0.023 A 
ATOM      5  C4  UNL d   1      -0.907   0.016  -1.453  0.00  0.00     0.048 A 
ATOM      6  C5  UNL d   1      -2.109  -0.668  -1.643  0.00  0.00     0.003 A 
ATOM      7  I   UNL d   1       1.307   1.338   0.130  0.00  0.00    -0.146 I 
ENDROOT
TORSDOF 0
ENDMDL
