MODEL 1
REMARK minimizedAffinity -4.18493414
REMARK minimizedRMSD -1
REMARK  0 active torsions:
REMARK  status: ('A' for Active; 'I' for Inactive)
ROOT
ATOM      1  C   UNL d   1      -2.441  -0.851  -0.881  0.00  0.00     0.023 A 
ATOM      2  C1  UNL d   1      -2.021  -1.147   0.416  0.00  0.00     0.003 A 
ATOM      3  C2  UNL d   1      -0.822  -0.620   0.900  0.00  0.00     0.048 A 
ATOM      4  C3  UNL d   1      -0.048   0.204   0.083  0.00  0.00     0.023 A 
ATOM      5  C4  UNL d   1      -0.465   0.504  -1.215  0.00  0.00     0.048 A 
ATOM      6  C5  UNL d   1      -1.664  -0.026  -1.695  0.00  0.00     0.003 A 
ATOM      7  I   UNL d   1       1.736   0.990   0.802  0.00  0.00    -0.146 I 
ENDROOT
TORSDOF 0
ENDMDL
