MODEL 1
REMARK minimizedAffinity -3.72463441
REMARK minimizedRMSD -1
REMARK  0 active torsions:
REMARK  status: ('A' for Active; 'I' for Inactive)
ROOT
ATOM      1  C   UNL d   1      -2.859  -0.511  -0.371  0.00  0.00     0.023 A 
ATOM      2  C1  UNL d   1      -1.972  -0.166  -1.391  0.00  0.00     0.003 A 
ATOM      3  C2  UNL d   1      -0.638   0.118  -1.090  0.00  0.00     0.048 A 
ATOM      4  C3  UNL d   1      -0.198   0.054   0.231  0.00  0.00     0.023 A 
ATOM      5  C4  UNL d   1      -1.082  -0.292   1.254  0.00  0.00     0.048 A 
ATOM      6  C5  UNL d   1      -2.415  -0.574   0.950  0.00  0.00     0.003 A 
ATOM      7  I   UNL d   1       1.787   0.476   0.680  0.00  0.00    -0.146 I 
ENDROOT
TORSDOF 0
ENDMDL
