MODEL 1
REMARK minimizedAffinity -1.64565623
REMARK minimizedRMSD -1
REMARK  0 active torsions:
REMARK  status: ('A' for Active; 'I' for Inactive)
ROOT
ATOM      1  C   UNL d   1      -3.147  -1.326  -0.583  0.00  0.00     0.023 A 
ATOM      2  C1  UNL d   1      -2.217  -1.204  -1.615  0.00  0.00     0.003 A 
ATOM      3  C2  UNL d   1      -1.005  -0.547  -1.391  0.00  0.00     0.048 A 
ATOM      4  C3  UNL d   1      -0.730  -0.015  -0.132  0.00  0.00     0.023 A 
ATOM      5  C4  UNL d   1      -1.657  -0.136   0.904  0.00  0.00     0.048 A 
ATOM      6  C5  UNL d   1      -2.867  -0.793   0.675  0.00  0.00     0.003 A 
ATOM      7  I   UNL d   1       1.073   0.963   0.204  0.00  0.00    -0.146 I 
ENDROOT
TORSDOF 0
ENDMDL
