MODEL 1
REMARK minimizedAffinity -3.72195697
REMARK minimizedRMSD -1
REMARK  0 active torsions:
REMARK  status: ('A' for Active; 'I' for Inactive)
ROOT
ATOM      1  C   UNL d   1      -2.585  -0.655  -0.853  0.00  0.00     0.023 A 
ATOM      2  C1  UNL d   1      -1.892   0.216  -1.694  0.00  0.00     0.003 A 
ATOM      3  C2  UNL d   1      -0.653   0.728  -1.303  0.00  0.00     0.048 A 
ATOM      4  C3  UNL d   1      -0.112   0.363  -0.071  0.00  0.00     0.023 A 
ATOM      5  C4  UNL d   1      -0.801  -0.509   0.773  0.00  0.00     0.048 A 
ATOM      6  C5  UNL d   1      -2.040  -1.017   0.379  0.00  0.00     0.003 A 
ATOM      7  I   UNL d   1       1.732   1.124   0.513  0.00  0.00    -0.146 I 
ENDROOT
TORSDOF 0
ENDMDL
