MODEL 1
REMARK minimizedAffinity -3.33972692
REMARK minimizedRMSD -1
REMARK  0 active torsions:
REMARK  status: ('A' for Active; 'I' for Inactive)
ROOT
ATOM      1  C   UNL d   1      -2.307  -0.497  -1.428  0.00  0.00     0.023 A 
ATOM      2  C1  UNL d   1      -1.372   0.196  -2.198  0.00  0.00     0.003 A 
ATOM      3  C2  UNL d   1      -0.179   0.637  -1.621  0.00  0.00     0.048 A 
ATOM      4  C3  UNL d   1       0.074   0.379  -0.274  0.00  0.00     0.023 A 
ATOM      5  C4  UNL d   1      -0.858  -0.315   0.500  0.00  0.00     0.048 A 
ATOM      6  C5  UNL d   1      -2.050  -0.752  -0.081  0.00  0.00     0.003 A 
ATOM      7  I   UNL d   1       1.849   1.033   0.587  0.00  0.00    -0.146 I 
ENDROOT
TORSDOF 0
ENDMDL
