MODEL 1
REMARK minimizedAffinity 1.06239581
REMARK minimizedRMSD -1
REMARK  0 active torsions:
REMARK  status: ('A' for Active; 'I' for Inactive)
ROOT
ATOM      1  C   UNL d   1      -1.128  -1.579   2.110  0.00  0.00     0.023 A 
ATOM      2  C1  UNL d   1      -2.042  -0.992   1.236  0.00  0.00     0.003 A 
ATOM      3  C2  UNL d   1      -1.588  -0.234   0.154  0.00  0.00     0.048 A 
ATOM      4  C3  UNL d   1      -0.218  -0.069  -0.048  0.00  0.00     0.023 A 
ATOM      5  C4  UNL d   1       0.700  -0.656   0.824  0.00  0.00     0.048 A 
ATOM      6  C5  UNL d   1       0.242  -1.412   1.904  0.00  0.00     0.003 A 
ATOM      7  I   UNL d   1       0.460   1.058  -1.658  0.00  0.00    -0.146 I 
ENDROOT
TORSDOF 0
ENDMDL
