MODEL 1
REMARK minimizedAffinity -3.51202893
REMARK minimizedRMSD -1
REMARK  0 active torsions:
REMARK  status: ('A' for Active; 'I' for Inactive)
ROOT
ATOM      1  C   UNL d   1      -2.334  -1.041  -0.535  0.00  0.00     0.023 A 
ATOM      2  C1  UNL d   1      -1.629  -0.259  -1.450  0.00  0.00     0.003 A 
ATOM      3  C2  UNL d   1      -0.472   0.414  -1.050  0.00  0.00     0.048 A 
ATOM      4  C3  UNL d   1      -0.026   0.300   0.266  0.00  0.00     0.023 A 
ATOM      5  C4  UNL d   1      -0.728  -0.482   1.185  0.00  0.00     0.048 A 
ATOM      6  C5  UNL d   1      -1.884  -1.152   0.781  0.00  0.00     0.003 A 
ATOM      7  I   UNL d   1       1.695   1.300   0.863  0.00  0.00    -0.146 I 
ENDROOT
TORSDOF 0
ENDMDL
