MODEL 1
REMARK minimizedAffinity -4.74657917
REMARK minimizedRMSD -1
REMARK  0 active torsions:
REMARK  status: ('A' for Active; 'I' for Inactive)
ROOT
ATOM      1  C   UNL d   1      -2.714  -1.350  -0.500  0.00  0.00     0.023 A 
ATOM      2  C1  UNL d   1      -2.110  -1.527   0.745  0.00  0.00     0.003 A 
ATOM      3  C2  UNL d   1      -0.845  -0.991   0.990  0.00  0.00     0.048 A 
ATOM      4  C3  UNL d   1      -0.189  -0.278  -0.013  0.00  0.00     0.023 A 
ATOM      5  C4  UNL d   1      -0.790  -0.098  -1.260  0.00  0.00     0.048 A 
ATOM      6  C5  UNL d   1      -2.055  -0.637  -1.501  0.00  0.00     0.003 A 
ATOM      7  I   UNL d   1       1.695   0.521   0.351  0.00  0.00    -0.146 I 
ENDROOT
TORSDOF 0
ENDMDL
