MODEL 1
REMARK minimizedAffinity -2.41368532
REMARK minimizedRMSD -1
REMARK  0 active torsions:
REMARK  status: ('A' for Active; 'I' for Inactive)
ROOT
ATOM      1  C   UNL d   1       2.760   2.985   1.237  0.00  0.00     0.023 A 
ATOM      2  C1  UNL d   1       2.677   2.329   0.009  0.00  0.00     0.003 A 
ATOM      3  C2  UNL d   1       1.837   1.223  -0.138  0.00  0.00     0.048 A 
ATOM      4  C3  UNL d   1       1.083   0.778   0.947  0.00  0.00     0.023 A 
ATOM      5  C4  UNL d   1       1.162   1.432   2.178  0.00  0.00     0.048 A 
ATOM      6  C5  UNL d   1       2.003   2.537   2.320  0.00  0.00     0.003 A 
ATOM      7  I   UNL d   1      -0.167  -0.868   0.731  0.00  0.00    -0.146 I 
ENDROOT
TORSDOF 0
ENDMDL
