MODEL 1
REMARK minimizedAffinity 0.582657814
REMARK minimizedRMSD -1
REMARK  0 active torsions:
REMARK  status: ('A' for Active; 'I' for Inactive)
ROOT
ATOM      1  N1  IND d   1       4.412   5.323   3.925  0.00  0.00    -0.196 N 
ATOM      2  C2  IND d   1       5.019   4.759   5.012  0.00  0.00     0.054 A 
ATOM      3  C3  IND d   1       4.116   4.545   5.996  0.00  0.00    -0.031 A 
ATOM      4  C4  IND d   1       1.574   4.949   5.999  0.00  0.00     0.051 A 
ATOM      5  C5  IND d   1       0.567   5.483   5.244  0.00  0.00    -0.031 A 
ATOM      6  C6  IND d   1       0.795   5.999   3.985  0.00  0.00     0.015 A 
ATOM      7  C7  IND d   1       2.041   5.990   3.426  0.00  0.00    -0.016 A 
ATOM      8  C8  IND d   1       3.067   5.454   4.192  0.00  0.00    -0.047 A 
ATOM      9  C9  IND d   1       2.850   4.968   5.488  0.00  0.00    -0.096 A 
ATOM     10  HN1 IND d   1       4.805   5.556   3.196  0.00  0.00     0.298 HD
ENDROOT
TORSDOF 0
ENDMDL
