MODEL 1
REMARK minimizedAffinity 0.568856359
REMARK minimizedRMSD -1
REMARK  0 active torsions:
REMARK  status: ('A' for Active; 'I' for Inactive)
ROOT
ATOM      1  N1  IND d   1       1.276   5.980   3.875  0.00  0.00    -0.196 N 
ATOM      2  C2  IND d   1       0.519   6.000   5.013  0.00  0.00     0.054 A 
ATOM      3  C3  IND d   1       1.134   5.310   5.999  0.00  0.00    -0.031 A 
ATOM      4  C4  IND d   1       3.434   4.154   5.998  0.00  0.00     0.051 A 
ATOM      5  C5  IND d   1       4.479   3.836   5.176  0.00  0.00    -0.031 A 
ATOM      6  C6  IND d   1       4.512   4.226   3.853  0.00  0.00     0.015 A 
ATOM      7  C7  IND d   1       3.501   4.962   3.303  0.00  0.00    -0.016 A 
ATOM      8  C8  IND d   1       2.435   5.281   4.132  0.00  0.00    -0.047 A 
ATOM      9  C9  IND d   1       2.377   4.852   5.464  0.00  0.00    -0.096 A 
ATOM     10  HN1 IND d   1       1.064   6.342   3.124  0.00  0.00     0.298 HD
ENDROOT
TORSDOF 0
ENDMDL
