MODEL 1
REMARK minimizedAffinity 2.84407043
REMARK minimizedRMSD -1
REMARK  0 active torsions:
REMARK  status: ('A' for Active; 'I' for Inactive)
ROOT
ATOM      1  N1  IND d   1       3.755   2.098   2.332  0.00  0.00    -0.196 N 
ATOM      2  C2  IND d   1       4.628   3.147   2.249  0.00  0.00     0.054 A 
ATOM      3  C3  IND d   1       5.118   3.252   0.994  0.00  0.00    -0.031 A 
ATOM      4  C4  IND d   1       4.548   1.875  -1.105  0.00  0.00     0.051 A 
ATOM      5  C5  IND d   1       3.832   0.787  -1.518  0.00  0.00    -0.031 A 
ATOM      6  C6  IND d   1       3.036   0.067  -0.652  0.00  0.00     0.015 A 
ATOM      7  C7  IND d   1       2.916   0.417   0.664  0.00  0.00    -0.016 A 
ATOM      8  C8  IND d   1       3.647   1.518   1.088  0.00  0.00    -0.047 A 
ATOM      9  C9  IND d   1       4.490   2.226   0.223  0.00  0.00    -0.096 A 
ATOM     10  HN1 IND d   1       3.342   1.844   3.043  0.00  0.00     0.298 HD
ENDROOT
TORSDOF 0
ENDMDL
