MODEL 1
REMARK minimizedAffinity 10.2521963
REMARK minimizedRMSD -1
REMARK  0 active torsions:
REMARK  status: ('A' for Active; 'I' for Inactive)
ROOT
ATOM      1  N1  IND d   1      -5.156   3.756   4.549  0.00  0.00    -0.196 N 
ATOM      2  C2  IND d   1      -5.995   4.830   4.650  0.00  0.00     0.054 A 
ATOM      3  C3  IND d   1      -5.999   5.535   3.497  0.00  0.00    -0.031 A 
ATOM      4  C4  IND d   1      -4.782   5.051   1.280  0.00  0.00     0.051 A 
ATOM      5  C5  IND d   1      -3.872   4.203   0.714  0.00  0.00    -0.031 A 
ATOM      6  C6  IND d   1      -3.335   3.140   1.410  0.00  0.00     0.015 A 
ATOM      7  C7  IND d   1      -3.698   2.877   2.701  0.00  0.00    -0.016 A 
ATOM      8  C8  IND d   1      -4.616   3.740   3.281  0.00  0.00    -0.047 A 
ATOM      9  C9  IND d   1      -5.133   4.846   2.594  0.00  0.00    -0.096 A 
ATOM     10  HN1 IND d   1      -4.993   3.186   5.171  0.00  0.00     0.298 HD
ENDROOT
TORSDOF 0
ENDMDL
