MODEL 1
REMARK minimizedAffinity 1.78720343
REMARK minimizedRMSD -1
REMARK  0 active torsions:
REMARK  status: ('A' for Active; 'I' for Inactive)
ROOT
ATOM      1  N1  IND d   1       1.033   5.921   2.413  0.00  0.00    -0.196 N 
ATOM      2  C2  IND d   1       2.210   5.833   3.102  0.00  0.00     0.054 A 
ATOM      3  C3  IND d   1       2.534   4.538   3.316  0.00  0.00    -0.031 A 
ATOM      4  C4  IND d   1       1.330   2.400   2.536  0.00  0.00     0.051 A 
ATOM      5  C5  IND d   1       0.195   1.972   1.907  0.00  0.00    -0.031 A 
ATOM      6  C6  IND d   1      -0.737   2.856   1.402  0.00  0.00     0.015 A 
ATOM      7  C7  IND d   1      -0.561   4.207   1.498  0.00  0.00    -0.016 A 
ATOM      8  C8  IND d   1       0.587   4.646   2.142  0.00  0.00    -0.047 A 
ATOM      9  C9  IND d   1       1.515   3.753   2.694  0.00  0.00    -0.096 A 
ATOM     10  HN1 IND d   1       0.637   6.650   2.187  0.00  0.00     0.298 HD
ENDROOT
TORSDOF 0
ENDMDL
