MODEL 1
REMARK minimizedAffinity 13.1403551
REMARK minimizedRMSD -1
REMARK  0 active torsions:
REMARK  status: ('A' for Active; 'I' for Inactive)
ROOT
ATOM      1  N1  IND d   1       0.748   2.508  -0.711  0.00  0.00    -0.196 N 
ATOM      2  C2  IND d   1      -0.321   2.270   0.107  0.00  0.00     0.054 A 
ATOM      3  C3  IND d   1      -0.136   1.125   0.801  0.00  0.00    -0.031 A 
ATOM      4  C4  IND d   1       1.889  -0.464   0.826  0.00  0.00     0.051 A 
ATOM      5  C5  IND d   1       3.093  -0.684   0.218  0.00  0.00    -0.031 A 
ATOM      6  C6  IND d   1       3.588   0.168  -0.748  0.00  0.00     0.015 A 
ATOM      7  C7  IND d   1       2.900   1.282  -1.136  0.00  0.00    -0.016 A 
ATOM      8  C8  IND d   1       1.674   1.505  -0.526  0.00  0.00    -0.047 A 
ATOM      9  C9  IND d   1       1.147   0.621   0.425  0.00  0.00    -0.096 A 
ATOM     10  HN1 IND d   1       0.829   3.173  -1.250  0.00  0.00     0.298 HD
ENDROOT
TORSDOF 0
ENDMDL
