MODEL 1
REMARK minimizedAffinity 10.3612776
REMARK minimizedRMSD -1
REMARK  0 active torsions:
REMARK  status: ('A' for Active; 'I' for Inactive)
ROOT
ATOM      1  N1  IND d   1       4.832   1.265  -1.899  0.00  0.00    -0.196 N 
ATOM      2  C2  IND d   1       5.991   1.707  -1.325  0.00  0.00     0.054 A 
ATOM      3  C3  IND d   1       5.816   1.900   0.002  0.00  0.00    -0.031 A 
ATOM      4  C4  IND d   1       3.740   1.457   1.458  0.00  0.00     0.051 A 
ATOM      5  C5  IND d   1       2.428   1.085   1.379  0.00  0.00    -0.031 A 
ATOM      6  C6  IND d   1       1.838   0.744   0.178  0.00  0.00     0.015 A 
ATOM      7  C7  IND d   1       2.546   0.752  -0.991  0.00  0.00    -0.016 A 
ATOM      8  C8  IND d   1       3.877   1.137  -0.914  0.00  0.00    -0.047 A 
ATOM      9  C9  IND d   1       4.469   1.524   0.295  0.00  0.00    -0.096 A 
ATOM     10  HN1 IND d   1       4.718   1.097  -2.734  0.00  0.00     0.298 HD
ENDROOT
TORSDOF 0
ENDMDL
