MODEL 1
REMARK minimizedAffinity -3.90240955
REMARK minimizedRMSD -1
REMARK  0 active torsions:
REMARK  status: ('A' for Active; 'I' for Inactive)
ROOT
ATOM      1  N1  IND d   1       3.389   3.965   5.970  0.00  0.00    -0.196 N 
ATOM      2  C2  IND d   1       4.001   3.240   4.986  0.00  0.00     0.054 A 
ATOM      3  C3  IND d   1       3.353   3.401   3.811  0.00  0.00    -0.031 A 
ATOM      4  C4  IND d   1       1.326   4.886   3.250  0.00  0.00     0.051 A 
ATOM      5  C5  IND d   1       0.400   5.707   3.829  0.00  0.00    -0.031 A 
ATOM      6  C6  IND d   1       0.424   5.997   5.178  0.00  0.00     0.015 A 
ATOM      7  C7  IND d   1       1.387   5.484   6.000  0.00  0.00    -0.016 A 
ATOM      8  C8  IND d   1       2.326   4.645   5.417  0.00  0.00    -0.047 A 
ATOM      9  C9  IND d   1       2.281   4.313   4.057  0.00  0.00    -0.096 A 
ATOM     10  HN1 IND d   1       3.628   3.993   6.795  0.00  0.00     0.298 HD
ENDROOT
TORSDOF 0
ENDMDL
