MODEL 1
REMARK minimizedAffinity 2.22995782
REMARK minimizedRMSD -1
REMARK  0 active torsions:
REMARK  status: ('A' for Active; 'I' for Inactive)
ROOT
ATOM      1  N1  IND d   1       2.731   2.597   3.384  0.00  0.00    -0.196 N 
ATOM      2  C2  IND d   1       2.426   1.828   4.473  0.00  0.00     0.054 A 
ATOM      3  C3  IND d   1       2.696   2.501   5.614  0.00  0.00    -0.031 A 
ATOM      4  C4  IND d   1       3.546   4.910   5.930  0.00  0.00     0.051 A 
ATOM      5  C5  IND d   1       4.000   5.993   5.231  0.00  0.00    -0.031 A 
ATOM      6  C6  IND d   1       4.053   6.000   3.852  0.00  0.00     0.015 A 
ATOM      7  C7  IND d   1       3.641   4.924   3.118  0.00  0.00    -0.016 A 
ATOM      8  C8  IND d   1       3.186   3.820   3.825  0.00  0.00    -0.047 A 
ATOM      9  C9  IND d   1       3.170   3.791   5.225  0.00  0.00    -0.096 A 
ATOM     10  HN1 IND d   1       2.651   2.357   2.562  0.00  0.00     0.298 HD
ENDROOT
TORSDOF 0
ENDMDL
