MODEL 1
REMARK minimizedAffinity 6.13312578
REMARK minimizedRMSD -1
REMARK  0 active torsions:
REMARK  status: ('A' for Active; 'I' for Inactive)
ROOT
ATOM      1  N1  IND d   1       3.447   2.398   5.998  0.00  0.00    -0.196 N 
ATOM      2  C2  IND d   1       3.987   1.512   5.107  0.00  0.00     0.054 A 
ATOM      3  C3  IND d   1       4.429   2.161   4.007  0.00  0.00    -0.031 A 
ATOM      4  C4  IND d   1       4.461   4.685   3.500  0.00  0.00     0.051 A 
ATOM      5  C5  IND d   1       4.045   5.889   3.996  0.00  0.00    -0.031 A 
ATOM      6  C6  IND d   1       3.398   5.993   5.210  0.00  0.00     0.015 A 
ATOM      7  C7  IND d   1       3.151   4.893   5.982  0.00  0.00    -0.016 A 
ATOM      8  C8  IND d   1       3.566   3.668   5.479  0.00  0.00    -0.047 A 
ATOM      9  C9  IND d   1       4.186   3.552   4.228  0.00  0.00    -0.096 A 
ATOM     10  HN1 IND d   1       3.093   2.195   6.754  0.00  0.00     0.298 HD
ENDROOT
TORSDOF 0
ENDMDL
