MODEL 1
REMARK minimizedAffinity -1.69091213
REMARK minimizedRMSD -1
REMARK  1 active torsions:
REMARK  status: ('A' for Active; 'I' for Inactive)
REMARK    1  A    between atoms: C3_4  and  O_7 
ROOT
ATOM      1  C   UNL d   1       2.292   1.086   0.170  0.00  0.00    -0.033 A 
ATOM      2  C1  UNL d   1       2.722  -0.241   0.102  0.00  0.00     0.039 A 
ATOM      3  C2  UNL d   1       1.791  -1.271  -0.044  0.00  0.00    -0.080 A 
ATOM      4  C3  UNL d   1       0.435  -0.962  -0.121  0.00  0.00     0.150 A 
ATOM      5  C4  UNL d   1       0.001   0.358  -0.058  0.00  0.00    -0.007 A 
ATOM      6  C5  UNL d   1       0.932   1.386   0.089  0.00  0.00     0.039 A 
ENDROOT
BRANCH   4   7
ATOM      7  O   UNL d   1      -0.511  -1.933  -0.259  0.00  0.00    -0.526 OA
ATOM      8  H5  UNL d   1      -0.067  -2.798  -0.260  0.00  0.00     0.418 HD
ENDBRANCH   4   7
TORSDOF 1
ENDMDL
