MODEL 1
REMARK minimizedAffinity -3.0886631
REMARK minimizedRMSD -1
REMARK  1 active torsions:
REMARK  status: ('A' for Active; 'I' for Inactive)
REMARK    1  A    between atoms: C3_4  and  O_7 
ROOT
ATOM      1  C   UNL d   1      -1.666   1.799   0.613  0.00  0.00    -0.033 A 
ATOM      2  C1  UNL d   1      -0.652   0.848   0.479  0.00  0.00     0.039 A 
ATOM      3  C2  UNL d   1       0.635   1.127   0.943  0.00  0.00    -0.080 A 
ATOM      4  C3  UNL d   1       0.894   2.357   1.540  0.00  0.00     0.150 A 
ATOM      5  C4  UNL d   1      -0.111   3.308   1.681  0.00  0.00    -0.007 A 
ATOM      6  C5  UNL d   1      -1.396   3.029   1.215  0.00  0.00     0.039 A 
ENDROOT
BRANCH   4   7
ATOM      7  O   UNL d   1       2.136   2.676   2.005  0.00  0.00    -0.526 OA
ATOM      8  H5  UNL d   1       2.735   1.935   1.814  0.00  0.00     0.418 HD
ENDBRANCH   4   7
TORSDOF 1
ENDMDL
