MODEL 1
REMARK minimizedAffinity -4.39068317
REMARK minimizedRMSD -1
REMARK  1 active torsions:
REMARK  status: ('A' for Active; 'I' for Inactive)
REMARK    1  A    between atoms: C3_4  and  O_7 
ROOT
ATOM      1  C   UNL d   1      -0.156   3.100   0.444  0.00  0.00    -0.033 A 
ATOM      2  C1  UNL d   1      -1.308   2.477   0.928  0.00  0.00     0.039 A 
ATOM      3  C2  UNL d   1      -1.512   1.114   0.708  0.00  0.00    -0.080 A 
ATOM      4  C3  UNL d   1      -0.557   0.385   0.005  0.00  0.00     0.150 A 
ATOM      5  C4  UNL d   1       0.595   0.997  -0.477  0.00  0.00    -0.007 A 
ATOM      6  C5  UNL d   1       0.796   2.359  -0.257  0.00  0.00     0.039 A 
ENDROOT
BRANCH   4   7
ATOM      7  O   UNL d   1      -0.715  -0.947  -0.239  0.00  0.00    -0.526 OA
ATOM      8  H5  UNL d   1      -1.570  -1.228   0.127  0.00  0.00     0.418 HD
ENDBRANCH   4   7
TORSDOF 1
ENDMDL
