MODEL 1
REMARK minimizedAffinity -4.01282358
REMARK minimizedRMSD -1
REMARK  1 active torsions:
REMARK  status: ('A' for Active; 'I' for Inactive)
REMARK    1  A    between atoms: C3_4  and  O_7 
ROOT
ATOM      1  C   UNL d   1      -0.427  -0.357   0.574  0.00  0.00    -0.033 A 
ATOM      2  C1  UNL d   1       0.789   0.119   0.078  0.00  0.00     0.039 A 
ATOM      3  C2  UNL d   1       0.972   1.487  -0.133  0.00  0.00    -0.080 A 
ATOM      4  C3  UNL d   1      -0.067   2.367   0.157  0.00  0.00     0.150 A 
ATOM      5  C4  UNL d   1      -1.279   1.901   0.656  0.00  0.00    -0.007 A 
ATOM      6  C5  UNL d   1      -1.460   0.535   0.865  0.00  0.00     0.039 A 
ENDROOT
BRANCH   4   7
ATOM      7  O   UNL d   1       0.063   3.711  -0.037  0.00  0.00    -0.526 OA
ATOM      8  H5  UNL d   1       0.943   3.884  -0.412  0.00  0.00     0.418 HD
ENDBRANCH   4   7
TORSDOF 1
ENDMDL
