MODEL 1
REMARK minimizedAffinity -2.63912988
REMARK minimizedRMSD -1
REMARK  1 active torsions:
REMARK  status: ('A' for Active; 'I' for Inactive)
REMARK    1  A    between atoms: C3_4  and  O_7 
ROOT
ATOM      1  C   UNL d   1      -0.459   2.761   0.619  0.00  0.00    -0.033 A 
ATOM      2  C1  UNL d   1      -1.580   1.929   0.631  0.00  0.00     0.039 A 
ATOM      3  C2  UNL d   1      -1.435   0.555   0.432  0.00  0.00    -0.080 A 
ATOM      4  C3  UNL d   1      -0.165   0.025   0.224  0.00  0.00     0.150 A 
ATOM      5  C4  UNL d   1       0.957   0.847   0.214  0.00  0.00    -0.007 A 
ATOM      6  C5  UNL d   1       0.810   2.219   0.412  0.00  0.00     0.039 A 
ENDROOT
BRANCH   4   7
ATOM      7  O   UNL d   1       0.026  -1.309   0.020  0.00  0.00    -0.526 OA
ATOM      8  H5  UNL d   1      -0.841  -1.748   0.025  0.00  0.00     0.418 HD
ENDBRANCH   4   7
TORSDOF 1
ENDMDL
