MODEL 1
REMARK minimizedAffinity -4.89098883
REMARK minimizedRMSD -1
REMARK  1 active torsions:
REMARK  status: ('A' for Active; 'I' for Inactive)
REMARK    1  A    between atoms: C3_4  and  O_7 
ROOT
ATOM      1  C   UNL d   1       1.217   1.082  -0.051  0.00  0.00    -0.033 A 
ATOM      2  C1  UNL d   1       1.317   2.443   0.246  0.00  0.00     0.039 A 
ATOM      3  C2  UNL d   1       0.180   3.164   0.614  0.00  0.00    -0.080 A 
ATOM      4  C3  UNL d   1      -1.049   2.514   0.683  0.00  0.00     0.150 A 
ATOM      5  C4  UNL d   1      -1.155   1.157   0.393  0.00  0.00    -0.007 A 
ATOM      6  C5  UNL d   1      -0.019   0.439   0.024  0.00  0.00     0.039 A 
ENDROOT
BRANCH   4   7
ATOM      7  O   UNL d   1      -2.187   3.177   1.034  0.00  0.00    -0.526 OA
ATOM      8  H5  UNL d   1      -1.967   4.112   1.178  0.00  0.00     0.418 HD
ENDBRANCH   4   7
TORSDOF 1
ENDMDL
