MODEL 1
REMARK minimizedAffinity -3.92496204
REMARK minimizedRMSD -1
REMARK  1 active torsions:
REMARK  status: ('A' for Active; 'I' for Inactive)
REMARK    1  A    between atoms: C3_4  and  O_7 
ROOT
ATOM      1  C   UNL d   1      -1.457   1.332   0.445  0.00  0.00    -0.033 A 
ATOM      2  C1  UNL d   1      -0.567   2.327   0.852  0.00  0.00     0.039 A 
ATOM      3  C2  UNL d   1       0.796   2.045   0.961  0.00  0.00    -0.080 A 
ATOM      4  C3  UNL d   1       1.255   0.766   0.660  0.00  0.00     0.150 A 
ATOM      5  C4  UNL d   1       0.374  -0.230   0.251  0.00  0.00    -0.007 A 
ATOM      6  C5  UNL d   1      -0.986   0.054   0.143  0.00  0.00     0.039 A 
ENDROOT
BRANCH   4   7
ATOM      7  O   UNL d   1       2.576   0.441   0.757  0.00  0.00    -0.526 OA
ATOM      8  H5  UNL d   1       3.061   1.219   1.078  0.00  0.00     0.418 HD
ENDBRANCH   4   7
TORSDOF 1
ENDMDL
