MODEL 1
REMARK minimizedAffinity -3.89012265
REMARK minimizedRMSD -1
REMARK  1 active torsions:
REMARK  status: ('A' for Active; 'I' for Inactive)
REMARK    1  A    between atoms: C3_4  and  O_7 
ROOT
ATOM      1  C   UNL d   1      -1.550  -0.665   1.860  0.00  0.00    -0.033 A 
ATOM      2  C1  UNL d   1      -2.132  -1.085   3.058  0.00  0.00     0.039 A 
ATOM      3  C2  UNL d   1      -1.639  -2.211   3.719  0.00  0.00    -0.080 A 
ATOM      4  C3  UNL d   1      -0.564  -2.908   3.173  0.00  0.00     0.150 A 
ATOM      5  C4  UNL d   1       0.023  -2.493   1.982  0.00  0.00    -0.007 A 
ATOM      6  C5  UNL d   1      -0.472  -1.368   1.323  0.00  0.00     0.039 A 
ENDROOT
BRANCH   4   7
ATOM      7  O   UNL d   1      -0.052  -4.016   3.779  0.00  0.00    -0.526 OA
ATOM      8  H5  UNL d   1      -0.575  -4.201   4.577  0.00  0.00     0.418 HD
ENDBRANCH   4   7
TORSDOF 1
ENDMDL
