MODEL 1
REMARK minimizedAffinity -5.51642513
REMARK minimizedRMSD -1
REMARK  1 active torsions:
REMARK  status: ('A' for Active; 'I' for Inactive)
REMARK    1  A    between atoms: C3_4  and  O_7 
ROOT
ATOM      1  C   UNL d   1       2.473   1.090   0.366  0.00  0.00    -0.033 A 
ATOM      2  C1  UNL d   1       2.348   2.469   0.543  0.00  0.00     0.039 A 
ATOM      3  C2  UNL d   1       1.082   3.056   0.600  0.00  0.00    -0.080 A 
ATOM      4  C3  UNL d   1      -0.049   2.253   0.481  0.00  0.00     0.150 A 
ATOM      5  C4  UNL d   1       0.068   0.877   0.308  0.00  0.00    -0.007 A 
ATOM      6  C5  UNL d   1       1.333   0.294   0.250  0.00  0.00     0.039 A 
ENDROOT
BRANCH   4   7
ATOM      7  O   UNL d   1      -1.305   2.780   0.526  0.00  0.00    -0.526 OA
ATOM      8  H5  UNL d   1      -1.231   3.744   0.620  0.00  0.00     0.418 HD
ENDBRANCH   4   7
TORSDOF 1
ENDMDL
