MODEL 1
REMARK minimizedAffinity -2.85315132
REMARK minimizedRMSD -1
REMARK  1 active torsions:
REMARK  status: ('A' for Active; 'I' for Inactive)
REMARK    1  A    between atoms: C3_4  and  O_7 
ROOT
ATOM      1  C   UNL d   1      -1.523  -3.242  -2.807  0.00  0.00    -0.033 A 
ATOM      2  C1  UNL d   1      -0.142  -3.071  -2.686  0.00  0.00     0.039 A 
ATOM      3  C2  UNL d   1       0.378  -2.284  -1.657  0.00  0.00    -0.080 A 
ATOM      4  C3  UNL d   1      -0.491  -1.675  -0.756  0.00  0.00     0.150 A 
ATOM      5  C4  UNL d   1      -1.867  -1.844  -0.869  0.00  0.00    -0.007 A 
ATOM      6  C5  UNL d   1      -2.385  -2.629  -1.898  0.00  0.00     0.039 A 
ENDROOT
BRANCH   4   7
ATOM      7  O   UNL d   1      -0.031  -0.894   0.262  0.00  0.00    -0.526 OA
ATOM      8  H5  UNL d   1       0.938  -0.845   0.198  0.00  0.00     0.418 HD
ENDBRANCH   4   7
TORSDOF 1
ENDMDL
