MODEL 1
REMARK minimizedAffinity -4.59726286
REMARK minimizedRMSD -1
REMARK  1 active torsions:
REMARK  status: ('A' for Active; 'I' for Inactive)
REMARK    1  A    between atoms: C3_4  and  O_7 
ROOT
ATOM      1  C   UNL d   1       0.335   2.495  -1.227  0.00  0.00    -0.033 A 
ATOM      2  C1  UNL d   1      -0.122   1.537  -0.320  0.00  0.00     0.039 A 
ATOM      3  C2  UNL d   1      -0.117   1.811   1.050  0.00  0.00    -0.080 A 
ATOM      4  C3  UNL d   1       0.347   3.044   1.498  0.00  0.00     0.150 A 
ATOM      5  C4  UNL d   1       0.801   4.004   0.599  0.00  0.00    -0.007 A 
ATOM      6  C5  UNL d   1       0.795   3.729  -0.767  0.00  0.00     0.039 A 
ENDROOT
BRANCH   4   7
ATOM      7  O   UNL d   1       0.376   3.355   2.825  0.00  0.00    -0.526 OA
ATOM      8  H5  UNL d   1       0.060   2.586   3.328  0.00  0.00     0.418 HD
ENDBRANCH   4   7
TORSDOF 1
ENDMDL
