MODEL 1
REMARK minimizedAffinity -2.17292571
REMARK minimizedRMSD -1
REMARK  1 active torsions:
REMARK  status: ('A' for Active; 'I' for Inactive)
REMARK    1  A    between atoms: C3_4  and  O_7 
ROOT
ATOM      1  C   UNL d   1       2.648   4.386   2.477  0.00  0.00    -0.033 A 
ATOM      2  C1  UNL d   1       1.993   5.302   3.303  0.00  0.00     0.039 A 
ATOM      3  C2  UNL d   1       0.853   4.916   4.011  0.00  0.00    -0.080 A 
ATOM      4  C3  UNL d   1       0.380   3.613   3.887  0.00  0.00     0.150 A 
ATOM      5  C4  UNL d   1       1.030   2.694   3.069  0.00  0.00    -0.007 A 
ATOM      6  C5  UNL d   1       2.167   3.081   2.361  0.00  0.00     0.039 A 
ENDROOT
BRANCH   4   7
ATOM      7  O   UNL d   1      -0.731   3.191   4.555  0.00  0.00    -0.526 OA
ATOM      8  H5  UNL d   1      -1.090   3.941   5.058  0.00  0.00     0.418 HD
ENDBRANCH   4   7
TORSDOF 1
ENDMDL
