MODEL 1
REMARK minimizedAffinity 5.52765942
REMARK minimizedRMSD -1
REMARK  1 active torsions:
REMARK  status: ('A' for Active; 'I' for Inactive)
REMARK    1  A    between atoms: C3_4  and  O_7 
ROOT
ATOM      1  C   UNL d   1       3.876   1.517  -4.066  0.00  0.00    -0.033 A 
ATOM      2  C1  UNL d   1       5.006   1.925  -4.778  0.00  0.00     0.039 A 
ATOM      3  C2  UNL d   1       5.734   3.039  -4.356  0.00  0.00    -0.080 A 
ATOM      4  C3  UNL d   1       5.323   3.734  -3.222  0.00  0.00     0.150 A 
ATOM      5  C4  UNL d   1       4.201   3.330  -2.506  0.00  0.00    -0.007 A 
ATOM      6  C5  UNL d   1       3.475   2.218  -2.929  0.00  0.00     0.039 A 
ENDROOT
BRANCH   4   7
ATOM      7  O   UNL d   1       5.999   4.830  -2.774  0.00  0.00    -0.526 OA
ATOM      8  H5  UNL d   1       6.734   5.009  -3.383  0.00  0.00     0.418 HD
ENDBRANCH   4   7
TORSDOF 1
ENDMDL
