MODEL 1
REMARK minimizedAffinity -3.25892878
REMARK minimizedRMSD -1
REMARK  1 active torsions:
REMARK  status: ('A' for Active; 'I' for Inactive)
REMARK    1  A    between atoms: C3_4  and  O_7 
ROOT
ATOM      1  C   UNL d   1       3.946   1.907  -4.844  0.00  0.00    -0.033 A 
ATOM      2  C1  UNL d   1       3.282   2.323  -6.000  0.00  0.00     0.039 A 
ATOM      3  C2  UNL d   1       1.950   2.734  -5.932  0.00  0.00    -0.080 A 
ATOM      4  C3  UNL d   1       1.294   2.726  -4.704  0.00  0.00     0.150 A 
ATOM      5  C4  UNL d   1       1.951   2.316  -3.548  0.00  0.00    -0.007 A 
ATOM      6  C5  UNL d   1       3.281   1.905  -3.618  0.00  0.00     0.039 A 
ENDROOT
BRANCH   4   7
ATOM      7  O   UNL d   1      -0.008   3.114  -4.588  0.00  0.00    -0.526 OA
ATOM      8  H5  UNL d   1      -0.340   3.343  -5.472  0.00  0.00     0.418 HD
ENDBRANCH   4   7
TORSDOF 1
ENDMDL
