MODEL 1
REMARK minimizedAffinity -4.53761673
REMARK minimizedRMSD -1
REMARK  1 active torsions:
REMARK  status: ('A' for Active; 'I' for Inactive)
REMARK    1  A    between atoms: C3_4  and  O_7 
ROOT
ATOM      1  C   UNL d   1      -0.697   0.332   0.220  0.00  0.00    -0.033 A 
ATOM      2  C1  UNL d   1       0.659   0.634   0.083  0.00  0.00     0.039 A 
ATOM      3  C2  UNL d   1       1.083   1.964   0.079  0.00  0.00    -0.080 A 
ATOM      4  C3  UNL d   1       0.142   2.981   0.213  0.00  0.00     0.150 A 
ATOM      5  C4  UNL d   1      -1.210   2.687   0.355  0.00  0.00    -0.007 A 
ATOM      6  C5  UNL d   1      -1.632   1.358   0.358  0.00  0.00     0.039 A 
ENDROOT
BRANCH   4   7
ATOM      7  O   UNL d   1       0.507   4.295   0.210  0.00  0.00    -0.526 OA
ATOM      8  H5  UNL d   1       1.468   4.347   0.076  0.00  0.00     0.418 HD
ENDBRANCH   4   7
TORSDOF 1
ENDMDL
