MODEL 1
REMARK minimizedAffinity 15.9155054
REMARK minimizedRMSD -1
REMARK  3 active torsions:
REMARK  status: ('A' for Active; 'I' for Inactive)
REMARK    1  A    between atoms: C3'_2  and  C2'_3 
REMARK    2  A    between atoms: C2'_3  and  C1'_4 
REMARK    3  A    between atoms: C1'_4  and  C1_5 
ROOT
ATOM      1  C1  N4B d   1      -4.469   2.382  -4.629  0.00  0.00    -0.075 A 
ATOM      2  C2  N4B d   1      -3.551   3.389  -4.256  0.00  0.00     0.002 A 
ATOM      3  C3  N4B d   1      -3.777   4.693  -4.623  0.00  0.00     0.002 A 
ATOM      4  C4  N4B d   1      -4.898   5.010  -5.375  0.00  0.00    -0.004 A 
ATOM      5  C5  N4B d   1      -5.792   4.036  -5.710  0.00  0.00     0.002 A 
ATOM      6  C6  N4B d   1      -5.580   2.721  -5.345  0.00  0.00     0.002 A 
ENDROOT
BRANCH   1   7
ATOM      7  C1' N4B d   1      -4.221   0.930  -4.326  0.00  0.00     0.057 C 
BRANCH   7   8
ATOM      8  C2' N4B d   1      -4.738   0.616  -2.925  0.00  0.00     0.009 C 
BRANCH   8   9
ATOM      9  C3' N4B d   1      -3.607   0.349  -1.948  0.00  0.00     0.004 C 
ATOM     10  C4' N4B d   1      -2.959  -0.987  -2.160  0.00  0.00     0.003 C 
ENDBRANCH   8   9
ENDBRANCH   7   8
ENDBRANCH   1   7
TORSDOF 3
ENDMDL
