MODEL 1
REMARK minimizedAffinity 9.54928684
REMARK minimizedRMSD -1
REMARK  3 active torsions:
REMARK  status: ('A' for Active; 'I' for Inactive)
REMARK    1  A    between atoms: C3'_2  and  C2'_3 
REMARK    2  A    between atoms: C2'_3  and  C1'_4 
REMARK    3  A    between atoms: C1'_4  and  C1_5 
ROOT
ATOM      1  C1  N4B d   1      -5.039   2.311  -5.262  0.00  0.00    -0.075 A 
ATOM      2  C2  N4B d   1      -3.684   2.710  -5.251  0.00  0.00     0.002 A 
ATOM      3  C3  N4B d   1      -3.343   3.991  -5.610  0.00  0.00     0.002 A 
ATOM      4  C4  N4B d   1      -4.333   4.881  -6.000  0.00  0.00    -0.004 A 
ATOM      5  C5  N4B d   1      -5.642   4.495  -5.984  0.00  0.00     0.002 A 
ATOM      6  C6  N4B d   1      -5.999   3.212  -5.621  0.00  0.00     0.002 A 
ENDROOT
BRANCH   1   7
ATOM      7  C1' N4B d   1      -5.452   0.896  -4.961  0.00  0.00     0.057 C 
BRANCH   7   8
ATOM      8  C2' N4B d   1      -4.929   0.505  -3.582  0.00  0.00     0.009 C 
BRANCH   8   9
ATOM      9  C3' N4B d   1      -4.460  -0.939  -3.541  0.00  0.00     0.004 C 
ATOM     10  C4' N4B d   1      -3.208  -1.120  -2.735  0.00  0.00     0.003 C 
ENDBRANCH   8   9
ENDBRANCH   7   8
ENDBRANCH   1   7
TORSDOF 3
ENDMDL
