MODEL 1
REMARK minimizedAffinity 6.54755878
REMARK minimizedRMSD -1
REMARK  3 active torsions:
REMARK  status: ('A' for Active; 'I' for Inactive)
REMARK    1  A    between atoms: C3'_2  and  C2'_3 
REMARK    2  A    between atoms: C2'_3  and  C1'_4 
REMARK    3  A    between atoms: C1'_4  and  C1_5 
ROOT
ATOM      1  C1  N4B d   1       3.137   5.408   4.642  0.00  0.00    -0.075 A 
ATOM      2  C2  N4B d   1       4.013   5.238   3.547  0.00  0.00     0.002 A 
ATOM      3  C3  N4B d   1       5.360   5.456   3.706  0.00  0.00     0.002 A 
ATOM      4  C4  N4B d   1       5.849   5.862   4.938  0.00  0.00    -0.004 A 
ATOM      5  C5  N4B d   1       4.999   5.999   5.997  0.00  0.00     0.002 A 
ATOM      6  C6  N4B d   1       3.644   5.779   5.853  0.00  0.00     0.002 A 
ENDROOT
BRANCH   1   7
ATOM      7  C1' N4B d   1       1.647   5.264   4.496  0.00  0.00     0.057 C 
BRANCH   7   8
ATOM      8  C2' N4B d   1       1.330   4.720   3.106  0.00  0.00     0.009 C 
BRANCH   8   9
ATOM      9  C3' N4B d   1       1.317   3.201   3.080  0.00  0.00     0.004 C 
ATOM     10  C4' N4B d   1       1.849   2.638   1.796  0.00  0.00     0.003 C 
ENDBRANCH   8   9
ENDBRANCH   7   8
ENDBRANCH   1   7
TORSDOF 3
ENDMDL
