MODEL 1
REMARK minimizedAffinity 3.51471448
REMARK minimizedRMSD -1
REMARK  3 active torsions:
REMARK  status: ('A' for Active; 'I' for Inactive)
REMARK    1  A    between atoms: C3'_2  and  C2'_3 
REMARK    2  A    between atoms: C2'_3  and  C1'_4 
REMARK    3  A    between atoms: C1'_4  and  C1_5 
ROOT
ATOM      1  C1  N4B d   1       3.456   5.700   5.202  0.00  0.00    -0.075 A 
ATOM      2  C2  N4B d   1       4.583   5.404   6.000  0.00  0.00     0.002 A 
ATOM      3  C3  N4B d   1       5.839   5.410   5.443  0.00  0.00     0.002 A 
ATOM      4  C4  N4B d   1       5.989   5.688   4.093  0.00  0.00    -0.004 A 
ATOM      5  C5  N4B d   1       4.898   5.998   3.335  0.00  0.00     0.002 A 
ATOM      6  C6  N4B d   1       3.631   6.000   3.882  0.00  0.00     0.002 A 
ENDROOT
BRANCH   1   7
ATOM      7  C1' N4B d   1       2.056   5.622   5.746  0.00  0.00     0.057 C 
BRANCH   7   8
ATOM      8  C2' N4B d   1       1.166   4.900   4.738  0.00  0.00     0.009 C 
BRANCH   8   9
ATOM      9  C3' N4B d   1       1.845   3.669   4.162  0.00  0.00     0.004 C 
ATOM     10  C4' N4B d   1       1.320   3.297   2.807  0.00  0.00     0.003 C 
ENDBRANCH   8   9
ENDBRANCH   7   8
ENDBRANCH   1   7
TORSDOF 3
ENDMDL
