MODEL 1
REMARK minimizedAffinity 13.1404896
REMARK minimizedRMSD -1
REMARK  1 active torsions:
REMARK  status: ('A' for Active; 'I' for Inactive)
REMARK    1  A    between atoms: C1_2  and  C2_3 
ROOT
ATOM      1  C2  UNL d   1       5.079  -3.979  -0.248  0.00  0.00    -0.077 A 
ATOM      2  C3  UNL d   1       3.990  -3.285   0.298  0.00  0.00     0.002 A 
ATOM      3  C4  UNL d   1       3.826  -1.920   0.051  0.00  0.00     0.002 A 
ATOM      4  C5  UNL d   1       4.745  -1.240  -0.745  0.00  0.00    -0.004 A 
ATOM      5  C6  UNL d   1       5.832  -1.920  -1.291  0.00  0.00     0.002 A 
ATOM      6  C7  UNL d   1       5.998  -3.284  -1.044  0.00  0.00     0.002 A 
ENDROOT
BRANCH   1   7
ATOM      7  C1  UNL d   1       5.230  -5.461  -0.024  0.00  0.00     0.055 C 
ATOM      8  C   UNL d   1       5.972  -5.751   1.273  0.00  0.00     0.019 C 
ENDBRANCH   1   7
TORSDOF 1
ENDMDL
