MODEL 1
REMARK minimizedAffinity 13.6255579
REMARK minimizedRMSD -1
REMARK  1 active torsions:
REMARK  status: ('A' for Active; 'I' for Inactive)
REMARK    1  A    between atoms: C1_2  and  C2_3 
ROOT
ATOM      1  C2  UNL d   1       4.689  -4.399  -2.233  0.00  0.00    -0.077 A 
ATOM      2  C3  UNL d   1       4.771  -3.942  -3.556  0.00  0.00     0.002 A 
ATOM      3  C4  UNL d   1       5.422  -2.743  -3.850  0.00  0.00     0.002 A 
ATOM      4  C5  UNL d   1       6.000  -1.993  -2.827  0.00  0.00    -0.004 A 
ATOM      5  C6  UNL d   1       5.922  -2.438  -1.508  0.00  0.00     0.002 A 
ATOM      6  C7  UNL d   1       5.271  -3.636  -1.212  0.00  0.00     0.002 A 
ENDROOT
BRANCH   1   7
ATOM      7  C1  UNL d   1       4.030  -5.717  -1.920  0.00  0.00     0.055 C 
ATOM      8  C   UNL d   1       2.575  -5.729  -2.366  0.00  0.00     0.019 C 
ENDBRANCH   1   7
TORSDOF 1
ENDMDL
