MODEL 1
REMARK minimizedAffinity 13.2394915
REMARK minimizedRMSD -1
REMARK  1 active torsions:
REMARK  status: ('A' for Active; 'I' for Inactive)
REMARK    1  A    between atoms: C1_2  and  C2_3 
ROOT
ATOM      1  C2  UNL d   1       5.074  -4.292  -1.996  0.00  0.00    -0.077 A 
ATOM      2  C3  UNL d   1       5.409  -3.459  -0.920  0.00  0.00     0.002 A 
ATOM      3  C4  UNL d   1       5.872  -2.161  -1.148  0.00  0.00     0.002 A 
ATOM      4  C5  UNL d   1       5.999  -1.684  -2.451  0.00  0.00    -0.004 A 
ATOM      5  C6  UNL d   1       5.671  -2.506  -3.528  0.00  0.00     0.002 A 
ATOM      6  C7  UNL d   1       5.209  -3.803  -3.302  0.00  0.00     0.002 A 
ENDROOT
BRANCH   1   7
ATOM      7  C1  UNL d   1       4.529  -5.674  -1.751  0.00  0.00     0.055 C 
ATOM      8  C   UNL d   1       3.114  -5.816  -2.293  0.00  0.00     0.019 C 
ENDBRANCH   1   7
TORSDOF 1
ENDMDL
