MODEL 1
REMARK minimizedAffinity 8.04865456
REMARK minimizedRMSD -1
REMARK  1 active torsions:
REMARK  status: ('A' for Active; 'I' for Inactive)
REMARK    1  A    between atoms: C1_2  and  C2_3 
ROOT
ATOM      1  C2  UNL d   1       1.796   4.489   1.403  0.00  0.00    -0.077 A 
ATOM      2  C3  UNL d   1       1.403   5.555   0.582  0.00  0.00     0.002 A 
ATOM      3  C4  UNL d   1       0.306   5.422  -0.272  0.00  0.00     0.002 A 
ATOM      4  C5  UNL d   1      -0.409   4.227  -0.309  0.00  0.00    -0.004 A 
ATOM      5  C6  UNL d   1      -0.025   3.160   0.502  0.00  0.00     0.002 A 
ATOM      6  C7  UNL d   1       1.072   3.291   1.355  0.00  0.00     0.002 A 
ENDROOT
BRANCH   1   7
ATOM      7  C1  UNL d   1       2.948   4.647   2.360  0.00  0.00     0.055 C 
ATOM      8  C   UNL d   1       3.140   3.398   3.207  0.00  0.00     0.019 C 
ENDBRANCH   1   7
TORSDOF 1
ENDMDL
