MODEL 1
REMARK minimizedAffinity 15.9377947
REMARK minimizedRMSD -1
REMARK  1 active torsions:
REMARK  status: ('A' for Active; 'I' for Inactive)
REMARK    1  A    between atoms: C1_2  and  C2_3 
ROOT
ATOM      1  C2  UNL d   1      -0.363   3.399   1.051  0.00  0.00    -0.077 A 
ATOM      2  C3  UNL d   1       0.932   3.657   0.581  0.00  0.00     0.002 A 
ATOM      3  C4  UNL d   1       1.144   4.608  -0.419  0.00  0.00     0.002 A 
ATOM      4  C5  UNL d   1       0.066   5.311  -0.954  0.00  0.00    -0.004 A 
ATOM      5  C6  UNL d   1      -1.226   5.060  -0.494  0.00  0.00     0.002 A 
ATOM      6  C7  UNL d   1      -1.440   4.109   0.504  0.00  0.00     0.002 A 
ENDROOT
BRANCH   1   7
ATOM      7  C1  UNL d   1      -0.589   2.409   2.164  0.00  0.00     0.055 C 
ATOM      8  C   UNL d   1      -1.907   2.669   2.878  0.00  0.00     0.019 C 
ENDBRANCH   1   7
TORSDOF 1
ENDMDL
