MODEL 1
REMARK minimizedAffinity 3.23194504
REMARK minimizedRMSD -1
REMARK  0 active torsions:
REMARK  status: ('A' for Active; 'I' for Inactive)
ROOT
ATOM      1  N1  IND d   1       1.304   1.261   0.246  0.00  0.00    -0.196 N 
ATOM      2  C2  IND d   1       0.071   0.775   0.583  0.00  0.00     0.054 A 
ATOM      3  C3  IND d   1      -0.030  -0.528   0.238  0.00  0.00    -0.031 A 
ATOM      4  C4  IND d   1       1.736  -2.089  -0.798  0.00  0.00     0.051 A 
ATOM      5  C5  IND d   1       3.000  -2.090  -1.317  0.00  0.00    -0.031 A 
ATOM      6  C6  IND d   1       3.781  -0.952  -1.338  0.00  0.00     0.015 A 
ATOM      7  C7  IND d   1       3.328   0.232  -0.830  0.00  0.00    -0.016 A 
ATOM      8  C8  IND d   1       2.042   0.239  -0.309  0.00  0.00    -0.047 A 
ATOM      9  C9  IND d   1       1.229  -0.902  -0.323  0.00  0.00    -0.096 A 
ATOM     10  HN1 IND d   1       1.573   2.070   0.362  0.00  0.00     0.298 HD
ENDROOT
TORSDOF 0
ENDMDL
