MODEL 1
REMARK minimizedAffinity 7.63233614
REMARK minimizedRMSD -1
REMARK  0 active torsions:
REMARK  status: ('A' for Active; 'I' for Inactive)
ROOT
ATOM      1  N1  IND d   1       4.139   0.289  -2.204  0.00  0.00    -0.196 N 
ATOM      2  C2  IND d   1       3.955   1.204  -1.204  0.00  0.00     0.054 A 
ATOM      3  C3  IND d   1       3.243   0.659  -0.193  0.00  0.00    -0.031 A 
ATOM      4  C4  IND d   1       2.365  -1.746   0.079  0.00  0.00     0.051 A 
ATOM      5  C5  IND d   1       2.255  -2.934  -0.587  0.00  0.00    -0.031 A 
ATOM      6  C6  IND d   1       2.779  -3.113  -1.851  0.00  0.00     0.015 A 
ATOM      7  C7  IND d   1       3.447  -2.109  -2.493  0.00  0.00    -0.016 A 
ATOM      8  C8  IND d   1       3.555  -0.899  -1.823  0.00  0.00    -0.047 A 
ATOM      9  C9  IND d   1       2.988  -0.699  -0.558  0.00  0.00    -0.096 A 
ATOM     10  HN1 IND d   1       4.549   0.432  -2.946  0.00  0.00     0.298 HD
ENDROOT
TORSDOF 0
ENDMDL
