MODEL 1
REMARK minimizedAffinity 1.38056421
REMARK minimizedRMSD -1
REMARK  0 active torsions:
REMARK  status: ('A' for Active; 'I' for Inactive)
ROOT
ATOM      1  N1  IND d   1       3.355   1.238  -0.741  0.00  0.00    -0.196 N 
ATOM      2  C2  IND d   1       2.264   1.307   0.079  0.00  0.00     0.054 A 
ATOM      3  C3  IND d   1       1.651   0.104   0.150  0.00  0.00    -0.031 A 
ATOM      4  C4  IND d   1       2.325  -2.140  -0.918  0.00  0.00     0.051 A 
ATOM      5  C5  IND d   1       3.228  -2.694  -1.781  0.00  0.00    -0.031 A 
ATOM      6  C6  IND d   1       4.242  -1.951  -2.351  0.00  0.00     0.015 A 
ATOM      7  C7  IND d   1       4.397  -0.623  -2.069  0.00  0.00    -0.016 A 
ATOM      8  C8  IND d   1       3.478  -0.056  -1.198  0.00  0.00    -0.047 A 
ATOM      9  C9  IND d   1       2.422  -0.795  -0.650  0.00  0.00    -0.096 A 
ATOM     10  HN1 IND d   1       3.876   1.892  -0.938  0.00  0.00     0.298 HD
ENDROOT
TORSDOF 0
ENDMDL
