MODEL 1
REMARK minimizedAffinity -0.583492815
REMARK minimizedRMSD -1
REMARK  0 active torsions:
REMARK  status: ('A' for Active; 'I' for Inactive)
ROOT
ATOM      1  N1  IND d   1       1.114   0.863  -0.004  0.00  0.00    -0.196 N 
ATOM      2  C2  IND d   1      -0.146   1.354  -0.204  0.00  0.00     0.054 A 
ATOM      3  C3  IND d   1      -0.964   0.378  -0.657  0.00  0.00    -0.031 A 
ATOM      4  C4  IND d   1      -0.473  -2.119  -1.047  0.00  0.00     0.051 A 
ATOM      5  C5  IND d   1       0.546  -3.030  -1.037  0.00  0.00    -0.031 A 
ATOM      6  C6  IND d   1       1.831  -2.684  -0.673  0.00  0.00     0.015 A 
ATOM      7  C7  IND d   1       2.144  -1.410  -0.291  0.00  0.00    -0.016 A 
ATOM      8  C8  IND d   1       1.115  -0.480  -0.307  0.00  0.00    -0.047 A 
ATOM      9  C9  IND d   1      -0.182  -0.816  -0.716  0.00  0.00    -0.096 A 
ATOM     10  HN1 IND d   1       1.792   1.318   0.266  0.00  0.00     0.298 HD
ENDROOT
TORSDOF 0
ENDMDL
