MODEL 1
REMARK minimizedAffinity 1.42950499
REMARK minimizedRMSD -1
REMARK  0 active torsions:
REMARK  status: ('A' for Active; 'I' for Inactive)
ROOT
ATOM      1  N1  IND d   1       1.554  -0.660   0.226  0.00  0.00    -0.196 N 
ATOM      2  C2  IND d   1       0.685  -1.712   0.297  0.00  0.00     0.054 A 
ATOM      3  C3  IND d   1       1.008  -2.652  -0.620  0.00  0.00    -0.031 A 
ATOM      4  C4  IND d   1       2.983  -2.716  -2.270  0.00  0.00     0.051 A 
ATOM      5  C5  IND d   1       4.027  -1.964  -2.730  0.00  0.00    -0.031 A 
ATOM      6  C6  IND d   1       4.308  -0.714  -2.216  0.00  0.00     0.015 A 
ATOM      7  C7  IND d   1       3.558  -0.173  -1.210  0.00  0.00    -0.016 A 
ATOM      8  C8  IND d   1       2.493  -0.931  -0.745  0.00  0.00    -0.047 A 
ATOM      9  C9  IND d   1       2.177  -2.181  -1.292  0.00  0.00    -0.096 A 
ATOM     10  HN1 IND d   1       1.521   0.052   0.708  0.00  0.00     0.298 HD
ENDROOT
TORSDOF 0
ENDMDL
