MODEL 1
REMARK minimizedAffinity -2.99151397
REMARK minimizedRMSD -1
REMARK  0 active torsions:
REMARK  status: ('A' for Active; 'I' for Inactive)
ROOT
ATOM      1  N1  IND d   1       0.652   1.107  -0.470  0.00  0.00    -0.196 N 
ATOM      2  C2  IND d   1      -0.379   0.211  -0.440  0.00  0.00     0.054 A 
ATOM      3  C3  IND d   1       0.090  -1.051  -0.569  0.00  0.00    -0.031 A 
ATOM      4  C4  IND d   1       2.521  -1.882  -0.741  0.00  0.00     0.051 A 
ATOM      5  C5  IND d   1       3.807  -1.433  -0.847  0.00  0.00    -0.031 A 
ATOM      6  C6  IND d   1       4.115  -0.088  -0.830  0.00  0.00     0.015 A 
ATOM      7  C7  IND d   1       3.143   0.863  -0.694  0.00  0.00    -0.016 A 
ATOM      8  C8  IND d   1       1.835   0.411  -0.593  0.00  0.00    -0.047 A 
ATOM      9  C9  IND d   1       1.513  -0.951  -0.653  0.00  0.00    -0.096 A 
ATOM     10  HN1 IND d   1       0.575   1.962  -0.421  0.00  0.00     0.298 HD
ENDROOT
TORSDOF 0
ENDMDL
