MODEL 1
REMARK minimizedAffinity -4.30654812
REMARK minimizedRMSD -1
REMARK  2 active torsions:
REMARK  status: ('A' for Active; 'I' for Inactive)
REMARK    1  A    between atoms: C2'_3  and  C1'_4 
REMARK    2  A    between atoms: C1'_4  and  C1_5 
ROOT
ATOM      1  C1  I4B d   1      -0.090   0.025  -0.187  0.00  0.00    -0.075 A 
ATOM      2  C2  I4B d   1      -0.066  -1.335  -0.374  0.00  0.00     0.003 A 
ATOM      3  C3  I4B d   1       1.080  -2.084  -0.011  0.00  0.00     0.002 A 
ATOM      4  C4  I4B d   1       2.190  -1.431   0.484  0.00  0.00    -0.004 A 
ATOM      5  C5  I4B d   1       2.156  -0.055   0.694  0.00  0.00     0.002 A 
ATOM      6  C6  I4B d   1       1.004   0.676   0.368  0.00  0.00     0.003 A 
ENDROOT
BRANCH   1   7
ATOM      7  C1' I4B d   1      -1.303   0.790  -0.612  0.00  0.00     0.060 C 
BRANCH   7   8
ATOM      8  C2' I4B d   1      -2.456   0.367   0.277  0.00  0.00    -0.013 C 
ATOM      9  C4' I4B d   1      -2.789   1.437   1.283  0.00  0.00     0.013 C 
ATOM     10  C3' I4B d   1      -3.632   0.065  -0.603  0.00  0.00     0.013 C 
ENDBRANCH   7   8
ENDBRANCH   1   7
TORSDOF 2
ENDMDL
