MODEL 1
REMARK minimizedAffinity -3.49397206
REMARK minimizedRMSD -1
REMARK  2 active torsions:
REMARK  status: ('A' for Active; 'I' for Inactive)
REMARK    1  A    between atoms: C2'_3  and  C1'_4 
REMARK    2  A    between atoms: C1'_4  and  C1_5 
ROOT
ATOM      1  C1  I4B d   1      -2.670   0.823  -0.216  0.00  0.00    -0.075 A 
ATOM      2  C2  I4B d   1      -3.496  -0.266  -0.346  0.00  0.00     0.003 A 
ATOM      3  C3  I4B d   1      -4.792  -0.250   0.224  0.00  0.00     0.002 A 
ATOM      4  C4  I4B d   1      -5.199   0.848   0.955  0.00  0.00    -0.004 A 
ATOM      5  C5  I4B d   1      -4.369   1.960   1.066  0.00  0.00     0.002 A 
ATOM      6  C6  I4B d   1      -3.101   1.953   0.467  0.00  0.00     0.003 A 
ENDROOT
BRANCH   1   7
ATOM      7  C1' I4B d   1      -1.296   0.759  -0.803  0.00  0.00     0.060 C 
BRANCH   7   8
ATOM      8  C2' I4B d   1      -0.350   0.268   0.274  0.00  0.00    -0.013 C 
ATOM      9  C4' I4B d   1       0.164  -1.113  -0.039  0.00  0.00     0.013 C 
ATOM     10  C3' I4B d   1       0.776   1.252   0.386  0.00  0.00     0.013 C 
ENDBRANCH   7   8
ENDBRANCH   1   7
TORSDOF 2
ENDMDL
