MODEL 1
REMARK minimizedAffinity -3.83881259
REMARK minimizedRMSD -1
REMARK  1 active torsions:
REMARK  status: ('A' for Active; 'I' for Inactive)
REMARK    1  A    between atoms: C1_2  and  C2_3 
ROOT
ATOM      1  C2  UNL d   1       0.064   0.254   0.315  0.00  0.00    -0.077 A 
ATOM      2  C3  UNL d   1      -1.156   0.575  -0.297  0.00  0.00     0.002 A 
ATOM      3  C4  UNL d   1      -2.154   1.235   0.423  0.00  0.00     0.002 A 
ATOM      4  C5  UNL d   1      -1.941   1.583   1.755  0.00  0.00    -0.004 A 
ATOM      5  C6  UNL d   1      -0.732   1.266   2.373  0.00  0.00     0.002 A 
ATOM      6  C7  UNL d   1       0.266   0.605   1.656  0.00  0.00     0.002 A 
ENDROOT
BRANCH   1   7
ATOM      7  C1  UNL d   1       1.160  -0.414  -0.473  0.00  0.00     0.055 C 
ATOM      8  C   UNL d   1       0.601  -1.478  -1.407  0.00  0.00     0.019 C 
ENDBRANCH   1   7
TORSDOF 1
ENDMDL
