MODEL 1
REMARK minimizedAffinity -5.90456343
REMARK minimizedRMSD -1
REMARK  1 active torsions:
REMARK  status: ('A' for Active; 'I' for Inactive)
REMARK    1  A    between atoms: C1_2  and  C2_3 
ROOT
ATOM      1  C2  UNL d   1      -0.655   0.906   0.270  0.00  0.00    -0.077 A 
ATOM      2  C3  UNL d   1      -0.256   1.992  -0.522  0.00  0.00     0.002 A 
ATOM      3  C4  UNL d   1      -0.910   3.221  -0.416  0.00  0.00     0.002 A 
ATOM      4  C5  UNL d   1      -1.963   3.377   0.483  0.00  0.00    -0.004 A 
ATOM      5  C6  UNL d   1      -2.368   2.303   1.274  0.00  0.00     0.002 A 
ATOM      6  C7  UNL d   1      -1.717   1.073   1.169  0.00  0.00     0.002 A 
ENDROOT
BRANCH   1   7
ATOM      7  C1  UNL d   1       0.081  -0.406   0.193  0.00  0.00     0.055 C 
ATOM      8  C   UNL d   1       1.208  -0.349  -0.828  0.00  0.00     0.019 C 
ENDBRANCH   1   7
TORSDOF 1
ENDMDL
