MODEL 1
REMARK minimizedAffinity -4.42518377
REMARK minimizedRMSD -1
REMARK  1 active torsions:
REMARK  status: ('A' for Active; 'I' for Inactive)
REMARK    1  A    between atoms: C1_2  and  C2_3 
ROOT
ATOM      1  C2  UNL d   1      -0.755   0.652   0.368  0.00  0.00    -0.077 A 
ATOM      2  C3  UNL d   1      -0.154   1.673  -0.380  0.00  0.00     0.002 A 
ATOM      3  C4  UNL d   1      -0.371   3.012  -0.049  0.00  0.00     0.002 A 
ATOM      4  C5  UNL d   1      -1.186   3.341   1.032  0.00  0.00    -0.004 A 
ATOM      5  C6  UNL d   1      -1.790   2.332   1.781  0.00  0.00     0.002 A 
ATOM      6  C7  UNL d   1      -1.575   0.993   1.451  0.00  0.00     0.002 A 
ENDROOT
BRANCH   1   7
ATOM      7  C1  UNL d   1      -0.483  -0.794   0.043  0.00  0.00     0.055 C 
ATOM      8  C   UNL d   1       0.819  -0.952  -0.730  0.00  0.00     0.019 C 
ENDBRANCH   1   7
TORSDOF 1
ENDMDL
