MODEL 1
REMARK minimizedAffinity -5.52808237
REMARK minimizedRMSD -1
REMARK  1 active torsions:
REMARK  status: ('A' for Active; 'I' for Inactive)
REMARK    1  A    between atoms: C1_2  and  C2_3 
ROOT
ATOM      1  C2  UNL d   1       0.110   1.040  -0.338  0.00  0.00    -0.077 A 
ATOM      2  C3  UNL d   1       0.121   2.321  -0.908  0.00  0.00     0.002 A 
ATOM      3  C4  UNL d   1      -0.628   3.353  -0.341  0.00  0.00     0.002 A 
ATOM      4  C5  UNL d   1      -1.391   3.116   0.801  0.00  0.00    -0.004 A 
ATOM      5  C6  UNL d   1      -1.410   1.845   1.374  0.00  0.00     0.002 A 
ATOM      6  C7  UNL d   1      -0.663   0.812   0.807  0.00  0.00     0.002 A 
ENDROOT
BRANCH   1   7
ATOM      7  C1  UNL d   1       0.957  -0.062  -0.920  0.00  0.00     0.055 C 
ATOM      8  C   UNL d   1       0.684  -1.391  -0.232  0.00  0.00     0.019 C 
ENDBRANCH   1   7
TORSDOF 1
ENDMDL
