MODEL 1
REMARK minimizedAffinity -4.31839275
REMARK minimizedRMSD -1
REMARK  1 active torsions:
REMARK  status: ('A' for Active; 'I' for Inactive)
REMARK    1  A    between atoms: C1_2  and  C2_3 
ROOT
ATOM      1  C2  UNL d   1      -0.630   1.190  -0.350  0.00  0.00    -0.077 A 
ATOM      2  C3  UNL d   1      -0.266   2.464  -0.808  0.00  0.00     0.002 A 
ATOM      3  C4  UNL d   1      -0.846   3.607  -0.254  0.00  0.00     0.002 A 
ATOM      4  C5  UNL d   1      -1.790   3.487   0.764  0.00  0.00    -0.004 A 
ATOM      5  C6  UNL d   1      -2.160   2.225   1.226  0.00  0.00     0.002 A 
ATOM      6  C7  UNL d   1      -1.582   1.081   0.672  0.00  0.00     0.002 A 
ENDROOT
BRANCH   1   7
ATOM      7  C1  UNL d   1       0.031  -0.041  -0.912  0.00  0.00     0.055 C 
ATOM      8  C   UNL d   1       0.838  -0.771   0.151  0.00  0.00     0.019 C 
ENDBRANCH   1   7
TORSDOF 1
ENDMDL
