MODEL 1
REMARK minimizedAffinity -4.61987305
REMARK minimizedRMSD -1
REMARK  1 active torsions:
REMARK  status: ('A' for Active; 'I' for Inactive)
REMARK    1  A    between atoms: C1_2  and  C2_3 
ROOT
ATOM      1  C2  UNL d   1      -0.135   1.655   0.101  0.00  0.00    -0.077 A 
ATOM      2  C3  UNL d   1      -1.079   1.792   1.129  0.00  0.00     0.002 A 
ATOM      3  C4  UNL d   1      -1.354   0.721   1.982  0.00  0.00     0.002 A 
ATOM      4  C5  UNL d   1      -0.687  -0.491   1.820  0.00  0.00    -0.004 A 
ATOM      5  C6  UNL d   1       0.252  -0.638   0.800  0.00  0.00     0.002 A 
ATOM      6  C7  UNL d   1       0.527   0.431  -0.055  0.00  0.00     0.002 A 
ENDROOT
BRANCH   1   7
ATOM      7  C1  UNL d   1       0.199   2.823  -0.789  0.00  0.00     0.055 C 
ATOM      8  C   UNL d   1       0.440   4.087   0.023  0.00  0.00     0.019 C 
ENDBRANCH   1   7
TORSDOF 1
ENDMDL
