MODEL 1
REMARK minimizedAffinity -5.83276844
REMARK minimizedRMSD -1
REMARK  1 active torsions:
REMARK  status: ('A' for Active; 'I' for Inactive)
REMARK    1  A    between atoms: C1_2  and  C2_3 
ROOT
ATOM      1  C2  UNL d   1       0.470  -1.731  -0.620  0.00  0.00    -0.077 A 
ATOM      2  C3  UNL d   1       0.383  -1.474  -1.995  0.00  0.00     0.002 A 
ATOM      3  C4  UNL d   1       0.240  -2.525  -2.903  0.00  0.00     0.002 A 
ATOM      4  C5  UNL d   1       0.178  -3.840  -2.445  0.00  0.00    -0.004 A 
ATOM      5  C6  UNL d   1       0.265  -4.106  -1.079  0.00  0.00     0.002 A 
ATOM      6  C7  UNL d   1       0.410  -3.056  -0.171  0.00  0.00     0.002 A 
ENDROOT
BRANCH   1   7
ATOM      7  C1  UNL d   1       0.576  -0.595   0.364  0.00  0.00     0.055 C 
ATOM      8  C   UNL d   1      -0.374   0.538   0.005  0.00  0.00     0.019 C 
ENDBRANCH   1   7
TORSDOF 1
ENDMDL
