MODEL 1
REMARK minimizedAffinity -4.84410095
REMARK minimizedRMSD -1
REMARK  1 active torsions:
REMARK  status: ('A' for Active; 'I' for Inactive)
REMARK    1  A    between atoms: C1_2  and  C2_3 
ROOT
ATOM      1  C2  UNL d   1      -0.003  -0.244   0.397  0.00  0.00    -0.077 A 
ATOM      2  C3  UNL d   1      -0.020   0.843  -0.489  0.00  0.00     0.002 A 
ATOM      3  C4  UNL d   1      -0.746   1.994  -0.181  0.00  0.00     0.002 A 
ATOM      4  C5  UNL d   1      -1.457   2.072   1.015  0.00  0.00    -0.004 A 
ATOM      5  C6  UNL d   1      -1.448   0.996   1.902  0.00  0.00     0.002 A 
ATOM      6  C7  UNL d   1      -0.724  -0.156   1.595  0.00  0.00     0.002 A 
ENDROOT
BRANCH   1   7
ATOM      7  C1  UNL d   1       0.820  -1.467   0.089  0.00  0.00     0.055 C 
ATOM      8  C   UNL d   1       0.436  -2.069  -1.256  0.00  0.00     0.019 C 
ENDBRANCH   1   7
TORSDOF 1
ENDMDL
