MODEL 1
REMARK minimizedAffinity -4.82214737
REMARK minimizedRMSD -1
REMARK  1 active torsions:
REMARK  status: ('A' for Active; 'I' for Inactive)
REMARK    1  A    between atoms: C1_2  and  C2_3 
ROOT
ATOM      1  C2  UNL d   1      -0.115   0.781  -0.131  0.00  0.00    -0.077 A 
ATOM      2  C3  UNL d   1      -0.866   0.585   1.037  0.00  0.00     0.002 A 
ATOM      3  C4  UNL d   1      -1.754   1.568   1.478  0.00  0.00     0.002 A 
ATOM      4  C5  UNL d   1      -1.902   2.751   0.756  0.00  0.00    -0.004 A 
ATOM      5  C6  UNL d   1      -1.158   2.955  -0.406  0.00  0.00     0.002 A 
ATOM      6  C7  UNL d   1      -0.269   1.974  -0.847  0.00  0.00     0.002 A 
ENDROOT
BRANCH   1   7
ATOM      7  C1  UNL d   1       0.807  -0.299  -0.635  0.00  0.00     0.055 C 
ATOM      8  C   UNL d   1       0.288  -0.911  -1.928  0.00  0.00     0.019 C 
ENDBRANCH   1   7
TORSDOF 1
ENDMDL
