MODEL 1
REMARK minimizedAffinity -4.26801348
REMARK minimizedRMSD -1
REMARK  1 active torsions:
REMARK  status: ('A' for Active; 'I' for Inactive)
REMARK    1  A    between atoms: C1_2  and  C2_3 
ROOT
ATOM      1  C2  UNL d   1      -0.692   1.494  -0.006  0.00  0.00    -0.077 A 
ATOM      2  C3  UNL d   1       0.080   1.598  -1.171  0.00  0.00     0.002 A 
ATOM      3  C4  UNL d   1       0.869   0.527  -1.594  0.00  0.00     0.002 A 
ATOM      4  C5  UNL d   1       0.890  -0.658  -0.861  0.00  0.00    -0.004 A 
ATOM      5  C6  UNL d   1       0.128  -0.770   0.301  0.00  0.00     0.002 A 
ATOM      6  C7  UNL d   1      -0.660   0.300   0.726  0.00  0.00     0.002 A 
ENDROOT
BRANCH   1   7
ATOM      7  C1  UNL d   1      -1.581   2.630   0.425  0.00  0.00     0.055 C 
ATOM      8  C   UNL d   1      -1.530   2.833   1.933  0.00  0.00     0.019 C 
ENDBRANCH   1   7
TORSDOF 1
ENDMDL
