MODEL 1
REMARK minimizedAffinity -2.93921518
REMARK minimizedRMSD -1
REMARK  1 active torsions:
REMARK  status: ('A' for Active; 'I' for Inactive)
REMARK    1  A    between atoms: C1_2  and  C2_3 
ROOT
ATOM      1  C2  UNL d   1      -0.103   1.619   0.221  0.00  0.00    -0.077 A 
ATOM      2  C3  UNL d   1      -0.951   1.790   1.324  0.00  0.00     0.002 A 
ATOM      3  C4  UNL d   1      -1.233   0.717   2.171  0.00  0.00     0.002 A 
ATOM      4  C5  UNL d   1      -0.667  -0.532   1.928  0.00  0.00    -0.004 A 
ATOM      5  C6  UNL d   1       0.177  -0.713   0.833  0.00  0.00     0.002 A 
ATOM      6  C7  UNL d   1       0.459   0.358  -0.016  0.00  0.00     0.002 A 
ENDROOT
BRANCH   1   7
ATOM      7  C1  UNL d   1       0.242   2.787  -0.666  0.00  0.00     0.055 C 
ATOM      8  C   UNL d   1       0.138   4.105   0.089  0.00  0.00     0.019 C 
ENDBRANCH   1   7
TORSDOF 1
ENDMDL
