MODEL 1
REMARK minimizedAffinity -2.00805306
REMARK minimizedRMSD -1
REMARK  0 active torsions:
REMARK  status: ('A' for Active; 'I' for Inactive)
ROOT
ATOM      1  C   UNL d   1      -0.740   1.421   2.225  0.00  0.00     0.172 C 
ATOM      2  N   UNL d   1       0.185   0.663   1.416  0.00  0.00    -0.070 N 
ATOM      3  C1  UNL d   1       1.447   0.283   1.790  0.00  0.00    -0.004 A 
ATOM      4  C2  UNL d   1       2.003  -0.421   0.744  0.00  0.00    -0.047 A 
ATOM      5  C3  UNL d   1       1.043  -0.465  -0.295  0.00  0.00    -0.047 A 
ATOM      6  C4  UNL d   1      -0.073   0.214   0.148  0.00  0.00    -0.004 A 
ENDROOT
TORSDOF 0
ENDMDL
