MODEL 1
REMARK minimizedAffinity -3.39851546
REMARK minimizedRMSD -1
REMARK  0 active torsions:
REMARK  status: ('A' for Active; 'I' for Inactive)
ROOT
ATOM      1  C   UNL d   1       0.162  -0.396  -0.695  0.00  0.00     0.172 C 
ATOM      2  N   UNL d   1      -0.567   0.094   0.451  0.00  0.00    -0.070 N 
ATOM      3  C1  UNL d   1      -1.913   0.340   0.495  0.00  0.00    -0.004 A 
ATOM      4  C2  UNL d   1      -2.219   0.793   1.760  0.00  0.00    -0.047 A 
ATOM      5  C3  UNL d   1      -1.014   0.821   2.502  0.00  0.00    -0.047 A 
ATOM      6  C4  UNL d   1      -0.007   0.383   1.668  0.00  0.00    -0.004 A 
ENDROOT
TORSDOF 0
ENDMDL
