MODEL 1
REMARK minimizedAffinity -3.03731823
REMARK minimizedRMSD -1
REMARK  0 active torsions:
REMARK  status: ('A' for Active; 'I' for Inactive)
ROOT
ATOM      1  C   UNL d   1      -0.454  -1.076  -1.185  0.00  0.00     0.172 C 
ATOM      2  N   UNL d   1      -0.084  -0.313  -0.017  0.00  0.00    -0.070 N 
ATOM      3  C1  UNL d   1       1.193  -0.115   0.436  0.00  0.00    -0.004 A 
ATOM      4  C2  UNL d   1       1.123   0.663   1.571  0.00  0.00    -0.047 A 
ATOM      5  C3  UNL d   1      -0.243   0.942   1.810  0.00  0.00    -0.047 A 
ATOM      6  C4  UNL d   1      -0.969   0.325   0.812  0.00  0.00    -0.004 A 
ENDROOT
TORSDOF 0
ENDMDL
