MODEL 1
REMARK minimizedAffinity -3.88731432
REMARK minimizedRMSD -1
REMARK  0 active torsions:
REMARK  status: ('A' for Active; 'I' for Inactive)
ROOT
ATOM      1  C   UNL d   1       0.347  -0.337  -0.249  0.00  0.00     0.172 C 
ATOM      2  N   UNL d   1      -0.344   0.265   0.867  0.00  0.00    -0.070 N 
ATOM      3  C1  UNL d   1      -1.641   0.017   1.231  0.00  0.00    -0.004 A 
ATOM      4  C2  UNL d   1      -1.921   0.784   2.341  0.00  0.00    -0.047 A 
ATOM      5  C3  UNL d   1      -0.753   1.518   2.655  0.00  0.00    -0.047 A 
ATOM      6  C4  UNL d   1       0.208   1.178   1.726  0.00  0.00    -0.004 A 
ENDROOT
TORSDOF 0
ENDMDL
