MODEL 1
REMARK minimizedAffinity -3.4527545
REMARK minimizedRMSD -1
REMARK  0 active torsions:
REMARK  status: ('A' for Active; 'I' for Inactive)
ROOT
ATOM      1  C   UNL d   1       0.635  -0.683  -0.499  0.00  0.00     0.172 C 
ATOM      2  N   UNL d   1      -0.006   0.046   0.570  0.00  0.00    -0.070 N 
ATOM      3  C1  UNL d   1       0.631   0.825   1.499  0.00  0.00    -0.004 A 
ATOM      4  C2  UNL d   1      -0.327   1.345   2.342  0.00  0.00    -0.047 A 
ATOM      5  C3  UNL d   1      -1.583   0.861   1.905  0.00  0.00    -0.047 A 
ATOM      6  C4  UNL d   1      -1.355   0.060   0.806  0.00  0.00    -0.004 A 
ENDROOT
TORSDOF 0
ENDMDL
