MODEL 1
REMARK minimizedAffinity -4.0253396
REMARK minimizedRMSD -1
REMARK  0 active torsions:
REMARK  status: ('A' for Active; 'I' for Inactive)
ROOT
ATOM      1  C   UNL d   1       0.601  -0.012  -0.318  0.00  0.00     0.172 C 
ATOM      2  N   UNL d   1      -0.181   0.422   0.816  0.00  0.00    -0.070 N 
ATOM      3  C1  UNL d   1       0.301   1.087   1.911  0.00  0.00    -0.004 A 
ATOM      4  C2  UNL d   1      -0.757   1.321   2.763  0.00  0.00    -0.047 A 
ATOM      5  C3  UNL d   1      -1.915   0.777   2.159  0.00  0.00    -0.047 A 
ATOM      6  C4  UNL d   1      -1.530   0.227   0.954  0.00  0.00    -0.004 A 
ENDROOT
TORSDOF 0
ENDMDL
