MODEL 1
REMARK minimizedAffinity -2.99587417
REMARK minimizedRMSD -1
REMARK  0 active torsions:
REMARK  status: ('A' for Active; 'I' for Inactive)
ROOT
ATOM      1  C   UNL d   1       0.459  -0.255   0.027  0.00  0.00     0.172 C 
ATOM      2  N   UNL d   1      -0.191   0.524   1.054  0.00  0.00    -0.070 N 
ATOM      3  C1  UNL d   1       0.415   1.460   1.849  0.00  0.00    -0.004 A 
ATOM      4  C2  UNL d   1      -0.541   1.978   2.696  0.00  0.00    -0.047 A 
ATOM      5  C3  UNL d   1      -1.764   1.329   2.401  0.00  0.00    -0.047 A 
ATOM      6  C4  UNL d   1      -1.518   0.435   1.381  0.00  0.00    -0.004 A 
ENDROOT
TORSDOF 0
ENDMDL
