MODEL 1
REMARK minimizedAffinity -1.49447584
REMARK minimizedRMSD -1
REMARK  1 active torsions:
REMARK  status: ('A' for Active; 'I' for Inactive)
REMARK    1  A    between atoms: C1_2  and  C2_3 
ROOT
ATOM      1  C2  UNL d   1      -3.725  -3.722  -5.258  0.00  0.00    -0.076 A 
ATOM      2  C3  UNL d   1      -4.641  -2.956  -5.999  0.00  0.00     0.004 A 
ATOM      3  C4  UNL d   1      -5.671  -2.260  -5.368  0.00  0.00    -0.003 A 
ATOM      4  C5  UNL d   1      -5.800  -2.318  -3.985  0.00  0.00     0.000 A 
ATOM      5  C6  UNL d   1      -4.889  -3.058  -3.232  0.00  0.00     0.000 A 
ATOM      6  C7  UNL d   1      -3.836  -3.753  -3.851  0.00  0.00    -0.073 A 
ATOM      7  C8  UNL d   1      -2.887  -4.541  -2.991  0.00  0.00     0.078 C 
ENDROOT
BRANCH   1   8
ATOM      8  C1  UNL d   1      -2.645  -4.478  -5.999  0.00  0.00     0.053 C 
ATOM      9  C   UNL d   1      -2.881  -5.981  -5.999  0.00  0.00     0.018 C 
ENDBRANCH   1   8
TORSDOF 1
ENDMDL
