MODEL 1
REMARK minimizedAffinity -1.26004708
REMARK minimizedRMSD -1
REMARK  1 active torsions:
REMARK  status: ('A' for Active; 'I' for Inactive)
REMARK    1  A    between atoms: C1_2  and  C2_3 
ROOT
ATOM      1  C2  UNL d   1      -3.891  -3.311  -4.161  0.00  0.00    -0.076 A 
ATOM      2  C3  UNL d   1      -5.014  -2.912  -3.414  0.00  0.00     0.004 A 
ATOM      3  C4  UNL d   1      -5.605  -1.666  -3.618  0.00  0.00    -0.003 A 
ATOM      4  C5  UNL d   1      -5.083  -0.799  -4.572  0.00  0.00     0.000 A 
ATOM      5  C6  UNL d   1      -3.981  -1.185  -5.333  0.00  0.00     0.000 A 
ATOM      6  C7  UNL d   1      -3.383  -2.444  -5.152  0.00  0.00    -0.073 A 
ATOM      7  C8  UNL d   1      -2.193  -2.807  -5.997  0.00  0.00     0.078 C 
ENDROOT
BRANCH   1   8
ATOM      8  C1  UNL d   1      -3.276  -4.662  -3.877  0.00  0.00     0.053 C 
ATOM      9  C   UNL d   1      -3.331  -5.591  -5.080  0.00  0.00     0.018 C 
ENDBRANCH   1   8
TORSDOF 1
ENDMDL
