MODEL 1
REMARK minimizedAffinity -3.09962416
REMARK minimizedRMSD -1
REMARK  1 active torsions:
REMARK  status: ('A' for Active; 'I' for Inactive)
REMARK    1  A    between atoms: C1_2  and  C2_3 
ROOT
ATOM      1  C2  UNL d   1      -4.725  -3.834  -5.741  0.00  0.00    -0.076 A 
ATOM      2  C3  UNL d   1      -3.503  -3.182  -5.979  0.00  0.00     0.004 A 
ATOM      3  C4  UNL d   1      -2.303  -3.889  -5.991  0.00  0.00    -0.003 A 
ATOM      4  C5  UNL d   1      -2.305  -5.261  -5.765  0.00  0.00     0.000 A 
ATOM      5  C6  UNL d   1      -3.510  -5.928  -5.545  0.00  0.00     0.000 A 
ATOM      6  C7  UNL d   1      -4.731  -5.232  -5.546  0.00  0.00    -0.073 A 
ATOM      7  C8  UNL d   1      -6.000  -6.000  -5.297  0.00  0.00     0.078 C 
ENDROOT
BRANCH   1   8
ATOM      8  C1  UNL d   1      -5.993  -3.010  -5.713  0.00  0.00     0.053 C 
ATOM      9  C   UNL d   1      -5.841  -1.735  -4.898  0.00  0.00     0.018 C 
ENDBRANCH   1   8
TORSDOF 1
ENDMDL
