MODEL 1
REMARK minimizedAffinity 3.03300834
REMARK minimizedRMSD -1
REMARK  1 active torsions:
REMARK  status: ('A' for Active; 'I' for Inactive)
REMARK    1  A    between atoms: C1_2  and  C2_3 
ROOT
ATOM      1  C2  UNL d   1      -3.708  -4.999  -4.925  0.00  0.00    -0.076 A 
ATOM      2  C3  UNL d   1      -4.615  -5.023  -5.999  0.00  0.00     0.004 A 
ATOM      3  C4  UNL d   1      -5.750  -4.214  -5.998  0.00  0.00    -0.003 A 
ATOM      4  C5  UNL d   1      -5.996  -3.367  -4.923  0.00  0.00     0.000 A 
ATOM      5  C6  UNL d   1      -5.098  -3.317  -3.857  0.00  0.00     0.000 A 
ATOM      6  C7  UNL d   1      -3.941  -4.115  -3.850  0.00  0.00    -0.073 A 
ATOM      7  C8  UNL d   1      -3.010  -4.026  -2.672  0.00  0.00     0.078 C 
ENDROOT
BRANCH   1   8
ATOM      8  C1  UNL d   1      -2.509  -5.919  -4.969  0.00  0.00     0.053 C 
ATOM      9  C   UNL d   1      -1.444  -5.441  -5.943  0.00  0.00     0.018 C 
ENDBRANCH   1   8
TORSDOF 1
ENDMDL
