MODEL 1
REMARK minimizedAffinity -0.841572046
REMARK minimizedRMSD -1
REMARK  1 active torsions:
REMARK  status: ('A' for Active; 'I' for Inactive)
REMARK    1  A    between atoms: C1_2  and  C2_3 
ROOT
ATOM      1  C2  UNL d   1      -3.968  -4.935  -5.057  0.00  0.00    -0.076 A 
ATOM      2  C3  UNL d   1      -4.951  -4.588  -6.000  0.00  0.00     0.004 A 
ATOM      3  C4  UNL d   1      -5.921  -3.631  -5.707  0.00  0.00    -0.003 A 
ATOM      4  C5  UNL d   1      -5.923  -3.004  -4.466  0.00  0.00     0.000 A 
ATOM      5  C6  UNL d   1      -4.945  -3.322  -3.525  0.00  0.00     0.000 A 
ATOM      6  C7  UNL d   1      -3.950  -4.273  -3.810  0.00  0.00    -0.073 A 
ATOM      7  C8  UNL d   1      -2.923  -4.582  -2.756  0.00  0.00     0.078 C 
ENDROOT
BRANCH   1   8
ATOM      8  C1  UNL d   1      -2.958  -5.999  -5.421  0.00  0.00     0.053 C 
ATOM      9  C   UNL d   1      -1.678  -5.415  -5.999  0.00  0.00     0.018 C 
ENDBRANCH   1   8
TORSDOF 1
ENDMDL
