MODEL 1
REMARK minimizedAffinity -2.74532723
REMARK minimizedRMSD -1
REMARK  1 active torsions:
REMARK  status: ('A' for Active; 'I' for Inactive)
REMARK    1  A    between atoms: C1_2  and  C2_3 
ROOT
ATOM      1  C2  UNL d   1      -4.459  -4.314  -4.415  0.00  0.00    -0.076 A 
ATOM      2  C3  UNL d   1      -3.162  -4.065  -3.936  0.00  0.00     0.004 A 
ATOM      3  C4  UNL d   1      -2.068  -4.780  -4.422  0.00  0.00    -0.003 A 
ATOM      4  C5  UNL d   1      -2.254  -5.753  -5.398  0.00  0.00     0.000 A 
ATOM      5  C6  UNL d   1      -3.532  -6.000  -5.898  0.00  0.00     0.000 A 
ATOM      6  C7  UNL d   1      -4.643  -5.278  -5.430  0.00  0.00    -0.073 A 
ATOM      7  C8  UNL d   1      -6.000  -5.589  -6.000  0.00  0.00     0.078 C 
ENDROOT
BRANCH   1   8
ATOM      8  C1  UNL d   1      -5.611  -3.527  -3.830  0.00  0.00     0.053 C 
ATOM      9  C   UNL d   1      -6.000  -2.336  -4.692  0.00  0.00     0.018 C 
ENDBRANCH   1   8
TORSDOF 1
ENDMDL
