MODEL 1
REMARK minimizedAffinity -3.26636243
REMARK minimizedRMSD -1
REMARK  1 active torsions:
REMARK  status: ('A' for Active; 'I' for Inactive)
REMARK    1  A    between atoms: C1_2  and  C2_3 
ROOT
ATOM      1  C2  UNL d   1      -3.812  -4.712  -5.105  0.00  0.00    -0.076 A 
ATOM      2  C3  UNL d   1      -3.285  -3.548  -4.518  0.00  0.00     0.004 A 
ATOM      3  C4  UNL d   1      -4.101  -2.453  -4.240  0.00  0.00    -0.003 A 
ATOM      4  C5  UNL d   1      -5.457  -2.504  -4.544  0.00  0.00     0.000 A 
ATOM      5  C6  UNL d   1      -6.000  -3.657  -5.111  0.00  0.00     0.000 A 
ATOM      6  C7  UNL d   1      -5.194  -4.776  -5.382  0.00  0.00    -0.073 A 
ATOM      7  C8  UNL d   1      -5.831  -5.991  -5.999  0.00  0.00     0.078 C 
ENDROOT
BRANCH   1   8
ATOM      8  C1  UNL d   1      -2.873  -5.858  -5.408  0.00  0.00     0.053 C 
ATOM      9  C   UNL d   1      -1.517  -5.385  -5.908  0.00  0.00     0.018 C 
ENDBRANCH   1   8
TORSDOF 1
ENDMDL
