MODEL 1
REMARK minimizedAffinity -3.69996738
REMARK minimizedRMSD -1
REMARK  1 active torsions:
REMARK  status: ('A' for Active; 'I' for Inactive)
REMARK    1  A    between atoms: C1_2  and  C2_3 
ROOT
ATOM      1  C2  UNL d   1      -4.664  -4.140  -4.447  0.00  0.00    -0.076 A 
ATOM      2  C3  UNL d   1      -3.436  -3.485  -4.247  0.00  0.00     0.004 A 
ATOM      3  C4  UNL d   1      -2.276  -3.927  -4.882  0.00  0.00    -0.003 A 
ATOM      4  C5  UNL d   1      -2.326  -5.029  -5.728  0.00  0.00     0.000 A 
ATOM      5  C6  UNL d   1      -3.539  -5.680  -5.952  0.00  0.00     0.000 A 
ATOM      6  C7  UNL d   1      -4.720  -5.238  -5.332  0.00  0.00    -0.073 A 
ATOM      7  C8  UNL d   1      -6.000  -5.980  -5.604  0.00  0.00     0.078 C 
ENDROOT
BRANCH   1   8
ATOM      8  C1  UNL d   1      -5.883  -3.633  -3.710  0.00  0.00     0.053 C 
ATOM      9  C   UNL d   1      -6.000  -2.117  -3.751  0.00  0.00     0.018 C 
ENDBRANCH   1   8
TORSDOF 1
ENDMDL
