MODEL 1
REMARK minimizedAffinity 0.461643428
REMARK minimizedRMSD -1
REMARK  1 active torsions:
REMARK  status: ('A' for Active; 'I' for Inactive)
REMARK    1  A    between atoms: C1_2  and  C2_3 
ROOT
ATOM      1  C2  UNL d   1      -4.652  -4.262  -4.605  0.00  0.00    -0.076 A 
ATOM      2  C3  UNL d   1      -3.420  -3.761  -4.149  0.00  0.00     0.004 A 
ATOM      3  C4  UNL d   1      -2.220  -4.375  -4.504  0.00  0.00    -0.003 A 
ATOM      4  C5  UNL d   1      -2.232  -5.500  -5.322  0.00  0.00     0.000 A 
ATOM      5  C6  UNL d   1      -3.444  -6.000  -5.798  0.00  0.00     0.000 A 
ATOM      6  C7  UNL d   1      -4.662  -5.383  -5.463  0.00  0.00    -0.073 A 
ATOM      7  C8  UNL d   1      -5.939  -5.968  -6.000  0.00  0.00     0.078 C 
ENDROOT
BRANCH   1   8
ATOM      8  C1  UNL d   1      -5.923  -3.571  -4.165  0.00  0.00     0.053 C 
ATOM      9  C   UNL d   1      -5.999  -2.130  -4.647  0.00  0.00     0.018 C 
ENDBRANCH   1   8
TORSDOF 1
ENDMDL
