MODEL 1
REMARK minimizedAffinity -2.17531419
REMARK minimizedRMSD -1
REMARK  1 active torsions:
REMARK  status: ('A' for Active; 'I' for Inactive)
REMARK    1  A    between atoms: C1_2  and  C2_3 
ROOT
ATOM      1  C2  UNL d   1      -3.910  -4.429  -4.507  0.00  0.00    -0.076 A 
ATOM      2  C3  UNL d   1      -2.660  -3.950  -4.079  0.00  0.00     0.004 A 
ATOM      3  C4  UNL d   1      -1.476  -4.487  -4.581  0.00  0.00    -0.003 A 
ATOM      4  C5  UNL d   1      -1.523  -5.511  -5.521  0.00  0.00     0.000 A 
ATOM      5  C6  UNL d   1      -2.754  -5.986  -5.970  0.00  0.00     0.000 A 
ATOM      6  C7  UNL d   1      -3.958  -5.445  -5.485  0.00  0.00    -0.073 A 
ATOM      7  C8  UNL d   1      -5.257  -6.000  -6.000  0.00  0.00     0.078 C 
ENDROOT
BRANCH   1   8
ATOM      8  C1  UNL d   1      -5.161  -3.827  -3.906  0.00  0.00     0.053 C 
ATOM      9  C   UNL d   1      -5.495  -2.467  -4.498  0.00  0.00     0.018 C 
ENDBRANCH   1   8
TORSDOF 1
ENDMDL
