MODEL 1
REMARK minimizedAffinity -3.29919839
REMARK minimizedRMSD -1
REMARK  1 active torsions:
REMARK  status: ('A' for Active; 'I' for Inactive)
REMARK    1  A    between atoms: C1_2  and  C2_3 
ROOT
ATOM      1  C2  UNL d   1      -4.134  -4.229  -4.872  0.00  0.00    -0.076 A 
ATOM      2  C3  UNL d   1      -4.874  -3.833  -5.999  0.00  0.00     0.004 A 
ATOM      3  C4  UNL d   1      -5.620  -2.656  -5.990  0.00  0.00    -0.003 A 
ATOM      4  C5  UNL d   1      -5.637  -1.855  -4.854  0.00  0.00     0.000 A 
ATOM      5  C6  UNL d   1      -4.894  -2.223  -3.733  0.00  0.00     0.000 A 
ATOM      6  C7  UNL d   1      -4.124  -3.399  -3.731  0.00  0.00    -0.073 A 
ATOM      7  C8  UNL d   1      -3.346  -3.751  -2.493  0.00  0.00     0.078 C 
ENDROOT
BRANCH   1   8
ATOM      8  C1  UNL d   1      -3.365  -5.530  -4.931  0.00  0.00     0.053 C 
ATOM      9  C   UNL d   1      -2.280  -5.518  -5.996  0.00  0.00     0.018 C 
ENDBRANCH   1   8
TORSDOF 1
ENDMDL
