MODEL 1
REMARK minimizedAffinity -1.38544536
REMARK minimizedRMSD -1
REMARK  1 active torsions:
REMARK  status: ('A' for Active; 'I' for Inactive)
REMARK    1  A    between atoms: C1_2  and  C2_3 
ROOT
ATOM      1  C2  UNL d   1      -3.994  -4.343  -4.865  0.00  0.00    -0.076 A 
ATOM      2  C3  UNL d   1      -4.777  -4.067  -5.999  0.00  0.00     0.004 A 
ATOM      3  C4  UNL d   1      -5.772  -3.091  -5.964  0.00  0.00    -0.003 A 
ATOM      4  C5  UNL d   1      -6.000  -2.376  -4.794  0.00  0.00     0.000 A 
ATOM      5  C6  UNL d   1      -5.221  -2.624  -3.665  0.00  0.00     0.000 A 
ATOM      6  C7  UNL d   1      -4.203  -3.593  -3.688  0.00  0.00    -0.073 A 
ATOM      7  C8  UNL d   1      -3.398  -3.824  -2.439  0.00  0.00     0.078 C 
ENDROOT
BRANCH   1   8
ATOM      8  C1  UNL d   1      -2.948  -5.431  -4.954  0.00  0.00     0.053 C 
ATOM      9  C   UNL d   1      -1.876  -5.125  -5.988  0.00  0.00     0.018 C 
ENDBRANCH   1   8
TORSDOF 1
ENDMDL
