MODEL 1
REMARK minimizedAffinity 7.23762512
REMARK minimizedRMSD -1
REMARK  0 active torsions:
REMARK  status: ('A' for Active; 'I' for Inactive)
ROOT
ATOM      1  C   UNL d   1      -4.831   0.447  -0.801  0.00  0.00     0.124 A 
ATOM      2  C1  UNL d   1      -3.655  -0.284  -0.698  0.00  0.00     0.062 A 
ATOM      3  C2  UNL d   1      -2.439   0.293  -1.052  0.00  0.00     0.162 A 
ATOM      4  C3  UNL d   1      -2.392   1.609  -1.511  0.00  0.00    -0.034 A 
ATOM      5  C4  UNL d   1      -3.578   2.338  -1.613  0.00  0.00     0.162 A 
ATOM      6  C5  UNL d   1      -4.791   1.757  -1.258  0.00  0.00     0.062 A 
ATOM      7  F   UNL d   1      -5.926   2.464  -1.358  0.00  0.00    -0.097 F 
ATOM      8  F1  UNL d   1      -3.569   3.606  -2.051  0.00  0.00    -0.096 F 
ATOM      9  I   UNL d   1      -0.575   2.476  -2.041  0.00  0.00    -0.060 I 
ATOM     10  F2  UNL d   1      -1.319  -0.437  -0.942  0.00  0.00    -0.096 F 
ATOM     11  F3  UNL d   1      -3.691  -1.550  -0.257  0.00  0.00    -0.097 F 
ATOM     12  F4  UNL d   1      -6.000  -0.111  -0.461  0.00  0.00    -0.092 F 
ENDROOT
TORSDOF 0
ENDMDL
