MODEL 1
REMARK minimizedAffinity 13.7150402
REMARK minimizedRMSD -1
REMARK  0 active torsions:
REMARK  status: ('A' for Active; 'I' for Inactive)
ROOT
ATOM      1  C   UNL d   1       4.127  -2.462  -1.080  0.00  0.00     0.124 A 
ATOM      2  C1  UNL d   1       3.762  -2.184  -2.390  0.00  0.00     0.062 A 
ATOM      3  C2  UNL d   1       3.776  -3.192  -3.349  0.00  0.00     0.162 A 
ATOM      4  C3  UNL d   1       4.155  -4.489  -3.003  0.00  0.00    -0.034 A 
ATOM      5  C4  UNL d   1       4.522  -4.761  -1.683  0.00  0.00     0.162 A 
ATOM      6  C5  UNL d   1       4.507  -3.750  -0.728  0.00  0.00     0.062 A 
ATOM      7  F   UNL d   1       4.860  -4.021   0.537  0.00  0.00    -0.097 F 
ATOM      8  F1  UNL d   1       4.892  -5.997  -1.316  0.00  0.00    -0.096 F 
ATOM      9  I   UNL d   1       4.176  -5.999  -4.434  0.00  0.00    -0.060 I 
ATOM     10  F2  UNL d   1       3.418  -2.895  -4.607  0.00  0.00    -0.096 F 
ATOM     11  F3  UNL d   1       3.396  -0.941  -2.732  0.00  0.00    -0.097 F 
ATOM     12  F4  UNL d   1       4.114  -1.490  -0.159  0.00  0.00    -0.092 F 
ENDROOT
TORSDOF 0
ENDMDL
