MODEL 1
REMARK minimizedAffinity 7.30868387
REMARK minimizedRMSD -1
REMARK  0 active torsions:
REMARK  status: ('A' for Active; 'I' for Inactive)
ROOT
ATOM      1  C   UNL d   1       4.457  -4.446  -2.855  0.00  0.00     0.124 A 
ATOM      2  C1  UNL d   1       4.906  -4.775  -1.584  0.00  0.00     0.062 A 
ATOM      3  C2  UNL d   1       4.839  -3.841  -0.554  0.00  0.00     0.162 A 
ATOM      4  C3  UNL d   1       4.319  -2.569  -0.791  0.00  0.00    -0.034 A 
ATOM      5  C4  UNL d   1       3.870  -2.245  -2.073  0.00  0.00     0.162 A 
ATOM      6  C5  UNL d   1       3.939  -3.182  -3.099  0.00  0.00     0.062 A 
ATOM      7  F   UNL d   1       3.505  -2.862  -4.326  0.00  0.00    -0.097 F 
ATOM      8  F1  UNL d   1       3.364  -1.030  -2.335  0.00  0.00    -0.096 F 
ATOM      9  I   UNL d   1       4.216  -1.169   0.746  0.00  0.00    -0.060 I 
ATOM     10  F2  UNL d   1       5.281  -4.186   0.664  0.00  0.00    -0.096 F 
ATOM     11  F3  UNL d   1       5.408  -5.996  -1.347  0.00  0.00    -0.097 F 
ATOM     12  F4  UNL d   1       4.524  -5.346  -3.845  0.00  0.00    -0.092 F 
ENDROOT
TORSDOF 0
ENDMDL
