MODEL 1
REMARK minimizedAffinity 14.0297194
REMARK minimizedRMSD -1
REMARK  0 active torsions:
REMARK  status: ('A' for Active; 'I' for Inactive)
ROOT
ATOM      1  C   UNL d   1       0.217   3.809  -1.677  0.00  0.00     0.124 A 
ATOM      2  C1  UNL d   1       0.069   2.438  -1.518  0.00  0.00     0.062 A 
ATOM      3  C2  UNL d   1      -0.618   1.931  -0.419  0.00  0.00     0.162 A 
ATOM      4  C3  UNL d   1      -1.164   2.796   0.530  0.00  0.00    -0.034 A 
ATOM      5  C4  UNL d   1      -1.010   4.173   0.364  0.00  0.00     0.162 A 
ATOM      6  C5  UNL d   1      -0.322   4.675  -0.737  0.00  0.00     0.062 A 
ATOM      7  F   UNL d   1      -0.180   6.000  -0.889  0.00  0.00    -0.097 F 
ATOM      8  F1  UNL d   1      -1.522   5.033   1.257  0.00  0.00    -0.096 F 
ATOM      9  I   UNL d   1      -2.192   2.042   2.175  0.00  0.00    -0.060 I 
ATOM     10  F2  UNL d   1      -0.746   0.602  -0.290  0.00  0.00    -0.096 F 
ATOM     11  F3  UNL d   1       0.590   1.599  -2.425  0.00  0.00    -0.097 F 
ATOM     12  F4  UNL d   1       0.880   4.294  -2.735  0.00  0.00    -0.092 F 
ENDROOT
TORSDOF 0
ENDMDL
