MODEL 1
REMARK minimizedAffinity 12.3849478
REMARK minimizedRMSD -1
REMARK  0 active torsions:
REMARK  status: ('A' for Active; 'I' for Inactive)
ROOT
ATOM      1  C   UNL d   1       2.562  -4.825  -2.162  0.00  0.00     0.124 A 
ATOM      2  C1  UNL d   1       3.275  -3.790  -2.753  0.00  0.00     0.062 A 
ATOM      3  C2  UNL d   1       3.881  -2.817  -1.964  0.00  0.00     0.162 A 
ATOM      4  C3  UNL d   1       3.779  -2.874  -0.574  0.00  0.00    -0.034 A 
ATOM      5  C4  UNL d   1       3.060  -3.917   0.013  0.00  0.00     0.162 A 
ATOM      6  C5  UNL d   1       2.455  -4.887  -0.780  0.00  0.00     0.062 A 
ATOM      7  F   UNL d   1       1.767  -5.885  -0.207  0.00  0.00    -0.097 F 
ATOM      8  F1  UNL d   1       2.941  -4.002   1.346  0.00  0.00    -0.096 F 
ATOM      9  I   UNL d   1       4.684  -1.421   0.609  0.00  0.00    -0.060 I 
ATOM     10  F2  UNL d   1       4.563  -1.830  -2.563  0.00  0.00    -0.096 F 
ATOM     11  F3  UNL d   1       3.379  -3.728  -4.089  0.00  0.00    -0.097 F 
ATOM     12  F4  UNL d   1       1.979  -5.759  -2.924  0.00  0.00    -0.092 F 
ENDROOT
TORSDOF 0
ENDMDL
