MODEL 1
REMARK minimizedAffinity 11.1000261
REMARK minimizedRMSD -1
REMARK  0 active torsions:
REMARK  status: ('A' for Active; 'I' for Inactive)
ROOT
ATOM      1  C   UNL d   1       1.125   3.094   1.419  0.00  0.00     0.124 A 
ATOM      2  C1  UNL d   1       1.157   3.667   0.155  0.00  0.00     0.062 A 
ATOM      3  C2  UNL d   1       0.268   3.244  -0.828  0.00  0.00     0.162 A 
ATOM      4  C3  UNL d   1      -0.662   2.241  -0.552  0.00  0.00    -0.034 A 
ATOM      5  C4  UNL d   1      -0.687   1.669   0.721  0.00  0.00     0.162 A 
ATOM      6  C5  UNL d   1       0.203   2.095   1.700  0.00  0.00     0.062 A 
ATOM      7  F   UNL d   1       0.171   1.540   2.921  0.00  0.00    -0.097 F 
ATOM      8  F1  UNL d   1      -1.569   0.703   1.020  0.00  0.00    -0.096 F 
ATOM      9  I   UNL d   1      -1.993   1.606  -2.020  0.00  0.00    -0.060 I 
ATOM     10  F2  UNL d   1       0.322   3.816  -2.041  0.00  0.00    -0.096 F 
ATOM     11  F3  UNL d   1       2.048   4.631  -0.120  0.00  0.00    -0.097 F 
ATOM     12  F4  UNL d   1       1.983   3.502   2.363  0.00  0.00    -0.092 F 
ENDROOT
TORSDOF 0
ENDMDL
