MODEL 1
REMARK minimizedAffinity 6.07255173
REMARK minimizedRMSD -1
REMARK  0 active torsions:
REMARK  status: ('A' for Active; 'I' for Inactive)
ROOT
ATOM      1  C   UNL d   1       3.696  -2.340  -1.117  0.00  0.00     0.124 A 
ATOM      2  C1  UNL d   1       3.825  -2.026  -2.463  0.00  0.00     0.062 A 
ATOM      3  C2  UNL d   1       4.226  -3.000  -3.373  0.00  0.00     0.162 A 
ATOM      4  C3  UNL d   1       4.498  -4.298  -2.941  0.00  0.00    -0.034 A 
ATOM      5  C4  UNL d   1       4.367  -4.606  -1.585  0.00  0.00     0.162 A 
ATOM      6  C5  UNL d   1       3.966  -3.629  -0.679  0.00  0.00     0.062 A 
ATOM      7  F   UNL d   1       3.842  -3.934   0.620  0.00  0.00    -0.097 F 
ATOM      8  F1  UNL d   1       4.621  -5.844  -1.136  0.00  0.00    -0.096 F 
ATOM      9  I   UNL d   1       5.097  -5.757  -4.299  0.00  0.00    -0.060 I 
ATOM     10  F2  UNL d   1       4.343  -2.669  -4.667  0.00  0.00    -0.096 F 
ATOM     11  F3  UNL d   1       3.565  -0.782  -2.888  0.00  0.00    -0.097 F 
ATOM     12  F4  UNL d   1       3.312  -1.401  -0.243  0.00  0.00    -0.092 F 
ENDROOT
TORSDOF 0
ENDMDL
