MODEL 1
REMARK minimizedAffinity 14.4221601
REMARK minimizedRMSD -1
REMARK  0 active torsions:
REMARK  status: ('A' for Active; 'I' for Inactive)
ROOT
ATOM      1  C   UNL d   1       3.180  -2.264  -1.596  0.00  0.00     0.124 A 
ATOM      2  C1  UNL d   1       3.723  -2.049  -2.855  0.00  0.00     0.062 A 
ATOM      3  C2  UNL d   1       4.245  -3.114  -3.584  0.00  0.00     0.162 A 
ATOM      4  C3  UNL d   1       4.225  -4.405  -3.055  0.00  0.00    -0.034 A 
ATOM      5  C4  UNL d   1       3.678  -4.613  -1.788  0.00  0.00     0.162 A 
ATOM      6  C5  UNL d   1       3.158  -3.545  -1.064  0.00  0.00     0.062 A 
ATOM      7  F   UNL d   1       2.633  -3.755   0.152  0.00  0.00    -0.097 F 
ATOM      8  F1  UNL d   1       3.642  -5.841  -1.250  0.00  0.00    -0.096 F 
ATOM      9  I   UNL d   1       5.004  -6.000  -4.141  0.00  0.00    -0.060 I 
ATOM     10  F2  UNL d   1       4.764  -2.877  -4.798  0.00  0.00    -0.096 F 
ATOM     11  F3  UNL d   1       3.747  -0.811  -3.371  0.00  0.00    -0.097 F 
ATOM     12  F4  UNL d   1       2.680  -1.237  -0.897  0.00  0.00    -0.092 F 
ENDROOT
TORSDOF 0
ENDMDL
