MODEL 1
REMARK minimizedAffinity 11.0529289
REMARK minimizedRMSD -1
REMARK  0 active torsions:
REMARK  status: ('A' for Active; 'I' for Inactive)
ROOT
ATOM      1  C   UNL d   1       4.006  -3.035  -0.391  0.00  0.00     0.124 A 
ATOM      2  C1  UNL d   1       4.144  -3.025  -1.772  0.00  0.00     0.062 A 
ATOM      3  C2  UNL d   1       3.367  -3.868  -2.560  0.00  0.00     0.162 A 
ATOM      4  C3  UNL d   1       2.442  -4.729  -1.969  0.00  0.00    -0.034 A 
ATOM      5  C4  UNL d   1       2.308  -4.734  -0.579  0.00  0.00     0.162 A 
ATOM      6  C5  UNL d   1       3.088  -3.889   0.204  0.00  0.00     0.062 A 
ATOM      7  F   UNL d   1       2.953  -3.900   1.538  0.00  0.00    -0.097 F 
ATOM      8  F1  UNL d   1       1.429  -5.549   0.022  0.00  0.00    -0.096 F 
ATOM      9  I   UNL d   1       1.277  -5.991  -3.143  0.00  0.00    -0.060 I 
ATOM     10  F2  UNL d   1       3.522  -3.837  -3.892  0.00  0.00    -0.096 F 
ATOM     11  F3  UNL d   1       5.031  -2.201  -2.349  0.00  0.00    -0.097 F 
ATOM     12  F4  UNL d   1       4.756  -2.223   0.365  0.00  0.00    -0.092 F 
ENDROOT
TORSDOF 0
ENDMDL
