MODEL 1
REMARK minimizedAffinity 7.58957386
REMARK minimizedRMSD -1
REMARK  0 active torsions:
REMARK  status: ('A' for Active; 'I' for Inactive)
ROOT
ATOM      1  C   UNL d   1       1.534  -5.123  -1.143  0.00  0.00     0.124 A 
ATOM      2  C1  UNL d   1       2.084  -4.812   0.092  0.00  0.00     0.062 A 
ATOM      3  C2  UNL d   1       3.319  -4.173   0.167  0.00  0.00     0.162 A 
ATOM      4  C3  UNL d   1       4.011  -3.841  -0.997  0.00  0.00    -0.034 A 
ATOM      5  C4  UNL d   1       3.451  -4.158  -2.236  0.00  0.00     0.162 A 
ATOM      6  C5  UNL d   1       2.217  -4.797  -2.306  0.00  0.00     0.062 A 
ATOM      7  F   UNL d   1       1.687  -5.097  -3.500  0.00  0.00    -0.097 F 
ATOM      8  F1  UNL d   1       4.090  -3.853  -3.375  0.00  0.00    -0.096 F 
ATOM      9  I   UNL d   1       5.857  -2.886  -0.889  0.00  0.00    -0.060 I 
ATOM     10  F2  UNL d   1       3.827  -3.884   1.374  0.00  0.00    -0.096 F 
ATOM     11  F3  UNL d   1       1.426  -5.128   1.217  0.00  0.00    -0.097 F 
ATOM     12  F4  UNL d   1       0.346  -5.739  -1.213  0.00  0.00    -0.092 F 
ENDROOT
TORSDOF 0
ENDMDL
