MODEL 1
REMARK minimizedAffinity -2.19852805
REMARK minimizedRMSD -1
REMARK  0 active torsions:
REMARK  status: ('A' for Active; 'I' for Inactive)
ROOT
ATOM      1  C   UNL d   1       0.641  -1.151   1.438  0.00  0.00     0.124 A 
ATOM      2  C1  UNL d   1      -0.329  -0.242   1.839  0.00  0.00     0.062 A 
ATOM      3  C2  UNL d   1      -0.723   0.783   0.984  0.00  0.00     0.162 A 
ATOM      4  C3  UNL d   1      -0.149   0.904  -0.281  0.00  0.00    -0.034 A 
ATOM      5  C4  UNL d   1       0.826  -0.013  -0.677  0.00  0.00     0.162 A 
ATOM      6  C5  UNL d   1       1.217  -1.036   0.181  0.00  0.00     0.062 A 
ATOM      7  F   UNL d   1       2.154  -1.913  -0.208  0.00  0.00    -0.097 F 
ATOM      8  F1  UNL d   1       1.399   0.074  -1.887  0.00  0.00    -0.096 F 
ATOM      9  I   UNL d   1      -0.736   2.436  -1.563  0.00  0.00    -0.060 I 
ATOM     10  F2  UNL d   1      -1.662   1.647   1.397  0.00  0.00    -0.096 F 
ATOM     11  F3  UNL d   1      -0.887  -0.351   3.053  0.00  0.00    -0.097 F 
ATOM     12  F4  UNL d   1       1.019  -2.136   2.263  0.00  0.00    -0.092 F 
ENDROOT
TORSDOF 0
ENDMDL
