MODEL 1
REMARK minimizedAffinity -3.71580744
REMARK minimizedRMSD -1
REMARK  0 active torsions:
REMARK  status: ('A' for Active; 'I' for Inactive)
ROOT
ATOM      1  C   UNL d   1       0.208  -2.298   2.227  0.00  0.00     0.124 A 
ATOM      2  C1  UNL d   1      -0.715  -1.346   2.636  0.00  0.00     0.062 A 
ATOM      3  C2  UNL d   1      -1.047  -0.286   1.797  0.00  0.00     0.162 A 
ATOM      4  C3  UNL d   1      -0.455  -0.173   0.539  0.00  0.00    -0.034 A 
ATOM      5  C4  UNL d   1       0.473  -1.134   0.135  0.00  0.00     0.162 A 
ATOM      6  C5  UNL d   1       0.801  -2.191   0.977  0.00  0.00     0.062 A 
ATOM      7  F   UNL d   1       1.693  -3.110   0.580  0.00  0.00    -0.097 F 
ATOM      8  F1  UNL d   1       1.061  -1.055  -1.068  0.00  0.00    -0.096 F 
ATOM      9  I   UNL d   1      -0.947   1.411  -0.718  0.00  0.00    -0.060 I 
ATOM     10  F2  UNL d   1      -1.942   0.619   2.219  0.00  0.00    -0.096 F 
ATOM     11  F3  UNL d   1      -1.290  -1.447   3.844  0.00  0.00    -0.097 F 
ATOM     12  F4  UNL d   1       0.525  -3.317   3.036  0.00  0.00    -0.092 F 
ENDROOT
TORSDOF 0
ENDMDL
