MODEL 1
REMARK minimizedAffinity -1.855106
REMARK minimizedRMSD -1
REMARK  0 active torsions:
REMARK  status: ('A' for Active; 'I' for Inactive)
ROOT
ATOM      1  C   UNL d   1      -2.190   1.090  -2.981  0.00  0.00     0.124 A 
ATOM      2  C1  UNL d   1      -1.691   1.879  -1.955  0.00  0.00     0.062 A 
ATOM      3  C2  UNL d   1      -0.926   3.005  -2.246  0.00  0.00     0.162 A 
ATOM      4  C3  UNL d   1      -0.655   3.348  -3.570  0.00  0.00    -0.034 A 
ATOM      5  C4  UNL d   1      -1.159   2.548  -4.598  0.00  0.00     0.162 A 
ATOM      6  C5  UNL d   1      -1.923   1.425  -4.301  0.00  0.00     0.062 A 
ATOM      7  F   UNL d   1      -2.404   0.663  -5.295  0.00  0.00    -0.097 F 
ATOM      8  F1  UNL d   1      -0.917   2.850  -5.882  0.00  0.00    -0.096 F 
ATOM      9  I   UNL d   1       0.489   5.030  -4.010  0.00  0.00    -0.060 I 
ATOM     10  F2  UNL d   1      -0.457   3.750  -1.234  0.00  0.00    -0.096 F 
ATOM     11  F3  UNL d   1      -1.946   1.557  -0.678  0.00  0.00    -0.097 F 
ATOM     12  F4  UNL d   1      -2.925   0.007  -2.698  0.00  0.00    -0.092 F 
ENDROOT
TORSDOF 0
ENDMDL
