MODEL 1
REMARK minimizedAffinity 0.573429823
REMARK minimizedRMSD -1
REMARK  0 active torsions:
REMARK  status: ('A' for Active; 'I' for Inactive)
ROOT
ATOM      1  C   UNL d   1      -1.450   0.741  -1.863  0.00  0.00     0.124 A 
ATOM      2  C1  UNL d   1      -0.380   1.561  -1.533  0.00  0.00     0.062 A 
ATOM      3  C2  UNL d   1      -0.019   2.612  -2.371  0.00  0.00     0.162 A 
ATOM      4  C3  UNL d   1      -0.731   2.851  -3.547  0.00  0.00    -0.034 A 
ATOM      5  C4  UNL d   1      -1.806   2.022  -3.872  0.00  0.00     0.162 A 
ATOM      6  C5  UNL d   1      -2.163   0.973  -3.031  0.00  0.00     0.062 A 
ATOM      7  F   UNL d   1      -3.197   0.182  -3.351  0.00  0.00    -0.097 F 
ATOM      8  F1  UNL d   1      -2.512   2.224  -4.994  0.00  0.00    -0.096 F 
ATOM      9  I   UNL d   1      -0.195   4.422  -4.802  0.00  0.00    -0.060 I 
ATOM     10  F2  UNL d   1       1.020   3.388  -2.028  0.00  0.00    -0.096 F 
ATOM     11  F3  UNL d   1       0.310   1.339  -0.406  0.00  0.00    -0.097 F 
ATOM     12  F4  UNL d   1      -1.795  -0.270  -1.055  0.00  0.00    -0.092 F 
ENDROOT
TORSDOF 0
ENDMDL
