MODEL 1
REMARK minimizedAffinity -1.02331161
REMARK minimizedRMSD -1
REMARK  0 active torsions:
REMARK  status: ('A' for Active; 'I' for Inactive)
ROOT
ATOM      1  C   UNL d   1       0.686  -1.478   1.858  0.00  0.00     0.124 A 
ATOM      2  C1  UNL d   1       1.443  -1.266   0.714  0.00  0.00     0.062 A 
ATOM      3  C2  UNL d   1       1.068  -0.287  -0.202  0.00  0.00     0.162 A 
ATOM      4  C3  UNL d   1      -0.068   0.490   0.024  0.00  0.00    -0.034 A 
ATOM      5  C4  UNL d   1      -0.825   0.270   1.177  0.00  0.00     0.162 A 
ATOM      6  C5  UNL d   1      -0.447  -0.710   2.088  0.00  0.00     0.062 A 
ATOM      7  F   UNL d   1      -1.179  -0.913   3.193  0.00  0.00    -0.097 F 
ATOM      8  F1  UNL d   1      -1.924   0.999   1.424  0.00  0.00    -0.096 F 
ATOM      9  I   UNL d   1      -0.632   1.955  -1.342  0.00  0.00    -0.060 I 
ATOM     10  F2  UNL d   1       1.818  -0.104  -1.299  0.00  0.00    -0.096 F 
ATOM     11  F3  UNL d   1       2.537  -2.007   0.489  0.00  0.00    -0.097 F 
ATOM     12  F4  UNL d   1       1.048  -2.421   2.737  0.00  0.00    -0.092 F 
ENDROOT
TORSDOF 0
ENDMDL
