MODEL 1
REMARK minimizedAffinity -1.40710092
REMARK minimizedRMSD -1
REMARK  0 active torsions:
REMARK  status: ('A' for Active; 'I' for Inactive)
ROOT
ATOM      1  C   UNL d   1       0.707  -1.176   1.884  0.00  0.00     0.124 A 
ATOM      2  C1  UNL d   1      -0.440  -0.421   2.085  0.00  0.00     0.062 A 
ATOM      3  C2  UNL d   1      -0.920   0.407   1.075  0.00  0.00     0.162 A 
ATOM      4  C3  UNL d   1      -0.253   0.484  -0.148  0.00  0.00    -0.034 A 
ATOM      5  C4  UNL d   1       0.901  -0.278  -0.343  0.00  0.00     0.162 A 
ATOM      6  C5  UNL d   1       1.376  -1.104   0.671  0.00  0.00     0.062 A 
ATOM      7  F   UNL d   1       2.485  -1.833   0.474  0.00  0.00    -0.097 F 
ATOM      8  F1  UNL d   1       1.567  -0.228  -1.506  0.00  0.00    -0.096 F 
ATOM      9  I   UNL d   1      -0.967   1.720  -1.662  0.00  0.00    -0.060 I 
ATOM     10  F2  UNL d   1      -2.031   1.125   1.297  0.00  0.00    -0.096 F 
ATOM     11  F3  UNL d   1      -1.089  -0.489   3.257  0.00  0.00    -0.097 F 
ATOM     12  F4  UNL d   1       1.166  -1.972   2.859  0.00  0.00    -0.092 F 
ENDROOT
TORSDOF 0
ENDMDL
