MODEL 1
REMARK minimizedAffinity -1.28155422
REMARK minimizedRMSD -1
REMARK  0 active torsions:
REMARK  status: ('A' for Active; 'I' for Inactive)
ROOT
ATOM      1  C   UNL d   1      -1.319   3.224  -4.319  0.00  0.00     0.124 A 
ATOM      2  C1  UNL d   1      -0.174   3.422  -3.560  0.00  0.00     0.062 A 
ATOM      3  C2  UNL d   1      -0.028   2.778  -2.334  0.00  0.00     0.162 A 
ATOM      4  C3  UNL d   1      -1.029   1.930  -1.861  0.00  0.00    -0.034 A 
ATOM      5  C4  UNL d   1      -2.177   1.737  -2.630  0.00  0.00     0.162 A 
ATOM      6  C5  UNL d   1      -2.319   2.382  -3.854  0.00  0.00     0.062 A 
ATOM      7  F   UNL d   1      -3.426   2.191  -4.587  0.00  0.00    -0.097 F 
ATOM      8  F1  UNL d   1      -3.159   0.928  -2.205  0.00  0.00    -0.096 F 
ATOM      9  I   UNL d   1      -0.814   0.966  -0.029  0.00  0.00    -0.060 I 
ATOM     10  F2  UNL d   1       1.089   2.987  -1.621  0.00  0.00    -0.096 F 
ATOM     11  F3  UNL d   1       0.793   4.236  -4.006  0.00  0.00    -0.097 F 
ATOM     12  F4  UNL d   1      -1.457   3.846  -5.498  0.00  0.00    -0.092 F 
ENDROOT
TORSDOF 0
ENDMDL
