MODEL 1
REMARK minimizedAffinity -2.76260018
REMARK minimizedRMSD -1
REMARK  0 active torsions:
REMARK  status: ('A' for Active; 'I' for Inactive)
ROOT
ATOM      1  C   UNL d   1      -0.894   2.965  -4.133  0.00  0.00     0.124 A 
ATOM      2  C1  UNL d   1      -1.886   2.069  -3.760  0.00  0.00     0.062 A 
ATOM      3  C2  UNL d   1      -1.807   1.404  -2.540  0.00  0.00     0.162 A 
ATOM      4  C3  UNL d   1      -0.731   1.634  -1.682  0.00  0.00    -0.034 A 
ATOM      5  C4  UNL d   1       0.263   2.537  -2.064  0.00  0.00     0.162 A 
ATOM      6  C5  UNL d   1       0.179   3.198  -3.285  0.00  0.00     0.062 A 
ATOM      7  F   UNL d   1       1.139   4.064  -3.643  0.00  0.00    -0.097 F 
ATOM      8  F1  UNL d   1       1.311   2.781  -1.263  0.00  0.00    -0.096 F 
ATOM      9  I   UNL d   1      -0.609   0.643   0.144  0.00  0.00    -0.060 I 
ATOM     10  F2  UNL d   1      -2.780   0.544  -2.205  0.00  0.00    -0.096 F 
ATOM     11  F3  UNL d   1      -2.924   1.841  -4.578  0.00  0.00    -0.097 F 
ATOM     12  F4  UNL d   1      -0.973   3.603  -5.308  0.00  0.00    -0.092 F 
ENDROOT
TORSDOF 0
ENDMDL
