MODEL 1
REMARK minimizedAffinity -4.72385311
REMARK minimizedRMSD -1
REMARK  0 active torsions:
REMARK  status: ('A' for Active; 'I' for Inactive)
ROOT
ATOM      1  C   UNL d   1      -1.779   2.160  -2.318  0.00  0.00     0.124 A 
ATOM      2  C1  UNL d   1      -1.733   2.353  -0.945  0.00  0.00     0.062 A 
ATOM      3  C2  UNL d   1      -0.929   1.540  -0.150  0.00  0.00     0.162 A 
ATOM      4  C3  UNL d   1      -0.164   0.527  -0.728  0.00  0.00    -0.034 A 
ATOM      5  C4  UNL d   1      -0.216   0.339  -2.110  0.00  0.00     0.162 A 
ATOM      6  C5  UNL d   1      -1.020   1.154  -2.900  0.00  0.00     0.062 A 
ATOM      7  F   UNL d   1      -1.063   0.966  -4.227  0.00  0.00    -0.097 F 
ATOM      8  F1  UNL d   1       0.508  -0.625  -2.698  0.00  0.00    -0.096 F 
ATOM      9  I   UNL d   1       1.039  -0.690   0.456  0.00  0.00    -0.060 I 
ATOM     10  F2  UNL d   1      -0.905   1.749   1.175  0.00  0.00    -0.096 F 
ATOM     11  F3  UNL d   1      -2.465   3.324  -0.380  0.00  0.00    -0.097 F 
ATOM     12  F4  UNL d   1      -2.554   2.943  -3.080  0.00  0.00    -0.092 F 
ENDROOT
TORSDOF 0
ENDMDL
