MODEL 1
REMARK minimizedAffinity -2.14602637
REMARK minimizedRMSD -1
REMARK  0 active torsions:
REMARK  status: ('A' for Active; 'I' for Inactive)
ROOT
ATOM      1  C   UNL d   1      -1.155   3.178  -4.472  0.00  0.00     0.124 A 
ATOM      2  C1  UNL d   1      -2.150   2.379  -3.927  0.00  0.00     0.062 A 
ATOM      3  C2  UNL d   1      -1.930   1.706  -2.729  0.00  0.00     0.162 A 
ATOM      4  C3  UNL d   1      -0.708   1.830  -2.066  0.00  0.00    -0.034 A 
ATOM      5  C4  UNL d   1       0.288   2.635  -2.621  0.00  0.00     0.162 A 
ATOM      6  C5  UNL d   1       0.063   3.306  -3.819  0.00  0.00     0.062 A 
ATOM      7  F   UNL d   1       1.025   4.078  -4.344  0.00  0.00    -0.097 F 
ATOM      8  F1  UNL d   1       1.474   2.777  -2.011  0.00  0.00    -0.096 F 
ATOM      9  I   UNL d   1      -0.374   0.825  -0.275  0.00  0.00    -0.060 I 
ATOM     10  F2  UNL d   1      -2.909   0.940  -2.225  0.00  0.00    -0.096 F 
ATOM     11  F3  UNL d   1      -3.327   2.253  -4.556  0.00  0.00    -0.097 F 
ATOM     12  F4  UNL d   1      -1.370   3.824  -5.625  0.00  0.00    -0.092 F 
ENDROOT
TORSDOF 0
ENDMDL
