MODEL 1
REMARK minimizedAffinity -1.84971654
REMARK minimizedRMSD -1
REMARK  0 active torsions:
REMARK  status: ('A' for Active; 'I' for Inactive)
ROOT
ATOM      1  C   UNL d   1       0.901  -1.549   2.103  0.00  0.00     0.124 A 
ATOM      2  C1  UNL d   1       1.565  -1.225   0.927  0.00  0.00     0.062 A 
ATOM      3  C2  UNL d   1       1.051  -0.247   0.081  0.00  0.00     0.162 A 
ATOM      4  C3  UNL d   1      -0.133   0.416   0.407  0.00  0.00    -0.034 A 
ATOM      5  C4  UNL d   1      -0.795   0.083   1.590  0.00  0.00     0.162 A 
ATOM      6  C5  UNL d   1      -0.277  -0.895   2.433  0.00  0.00     0.062 A 
ATOM      7  F   UNL d   1      -0.919  -1.207   3.568  0.00  0.00    -0.097 F 
ATOM      8  F1  UNL d   1      -1.935   0.700   1.934  0.00  0.00    -0.096 F 
ATOM      9  I   UNL d   1      -0.904   1.879  -0.857  0.00  0.00    -0.060 I 
ATOM     10  F2  UNL d   1       1.713   0.046  -1.049  0.00  0.00    -0.096 F 
ATOM     11  F3  UNL d   1       2.703  -1.856   0.606  0.00  0.00    -0.097 F 
ATOM     12  F4  UNL d   1       1.397  -2.491   2.915  0.00  0.00    -0.092 F 
ENDROOT
TORSDOF 0
ENDMDL
