MODEL 1
REMARK minimizedAffinity -0.440352708
REMARK minimizedRMSD -1
REMARK  0 active torsions:
REMARK  status: ('A' for Active; 'I' for Inactive)
ROOT
ATOM      1  C   UNL d   1      -1.938   1.157  -1.540  0.00  0.00     0.124 A 
ATOM      2  C1  UNL d   1      -0.680   1.681  -1.277  0.00  0.00     0.062 A 
ATOM      3  C2  UNL d   1      -0.031   2.458  -2.233  0.00  0.00     0.162 A 
ATOM      4  C3  UNL d   1      -0.641   2.718  -3.461  0.00  0.00    -0.034 A 
ATOM      5  C4  UNL d   1      -1.906   2.186  -3.718  0.00  0.00     0.162 A 
ATOM      6  C5  UNL d   1      -2.549   1.410  -2.760  0.00  0.00     0.062 A 
ATOM      7  F   UNL d   1      -3.765   0.904  -3.016  0.00  0.00    -0.097 F 
ATOM      8  F1  UNL d   1      -2.520   2.416  -4.888  0.00  0.00    -0.096 F 
ATOM      9  I   UNL d   1       0.325   3.879  -4.892  0.00  0.00    -0.060 I 
ATOM     10  F2  UNL d   1       1.184   2.952  -1.952  0.00  0.00    -0.096 F 
ATOM     11  F3  UNL d   1      -0.086   1.437  -0.100  0.00  0.00    -0.097 F 
ATOM     12  F4  UNL d   1      -2.559   0.409  -0.620  0.00  0.00    -0.092 F 
ENDROOT
TORSDOF 0
ENDMDL
