MODEL 1
REMARK minimizedAffinity -1.72224927
REMARK minimizedRMSD -1
REMARK  0 active torsions:
REMARK  status: ('A' for Active; 'I' for Inactive)
ROOT
ATOM      1  C   UNL d   1       0.762  -1.589   2.296  0.00  0.00     0.124 A 
ATOM      2  C1  UNL d   1       1.364  -1.457   1.052  0.00  0.00     0.062 A 
ATOM      3  C2  UNL d   1       0.936  -0.471   0.168  0.00  0.00     0.162 A 
ATOM      4  C3  UNL d   1      -0.099   0.394   0.526  0.00  0.00    -0.034 A 
ATOM      5  C4  UNL d   1      -0.699   0.254   1.778  0.00  0.00     0.162 A 
ATOM      6  C5  UNL d   1      -0.268  -0.733   2.658  0.00  0.00     0.062 A 
ATOM      7  F   UNL d   1      -0.851  -0.859   3.859  0.00  0.00    -0.097 F 
ATOM      8  F1  UNL d   1      -1.697   1.068   2.154  0.00  0.00    -0.096 F 
ATOM      9  I   UNL d   1      -0.741   1.871  -0.792  0.00  0.00    -0.060 I 
ATOM     10  F2  UNL d   1       1.536  -0.366  -1.027  0.00  0.00    -0.096 F 
ATOM     11  F3  UNL d   1       2.360  -2.283   0.699  0.00  0.00    -0.097 F 
ATOM     12  F4  UNL d   1       1.175  -2.540   3.144  0.00  0.00    -0.092 F 
ENDROOT
TORSDOF 0
ENDMDL
