MODEL 1
REMARK minimizedAffinity -0.187682196
REMARK minimizedRMSD -1
REMARK  0 active torsions:
REMARK  status: ('A' for Active; 'I' for Inactive)
ROOT
ATOM      1  C   UNL d   1       0.461  -1.259   1.957  0.00  0.00     0.124 A 
ATOM      2  C1  UNL d   1       1.339  -1.149   0.888  0.00  0.00     0.062 A 
ATOM      3  C2  UNL d   1       1.023  -0.336  -0.197  0.00  0.00     0.162 A 
ATOM      4  C3  UNL d   1      -0.177   0.375  -0.217  0.00  0.00    -0.034 A 
ATOM      5  C4  UNL d   1      -1.056   0.258   0.862  0.00  0.00     0.162 A 
ATOM      6  C5  UNL d   1      -0.735  -0.556   1.943  0.00  0.00     0.062 A 
ATOM      7  F   UNL d   1      -1.584  -0.661   2.975  0.00  0.00    -0.097 F 
ATOM      8  F1  UNL d   1      -2.218   0.928   0.875  0.00  0.00    -0.096 F 
ATOM      9  I   UNL d   1      -0.654   1.592  -1.837  0.00  0.00    -0.060 I 
ATOM     10  F2  UNL d   1       1.890  -0.249  -1.217  0.00  0.00    -0.096 F 
ATOM     11  F3  UNL d   1       2.495  -1.829   0.898  0.00  0.00    -0.097 F 
ATOM     12  F4  UNL d   1       0.768  -2.043   2.999  0.00  0.00    -0.092 F 
ENDROOT
TORSDOF 0
ENDMDL
