MODEL 1
REMARK minimizedAffinity 0.104627274
REMARK minimizedRMSD -1
REMARK  0 active torsions:
REMARK  status: ('A' for Active; 'I' for Inactive)
ROOT
ATOM      1  C   UNL d   1       1.007  -1.330   1.880  0.00  0.00     0.124 A 
ATOM      2  C1  UNL d   1      -0.259  -0.796   2.077  0.00  0.00     0.062 A 
ATOM      3  C2  UNL d   1      -0.780   0.121   1.169  0.00  0.00     0.162 A 
ATOM      4  C3  UNL d   1      -0.036   0.510   0.055  0.00  0.00    -0.034 A 
ATOM      5  C4  UNL d   1       1.237  -0.031  -0.136  0.00  0.00     0.162 A 
ATOM      6  C5  UNL d   1       1.753  -0.948   0.774  0.00  0.00     0.062 A 
ATOM      7  F   UNL d   1       2.977  -1.463   0.582  0.00  0.00    -0.097 F 
ATOM      8  F1  UNL d   1       1.979   0.321  -1.196  0.00  0.00    -0.096 F 
ATOM      9  I   UNL d   1      -0.812   1.882  -1.304  0.00  0.00    -0.060 I 
ATOM     10  F2  UNL d   1      -2.006   0.621   1.385  0.00  0.00    -0.096 F 
ATOM     11  F3  UNL d   1      -0.981  -1.164   3.145  0.00  0.00    -0.097 F 
ATOM     12  F4  UNL d   1       1.507  -2.212   2.755  0.00  0.00    -0.092 F 
ENDROOT
TORSDOF 0
ENDMDL
