MODEL 1
REMARK minimizedAffinity -2.57479692
REMARK minimizedRMSD -1
REMARK  0 active torsions:
REMARK  status: ('A' for Active; 'I' for Inactive)
ROOT
ATOM      1  C   UNL d   1       3.317   0.510   0.103  0.00  0.00    -0.002 A 
ATOM      2  C1  UNL d   1       3.360  -0.825  -0.274  0.00  0.00     0.010 A 
ATOM      3  C2  UNL d   1       2.187  -1.511  -0.594  0.00  0.00     0.041 A 
ATOM      4  C3  UNL d   1       0.958  -0.826  -0.532  0.00  0.00    -0.075 A 
ATOM      5  S   UNL d   1      -0.606  -1.462  -0.881  0.00  0.00     0.015 SA
ATOM      6  C4  UNL d   1      -1.369   0.023  -0.541  0.00  0.00     0.022 A 
ATOM      7  C5  UNL d   1      -0.467   0.992  -0.167  0.00  0.00     0.026 A 
ATOM      8  C6  UNL d   1       0.889   0.519  -0.157  0.00  0.00    -0.082 A 
ATOM      9  C7  UNL d   1       2.095   1.186   0.163  0.00  0.00     0.045 A 
ENDROOT
TORSDOF 0
ENDMDL
