MODEL 1
REMARK minimizedAffinity -2.85994267
REMARK minimizedRMSD -1
REMARK  0 active torsions:
REMARK  status: ('A' for Active; 'I' for Inactive)
ROOT
ATOM      1  C   UNL d   1       3.692   0.638   0.265  0.00  0.00    -0.002 A 
ATOM      2  C1  UNL d   1       2.835   1.728   0.215  0.00  0.00     0.010 A 
ATOM      3  C2  UNL d   1       1.498   1.564  -0.152  0.00  0.00     0.041 A 
ATOM      4  C3  UNL d   1       1.032   0.272  -0.470  0.00  0.00    -0.075 A 
ATOM      5  S   UNL d   1      -0.566  -0.168  -0.945  0.00  0.00     0.015 SA
ATOM      6  C4  UNL d   1      -0.148  -1.814  -1.092  0.00  0.00     0.022 A 
ATOM      7  C5  UNL d   1       1.174  -2.040  -0.790  0.00  0.00     0.026 A 
ATOM      8  C6  UNL d   1       1.876  -0.841  -0.426  0.00  0.00    -0.082 A 
ATOM      9  C7  UNL d   1       3.226  -0.641  -0.050  0.00  0.00     0.045 A 
ENDROOT
TORSDOF 0
ENDMDL
