MODEL 1
REMARK minimizedAffinity 0.000876733451
REMARK minimizedRMSD -1
REMARK  0 active torsions:
REMARK  status: ('A' for Active; 'I' for Inactive)
ROOT
ATOM      1  C   UNL d   1       1.042  -2.074  -0.422  0.00  0.00    -0.002 A 
ATOM      2  C1  UNL d   1       0.047  -1.177  -0.061  0.00  0.00     0.010 A 
ATOM      3  C2  UNL d   1       0.348   0.169   0.155  0.00  0.00     0.041 A 
ATOM      4  C3  UNL d   1       1.679   0.603  -0.001  0.00  0.00    -0.075 A 
ATOM      5  S   UNL d   1       2.281   2.205   0.210  0.00  0.00     0.015 SA
ATOM      6  C4  UNL d   1       3.874   1.736  -0.174  0.00  0.00     0.022 A 
ATOM      7  C5  UNL d   1       3.963   0.394  -0.459  0.00  0.00     0.026 A 
ATOM      8  C6  UNL d   1       2.699  -0.281  -0.365  0.00  0.00    -0.082 A 
ATOM      9  C7  UNL d   1       2.361  -1.640  -0.576  0.00  0.00     0.045 A 
ENDROOT
TORSDOF 0
ENDMDL
