MODEL 1
REMARK minimizedAffinity -4.58690023
REMARK minimizedRMSD -1
REMARK  1 active torsions:
REMARK  status: ('A' for Active; 'I' for Inactive)
REMARK    1  A    between atoms: C1_2  and  C2_3 
ROOT
ATOM      1  C2  UNL d   1      -0.318  -1.281   0.504  0.00  0.00    -0.081 A 
ATOM      2  C3  UNL d   1       1.010  -1.305   0.060  0.00  0.00     0.006 A 
ATOM      3  C4  UNL d   1       1.541  -0.222  -0.644  0.00  0.00     0.002 A 
ATOM      4  C5  UNL d   1       0.756   0.905  -0.910  0.00  0.00    -0.080 A 
ATOM      5  C6  UNL d   1       1.323   2.087  -1.639  0.00  0.00     0.076 C 
ATOM      6  C7  UNL d   1      -0.576   0.922  -0.483  0.00  0.00     0.002 A 
ATOM      7  C8  UNL d   1      -1.108  -0.161   0.221  0.00  0.00     0.006 A 
ENDROOT
BRANCH   1   8
ATOM      8  C1  UNL d   1      -0.874  -2.420   1.320  0.00  0.00     0.054 C 
ATOM      9  C   UNL d   1      -1.972  -1.943   2.259  0.00  0.00     0.018 C 
ENDBRANCH   1   8
TORSDOF 1
ENDMDL
