MODEL 1
REMARK minimizedAffinity -2.7448132
REMARK minimizedRMSD -1
REMARK  1 active torsions:
REMARK  status: ('A' for Active; 'I' for Inactive)
REMARK    1  A    between atoms: C1_2  and  C2_3 
ROOT
ATOM      1  C2  UNL d   1       0.825   1.379  -1.314  0.00  0.00    -0.081 A 
ATOM      2  C3  UNL d   1       0.792   1.458   0.084  0.00  0.00     0.006 A 
ATOM      3  C4  UNL d   1       0.433   0.345   0.847  0.00  0.00     0.002 A 
ATOM      4  C5  UNL d   1       0.110  -0.867   0.227  0.00  0.00    -0.080 A 
ATOM      5  C6  UNL d   1      -0.247  -2.078   1.036  0.00  0.00     0.076 C 
ATOM      6  C7  UNL d   1       0.127  -0.941  -1.170  0.00  0.00     0.002 A 
ATOM      7  C8  UNL d   1       0.485   0.172  -1.934  0.00  0.00     0.006 A 
ENDROOT
BRANCH   1   8
ATOM      8  C1  UNL d   1       1.274   2.560  -2.137  0.00  0.00     0.054 C 
ATOM      9  C   UNL d   1       2.726   2.414  -2.568  0.00  0.00     0.018 C 
ENDBRANCH   1   8
TORSDOF 1
ENDMDL
