MODEL 1
REMARK minimizedAffinity -4.89912462
REMARK minimizedRMSD -1
REMARK  1 active torsions:
REMARK  status: ('A' for Active; 'I' for Inactive)
REMARK    1  A    between atoms: C1_2  and  C2_3 
ROOT
ATOM      1  C2  UNL d   1       0.438   0.937  -0.021  0.00  0.00    -0.081 A 
ATOM      2  C3  UNL d   1       1.183  -0.248   0.029  0.00  0.00     0.006 A 
ATOM      3  C4  UNL d   1       0.608  -1.426   0.512  0.00  0.00     0.002 A 
ATOM      4  C5  UNL d   1      -0.722  -1.441   0.946  0.00  0.00    -0.080 A 
ATOM      5  C6  UNL d   1      -1.361  -2.705   1.438  0.00  0.00     0.076 C 
ATOM      6  C7  UNL d   1      -1.461  -0.253   0.913  0.00  0.00     0.002 A 
ATOM      7  C8  UNL d   1      -0.886   0.925   0.430  0.00  0.00     0.006 A 
ENDROOT
BRANCH   1   8
ATOM      8  C1  UNL d   1       1.035   2.193  -0.601  0.00  0.00     0.054 C 
ATOM      9  C   UNL d   1       0.713   2.326  -2.083  0.00  0.00     0.018 C 
ENDBRANCH   1   8
TORSDOF 1
ENDMDL
