MODEL 1
REMARK minimizedAffinity -1.56281686
REMARK minimizedRMSD -1
REMARK  1 active torsions:
REMARK  status: ('A' for Active; 'I' for Inactive)
REMARK    1  A    between atoms: C1_2  and  C2_3 
ROOT
ATOM      1  C2  UNL d   1       0.241  -0.654  -0.239  0.00  0.00    -0.081 A 
ATOM      2  C3  UNL d   1       0.113  -1.796   0.561  0.00  0.00     0.006 A 
ATOM      3  C4  UNL d   1      -0.802  -1.822   1.616  0.00  0.00     0.002 A 
ATOM      4  C5  UNL d   1      -1.608  -0.711   1.884  0.00  0.00    -0.080 A 
ATOM      5  C6  UNL d   1      -2.616  -0.737   2.995  0.00  0.00     0.076 C 
ATOM      6  C7  UNL d   1      -1.468   0.436   1.096  0.00  0.00     0.002 A 
ATOM      7  C8  UNL d   1      -0.553   0.464   0.041  0.00  0.00     0.006 A 
ENDROOT
BRANCH   1   8
ATOM      8  C1  UNL d   1       1.180  -0.645  -1.418  0.00  0.00     0.054 C 
ATOM      9  C   UNL d   1       1.145   0.692  -2.144  0.00  0.00     0.018 C 
ENDBRANCH   1   8
TORSDOF 1
ENDMDL
