MODEL 1
REMARK minimizedAffinity -3.85650229
REMARK minimizedRMSD -1
REMARK  1 active torsions:
REMARK  status: ('A' for Active; 'I' for Inactive)
REMARK    1  A    between atoms: C1_2  and  C2_3 
ROOT
ATOM      1  C2  UNL d   1       0.400   0.826  -1.311  0.00  0.00    -0.081 A 
ATOM      2  C3  UNL d   1       0.285  -0.429  -1.920  0.00  0.00     0.006 A 
ATOM      3  C4  UNL d   1       0.285  -1.593  -1.148  0.00  0.00     0.002 A 
ATOM      4  C5  UNL d   1       0.392  -1.522   0.245  0.00  0.00    -0.080 A 
ATOM      5  C6  UNL d   1       0.363  -2.762   1.087  0.00  0.00     0.076 C 
ATOM      6  C7  UNL d   1       0.525  -0.268   0.852  0.00  0.00     0.002 A 
ATOM      7  C8  UNL d   1       0.526   0.896   0.081  0.00  0.00     0.006 A 
ENDROOT
BRANCH   1   8
ATOM      8  C1  UNL d   1       0.335   2.087  -2.135  0.00  0.00     0.054 C 
ATOM      9  C   UNL d   1       1.104   1.935  -3.440  0.00  0.00     0.018 C 
ENDBRANCH   1   8
TORSDOF 1
ENDMDL
