MODEL 1
REMARK minimizedAffinity -3.47596478
REMARK minimizedRMSD -1
REMARK  1 active torsions:
REMARK  status: ('A' for Active; 'I' for Inactive)
REMARK    1  A    between atoms: C1_2  and  C2_3 
ROOT
ATOM      1  C2  UNL d   1       0.285   0.960  -0.427  0.00  0.00    -0.081 A 
ATOM      2  C3  UNL d   1      -0.965   0.894   0.200  0.00  0.00     0.006 A 
ATOM      3  C4  UNL d   1      -1.451  -0.323   0.683  0.00  0.00     0.002 A 
ATOM      4  C5  UNL d   1      -0.693  -1.492   0.553  0.00  0.00    -0.080 A 
ATOM      5  C6  UNL d   1      -1.191  -2.800   1.094  0.00  0.00     0.076 C 
ATOM      6  C7  UNL d   1       0.548  -1.429  -0.089  0.00  0.00     0.002 A 
ATOM      7  C8  UNL d   1       1.035  -0.212  -0.573  0.00  0.00     0.006 A 
ENDROOT
BRANCH   1   8
ATOM      8  C1  UNL d   1       0.841   2.283  -0.891  0.00  0.00     0.054 C 
ATOM      9  C   UNL d   1       1.148   2.262  -2.381  0.00  0.00     0.018 C 
ENDBRANCH   1   8
TORSDOF 1
ENDMDL
