MODEL 1
REMARK minimizedAffinity -4.78807735
REMARK minimizedRMSD -1
REMARK  1 active torsions:
REMARK  status: ('A' for Active; 'I' for Inactive)
REMARK    1  A    between atoms: C1_2  and  C2_3 
ROOT
ATOM      1  C2  UNL d   1       0.827  -0.561  -0.140  0.00  0.00    -0.081 A 
ATOM      2  C3  UNL d   1       0.545  -1.027  -1.430  0.00  0.00     0.006 A 
ATOM      3  C4  UNL d   1       0.491  -0.139  -2.507  0.00  0.00     0.002 A 
ATOM      4  C5  UNL d   1       0.725   1.226  -2.314  0.00  0.00    -0.080 A 
ATOM      5  C6  UNL d   1       0.700   2.186  -3.467  0.00  0.00     0.076 C 
ATOM      6  C7  UNL d   1       0.989   1.694  -1.022  0.00  0.00     0.002 A 
ATOM      7  C8  UNL d   1       1.043   0.807   0.055  0.00  0.00     0.006 A 
ENDROOT
BRANCH   1   8
ATOM      8  C1  UNL d   1       0.949  -1.525   1.013  0.00  0.00     0.054 C 
ATOM      9  C   UNL d   1      -0.386  -2.183   1.328  0.00  0.00     0.018 C 
ENDBRANCH   1   8
TORSDOF 1
ENDMDL
