MODEL 1
REMARK minimizedAffinity -3.41535258
REMARK minimizedRMSD -1
REMARK  1 active torsions:
REMARK  status: ('A' for Active; 'I' for Inactive)
REMARK    1  A    between atoms: C1_2  and  C2_3 
ROOT
ATOM      1  C2  UNL d   1      -0.022   0.683  -1.245  0.00  0.00    -0.081 A 
ATOM      2  C3  UNL d   1      -1.011  -0.260  -1.551  0.00  0.00     0.006 A 
ATOM      3  C4  UNL d   1      -1.224  -1.359  -0.715  0.00  0.00     0.002 A 
ATOM      4  C5  UNL d   1      -0.458  -1.529   0.444  0.00  0.00    -0.080 A 
ATOM      5  C6  UNL d   1      -0.697  -2.687   1.365  0.00  0.00     0.076 C 
ATOM      6  C7  UNL d   1       0.541  -0.595   0.740  0.00  0.00     0.002 A 
ATOM      7  C8  UNL d   1       0.755   0.503  -0.095  0.00  0.00     0.006 A 
ENDROOT
BRANCH   1   8
ATOM      8  C1  UNL d   1       0.166   1.904  -2.109  0.00  0.00     0.054 C 
ATOM      9  C   UNL d   1       1.636   2.285  -2.214  0.00  0.00     0.018 C 
ENDBRANCH   1   8
TORSDOF 1
ENDMDL
