MODEL 1
REMARK minimizedAffinity -5.33201838
REMARK minimizedRMSD -1
REMARK  1 active torsions:
REMARK  status: ('A' for Active; 'I' for Inactive)
REMARK    1  A    between atoms: C1_2  and  C2_3 
ROOT
ATOM      1  C2  UNL d   1       0.338   0.870  -1.404  0.00  0.00    -0.081 A 
ATOM      2  C3  UNL d   1       0.544  -0.474  -1.739  0.00  0.00     0.006 A 
ATOM      3  C4  UNL d   1       0.347  -1.479  -0.790  0.00  0.00     0.002 A 
ATOM      4  C5  UNL d   1      -0.067  -1.159   0.508  0.00  0.00    -0.080 A 
ATOM      5  C6  UNL d   1      -0.311  -2.231   1.528  0.00  0.00     0.076 C 
ATOM      6  C7  UNL d   1      -0.256   0.185   0.848  0.00  0.00     0.002 A 
ATOM      7  C8  UNL d   1      -0.059   1.190  -0.101  0.00  0.00     0.006 A 
ENDROOT
BRANCH   1   8
ATOM      8  C1  UNL d   1       0.487   1.951  -2.443  0.00  0.00     0.054 C 
ATOM      9  C   UNL d   1       1.524   1.572  -3.491  0.00  0.00     0.018 C 
ENDBRANCH   1   8
TORSDOF 1
ENDMDL
