MODEL 1
REMARK minimizedAffinity -2.73048949
REMARK minimizedRMSD -1
REMARK  1 active torsions:
REMARK  status: ('A' for Active; 'I' for Inactive)
REMARK    1  A    between atoms: C1_2  and  C2_3 
ROOT
ATOM      1  C2  UNL d   1       0.126   0.893  -1.122  0.00  0.00    -0.081 A 
ATOM      2  C3  UNL d   1       1.244   0.201  -0.642  0.00  0.00     0.006 A 
ATOM      3  C4  UNL d   1       1.095  -0.816   0.304  0.00  0.00     0.002 A 
ATOM      4  C5  UNL d   1      -0.174  -1.163   0.780  0.00  0.00    -0.080 A 
ATOM      5  C6  UNL d   1      -0.350  -2.273   1.772  0.00  0.00     0.076 C 
ATOM      6  C7  UNL d   1      -1.289  -0.459   0.313  0.00  0.00     0.002 A 
ATOM      7  C8  UNL d   1      -1.141   0.558  -0.632  0.00  0.00     0.006 A 
ENDROOT
BRANCH   1   8
ATOM      8  C1  UNL d   1       0.276   1.946  -2.190  0.00  0.00     0.054 C 
ATOM      9  C   UNL d   1       1.668   1.916  -2.805  0.00  0.00     0.018 C 
ENDBRANCH   1   8
TORSDOF 1
ENDMDL
