MODEL 1
REMARK minimizedAffinity -2.81091738
REMARK minimizedRMSD -1
REMARK  1 active torsions:
REMARK  status: ('A' for Active; 'I' for Inactive)
REMARK    1  A    between atoms: C1_2  and  C2_3 
ROOT
ATOM      1  C2  UNL d   1       0.579   0.691  -1.175  0.00  0.00    -0.081 A 
ATOM      2  C3  UNL d   1      -0.087   0.933   0.032  0.00  0.00     0.006 A 
ATOM      3  C4  UNL d   1      -0.298  -0.103   0.945  0.00  0.00     0.002 A 
ATOM      4  C5  UNL d   1       0.161  -1.396   0.671  0.00  0.00    -0.080 A 
ATOM      5  C6  UNL d   1      -0.031  -2.510   1.656  0.00  0.00     0.076 C 
ATOM      6  C7  UNL d   1       0.812  -1.642  -0.543  0.00  0.00     0.002 A 
ATOM      7  C8  UNL d   1       1.022  -0.606  -1.457  0.00  0.00     0.006 A 
ENDROOT
BRANCH   1   8
ATOM      8  C1  UNL d   1       0.865   1.819  -2.133  0.00  0.00     0.054 C 
ATOM      9  C   UNL d   1       1.070   1.303  -3.550  0.00  0.00     0.018 C 
ENDBRANCH   1   8
TORSDOF 1
ENDMDL
