MODEL 1
REMARK minimizedAffinity 3.90442348
REMARK minimizedRMSD -1
REMARK  0 active torsions:
REMARK  status: ('A' for Active; 'I' for Inactive)
ROOT
ATOM      1  C4' PXY d   1      -3.317   6.000  -3.983  0.00  0.00     0.077 C 
ATOM      2  C1' PXY d   1       2.321   5.958  -5.259  0.00  0.00     0.077 C 
ATOM      3  C1  PXY d   1       0.845   5.964  -4.913  0.00  0.00    -0.082 A 
ATOM      4  C2  PXY d   1      -0.055   5.946  -5.883  0.00  0.00     0.003 A 
ATOM      5  C3  PXY d   1      -1.394   5.984  -5.588  0.00  0.00     0.003 A 
ATOM      6  C4  PXY d   1      -1.816   5.985  -4.286  0.00  0.00    -0.082 A 
ATOM      7  C5  PXY d   1      -0.905   5.992  -3.290  0.00  0.00     0.003 A 
ATOM      8  C6  PXY d   1       0.450   5.996  -3.611  0.00  0.00     0.003 A 
ENDROOT
TORSDOF 0
ENDMDL
