MODEL 1
REMARK minimizedAffinity -3.86529851
REMARK minimizedRMSD -1
REMARK  0 active torsions:
REMARK  status: ('A' for Active; 'I' for Inactive)
ROOT
ATOM      1  C4' PXY d   1       2.034   5.973  -5.510  0.00  0.00     0.077 C 
ATOM      2  C1' PXY d   1      -3.323   6.000  -3.340  0.00  0.00     0.077 C 
ATOM      3  C1  PXY d   1      -1.923   5.988  -3.920  0.00  0.00    -0.082 A 
ATOM      4  C2  PXY d   1      -0.878   5.976  -3.108  0.00  0.00     0.003 A 
ATOM      5  C3  PXY d   1       0.395   5.997  -3.615  0.00  0.00     0.003 A 
ATOM      6  C4  PXY d   1       0.602   5.976  -4.969  0.00  0.00    -0.082 A 
ATOM      7  C5  PXY d   1      -0.459   5.977  -5.804  0.00  0.00     0.003 A 
ATOM      8  C6  PXY d   1      -1.743   5.998  -5.269  0.00  0.00     0.003 A 
ENDROOT
TORSDOF 0
ENDMDL
