MODEL 1
REMARK minimizedAffinity -3.47195196
REMARK minimizedRMSD -1
REMARK  0 active torsions:
REMARK  status: ('A' for Active; 'I' for Inactive)
ROOT
ATOM      1  C4' PXY d   1       0.356   5.975  -5.623  0.00  0.00     0.077 C 
ATOM      2  C1' PXY d   1      -4.283   6.000  -2.175  0.00  0.00     0.077 C 
ATOM      3  C1  PXY d   1      -3.074   5.988  -3.089  0.00  0.00    -0.082 A 
ATOM      4  C2  PXY d   1      -1.858   5.978  -2.565  0.00  0.00     0.003 A 
ATOM      5  C3  PXY d   1      -0.753   6.000  -3.377  0.00  0.00     0.003 A 
ATOM      6  C4  PXY d   1      -0.894   5.977  -4.739  0.00  0.00    -0.082 A 
ATOM      7  C5  PXY d   1      -2.130   5.976  -5.280  0.00  0.00     0.003 A 
ATOM      8  C6  PXY d   1      -3.239   5.996  -4.439  0.00  0.00     0.003 A 
ENDROOT
TORSDOF 0
ENDMDL
