MODEL 1
REMARK minimizedAffinity -3.32013464
REMARK minimizedRMSD -1
REMARK  0 active torsions:
REMARK  status: ('A' for Active; 'I' for Inactive)
ROOT
ATOM      1  C4' PXY d   1       5.939   5.353  -4.030  0.00  0.00     0.077 C 
ATOM      2  C1' PXY d   1       0.530   4.829  -5.999  0.00  0.00     0.077 C 
ATOM      3  C1  PXY d   1       1.945   4.961  -5.471  0.00  0.00    -0.082 A 
ATOM      4  C2  PXY d   1       2.746   5.888  -5.972  0.00  0.00     0.003 A 
ATOM      5  C3  PXY d   1       4.039   6.000  -5.529  0.00  0.00     0.003 A 
ATOM      6  C4  PXY d   1       4.500   5.190  -4.526  0.00  0.00    -0.082 A 
ATOM      7  C5  PXY d   1       3.685   4.249  -4.002  0.00  0.00     0.003 A 
ATOM      8  C6  PXY d   1       2.390   4.124  -4.495  0.00  0.00     0.003 A 
ENDROOT
TORSDOF 0
ENDMDL
