MODEL 1
REMARK minimizedAffinity -0.477522731
REMARK minimizedRMSD -1
REMARK  0 active torsions:
REMARK  status: ('A' for Active; 'I' for Inactive)
ROOT
ATOM      1  C4' PXY d   1      -3.823   5.995  -2.940  0.00  0.00     0.077 C 
ATOM      2  C1' PXY d   1       1.331   5.941  -5.557  0.00  0.00     0.077 C 
ATOM      3  C1  PXY d   1      -0.015   5.950  -4.860  0.00  0.00    -0.082 A 
ATOM      4  C2  PXY d   1      -1.125   5.920  -5.580  0.00  0.00     0.003 A 
ATOM      5  C3  PXY d   1      -2.351   5.960  -4.967  0.00  0.00     0.003 A 
ATOM      6  C4  PXY d   1      -2.442   5.978  -3.601  0.00  0.00    -0.082 A 
ATOM      7  C5  PXY d   1      -1.314   5.998  -2.859  0.00  0.00     0.003 A 
ATOM      8  C6  PXY d   1      -0.080   5.998  -3.501  0.00  0.00     0.003 A 
ENDROOT
TORSDOF 0
ENDMDL
