MODEL 1
REMARK minimizedAffinity -0.685552478
REMARK minimizedRMSD -1
REMARK  0 active torsions:
REMARK  status: ('A' for Active; 'I' for Inactive)
ROOT
ATOM      1  C4' PXY d   1       3.297   5.955  -5.080  0.00  0.00     0.077 C 
ATOM      2  C1' PXY d   1      -2.457   5.996  -4.520  0.00  0.00     0.077 C 
ATOM      3  C1  PXY d   1      -0.947   5.991  -4.655  0.00  0.00    -0.082 A 
ATOM      4  C2  PXY d   1      -0.398   5.973  -5.859  0.00  0.00     0.003 A 
ATOM      5  C3  PXY d   1       0.966   5.936  -5.999  0.00  0.00     0.003 A 
ATOM      6  C4  PXY d   1       1.777   5.971  -4.896  0.00  0.00    -0.082 A 
ATOM      7  C5  PXY d   1       1.224   6.000  -3.665  0.00  0.00     0.003 A 
ATOM      8  C6  PXY d   1      -0.162   5.996  -3.543  0.00  0.00     0.003 A 
ENDROOT
TORSDOF 0
ENDMDL
