MODEL 1
REMARK minimizedAffinity -0.596887231
REMARK minimizedRMSD -1
REMARK  0 active torsions:
REMARK  status: ('A' for Active; 'I' for Inactive)
ROOT
ATOM      1  C4' PXY d   1      -3.735   5.978  -2.191  0.00  0.00     0.077 C 
ATOM      2  C1' PXY d   1       1.167   6.000  -5.255  0.00  0.00     0.077 C 
ATOM      3  C1  PXY d   1      -0.112   5.989  -4.441  0.00  0.00    -0.082 A 
ATOM      4  C2  PXY d   1      -1.281   5.977  -5.061  0.00  0.00     0.003 A 
ATOM      5  C3  PXY d   1      -2.448   6.000  -4.341  0.00  0.00     0.003 A 
ATOM      6  C4  PXY d   1      -2.418   5.980  -2.972  0.00  0.00    -0.082 A 
ATOM      7  C5  PXY d   1      -1.229   5.981  -2.332  0.00  0.00     0.003 A 
ATOM      8  C6  PXY d   1      -0.056   6.000  -3.082  0.00  0.00     0.003 A 
ENDROOT
TORSDOF 0
ENDMDL
