MODEL 1
REMARK minimizedAffinity 3.16212821
REMARK minimizedRMSD -1
REMARK  0 active torsions:
REMARK  status: ('A' for Active; 'I' for Inactive)
ROOT
ATOM      1  C4' PXY d   1       0.324   3.550  -5.618  0.00  0.00     0.077 C 
ATOM      2  C1' PXY d   1       5.641   5.818  -5.619  0.00  0.00     0.077 C 
ATOM      3  C1  PXY d   1       4.242   5.235  -5.617  0.00  0.00    -0.082 A 
ATOM      4  C2  PXY d   1       4.058   3.977  -5.250  0.00  0.00     0.003 A 
ATOM      5  C3  PXY d   1       2.803   3.424  -5.274  0.00  0.00     0.003 A 
ATOM      6  C4  PXY d   1       1.718   4.183  -5.626  0.00  0.00    -0.082 A 
ATOM      7  C5  PXY d   1       1.897   5.470  -5.991  0.00  0.00     0.003 A 
ATOM      8  C6  PXY d   1       3.184   6.000  -6.000  0.00  0.00     0.003 A 
ENDROOT
TORSDOF 0
ENDMDL
