MODEL 1
REMARK minimizedAffinity -0.946260393
REMARK minimizedRMSD -1
REMARK  0 active torsions:
REMARK  status: ('A' for Active; 'I' for Inactive)
ROOT
ATOM      1  C4' PXY d   1       2.014   1.480  -2.433  0.00  0.00     0.077 C 
ATOM      2  C1' PXY d   1       0.245   0.262   2.933  0.00  0.00     0.077 C 
ATOM      3  C1  PXY d   1       0.711   0.593   1.529  0.00  0.00    -0.082 A 
ATOM      4  C2  PXY d   1       0.286  -0.134   0.510  0.00  0.00     0.003 A 
ATOM      5  C3  PXY d   1       0.723   0.132  -0.762  0.00  0.00     0.003 A 
ATOM      6  C4  PXY d   1       1.562   1.187  -1.000  0.00  0.00    -0.082 A 
ATOM      7  C5  PXY d   1       1.992   1.941   0.034  0.00  0.00     0.003 A 
ATOM      8  C6  PXY d   1       1.569   1.629   1.323  0.00  0.00     0.003 A 
ENDROOT
TORSDOF 0
ENDMDL
