MODEL 1
REMARK minimizedAffinity -1.83399546
REMARK minimizedRMSD -1
REMARK  0 active torsions:
REMARK  status: ('A' for Active; 'I' for Inactive)
ROOT
ATOM      1  C4' PXY d   1      -3.739   5.977  -2.771  0.00  0.00     0.077 C 
ATOM      2  C1' PXY d   1       1.205   6.000  -5.767  0.00  0.00     0.077 C 
ATOM      3  C1  PXY d   1      -0.086   5.988  -4.971  0.00  0.00    -0.082 A 
ATOM      4  C2  PXY d   1      -1.246   5.977  -5.607  0.00  0.00     0.003 A 
ATOM      5  C3  PXY d   1      -2.423   5.999  -4.903  0.00  0.00     0.003 A 
ATOM      6  C4  PXY d   1      -2.411   5.979  -3.534  0.00  0.00    -0.082 A 
ATOM      7  C5  PXY d   1      -1.231   5.979  -2.878  0.00  0.00     0.003 A 
ATOM      8  C6  PXY d   1      -0.048   5.999  -3.611  0.00  0.00     0.003 A 
ENDROOT
TORSDOF 0
ENDMDL
