MODEL 1
REMARK minimizedAffinity -0.139766619
REMARK minimizedRMSD -1
REMARK  0 active torsions:
REMARK  status: ('A' for Active; 'I' for Inactive)
ROOT
ATOM      1  C4' PXY d   1      -3.378   5.988  -2.460  0.00  0.00     0.077 C 
ATOM      2  C1' PXY d   1       1.915   5.985  -4.783  0.00  0.00     0.077 C 
ATOM      3  C1  PXY d   1       0.532   5.981  -4.162  0.00  0.00    -0.082 A 
ATOM      4  C2  PXY d   1      -0.536   5.970  -4.944  0.00  0.00     0.003 A 
ATOM      5  C3  PXY d   1      -1.794   5.998  -4.401  0.00  0.00     0.003 A 
ATOM      6  C4  PXY d   1      -1.962   5.983  -3.042  0.00  0.00    -0.082 A 
ATOM      7  C5  PXY d   1      -0.878   5.983  -2.237  0.00  0.00     0.003 A 
ATOM      8  C6  PXY d   1       0.391   5.996  -2.809  0.00  0.00     0.003 A 
ENDROOT
TORSDOF 0
ENDMDL
