MODEL 1
REMARK minimizedAffinity 8.70187759
REMARK minimizedRMSD -1
REMARK  0 active torsions:
REMARK  status: ('A' for Active; 'I' for Inactive)
ROOT
ATOM      1  C4' PXY d   1      -1.364  -2.244  -6.000  0.00  0.00     0.077 C 
ATOM      2  C1' PXY d   1       2.237   1.487  -3.446  0.00  0.00     0.077 C 
ATOM      3  C1  PXY d   1       1.287   0.519  -4.121  0.00  0.00    -0.082 A 
ATOM      4  C2  PXY d   1       1.078  -0.673  -3.587  0.00  0.00     0.003 A 
ATOM      5  C3  PXY d   1       0.247  -1.574  -4.201  0.00  0.00     0.003 A 
ATOM      6  C4  PXY d   1      -0.420  -1.231  -5.347  0.00  0.00    -0.082 A 
ATOM      7  C5  PXY d   1      -0.221  -0.012  -5.893  0.00  0.00     0.003 A 
ATOM      8  C6  PXY d   1       0.659   0.872  -5.276  0.00  0.00     0.003 A 
ENDROOT
TORSDOF 0
ENDMDL
