MODEL 1
REMARK minimizedAffinity -3.06101632
REMARK minimizedRMSD -1
REMARK  0 active torsions:
REMARK  status: ('A' for Active; 'I' for Inactive)
ROOT
ATOM      1  C4' PXY d   1       0.220   5.871  -4.727  0.00  0.00     0.077 C 
ATOM      2  C1' PXY d   1       5.996   5.957  -4.956  0.00  0.00     0.077 C 
ATOM      3  C1  PXY d   1       4.482   5.928  -4.885  0.00  0.00    -0.082 A 
ATOM      4  C2  PXY d   1       3.773   5.992  -6.000  0.00  0.00     0.003 A 
ATOM      5  C3  PXY d   1       2.402   6.000  -5.951  0.00  0.00     0.003 A 
ATOM      6  C4  PXY d   1       1.751   5.887  -4.752  0.00  0.00    -0.082 A 
ATOM      7  C5  PXY d   1       2.467   5.811  -3.611  0.00  0.00     0.003 A 
ATOM      8  C6  PXY d   1       3.857   5.846  -3.679  0.00  0.00     0.003 A 
ENDROOT
TORSDOF 0
ENDMDL
