MODEL 1
REMARK minimizedAffinity 4.33215761
REMARK minimizedRMSD -1
REMARK  0 active torsions:
REMARK  status: ('A' for Active; 'I' for Inactive)
ROOT
ATOM      1  C4' PXY d   1       4.427   2.719   0.402  0.00  0.00     0.077 C 
ATOM      2  C1' PXY d   1      -0.597   0.031   1.375  0.00  0.00     0.077 C 
ATOM      3  C1  PXY d   1       0.717   0.738   1.108  0.00  0.00    -0.082 A 
ATOM      4  C2  PXY d   1       1.788   0.420   1.817  0.00  0.00     0.003 A 
ATOM      5  C3  PXY d   1       2.976   1.073   1.610  0.00  0.00     0.003 A 
ATOM      6  C4  PXY d   1       3.082   2.024   0.631  0.00  0.00    -0.082 A 
ATOM      7  C5  PXY d   1       1.997   2.347  -0.104  0.00  0.00     0.003 A 
ATOM      8  C6  PXY d   1       0.790   1.702   0.150  0.00  0.00     0.003 A 
ENDROOT
TORSDOF 0
ENDMDL
