MODEL 1
REMARK minimizedAffinity 8.32114124
REMARK minimizedRMSD -1
REMARK  0 active torsions:
REMARK  status: ('A' for Active; 'I' for Inactive)
ROOT
ATOM      1  C4' PXY d   1      -3.456   5.947  -4.721  0.00  0.00     0.077 C 
ATOM      2  C1' PXY d   1       2.320   5.992  -4.952  0.00  0.00     0.077 C 
ATOM      3  C1  PXY d   1       0.806   5.975  -4.880  0.00  0.00    -0.082 A 
ATOM      4  C2  PXY d   1       0.097   5.973  -5.997  0.00  0.00     0.003 A 
ATOM      5  C3  PXY d   1      -1.273   5.990  -5.950  0.00  0.00     0.003 A 
ATOM      6  C4  PXY d   1      -1.925   5.955  -4.747  0.00  0.00    -0.082 A 
ATOM      7  C5  PXY d   1      -1.210   5.945  -3.602  0.00  0.00     0.003 A 
ATOM      8  C6  PXY d   1       0.180   5.970  -3.671  0.00  0.00     0.003 A 
ENDROOT
TORSDOF 0
ENDMDL
