MODEL 1
REMARK minimizedAffinity -1.16221738
REMARK minimizedRMSD -1
REMARK  0 active torsions:
REMARK  status: ('A' for Active; 'I' for Inactive)
ROOT
ATOM      1  C4' PXY d   1      -3.740   6.000  -1.749  0.00  0.00     0.077 C 
ATOM      2  C1' PXY d   1       0.832   5.971  -5.286  0.00  0.00     0.077 C 
ATOM      3  C1  PXY d   1      -0.374   5.984  -4.368  0.00  0.00    -0.082 A 
ATOM      4  C2  PXY d   1      -0.198   5.994  -3.057  0.00  0.00     0.003 A 
ATOM      5  C3  PXY d   1      -1.278   5.973  -2.212  0.00  0.00     0.003 A 
ATOM      6  C4  PXY d   1      -2.551   5.996  -2.714  0.00  0.00    -0.082 A 
ATOM      7  C5  PXY d   1      -2.739   5.996  -4.051  0.00  0.00     0.003 A 
ATOM      8  C6  PXY d   1      -1.630   5.976  -4.892  0.00  0.00     0.003 A 
ENDROOT
TORSDOF 0
ENDMDL
