MODEL 1
REMARK minimizedAffinity 2.847651
REMARK minimizedRMSD -1
REMARK  0 active torsions:
REMARK  status: ('A' for Active; 'I' for Inactive)
ROOT
ATOM      1  C4' PXY d   1       1.461   3.283  -5.990  0.00  0.00     0.077 C 
ATOM      2  C1' PXY d   1       6.000   4.391  -2.586  0.00  0.00     0.077 C 
ATOM      3  C1  PXY d   1       4.805   4.092  -3.470  0.00  0.00    -0.082 A 
ATOM      4  C2  PXY d   1       4.888   4.301  -4.774  0.00  0.00     0.003 A 
ATOM      5  C3  PXY d   1       3.806   4.066  -5.584  0.00  0.00     0.003 A 
ATOM      6  C4  PXY d   1       2.646   3.562  -5.061  0.00  0.00    -0.082 A 
ATOM      7  C5  PXY d   1       2.557   3.336  -3.733  0.00  0.00     0.003 A 
ATOM      8  C6  PXY d   1       3.653   3.620  -2.922  0.00  0.00     0.003 A 
ENDROOT
TORSDOF 0
ENDMDL
