MODEL 1
REMARK minimizedAffinity 1.75710464
REMARK minimizedRMSD -1
REMARK  0 active torsions:
REMARK  status: ('A' for Active; 'I' for Inactive)
ROOT
ATOM      1  C4' PXY d   1       1.449  -1.146  -4.324  0.00  0.00     0.077 C 
ATOM      2  C1' PXY d   1      -3.774  -2.333  -2.151  0.00  0.00     0.077 C 
ATOM      3  C1  PXY d   1      -2.401  -2.015  -2.710  0.00  0.00    -0.082 A 
ATOM      4  C2  PXY d   1      -2.210  -2.026  -4.019  0.00  0.00     0.003 A 
ATOM      5  C3  PXY d   1      -0.967  -1.773  -4.541  0.00  0.00     0.003 A 
ATOM      6  C4  PXY d   1       0.078  -1.452  -3.716  0.00  0.00    -0.082 A 
ATOM      7  C5  PXY d   1      -0.113  -1.427  -2.380  0.00  0.00     0.003 A 
ATOM      8  C6  PXY d   1      -1.372  -1.728  -1.868  0.00  0.00     0.003 A 
ENDROOT
TORSDOF 0
ENDMDL
