MODEL 1
REMARK minimizedAffinity 0.596249342
REMARK minimizedRMSD -1
REMARK  0 active torsions:
REMARK  status: ('A' for Active; 'I' for Inactive)
ROOT
ATOM      1  C4' PXY d   1      -2.636   5.921  -2.208  0.00  0.00     0.077 C 
ATOM      2  C1' PXY d   1       1.727   6.000  -6.000  0.00  0.00     0.077 C 
ATOM      3  C1  PXY d   1       0.575   5.985  -5.014  0.00  0.00    -0.082 A 
ATOM      4  C2  PXY d   1       0.826   5.967  -3.715  0.00  0.00     0.003 A 
ATOM      5  C3  PXY d   1      -0.204   5.920  -2.811  0.00  0.00     0.003 A 
ATOM      6  C4  PXY d   1      -1.504   5.946  -3.239  0.00  0.00    -0.082 A 
ATOM      7  C5  PXY d   1      -1.768   5.975  -4.562  0.00  0.00     0.003 A 
ATOM      8  C6  PXY d   1      -0.709   5.980  -5.465  0.00  0.00     0.003 A 
ENDROOT
TORSDOF 0
ENDMDL
