MODEL 1
REMARK minimizedAffinity 6.56755018
REMARK minimizedRMSD -1
REMARK  0 active torsions:
REMARK  status: ('A' for Active; 'I' for Inactive)
ROOT
ATOM      1  C4' PXY d   1      -3.974   5.994  -0.118  0.00  0.00     0.077 C 
ATOM      2  C1' PXY d   1      -1.776   5.984  -5.465  0.00  0.00     0.077 C 
ATOM      3  C1  PXY d   1      -2.341   5.981  -4.058  0.00  0.00    -0.082 A 
ATOM      4  C2  PXY d   1      -3.652   5.969  -3.880  0.00  0.00     0.003 A 
ATOM      5  C3  PXY d   1      -4.181   5.999  -2.615  0.00  0.00     0.003 A 
ATOM      6  C4  PXY d   1      -3.359   5.987  -1.520  0.00  0.00    -0.082 A 
ATOM      7  C5  PXY d   1      -2.020   5.988  -1.694  0.00  0.00     0.003 A 
ATOM      8  C6  PXY d   1      -1.504   5.999  -2.986  0.00  0.00     0.003 A 
ENDROOT
TORSDOF 0
ENDMDL
