MODEL 1
REMARK minimizedAffinity -5.00278711
REMARK minimizedRMSD -1
REMARK  0 active torsions:
REMARK  status: ('A' for Active; 'I' for Inactive)
ROOT
ATOM      1  C   UNL d   1       0.160   0.099  -0.961  0.00  0.00     0.078 C 
ATOM      2  C1  UNL d   1      -0.277   0.035   0.472  0.00  0.00    -0.077 A 
ATOM      3  C2  UNL d   1      -1.622  -0.159   0.807  0.00  0.00    -0.001 A 
ATOM      4  C3  UNL d   1      -2.016  -0.207   2.146  0.00  0.00     0.003 A 
ATOM      5  C4  UNL d   1      -1.071  -0.059   3.159  0.00  0.00    -0.005 A 
ATOM      6  C5  UNL d   1       0.270   0.137   2.835  0.00  0.00     0.003 A 
ATOM      7  C6  UNL d   1       0.666   0.185   1.497  0.00  0.00    -0.001 A 
ENDROOT
TORSDOF 0
ENDMDL
