MODEL 1
REMARK minimizedAffinity -4.67656755
REMARK minimizedRMSD -1
REMARK  0 active torsions:
REMARK  status: ('A' for Active; 'I' for Inactive)
ROOT
ATOM      1  C   UNL d   1      -3.651   0.366   1.716  0.00  0.00     0.078 C 
ATOM      2  C1  UNL d   1      -2.174   0.111   1.775  0.00  0.00    -0.077 A 
ATOM      3  C2  UNL d   1      -1.497   0.071   2.999  0.00  0.00    -0.001 A 
ATOM      4  C3  UNL d   1      -0.120  -0.158   3.038  0.00  0.00     0.003 A 
ATOM      5  C4  UNL d   1       0.591  -0.348   1.855  0.00  0.00    -0.005 A 
ATOM      6  C5  UNL d   1      -0.075  -0.309   0.631  0.00  0.00     0.003 A 
ATOM      7  C6  UNL d   1      -1.451  -0.080   0.590  0.00  0.00    -0.001 A 
ENDROOT
TORSDOF 0
ENDMDL
