MODEL 1
REMARK minimizedAffinity -5.71004248
REMARK minimizedRMSD -1
REMARK  0 active torsions:
REMARK  status: ('A' for Active; 'I' for Inactive)
ROOT
ATOM      1  C   UNL d   1      -0.005  -0.070  -0.968  0.00  0.00     0.078 C 
ATOM      2  C1  UNL d   1      -0.673  -0.167   0.371  0.00  0.00    -0.077 A 
ATOM      3  C2  UNL d   1      -2.064  -0.065   0.492  0.00  0.00    -0.001 A 
ATOM      4  C3  UNL d   1      -2.671  -0.147   1.746  0.00  0.00     0.003 A 
ATOM      5  C4  UNL d   1      -1.895  -0.330   2.888  0.00  0.00    -0.005 A 
ATOM      6  C5  UNL d   1      -0.510  -0.431   2.778  0.00  0.00     0.003 A 
ATOM      7  C6  UNL d   1       0.099  -0.349   1.525  0.00  0.00    -0.001 A 
ENDROOT
TORSDOF 0
ENDMDL
