MODEL 1
REMARK minimizedAffinity -5.60573578
REMARK minimizedRMSD -1
REMARK  0 active torsions:
REMARK  status: ('A' for Active; 'I' for Inactive)
ROOT
ATOM      1  C   UNL d   1       0.288  -0.686  -0.463  0.00  0.00     0.078 C 
ATOM      2  C1  UNL d   1      -0.623  -0.311   0.668  0.00  0.00    -0.077 A 
ATOM      3  C2  UNL d   1      -1.898   0.212   0.425  0.00  0.00    -0.001 A 
ATOM      4  C3  UNL d   1      -2.731   0.565   1.488  0.00  0.00     0.003 A 
ATOM      5  C4  UNL d   1      -2.297   0.400   2.801  0.00  0.00    -0.005 A 
ATOM      6  C5  UNL d   1      -1.029  -0.118   3.054  0.00  0.00     0.003 A 
ATOM      7  C6  UNL d   1      -0.194  -0.472   1.992  0.00  0.00    -0.001 A 
ENDROOT
TORSDOF 0
ENDMDL
