MODEL 1
REMARK minimizedAffinity -4.12967825
REMARK minimizedRMSD -1
REMARK  0 active torsions:
REMARK  status: ('A' for Active; 'I' for Inactive)
ROOT
ATOM      1  C   UNL d   1      -0.509  -0.677   3.128  0.00  0.00     0.078 C 
ATOM      2  C1  UNL d   1      -0.115  -0.249   1.746  0.00  0.00    -0.077 A 
ATOM      3  C2  UNL d   1      -1.017  -0.338   0.679  0.00  0.00    -0.001 A 
ATOM      4  C3  UNL d   1      -0.633   0.054  -0.604  0.00  0.00     0.003 A 
ATOM      5  C4  UNL d   1       0.654   0.537  -0.833  0.00  0.00    -0.005 A 
ATOM      6  C5  UNL d   1       1.559   0.627   0.222  0.00  0.00     0.003 A 
ATOM      7  C6  UNL d   1       1.177   0.235   1.506  0.00  0.00    -0.001 A 
ENDROOT
TORSDOF 0
ENDMDL
