MODEL 1
REMARK minimizedAffinity -3.41231084
REMARK minimizedRMSD -1
REMARK  0 active torsions:
REMARK  status: ('A' for Active; 'I' for Inactive)
ROOT
ATOM      1  C   UNL d   1      -0.408   0.107  -1.045  0.00  0.00     0.078 C 
ATOM      2  C1  UNL d   1      -0.983   0.074   0.340  0.00  0.00    -0.077 A 
ATOM      3  C2  UNL d   1      -2.353   0.266   0.557  0.00  0.00    -0.001 A 
ATOM      4  C3  UNL d   1      -2.872   0.242   1.852  0.00  0.00     0.003 A 
ATOM      5  C4  UNL d   1      -2.029   0.028   2.940  0.00  0.00    -0.005 A 
ATOM      6  C5  UNL d   1      -0.664  -0.162   2.734  0.00  0.00     0.003 A 
ATOM      7  C6  UNL d   1      -0.142  -0.139   1.440  0.00  0.00    -0.001 A 
ENDROOT
TORSDOF 0
ENDMDL
