MODEL 1
REMARK minimizedAffinity -5.38414192
REMARK minimizedRMSD -1
REMARK  0 active torsions:
REMARK  status: ('A' for Active; 'I' for Inactive)
ROOT
ATOM      1  C   UNL d   1      -0.825  -0.873   3.645  0.00  0.00     0.078 C 
ATOM      2  C1  UNL d   1      -0.992  -0.284   2.276  0.00  0.00    -0.077 A 
ATOM      3  C2  UNL d   1       0.102  -0.144   1.413  0.00  0.00    -0.001 A 
ATOM      4  C3  UNL d   1      -0.066   0.416   0.145  0.00  0.00     0.003 A 
ATOM      5  C4  UNL d   1      -1.326   0.842  -0.270  0.00  0.00    -0.005 A 
ATOM      6  C5  UNL d   1      -2.420   0.709   0.583  0.00  0.00     0.003 A 
ATOM      7  C6  UNL d   1      -2.254   0.149   1.851  0.00  0.00    -0.001 A 
ENDROOT
TORSDOF 0
ENDMDL
