MODEL 1
REMARK minimizedAffinity -5.74623156
REMARK minimizedRMSD -1
REMARK  0 active torsions:
REMARK  status: ('A' for Active; 'I' for Inactive)
ROOT
ATOM      1  C   UNL d   1       0.136  -0.087  -0.590  0.00  0.00     0.078 C 
ATOM      2  C1  UNL d   1      -0.743  -0.127   0.624  0.00  0.00    -0.077 A 
ATOM      3  C2  UNL d   1      -2.098   0.216   0.546  0.00  0.00    -0.001 A 
ATOM      4  C3  UNL d   1      -2.901   0.185   1.687  0.00  0.00     0.003 A 
ATOM      5  C4  UNL d   1      -2.358  -0.189   2.915  0.00  0.00    -0.005 A 
ATOM      6  C5  UNL d   1      -1.010  -0.530   3.003  0.00  0.00     0.003 A 
ATOM      7  C6  UNL d   1      -0.205  -0.498   1.863  0.00  0.00    -0.001 A 
ENDROOT
TORSDOF 0
ENDMDL
