MODEL 1
REMARK minimizedAffinity -5.23243618
REMARK minimizedRMSD -1
REMARK  0 active torsions:
REMARK  status: ('A' for Active; 'I' for Inactive)
ROOT
ATOM      1  C   UNL d   1      -3.295   0.212   1.816  0.00  0.00     0.078 C 
ATOM      2  C1  UNL d   1      -1.810   0.119   1.628  0.00  0.00    -0.077 A 
ATOM      3  C2  UNL d   1      -0.961  -0.139   2.711  0.00  0.00    -0.001 A 
ATOM      4  C3  UNL d   1       0.420  -0.213   2.523  0.00  0.00     0.003 A 
ATOM      5  C4  UNL d   1       0.964  -0.028   1.254  0.00  0.00    -0.005 A 
ATOM      6  C5  UNL d   1       0.127   0.231   0.170  0.00  0.00     0.003 A 
ATOM      7  C6  UNL d   1      -1.254   0.306   0.357  0.00  0.00    -0.001 A 
ENDROOT
TORSDOF 0
ENDMDL
