MODEL 1
REMARK minimizedAffinity -5.0932126
REMARK minimizedRMSD -1
REMARK  0 active torsions:
REMARK  status: ('A' for Active; 'I' for Inactive)
ROOT
ATOM      1  C   UNL d   1      -3.707  -0.036   2.226  0.00  0.00     0.078 C 
ATOM      2  C1  UNL d   1      -2.250  -0.140   1.891  0.00  0.00    -0.077 A 
ATOM      3  C2  UNL d   1      -1.313  -0.524   2.858  0.00  0.00    -0.001 A 
ATOM      4  C3  UNL d   1       0.043  -0.607   2.534  0.00  0.00     0.003 A 
ATOM      5  C4  UNL d   1       0.473  -0.306   1.243  0.00  0.00    -0.005 A 
ATOM      6  C5  UNL d   1      -0.451   0.079   0.275  0.00  0.00     0.003 A 
ATOM      7  C6  UNL d   1      -1.807   0.162   0.597  0.00  0.00    -0.001 A 
ENDROOT
TORSDOF 0
ENDMDL
