MODEL 1
REMARK minimizedAffinity -2.87309194
REMARK minimizedRMSD -1
REMARK  0 active torsions:
REMARK  status: ('A' for Active; 'I' for Inactive)
ROOT
ATOM      1  C   UNL d   1      -0.378   0.418  -0.152  0.00  0.00     0.078 C 
ATOM      2  C1  UNL d   1       0.046  -0.148  -1.474  0.00  0.00    -0.077 A 
ATOM      3  C2  UNL d   1      -0.668  -1.193  -2.073  0.00  0.00    -0.001 A 
ATOM      4  C3  UNL d   1      -0.256  -1.717  -3.300  0.00  0.00     0.003 A 
ATOM      5  C4  UNL d   1       0.871  -1.203  -3.937  0.00  0.00    -0.005 A 
ATOM      6  C5  UNL d   1       1.589  -0.164  -3.348  0.00  0.00     0.003 A 
ATOM      7  C6  UNL d   1       1.179   0.361  -2.121  0.00  0.00    -0.001 A 
ENDROOT
TORSDOF 0
ENDMDL
