MODEL 1
REMARK minimizedAffinity -4.14773369
REMARK minimizedRMSD -1
REMARK  0 active torsions:
REMARK  status: ('A' for Active; 'I' for Inactive)
ROOT
ATOM      1  C   UNL d   1       0.607   0.059  -1.962  0.00  0.00     0.078 C 
ATOM      2  C1  UNL d   1       0.395  -0.012  -0.479  0.00  0.00    -0.077 A 
ATOM      3  C2  UNL d   1      -0.776  -0.560   0.057  0.00  0.00    -0.001 A 
ATOM      4  C3  UNL d   1      -0.964  -0.610   1.439  0.00  0.00     0.003 A 
ATOM      5  C4  UNL d   1       0.015  -0.113   2.297  0.00  0.00    -0.005 A 
ATOM      6  C5  UNL d   1       1.183   0.436   1.772  0.00  0.00     0.003 A 
ATOM      7  C6  UNL d   1       1.373   0.488   0.391  0.00  0.00    -0.001 A 
ENDROOT
TORSDOF 0
ENDMDL
