MODEL 1
REMARK minimizedAffinity -5.33457232
REMARK minimizedRMSD -1
REMARK  0 active torsions:
REMARK  status: ('A' for Active; 'I' for Inactive)
ROOT
ATOM      1  C   UNL d   1      -0.714   0.369  -0.969  0.00  0.00     0.078 C 
ATOM      2  C1  UNL d   1      -0.824   0.035   0.489  0.00  0.00    -0.077 A 
ATOM      3  C2  UNL d   1      -2.073  -0.158   1.092  0.00  0.00    -0.001 A 
ATOM      4  C3  UNL d   1      -2.162  -0.458   2.452  0.00  0.00     0.003 A 
ATOM      5  C4  UNL d   1      -1.005  -0.568   3.221  0.00  0.00    -0.005 A 
ATOM      6  C5  UNL d   1       0.242  -0.376   2.630  0.00  0.00     0.003 A 
ATOM      7  C6  UNL d   1       0.333  -0.075   1.270  0.00  0.00    -0.001 A 
ENDROOT
TORSDOF 0
ENDMDL
