MODEL 1
REMARK minimizedAffinity -5.89370537
REMARK minimizedRMSD -1
REMARK  0 active torsions:
REMARK  status: ('A' for Active; 'I' for Inactive)
ROOT
ATOM      1  C   UNL d   1      -0.101   0.529  -0.835  0.00  0.00     0.078 C 
ATOM      2  C1  UNL d   1      -0.624   0.344   0.558  0.00  0.00    -0.077 A 
ATOM      3  C2  UNL d   1      -1.993   0.172   0.798  0.00  0.00    -0.001 A 
ATOM      4  C3  UNL d   1      -2.466   0.009   2.100  0.00  0.00     0.003 A 
ATOM      5  C4  UNL d   1      -1.578   0.019   3.174  0.00  0.00    -0.005 A 
ATOM      6  C5  UNL d   1      -0.215   0.192   2.946  0.00  0.00     0.003 A 
ATOM      7  C6  UNL d   1       0.261   0.354   1.643  0.00  0.00    -0.001 A 
ENDROOT
TORSDOF 0
ENDMDL
