MODEL 1
REMARK minimizedAffinity -5.59511852
REMARK minimizedRMSD -1
REMARK  0 active torsions:
REMARK  status: ('A' for Active; 'I' for Inactive)
ROOT
ATOM      1  C   UNL d   1      -2.909   0.303   1.898  0.00  0.00     0.078 C 
ATOM      2  C1  UNL d   1      -1.455   0.346   1.533  0.00  0.00    -0.077 A 
ATOM      3  C2  UNL d   1      -1.050   0.433   0.196  0.00  0.00    -0.001 A 
ATOM      4  C3  UNL d   1       0.307   0.463  -0.130  0.00  0.00     0.003 A 
ATOM      5  C4  UNL d   1       1.270   0.406   0.876  0.00  0.00    -0.005 A 
ATOM      6  C5  UNL d   1       0.876   0.317   2.209  0.00  0.00     0.003 A 
ATOM      7  C6  UNL d   1      -0.480   0.287   2.537  0.00  0.00    -0.001 A 
ENDROOT
TORSDOF 0
ENDMDL
