MODEL 1
REMARK minimizedAffinity -5.21502209
REMARK minimizedRMSD -1
REMARK  0 active torsions:
REMARK  status: ('A' for Active; 'I' for Inactive)
ROOT
ATOM      1  C   UNL d   1       0.047   0.239  -0.797  0.00  0.00     0.078 C 
ATOM      2  C1  UNL d   1      -0.364  -0.115   0.601  0.00  0.00    -0.077 A 
ATOM      3  C2  UNL d   1      -1.715  -0.175   0.962  0.00  0.00    -0.001 A 
ATOM      4  C3  UNL d   1      -2.083  -0.496   2.270  0.00  0.00     0.003 A 
ATOM      5  C4  UNL d   1      -1.105  -0.758   3.227  0.00  0.00    -0.005 A 
ATOM      6  C5  UNL d   1       0.242  -0.699   2.878  0.00  0.00     0.003 A 
ATOM      7  C6  UNL d   1       0.612  -0.378   1.571  0.00  0.00    -0.001 A 
ENDROOT
TORSDOF 0
ENDMDL
