MODEL 1
REMARK minimizedAffinity -5.5780344
REMARK minimizedRMSD -1
REMARK  0 active torsions:
REMARK  status: ('A' for Active; 'I' for Inactive)
ROOT
ATOM      1  C   UNL d   1      -3.797   0.306   1.758  0.00  0.00     0.078 C 
ATOM      2  C1  UNL d   1      -2.321   0.040   1.792  0.00  0.00    -0.077 A 
ATOM      3  C2  UNL d   1      -1.673  -0.278   2.992  0.00  0.00    -0.001 A 
ATOM      4  C3  UNL d   1      -0.298  -0.514   3.010  0.00  0.00     0.003 A 
ATOM      5  C4  UNL d   1       0.442  -0.433   1.832  0.00  0.00    -0.005 A 
ATOM      6  C5  UNL d   1      -0.194  -0.115   0.634  0.00  0.00     0.003 A 
ATOM      7  C6  UNL d   1      -1.569   0.121   0.613  0.00  0.00    -0.001 A 
ENDROOT
TORSDOF 0
ENDMDL
