MODEL 1
REMARK minimizedAffinity -2.61043906
REMARK minimizedRMSD -1
REMARK  0 active torsions:
REMARK  status: ('A' for Active; 'I' for Inactive)
ROOT
ATOM      1  C   UNL d   1       0.261   0.265  -1.576  0.00  0.00     0.078 C 
ATOM      2  C1  UNL d   1       0.507   0.287  -0.097  0.00  0.00    -0.077 A 
ATOM      3  C2  UNL d   1      -0.548   0.465   0.807  0.00  0.00    -0.001 A 
ATOM      4  C3  UNL d   1      -0.303   0.494   2.181  0.00  0.00     0.003 A 
ATOM      5  C4  UNL d   1       0.996   0.345   2.663  0.00  0.00    -0.005 A 
ATOM      6  C5  UNL d   1       2.052   0.169   1.771  0.00  0.00     0.003 A 
ATOM      7  C6  UNL d   1       1.809   0.141   0.397  0.00  0.00    -0.001 A 
ENDROOT
TORSDOF 0
ENDMDL
