MODEL 1
REMARK minimizedAffinity 2.18490219
REMARK minimizedRMSD -1
REMARK  0 active torsions:
REMARK  status: ('A' for Active; 'I' for Inactive)
ROOT
ATOM      1  C1  BNZ d   1       1.490  -1.488   4.960  0.00  0.00     0.000 A 
ATOM      2  C2  BNZ d   1       1.135  -0.316   4.346  0.00  0.00     0.000 A 
ATOM      3  C3  BNZ d   1       1.500  -0.066   3.053  0.00  0.00     0.000 A 
ATOM      4  C4  BNZ d   1       2.252  -0.968   2.389  0.00  0.00     0.000 A 
ATOM      5  C5  BNZ d   1       2.625  -2.150   2.997  0.00  0.00     0.000 A 
ATOM      6  C6  BNZ d   1       2.223  -2.416   4.286  0.00  0.00     0.000 A 
ENDROOT
TORSDOF 0
ENDMDL
