MODEL 1
REMARK minimizedAffinity 2.72037196
REMARK minimizedRMSD -1
REMARK  0 active torsions:
REMARK  status: ('A' for Active; 'I' for Inactive)
ROOT
ATOM      1  C1  BNZ d   1       0.013  -0.051   1.760  0.00  0.00     0.000 A 
ATOM      2  C2  BNZ d   1       1.041  -0.955   1.740  0.00  0.00     0.000 A 
ATOM      3  C3  BNZ d   1       0.826  -2.250   1.357  0.00  0.00     0.000 A 
ATOM      4  C4  BNZ d   1      -0.421  -2.648   1.033  0.00  0.00     0.000 A 
ATOM      5  C5  BNZ d   1      -1.469  -1.750   1.057  0.00  0.00     0.000 A 
ATOM      6  C6  BNZ d   1      -1.243  -0.438   1.405  0.00  0.00     0.000 A 
ENDROOT
TORSDOF 0
ENDMDL
