MODEL 1
REMARK minimizedAffinity 4.36957264
REMARK minimizedRMSD -1
REMARK  0 active torsions:
REMARK  status: ('A' for Active; 'I' for Inactive)
ROOT
ATOM      1  C1  BNZ d   1      -1.566  -1.124   0.914  0.00  0.00     0.000 A 
ATOM      2  C2  BNZ d   1      -0.552  -2.002   1.191  0.00  0.00     0.000 A 
ATOM      3  C3  BNZ d   1       0.743  -1.571   1.278  0.00  0.00     0.000 A 
ATOM      4  C4  BNZ d   1       1.026  -0.272   1.050  0.00  0.00     0.000 A 
ATOM      5  C5  BNZ d   1       0.016   0.623   0.761  0.00  0.00     0.000 A 
ATOM      6  C6  BNZ d   1      -1.290   0.194   0.712  0.00  0.00     0.000 A 
ENDROOT
TORSDOF 0
ENDMDL
