MODEL 1
REMARK minimizedAffinity -3.7598145
REMARK minimizedRMSD -1
REMARK  0 active torsions:
REMARK  status: ('A' for Active; 'I' for Inactive)
ROOT
ATOM      1  C1  BNZ d   1      -3.124  -1.619  -1.873  0.00  0.00     0.000 A 
ATOM      2  C2  BNZ d   1      -2.559  -2.522  -2.733  0.00  0.00     0.000 A 
ATOM      3  C3  BNZ d   1      -2.173  -3.758  -2.296  0.00  0.00     0.000 A 
ATOM      4  C4  BNZ d   1      -2.314  -4.074  -0.992  0.00  0.00     0.000 A 
ATOM      5  C5  BNZ d   1      -2.873  -3.170  -0.110  0.00  0.00     0.000 A 
ATOM      6  C6  BNZ d   1      -3.297  -1.942  -0.562  0.00  0.00     0.000 A 
ENDROOT
TORSDOF 0
ENDMDL
