MODEL 1
REMARK minimizedAffinity 4.84386492
REMARK minimizedRMSD -1
REMARK  0 active torsions:
REMARK  status: ('A' for Active; 'I' for Inactive)
ROOT
ATOM      1  C1  BNZ d   1      -3.464  -3.159  -1.418  0.00  0.00     0.000 A 
ATOM      2  C2  BNZ d   1      -2.642  -4.137  -0.925  0.00  0.00     0.000 A 
ATOM      3  C3  BNZ d   1      -1.865  -3.910   0.176  0.00  0.00     0.000 A 
ATOM      4  C4  BNZ d   1      -1.880  -2.694   0.759  0.00  0.00     0.000 A 
ATOM      5  C5  BNZ d   1      -2.696  -1.694   0.268  0.00  0.00     0.000 A 
ATOM      6  C6  BNZ d   1      -3.507  -1.939  -0.817  0.00  0.00     0.000 A 
ENDROOT
TORSDOF 0
ENDMDL
