MODEL 1
REMARK minimizedAffinity 3.6457231
REMARK minimizedRMSD -1
REMARK  0 active torsions:
REMARK  status: ('A' for Active; 'I' for Inactive)
ROOT
ATOM      1  C1  BNZ d   1       1.895  -1.580   1.335  0.00  0.00     0.000 A 
ATOM      2  C2  BNZ d   1       1.196  -1.114   0.253  0.00  0.00     0.000 A 
ATOM      3  C3  BNZ d   1       0.384  -0.020   0.362  0.00  0.00     0.000 A 
ATOM      4  C4  BNZ d   1       0.240   0.582   1.560  0.00  0.00     0.000 A 
ATOM      5  C5  BNZ d   1       0.930   0.119   2.662  0.00  0.00     0.000 A 
ATOM      6  C6  BNZ d   1       1.777  -0.959   2.540  0.00  0.00     0.000 A 
ENDROOT
TORSDOF 0
ENDMDL
