MODEL 1
REMARK minimizedAffinity 1.75270081
REMARK minimizedRMSD -1
REMARK  0 active torsions:
REMARK  status: ('A' for Active; 'I' for Inactive)
ROOT
ATOM      1  C1  BNZ d   1      -1.467  -1.442   1.124  0.00  0.00     0.000 A 
ATOM      2  C2  BNZ d   1      -0.882  -2.666   0.932  0.00  0.00     0.000 A 
ATOM      3  C3  BNZ d   1       0.472  -2.820   1.041  0.00  0.00     0.000 A 
ATOM      4  C4  BNZ d   1       1.242  -1.744   1.302  0.00  0.00     0.000 A 
ATOM      5  C5  BNZ d   1       0.669  -0.502   1.489  0.00  0.00     0.000 A 
ATOM      6  C6  BNZ d   1      -0.698  -0.358   1.417  0.00  0.00     0.000 A 
ENDROOT
TORSDOF 0
ENDMDL
