MODEL 1
REMARK minimizedAffinity 3.94456363
REMARK minimizedRMSD -1
REMARK  0 active torsions:
REMARK  status: ('A' for Active; 'I' for Inactive)
ROOT
ATOM      1  C1  BNZ d   1      -3.570   2.975  -4.816  0.00  0.00     0.000 A 
ATOM      2  C2  BNZ d   1      -3.668   4.307  -5.121  0.00  0.00     0.000 A 
ATOM      3  C3  BNZ d   1      -4.035   5.218  -4.171  0.00  0.00     0.000 A 
ATOM      4  C4  BNZ d   1      -4.343   4.793  -2.929  0.00  0.00     0.000 A 
ATOM      5  C5  BNZ d   1      -4.258   3.453  -2.607  0.00  0.00     0.000 A 
ATOM      6  C6  BNZ d   1      -3.851   2.543  -3.556  0.00  0.00     0.000 A 
ENDROOT
TORSDOF 0
ENDMDL
