MODEL 1
REMARK minimizedAffinity -1.28157556
REMARK minimizedRMSD -1
REMARK  0 active torsions:
REMARK  status: ('A' for Active; 'I' for Inactive)
ROOT
ATOM      1  C1  BNZ d   1       5.977  -3.047  -6.000  0.00  0.00     0.000 A 
ATOM      2  C2  BNZ d   1       5.941  -1.678  -6.000  0.00  0.00     0.000 A 
ATOM      3  C3  BNZ d   1       5.376  -0.993  -4.961  0.00  0.00     0.000 A 
ATOM      4  C4  BNZ d   1       4.814  -1.677  -3.943  0.00  0.00     0.000 A 
ATOM      5  C5  BNZ d   1       4.834  -3.057  -3.933  0.00  0.00     0.000 A 
ATOM      6  C6  BNZ d   1       5.437  -3.743  -4.962  0.00  0.00     0.000 A 
ENDROOT
TORSDOF 0
ENDMDL
