MODEL 1
REMARK minimizedAffinity 11.0434332
REMARK minimizedRMSD -1
REMARK  0 active torsions:
REMARK  status: ('A' for Active; 'I' for Inactive)
ROOT
ATOM      1  N1  IND d   1       0.785  -4.573   5.999  0.00  0.00    -0.196 N 
ATOM      2  C2  IND d   1       1.351  -5.817   5.994  0.00  0.00     0.054 A 
ATOM      3  C3  IND d   1       2.515  -5.801   5.307  0.00  0.00    -0.031 A 
ATOM      4  C4  IND d   1       3.731  -3.823   4.195  0.00  0.00     0.051 A 
ATOM      5  C5  IND d   1       3.587  -2.496   3.905  0.00  0.00    -0.031 A 
ATOM      6  C6  IND d   1       2.480  -1.777   4.308  0.00  0.00     0.015 A 
ATOM      7  C7  IND d   1       1.477  -2.360   5.030  0.00  0.00    -0.016 A 
ATOM      8  C8  IND d   1       1.617  -3.710   5.321  0.00  0.00    -0.047 A 
ATOM      9  C9  IND d   1       2.718  -4.454   4.877  0.00  0.00    -0.096 A 
ATOM     10  HN1 IND d   1       0.035  -4.364   6.365  0.00  0.00     0.298 HD
ENDROOT
TORSDOF 0
ENDMDL
