MODEL 1
REMARK minimizedAffinity 0.843051136
REMARK minimizedRMSD -1
REMARK  0 active torsions:
REMARK  status: ('A' for Active; 'I' for Inactive)
ROOT
ATOM      1  N1  IND d   1       1.954  -1.524   4.518  0.00  0.00    -0.196 N 
ATOM      2  C2  IND d   1       1.890  -0.982   3.265  0.00  0.00     0.054 A 
ATOM      3  C3  IND d   1       3.132  -0.823   2.757  0.00  0.00    -0.031 A 
ATOM      4  C4  IND d   1       5.408  -1.481   3.764  0.00  0.00     0.051 A 
ATOM      5  C5  IND d   1       5.980  -1.975   4.903  0.00  0.00    -0.031 A 
ATOM      6  C6  IND d   1       5.223  -2.355   5.993  0.00  0.00     0.015 A 
ATOM      7  C7  IND d   1       3.860  -2.264   5.980  0.00  0.00    -0.016 A 
ATOM      8  C8  IND d   1       3.277  -1.756   4.828  0.00  0.00    -0.047 A 
ATOM      9  C9  IND d   1       4.042  -1.329   3.735  0.00  0.00    -0.096 A 
ATOM     10  HN1 IND d   1       1.282  -1.693   5.027  0.00  0.00     0.298 HD
ENDROOT
TORSDOF 0
ENDMDL
