MODEL 1
REMARK minimizedAffinity 10.2472773
REMARK minimizedRMSD -1
REMARK  0 active torsions:
REMARK  status: ('A' for Active; 'I' for Inactive)
ROOT
ATOM      1  N1  IND d   1       2.214  -5.936   4.759  0.00  0.00    -0.196 N 
ATOM      2  C2  IND d   1       1.304  -5.991   5.778  0.00  0.00     0.054 A 
ATOM      3  C3  IND d   1       0.772  -4.768   6.000  0.00  0.00    -0.031 A 
ATOM      4  C4  IND d   1       1.174  -2.557   4.743  0.00  0.00     0.051 A 
ATOM      5  C5  IND d   1       1.945  -2.001   3.761  0.00  0.00    -0.031 A 
ATOM      6  C6  IND d   1       2.862  -2.744   3.046  0.00  0.00     0.015 A 
ATOM      7  C7  IND d   1       3.035  -4.079   3.279  0.00  0.00    -0.016 A 
ATOM      8  C8  IND d   1       2.258  -4.646   4.280  0.00  0.00    -0.047 A 
ATOM      9  C9  IND d   1       1.357  -3.888   5.038  0.00  0.00    -0.096 A 
ATOM     10  HN1 IND d   1       2.681  -6.597   4.467  0.00  0.00     0.298 HD
ENDROOT
TORSDOF 0
ENDMDL
