MODEL 1
REMARK minimizedAffinity 15.1940784
REMARK minimizedRMSD -1
REMARK  0 active torsions:
REMARK  status: ('A' for Active; 'I' for Inactive)
ROOT
ATOM      1  N1  IND d   1       0.850  -1.806   3.798  0.00  0.00    -0.196 N 
ATOM      2  C2  IND d   1       1.874  -1.100   3.230  0.00  0.00     0.054 A 
ATOM      3  C3  IND d   1       2.933  -1.909   3.002  0.00  0.00    -0.031 A 
ATOM      4  C4  IND d   1       3.169  -4.443   3.388  0.00  0.00     0.051 A 
ATOM      5  C5  IND d   1       2.513  -5.517   3.921  0.00  0.00    -0.031 A 
ATOM      6  C6  IND d   1       1.242  -5.407   4.449  0.00  0.00     0.015 A 
ATOM      7  C7  IND d   1       0.573  -4.216   4.452  0.00  0.00    -0.016 A 
ATOM      8  C8  IND d   1       1.239  -3.122   3.918  0.00  0.00    -0.047 A 
ATOM      9  C9  IND d   1       2.545  -3.218   3.420  0.00  0.00    -0.096 A 
ATOM     10  HN1 IND d   1       0.091  -1.482   4.040  0.00  0.00     0.298 HD
ENDROOT
TORSDOF 0
ENDMDL
