MODEL 1
REMARK minimizedAffinity 9.84595871
REMARK minimizedRMSD -1
REMARK  0 active torsions:
REMARK  status: ('A' for Active; 'I' for Inactive)
ROOT
ATOM      1  N1  IND d   1       2.516  -4.438   4.123  0.00  0.00    -0.196 N 
ATOM      2  C2  IND d   1       1.759  -3.332   4.392  0.00  0.00     0.054 A 
ATOM      3  C3  IND d   1       2.482  -2.207   4.193  0.00  0.00    -0.031 A 
ATOM      4  C4  IND d   1       4.894  -1.944   3.332  0.00  0.00     0.051 A 
ATOM      5  C5  IND d   1       6.000  -2.670   2.987  0.00  0.00    -0.031 A 
ATOM      6  C6  IND d   1       6.000  -4.050   3.000  0.00  0.00     0.015 A 
ATOM      7  C7  IND d   1       4.886  -4.759   3.350  0.00  0.00    -0.016 A 
ATOM      8  C8  IND d   1       3.763  -4.025   3.708  0.00  0.00    -0.047 A 
ATOM      9  C9  IND d   1       3.770  -2.625   3.737  0.00  0.00    -0.096 A 
ATOM     10  HN1 IND d   1       2.257  -5.254   4.200  0.00  0.00     0.298 HD
ENDROOT
TORSDOF 0
ENDMDL
