MODEL 1
REMARK minimizedAffinity 10.8691025
REMARK minimizedRMSD -1
REMARK  0 active torsions:
REMARK  status: ('A' for Active; 'I' for Inactive)
ROOT
ATOM      1  N1  IND d   1      -3.214  -1.146  -4.691  0.00  0.00    -0.196 N 
ATOM      2  C2  IND d   1      -3.474  -0.610  -3.461  0.00  0.00     0.054 A 
ATOM      3  C3  IND d   1      -4.504  -1.258  -2.873  0.00  0.00    -0.031 A 
ATOM      4  C4  IND d   1      -5.845  -3.291  -3.705  0.00  0.00     0.051 A 
ATOM      5  C5  IND d   1      -5.999  -4.110  -4.789  0.00  0.00    -0.031 A 
ATOM      6  C6  IND d   1      -5.215  -3.982  -5.917  0.00  0.00     0.015 A 
ATOM      7  C7  IND d   1      -4.236  -3.033  -5.999  0.00  0.00    -0.016 A 
ATOM      8  C8  IND d   1      -4.081  -2.195  -4.904  0.00  0.00    -0.047 A 
ATOM      9  C9  IND d   1      -4.903  -2.293  -3.773  0.00  0.00    -0.096 A 
ATOM     10  HN1 IND d   1      -2.611  -0.873  -5.240  0.00  0.00     0.298 HD
ENDROOT
TORSDOF 0
ENDMDL
