MODEL 1
REMARK minimizedAffinity 11.4520044
REMARK minimizedRMSD -1
REMARK  0 active torsions:
REMARK  status: ('A' for Active; 'I' for Inactive)
ROOT
ATOM      1  N1  IND d   1      -2.945   1.867  -1.704  0.00  0.00    -0.196 N 
ATOM      2  C2  IND d   1      -3.783   1.860  -2.784  0.00  0.00     0.054 A 
ATOM      3  C3  IND d   1      -5.063   2.042  -2.388  0.00  0.00    -0.031 A 
ATOM      4  C4  IND d   1      -5.999   2.474  -0.029  0.00  0.00     0.051 A 
ATOM      5  C5  IND d   1      -5.625   2.534   1.284  0.00  0.00    -0.031 A 
ATOM      6  C6  IND d   1      -4.312   2.374   1.676  0.00  0.00     0.015 A 
ATOM      7  C7  IND d   1      -3.318   2.159   0.764  0.00  0.00    -0.016 A 
ATOM      8  C8  IND d   1      -3.695   2.090  -0.569  0.00  0.00    -0.047 A 
ATOM      9  C9  IND d   1      -5.032   2.209  -0.970  0.00  0.00    -0.096 A 
ATOM     10  HN1 IND d   1      -2.094   1.752  -1.729  0.00  0.00     0.298 HD
ENDROOT
TORSDOF 0
ENDMDL
