MODEL 1
REMARK minimizedAffinity 2.01438189
REMARK minimizedRMSD -1
REMARK  0 active torsions:
REMARK  status: ('A' for Active; 'I' for Inactive)
ROOT
ATOM      1  N1  IND d   1       3.994  -0.292   1.066  0.00  0.00    -0.196 N 
ATOM      2  C2  IND d   1       3.396   0.890   0.727  0.00  0.00     0.054 A 
ATOM      3  C3  IND d   1       2.521   1.267   1.686  0.00  0.00    -0.031 A 
ATOM      4  C4  IND d   1       1.984   0.149   3.941  0.00  0.00     0.051 A 
ATOM      5  C5  IND d   1       2.251  -0.970   4.680  0.00  0.00    -0.031 A 
ATOM      6  C6  IND d   1       3.132  -1.938   4.244  0.00  0.00     0.015 A 
ATOM      7  C7  IND d   1       3.791  -1.817   3.053  0.00  0.00    -0.016 A 
ATOM      8  C8  IND d   1       3.517  -0.686   2.298  0.00  0.00    -0.047 A 
ATOM      9  C9  IND d   1       2.592   0.279   2.715  0.00  0.00    -0.096 A 
ATOM     10  HN1 IND d   1       4.570  -0.718   0.591  0.00  0.00     0.298 HD
ENDROOT
TORSDOF 0
ENDMDL
