MODEL 1
REMARK minimizedAffinity -6.3120327
REMARK minimizedRMSD -1
REMARK  3 active torsions:
REMARK  status: ('A' for Active; 'I' for Inactive)
REMARK    1  A    between atoms: C3'_2  and  C2'_3 
REMARK    2  A    between atoms: C2'_3  and  C1'_4 
REMARK    3  A    between atoms: C1'_4  and  C1_5 
ROOT
ATOM      1  C1  N4B d   1      -0.113  -0.399   0.631  0.00  0.00    -0.075 A 
ATOM      2  C2  N4B d   1      -0.363  -1.398   1.597  0.00  0.00     0.002 A 
ATOM      3  C3  N4B d   1      -1.548  -2.091   1.577  0.00  0.00     0.002 A 
ATOM      4  C4  N4B d   1      -2.502  -1.791   0.615  0.00  0.00    -0.004 A 
ATOM      5  C5  N4B d   1      -2.241  -0.842  -0.330  0.00  0.00     0.002 A 
ATOM      6  C6  N4B d   1      -1.053  -0.140  -0.324  0.00  0.00     0.002 A 
ENDROOT
BRANCH   1   7
ATOM      7  C1' N4B d   1       1.132   0.445   0.666  0.00  0.00     0.057 C 
BRANCH   7   8
ATOM      8  C2' N4B d   1       1.421   0.853   2.107  0.00  0.00     0.009 C 
BRANCH   8   9
ATOM      9  C3' N4B d   1       2.302   2.088   2.183  0.00  0.00     0.004 C 
ATOM     10  C4' N4B d   1       3.069   2.333   0.917  0.00  0.00     0.003 C 
ENDBRANCH   8   9
ENDBRANCH   7   8
ENDBRANCH   1   7
TORSDOF 3
ENDMDL
