MODEL 1
REMARK minimizedAffinity 1.87454939
REMARK minimizedRMSD -1
REMARK  3 active torsions:
REMARK  status: ('A' for Active; 'I' for Inactive)
REMARK    1  A    between atoms: C3'_2  and  C2'_3 
REMARK    2  A    between atoms: C2'_3  and  C1'_4 
REMARK    3  A    between atoms: C1'_4  and  C1_5 
ROOT
ATOM      1  C1  N4B d   1       0.372  -0.220  -0.723  0.00  0.00    -0.075 A 
ATOM      2  C2  N4B d   1       1.240  -0.544   0.343  0.00  0.00     0.002 A 
ATOM      3  C3  N4B d   1       0.764  -1.239   1.428  0.00  0.00     0.002 A 
ATOM      4  C4  N4B d   1      -0.574  -1.601   1.478  0.00  0.00    -0.004 A 
ATOM      5  C5  N4B d   1      -1.399  -1.306   0.432  0.00  0.00     0.002 A 
ATOM      6  C6  N4B d   1      -0.934  -0.612  -0.666  0.00  0.00     0.002 A 
ENDROOT
BRANCH   1   7
ATOM      7  C1' N4B d   1       0.826   0.613  -1.891  0.00  0.00     0.057 C 
BRANCH   7   8
ATOM      8  C2' N4B d   1      -0.365   0.886  -2.804  0.00  0.00     0.009 C 
BRANCH   8   9
ATOM      9  C3' N4B d   1      -0.795   2.342  -2.756  0.00  0.00     0.004 C 
ATOM     10  C4' N4B d   1      -1.871   2.663  -3.750  0.00  0.00     0.003 C 
ENDBRANCH   8   9
ENDBRANCH   7   8
ENDBRANCH   1   7
TORSDOF 3
ENDMDL
