MODEL 1
REMARK minimizedAffinity 0.200828969
REMARK minimizedRMSD -1
REMARK  3 active torsions:
REMARK  status: ('A' for Active; 'I' for Inactive)
REMARK    1  A    between atoms: C3'_2  and  C2'_3 
REMARK    2  A    between atoms: C2'_3  and  C1'_4 
REMARK    3  A    between atoms: C1'_4  and  C1_5 
ROOT
ATOM      1  C1  N4B d   1       1.022   0.825  -0.068  0.00  0.00    -0.075 A 
ATOM      2  C2  N4B d   1       2.308   1.110  -0.578  0.00  0.00     0.002 A 
ATOM      3  C3  N4B d   1       3.009   2.193  -0.106  0.00  0.00     0.002 A 
ATOM      4  C4  N4B d   1       2.440   3.012   0.857  0.00  0.00    -0.004 A 
ATOM      5  C5  N4B d   1       1.208   2.716   1.362  0.00  0.00     0.002 A 
ATOM      6  C6  N4B d   1       0.493   1.628   0.901  0.00  0.00     0.002 A 
ENDROOT
BRANCH   1   7
ATOM      7  C1' N4B d   1       0.182  -0.297  -0.614  0.00  0.00     0.057 C 
BRANCH   7   8
ATOM      8  C2' N4B d   1      -1.100   0.279  -1.207  0.00  0.00     0.009 C 
BRANCH   8   9
ATOM      9  C3' N4B d   1      -2.090  -0.809  -1.586  0.00  0.00     0.004 C 
ATOM     10  C4' N4B d   1      -3.052  -1.129  -0.482  0.00  0.00     0.003 C 
ENDBRANCH   8   9
ENDBRANCH   7   8
ENDBRANCH   1   7
TORSDOF 3
ENDMDL
