MODEL 1
REMARK minimizedAffinity -2.65029478
REMARK minimizedRMSD -1
REMARK  3 active torsions:
REMARK  status: ('A' for Active; 'I' for Inactive)
REMARK    1  A    between atoms: C3'_2  and  C2'_3 
REMARK    2  A    between atoms: C2'_3  and  C1'_4 
REMARK    3  A    between atoms: C1'_4  and  C1_5 
ROOT
ATOM      1  C1  N4B d   1       0.221   0.434  -0.359  0.00  0.00    -0.075 A 
ATOM      2  C2  N4B d   1      -0.442   0.783  -1.556  0.00  0.00     0.002 A 
ATOM      3  C3  N4B d   1      -1.605   0.142  -1.908  0.00  0.00     0.002 A 
ATOM      4  C4  N4B d   1      -2.110  -0.859  -1.093  0.00  0.00    -0.004 A 
ATOM      5  C5  N4B d   1      -1.477  -1.172   0.075  0.00  0.00     0.002 A 
ATOM      6  C6  N4B d   1      -0.310  -0.533   0.443  0.00  0.00     0.002 A 
ENDROOT
BRANCH   1   7
ATOM      7  C1' N4B d   1       1.540   1.047   0.025  0.00  0.00     0.057 C 
BRANCH   7   8
ATOM      8  C2' N4B d   1       1.297   2.174   1.025  0.00  0.00     0.009 C 
BRANCH   8   9
ATOM      9  C3' N4B d   1       2.207   3.363   0.772  0.00  0.00     0.004 C 
ATOM     10  C4' N4B d   1       3.469   2.988   0.054  0.00  0.00     0.003 C 
ENDBRANCH   8   9
ENDBRANCH   7   8
ENDBRANCH   1   7
TORSDOF 3
ENDMDL
