MODEL 1
REMARK minimizedAffinity -3.75364828
REMARK minimizedRMSD -1
REMARK  3 active torsions:
REMARK  status: ('A' for Active; 'I' for Inactive)
REMARK    1  A    between atoms: C3'_2  and  C2'_3 
REMARK    2  A    between atoms: C2'_3  and  C1'_4 
REMARK    3  A    between atoms: C1'_4  and  C1_5 
ROOT
ATOM      1  C1  N4B d   1       0.413   0.582  -0.912  0.00  0.00    -0.075 A 
ATOM      2  C2  N4B d   1       0.648  -0.375   0.099  0.00  0.00     0.002 A 
ATOM      3  C3  N4B d   1      -0.249  -1.395   0.302  0.00  0.00     0.002 A 
ATOM      4  C4  N4B d   1      -1.394  -1.466  -0.478  0.00  0.00    -0.004 A 
ATOM      5  C5  N4B d   1      -1.602  -0.552  -1.469  0.00  0.00     0.002 A 
ATOM      6  C6  N4B d   1      -0.706   0.475  -1.687  0.00  0.00     0.002 A 
ENDROOT
BRANCH   1   7
ATOM      7  C1' N4B d   1       1.322   1.763  -1.115  0.00  0.00     0.057 C 
BRANCH   7   8
ATOM      8  C2' N4B d   1       2.269   1.876   0.076  0.00  0.00     0.009 C 
BRANCH   8   9
ATOM      9  C3' N4B d   1       2.694   3.312   0.330  0.00  0.00     0.004 C 
ATOM     10  C4' N4B d   1       2.636   4.162  -0.904  0.00  0.00     0.003 C 
ENDBRANCH   8   9
ENDBRANCH   7   8
ENDBRANCH   1   7
TORSDOF 3
ENDMDL
