MODEL 1
REMARK minimizedAffinity -6.86759853
REMARK minimizedRMSD -1
REMARK  3 active torsions:
REMARK  status: ('A' for Active; 'I' for Inactive)
REMARK    1  A    between atoms: C3'_2  and  C2'_3 
REMARK    2  A    between atoms: C2'_3  and  C1'_4 
REMARK    3  A    between atoms: C1'_4  and  C1_5 
ROOT
ATOM      1  C1  N4B d   1      -0.818  -0.875   1.073  0.00  0.00    -0.075 A 
ATOM      2  C2  N4B d   1      -1.620  -0.399   0.012  0.00  0.00     0.002 A 
ATOM      3  C3  N4B d   1      -2.654  -1.167  -0.464  0.00  0.00     0.002 A 
ATOM      4  C4  N4B d   1      -2.893  -2.415   0.089  0.00  0.00    -0.004 A 
ATOM      5  C5  N4B d   1      -2.130  -2.857   1.131  0.00  0.00     0.002 A 
ATOM      6  C6  N4B d   1      -1.089  -2.094   1.622  0.00  0.00     0.002 A 
ENDROOT
BRANCH   1   7
ATOM      7  C1' N4B d   1       0.378  -0.109   1.570  0.00  0.00     0.057 C 
BRANCH   7   8
ATOM      8  C2' N4B d   1       1.334   0.136   0.406  0.00  0.00     0.009 C 
BRANCH   8   9
ATOM      9  C3' N4B d   1       2.438   1.113   0.774  0.00  0.00     0.004 C 
ATOM     10  C4' N4B d   1       2.294   1.655   2.165  0.00  0.00     0.003 C 
ENDBRANCH   8   9
ENDBRANCH   7   8
ENDBRANCH   1   7
TORSDOF 3
ENDMDL
