MODEL 1
REMARK minimizedAffinity 2.04385352
REMARK minimizedRMSD -1
REMARK  3 active torsions:
REMARK  status: ('A' for Active; 'I' for Inactive)
REMARK    1  A    between atoms: C3'_2  and  C2'_3 
REMARK    2  A    between atoms: C2'_3  and  C1'_4 
REMARK    3  A    between atoms: C1'_4  and  C1_5 
ROOT
ATOM      1  C1  N4B d   1      -1.347  -1.272  -0.784  0.00  0.00    -0.075 A 
ATOM      2  C2  N4B d   1       0.015  -0.984  -0.546  0.00  0.00     0.002 A 
ATOM      3  C3  N4B d   1       0.608   0.090  -1.163  0.00  0.00     0.002 A 
ATOM      4  C4  N4B d   1      -0.133   0.875  -2.033  0.00  0.00    -0.004 A 
ATOM      5  C5  N4B d   1      -1.454   0.606  -2.238  0.00  0.00     0.002 A 
ATOM      6  C6  N4B d   1      -2.064  -0.468  -1.621  0.00  0.00     0.002 A 
ENDROOT
BRANCH   1   7
ATOM      7  C1' N4B d   1      -2.016  -2.486  -0.199  0.00  0.00     0.057 C 
BRANCH   7   8
ATOM      8  C2' N4B d   1      -0.996  -3.278   0.613  0.00  0.00     0.009 C 
BRANCH   8   9
ATOM      9  C3' N4B d   1      -0.647  -2.586   1.919  0.00  0.00     0.004 C 
ATOM     10  C4' N4B d   1       0.813  -2.669   2.249  0.00  0.00     0.003 C 
ENDBRANCH   8   9
ENDBRANCH   7   8
ENDBRANCH   1   7
TORSDOF 3
ENDMDL
