MODEL 1
REMARK minimizedAffinity -5.78760386
REMARK minimizedRMSD -1
REMARK  3 active torsions:
REMARK  status: ('A' for Active; 'I' for Inactive)
REMARK    1  A    between atoms: C3'_2  and  C2'_3 
REMARK    2  A    between atoms: C2'_3  and  C1'_4 
REMARK    3  A    between atoms: C1'_4  and  C1_5 
ROOT
ATOM      1  C1  N4B d   1      -0.045  -0.196   0.290  0.00  0.00    -0.075 A 
ATOM      2  C2  N4B d   1       0.262  -1.309   1.102  0.00  0.00     0.002 A 
ATOM      3  C3  N4B d   1      -0.718  -2.217   1.421  0.00  0.00     0.002 A 
ATOM      4  C4  N4B d   1      -2.011  -2.023   0.958  0.00  0.00    -0.004 A 
ATOM      5  C5  N4B d   1      -2.293  -0.958   0.153  0.00  0.00     0.002 A 
ATOM      6  C6  N4B d   1      -1.318  -0.040  -0.179  0.00  0.00     0.002 A 
ENDROOT
BRANCH   1   7
ATOM      7  C1' N4B d   1       0.972   0.870  -0.015  0.00  0.00     0.057 C 
BRANCH   7   8
ATOM      8  C2' N4B d   1       1.352   1.585   1.278  0.00  0.00     0.009 C 
BRANCH   8   9
ATOM      9  C3' N4B d   1       2.221   2.803   1.020  0.00  0.00     0.004 C 
ATOM     10  C4' N4B d   1       3.331   2.529   0.049  0.00  0.00     0.003 C 
ENDBRANCH   8   9
ENDBRANCH   7   8
ENDBRANCH   1   7
TORSDOF 3
ENDMDL
