MODEL 1
REMARK minimizedAffinity -4.25843525
REMARK minimizedRMSD -1
REMARK  3 active torsions:
REMARK  status: ('A' for Active; 'I' for Inactive)
REMARK    1  A    between atoms: C3'_2  and  C2'_3 
REMARK    2  A    between atoms: C2'_3  and  C1'_4 
REMARK    3  A    between atoms: C1'_4  and  C1_5 
ROOT
ATOM      1  C1  N4B d   1       0.099   0.017   0.132  0.00  0.00    -0.075 A 
ATOM      2  C2  N4B d   1      -0.715   0.329  -0.980  0.00  0.00     0.002 A 
ATOM      3  C3  N4B d   1      -1.806  -0.452  -1.272  0.00  0.00     0.002 A 
ATOM      4  C4  N4B d   1      -2.092  -1.555  -0.482  0.00  0.00    -0.004 A 
ATOM      5  C5  N4B d   1      -1.317  -1.834   0.605  0.00  0.00     0.002 A 
ATOM      6  C6  N4B d   1      -0.219  -1.056   0.913  0.00  0.00     0.002 A 
ENDROOT
BRANCH   1   7
ATOM      7  C1' N4B d   1       1.352   0.790   0.441  0.00  0.00     0.057 C 
BRANCH   7   8
ATOM      8  C2' N4B d   1       1.294   1.280   1.885  0.00  0.00     0.009 C 
BRANCH   8   9
ATOM      9  C3' N4B d   1       2.325   2.362   2.159  0.00  0.00     0.004 C 
ATOM     10  C4' N4B d   1       2.035   3.639   1.428  0.00  0.00     0.003 C 
ENDBRANCH   8   9
ENDBRANCH   7   8
ENDBRANCH   1   7
TORSDOF 3
ENDMDL
