MODEL 1
REMARK minimizedAffinity -6.06366348
REMARK minimizedRMSD -1
REMARK  3 active torsions:
REMARK  status: ('A' for Active; 'I' for Inactive)
REMARK    1  A    between atoms: C3'_2  and  C2'_3 
REMARK    2  A    between atoms: C2'_3  and  C1'_4 
REMARK    3  A    between atoms: C1'_4  and  C1_5 
ROOT
ATOM      1  C1  N4B d   1       0.124  -0.512   0.262  0.00  0.00    -0.075 A 
ATOM      2  C2  N4B d   1      -0.060  -1.617   1.121  0.00  0.00     0.002 A 
ATOM      3  C3  N4B d   1      -1.186  -2.396   1.007  0.00  0.00     0.002 A 
ATOM      4  C4  N4B d   1      -2.146  -2.079   0.058  0.00  0.00    -0.004 A 
ATOM      5  C5  N4B d   1      -1.948  -1.025  -0.786  0.00  0.00     0.002 A 
ATOM      6  C6  N4B d   1      -0.820  -0.236  -0.685  0.00  0.00     0.002 A 
ENDROOT
BRANCH   1   7
ATOM      7  C1' N4B d   1       1.297   0.419   0.405  0.00  0.00     0.057 C 
BRANCH   7   8
ATOM      8  C2' N4B d   1       1.283   1.030   1.803  0.00  0.00     0.009 C 
BRANCH   8   9
ATOM      9  C3' N4B d   1       2.015   2.360   1.849  0.00  0.00     0.004 C 
ATOM     10  C4' N4B d   1       3.012   2.513   0.740  0.00  0.00     0.003 C 
ENDBRANCH   8   9
ENDBRANCH   7   8
ENDBRANCH   1   7
TORSDOF 3
ENDMDL
