MODEL 1
REMARK minimizedAffinity -3.959373
REMARK minimizedRMSD -1
REMARK  0 active torsions:
REMARK  status: ('A' for Active; 'I' for Inactive)
ROOT
ATOM      1  C2' OXE d   1      -0.558   2.915   1.111  0.00  0.00     0.078 C 
ATOM      2  C1' OXE d   1      -2.309   0.769   0.652  0.00  0.00     0.078 C 
ATOM      3  C1  OXE d   1      -0.828   0.487   0.622  0.00  0.00    -0.078 A 
ATOM      4  C2  OXE d   1       0.022   1.552   0.801  0.00  0.00    -0.078 A 
ATOM      5  C3  OXE d   1       1.397   1.338   0.837  0.00  0.00     0.003 A 
ATOM      6  C4  OXE d   1       1.926   0.076   0.539  0.00  0.00    -0.002 A 
ATOM      7  C5  OXE d   1       1.079  -1.014   0.314  0.00  0.00    -0.002 A 
ATOM      8  C6  OXE d   1      -0.298  -0.835   0.394  0.00  0.00     0.003 A 
ENDROOT
TORSDOF 0
ENDMDL
