MODEL 1
REMARK minimizedAffinity -5.36740017
REMARK minimizedRMSD -1
REMARK  0 active torsions:
REMARK  status: ('A' for Active; 'I' for Inactive)
ROOT
ATOM      1  C2' OXE d   1      -1.069  -0.937   1.732  0.00  0.00     0.078 C 
ATOM      2  C1' OXE d   1       1.501  -0.879   0.604  0.00  0.00     0.078 C 
ATOM      3  C1  OXE d   1       0.566   0.260   0.284  0.00  0.00    -0.078 A 
ATOM      4  C2  OXE d   1      -0.705   0.200   0.803  0.00  0.00    -0.078 A 
ATOM      5  C3  OXE d   1      -1.590   1.252   0.583  0.00  0.00     0.003 A 
ATOM      6  C4  OXE d   1      -1.249   2.295  -0.286  0.00  0.00    -0.002 A 
ATOM      7  C5  OXE d   1       0.027   2.356  -0.857  0.00  0.00    -0.002 A 
ATOM      8  C6  OXE d   1       0.959   1.370  -0.549  0.00  0.00     0.003 A 
ENDROOT
TORSDOF 0
ENDMDL
