MODEL 1
REMARK minimizedAffinity -4.87143993
REMARK minimizedRMSD -1
REMARK  0 active torsions:
REMARK  status: ('A' for Active; 'I' for Inactive)
ROOT
ATOM      1  C2' OXE d   1      -1.313   2.361   0.523  0.00  0.00     0.078 C 
ATOM      2  C1' OXE d   1      -0.365  -0.261   0.198  0.00  0.00     0.078 C 
ATOM      3  C1  OXE d   1       0.653   0.844   0.330  0.00  0.00    -0.078 A 
ATOM      4  C2  OXE d   1       0.180   2.129   0.442  0.00  0.00    -0.078 A 
ATOM      5  C3  OXE d   1       1.075   3.180   0.622  0.00  0.00     0.003 A 
ATOM      6  C4  OXE d   1       2.455   2.958   0.535  0.00  0.00    -0.002 A 
ATOM      7  C5  OXE d   1       2.957   1.662   0.382  0.00  0.00    -0.002 A 
ATOM      8  C6  OXE d   1       2.073   0.591   0.320  0.00  0.00     0.003 A 
ENDROOT
TORSDOF 0
ENDMDL
