MODEL 1
REMARK minimizedAffinity -4.4739151
REMARK minimizedRMSD -1
REMARK  0 active torsions:
REMARK  status: ('A' for Active; 'I' for Inactive)
ROOT
ATOM      1  C2' OXE d   1       1.509   3.746   0.425  0.00  0.00     0.078 C 
ATOM      2  C1' OXE d   1       2.197   1.045   0.093  0.00  0.00     0.078 C 
ATOM      3  C1  OXE d   1       0.734   1.386   0.237  0.00  0.00    -0.078 A 
ATOM      4  C2  OXE d   1       0.411   2.705   0.445  0.00  0.00    -0.078 A 
ATOM      5  C3  OXE d   1      -0.927   3.081   0.529  0.00  0.00     0.003 A 
ATOM      6  C4  OXE d   1      -1.936   2.111   0.557  0.00  0.00    -0.002 A 
ATOM      7  C5  OXE d   1      -1.625   0.758   0.386  0.00  0.00    -0.002 A 
ATOM      8  C6  OXE d   1      -0.301   0.384   0.182  0.00  0.00     0.003 A 
ENDROOT
TORSDOF 0
ENDMDL
