MODEL 1
REMARK minimizedAffinity -4.25228691
REMARK minimizedRMSD -1
REMARK  0 active torsions:
REMARK  status: ('A' for Active; 'I' for Inactive)
ROOT
ATOM      1  C2' OXE d   1      -2.321   0.031   1.490  0.00  0.00     0.078 C 
ATOM      2  C1' OXE d   1      -0.121  -1.339   0.411  0.00  0.00     0.078 C 
ATOM      3  C1  OXE d   1      -0.121   0.167   0.329  0.00  0.00    -0.078 A 
ATOM      4  C2  OXE d   1      -1.223   0.827   0.818  0.00  0.00    -0.078 A 
ATOM      5  C3  OXE d   1      -1.250   2.218   0.817  0.00  0.00     0.003 A 
ATOM      6  C4  OXE d   1      -0.236   2.947   0.184  0.00  0.00    -0.002 A 
ATOM      7  C5  OXE d   1       0.877   2.292  -0.356  0.00  0.00    -0.002 A 
ATOM      8  C6  OXE d   1       0.970   0.909  -0.254  0.00  0.00     0.003 A 
ENDROOT
TORSDOF 0
ENDMDL
