MODEL 1
REMARK minimizedAffinity -3.83675814
REMARK minimizedRMSD -1
REMARK  0 active torsions:
REMARK  status: ('A' for Active; 'I' for Inactive)
ROOT
ATOM      1  C2' OXE d   1       1.670  -0.113   0.476  0.00  0.00     0.078 C 
ATOM      2  C1' OXE d   1       2.511   2.216   1.798  0.00  0.00     0.078 C 
ATOM      3  C1  OXE d   1       1.054   2.106   1.424  0.00  0.00    -0.078 A 
ATOM      4  C2  OXE d   1       0.660   0.984   0.736  0.00  0.00    -0.078 A 
ATOM      5  C3  OXE d   1      -0.683   0.807   0.415  0.00  0.00     0.003 A 
ATOM      6  C4  OXE d   1      -1.608   1.831   0.649  0.00  0.00    -0.002 A 
ATOM      7  C5  OXE d   1      -1.221   3.000   1.313  0.00  0.00    -0.002 A 
ATOM      8  C6  OXE d   1       0.095   3.135   1.744  0.00  0.00     0.003 A 
ENDROOT
TORSDOF 0
ENDMDL
