MODEL 1
REMARK minimizedAffinity -2.26444054
REMARK minimizedRMSD -1
REMARK  0 active torsions:
REMARK  status: ('A' for Active; 'I' for Inactive)
ROOT
ATOM      1  C2' OXE d   1       2.341   0.537   0.296  0.00  0.00     0.078 C 
ATOM      2  C1' OXE d   1       0.290  -1.362   0.036  0.00  0.00     0.078 C 
ATOM      3  C1  OXE d   1      -0.107   0.076   0.254  0.00  0.00    -0.078 A 
ATOM      4  C2  OXE d   1       0.903   0.992   0.427  0.00  0.00    -0.078 A 
ATOM      5  C3  OXE d   1       0.594   2.340   0.578  0.00  0.00     0.003 A 
ATOM      6  C4  OXE d   1      -0.738   2.751   0.709  0.00  0.00    -0.002 A 
ATOM      7  C5  OXE d   1      -1.782   1.829   0.575  0.00  0.00    -0.002 A 
ATOM      8  C6  OXE d   1      -1.485   0.498   0.306  0.00  0.00     0.003 A 
ENDROOT
TORSDOF 0
ENDMDL
