MODEL 1
REMARK minimizedAffinity -1.19247651
REMARK minimizedRMSD -1
REMARK  0 active torsions:
REMARK  status: ('A' for Active; 'I' for Inactive)
ROOT
ATOM      1  C2' OXE d   1      -0.023  -1.178   0.255  0.00  0.00     0.078 C 
ATOM      2  C1' OXE d   1      -1.427  -2.528   2.276  0.00  0.00     0.078 C 
ATOM      3  C1  OXE d   1      -1.554  -3.046   0.866  0.00  0.00    -0.078 A 
ATOM      4  C2  OXE d   1      -0.901  -2.351  -0.124  0.00  0.00    -0.078 A 
ATOM      5  C3  OXE d   1      -0.940  -2.818  -1.435  0.00  0.00     0.003 A 
ATOM      6  C4  OXE d   1      -1.762  -3.898  -1.778  0.00  0.00    -0.002 A 
ATOM      7  C5  OXE d   1      -2.467  -4.596  -0.791  0.00  0.00    -0.002 A 
ATOM      8  C6  OXE d   1      -2.340  -4.209   0.538  0.00  0.00     0.003 A 
ENDROOT
TORSDOF 0
ENDMDL
