MODEL 1
REMARK minimizedAffinity -4.4950099
REMARK minimizedRMSD -1
REMARK  0 active torsions:
REMARK  status: ('A' for Active; 'I' for Inactive)
ROOT
ATOM      1  C2' OXE d   1      -0.572  -3.300   3.035  0.00  0.00     0.078 C 
ATOM      2  C1' OXE d   1      -2.664  -1.494   3.527  0.00  0.00     0.078 C 
ATOM      3  C1  OXE d   1      -1.715  -1.180   2.398  0.00  0.00    -0.078 A 
ATOM      4  C2  OXE d   1      -0.667  -2.045   2.194  0.00  0.00    -0.078 A 
ATOM      5  C3  OXE d   1       0.206  -1.832   1.131  0.00  0.00     0.003 A 
ATOM      6  C4  OXE d   1       0.117  -0.664   0.364  0.00  0.00    -0.002 A 
ATOM      7  C5  OXE d   1      -0.920   0.250   0.581  0.00  0.00    -0.002 A 
ATOM      8  C6  OXE d   1      -1.867  -0.014   1.564  0.00  0.00     0.003 A 
ENDROOT
TORSDOF 0
ENDMDL
