MODEL 1
REMARK minimizedAffinity -4.80503511
REMARK minimizedRMSD -1
REMARK  0 active torsions:
REMARK  status: ('A' for Active; 'I' for Inactive)
ROOT
ATOM      1  C2' OXE d   1      -1.294  -2.568   3.082  0.00  0.00     0.078 C 
ATOM      2  C1' OXE d   1      -3.615  -0.994   3.196  0.00  0.00     0.078 C 
ATOM      3  C1  OXE d   1      -2.561  -0.619   2.186  0.00  0.00    -0.078 A 
ATOM      4  C2  OXE d   1      -1.408  -1.367   2.169  0.00  0.00    -0.078 A 
ATOM      5  C3  OXE d   1      -0.426  -1.098   1.219  0.00  0.00     0.003 A 
ATOM      6  C4  OXE d   1      -0.535   0.021   0.384  0.00  0.00    -0.002 A 
ATOM      7  C5  OXE d   1      -1.683   0.819   0.413  0.00  0.00    -0.002 A 
ATOM      8  C6  OXE d   1      -2.722   0.488   1.276  0.00  0.00     0.003 A 
ENDROOT
TORSDOF 0
ENDMDL
