MODEL 1
REMARK minimizedAffinity -4.3452096
REMARK minimizedRMSD -1
REMARK  0 active torsions:
REMARK  status: ('A' for Active; 'I' for Inactive)
ROOT
ATOM      1  C2' OXE d   1      -2.513   0.851   1.259  0.00  0.00     0.078 C 
ATOM      2  C1' OXE d   1      -0.731  -0.924   0.012  0.00  0.00     0.078 C 
ATOM      3  C1  OXE d   1      -0.362   0.539   0.041  0.00  0.00    -0.078 A 
ATOM      4  C2  OXE d   1      -1.262   1.406   0.612  0.00  0.00    -0.078 A 
ATOM      5  C3  OXE d   1      -0.947   2.758   0.714  0.00  0.00     0.003 A 
ATOM      6  C4  OXE d   1       0.207   3.265   0.104  0.00  0.00    -0.002 A 
ATOM      7  C5  OXE d   1       1.118   2.404  -0.518  0.00  0.00    -0.002 A 
ATOM      8  C6  OXE d   1       0.870   1.035  -0.520  0.00  0.00     0.003 A 
ENDROOT
TORSDOF 0
ENDMDL
