MODEL 1
REMARK minimizedAffinity -2.14247847
REMARK minimizedRMSD -1
REMARK  0 active torsions:
REMARK  status: ('A' for Active; 'I' for Inactive)
ROOT
ATOM      1  C2' OXE d   1      -0.144  -2.765  -3.032  0.00  0.00     0.078 C 
ATOM      2  C1' OXE d   1      -2.503  -2.896  -1.516  0.00  0.00     0.078 C 
ATOM      3  C1  OXE d   1      -1.415  -1.964  -1.045  0.00  0.00    -0.078 A 
ATOM      4  C2  OXE d   1      -0.246  -1.941  -1.767  0.00  0.00    -0.078 A 
ATOM      5  C3  OXE d   1       0.769  -1.058  -1.408  0.00  0.00     0.003 A 
ATOM      6  C4  OXE d   1       0.671  -0.307  -0.230  0.00  0.00    -0.002 A 
ATOM      7  C5  OXE d   1      -0.495  -0.345   0.541  0.00  0.00    -0.002 A 
ATOM      8  C6  OXE d   1      -1.562  -1.134   0.126  0.00  0.00     0.003 A 
ENDROOT
TORSDOF 0
ENDMDL
