MODEL 1
REMARK minimizedAffinity 0.177773446
REMARK minimizedRMSD -1
REMARK  0 active torsions:
REMARK  status: ('A' for Active; 'I' for Inactive)
ROOT
ATOM      1  C2' OXE d   1       2.886   3.441   1.761  0.00  0.00     0.078 C 
ATOM      2  C1' OXE d   1       2.793   5.964   2.987  0.00  0.00     0.078 C 
ATOM      3  C1  OXE d   1       1.778   4.935   3.417  0.00  0.00    -0.078 A 
ATOM      4  C2  OXE d   1       1.801   3.718   2.779  0.00  0.00    -0.078 A 
ATOM      5  C3  OXE d   1       0.922   2.715   3.175  0.00  0.00     0.003 A 
ATOM      6  C4  OXE d   1      -0.085   2.983   4.110  0.00  0.00    -0.002 A 
ATOM      7  C5  OXE d   1      -0.152   4.229   4.744  0.00  0.00    -0.002 A 
ATOM      8  C6  OXE d   1       0.796   5.199   4.440  0.00  0.00     0.003 A 
ENDROOT
TORSDOF 0
ENDMDL
