MODEL 1
REMARK minimizedAffinity 9.85780334
REMARK minimizedRMSD -1
REMARK  0 active torsions:
REMARK  status: ('A' for Active; 'I' for Inactive)
ROOT
ATOM      1  C2' OXE d   1       6.000   2.994  -5.138  0.00  0.00     0.078 C 
ATOM      2  C1' OXE d   1       5.738   4.471  -2.765  0.00  0.00     0.078 C 
ATOM      3  C1  OXE d   1       4.762   3.347  -3.005  0.00  0.00    -0.078 A 
ATOM      4  C2  OXE d   1       4.868   2.660  -4.190  0.00  0.00    -0.078 A 
ATOM      5  C3  OXE d   1       4.027   1.578  -4.438  0.00  0.00     0.003 A 
ATOM      6  C4  OXE d   1       2.976   1.282  -3.561  0.00  0.00    -0.002 A 
ATOM      7  C5  OXE d   1       2.826   1.996  -2.367  0.00  0.00    -0.002 A 
ATOM      8  C6  OXE d   1       3.734   3.001  -2.055  0.00  0.00     0.003 A 
ENDROOT
TORSDOF 0
ENDMDL
