MODEL 1
REMARK minimizedAffinity -3.68365669
REMARK minimizedRMSD -1
REMARK  0 active torsions:
REMARK  status: ('A' for Active; 'I' for Inactive)
ROOT
ATOM      1  C2' OXE d   1       0.315   2.771  -1.954  0.00  0.00     0.078 C 
ATOM      2  C1' OXE d   1      -0.767   0.878  -0.187  0.00  0.00     0.078 C 
ATOM      3  C1  OXE d   1      -0.112   2.100   0.406  0.00  0.00    -0.078 A 
ATOM      4  C2  OXE d   1       0.457   2.998  -0.464  0.00  0.00    -0.078 A 
ATOM      5  C3  OXE d   1       1.026   4.169   0.028  0.00  0.00     0.003 A 
ATOM      6  C4  OXE d   1       1.162   4.366   1.407  0.00  0.00    -0.002 A 
ATOM      7  C5  OXE d   1       0.625   3.444   2.312  0.00  0.00    -0.002 A 
ATOM      8  C6  OXE d   1      -0.051   2.329   1.829  0.00  0.00     0.003 A 
ENDROOT
TORSDOF 0
ENDMDL
