MODEL 1
REMARK minimizedAffinity -2.56726432
REMARK minimizedRMSD -1
REMARK  0 active torsions:
REMARK  status: ('A' for Active; 'I' for Inactive)
ROOT
ATOM      1  C2' OXE d   1       3.758   2.325  -6.000  0.00  0.00     0.078 C 
ATOM      2  C1' OXE d   1       3.723   2.320  -3.193  0.00  0.00     0.078 C 
ATOM      3  C1  OXE d   1       2.408   2.486  -3.912  0.00  0.00    -0.078 A 
ATOM      4  C2  OXE d   1       2.440   2.535  -5.285  0.00  0.00    -0.078 A 
ATOM      5  C3  OXE d   1       1.249   2.632  -5.999  0.00  0.00     0.003 A 
ATOM      6  C4  OXE d   1       0.036   2.836  -5.331  0.00  0.00    -0.002 A 
ATOM      7  C5  OXE d   1      -0.014   2.830  -3.933  0.00  0.00    -0.002 A 
ATOM      8  C6  OXE d   1       1.155   2.614  -3.210  0.00  0.00     0.003 A 
ENDROOT
TORSDOF 0
ENDMDL
