MODEL 1
REMARK minimizedAffinity 8.64919853
REMARK minimizedRMSD -1
REMARK  0 active torsions:
REMARK  status: ('A' for Active; 'I' for Inactive)
ROOT
ATOM      1  C2' OXE d   1      -0.039   3.632  -3.226  0.00  0.00     0.078 C 
ATOM      2  C1' OXE d   1      -0.012   3.172  -5.995  0.00  0.00     0.078 C 
ATOM      3  C1  OXE d   1      -1.347   3.159  -5.293  0.00  0.00    -0.078 A 
ATOM      4  C2  OXE d   1      -1.346   3.339  -3.930  0.00  0.00    -0.078 A 
ATOM      5  C3  OXE d   1      -2.554   3.391  -3.241  0.00  0.00     0.003 A 
ATOM      6  C4  OXE d   1      -3.758   3.109  -3.899  0.00  0.00    -0.002 A 
ATOM      7  C5  OXE d   1      -3.777   2.884  -5.279  0.00  0.00    -0.002 A 
ATOM      8  C6  OXE d   1      -2.587   2.947  -5.996  0.00  0.00     0.003 A 
ENDROOT
TORSDOF 0
ENDMDL
