MODEL 1
REMARK minimizedAffinity 2.59618497
REMARK minimizedRMSD -1
REMARK  0 active torsions:
REMARK  status: ('A' for Active; 'I' for Inactive)
ROOT
ATOM      1  C2' OXE d   1       4.035   2.263  -5.892  0.00  0.00     0.078 C 
ATOM      2  C1' OXE d   1       2.471  -0.068  -5.868  0.00  0.00     0.078 C 
ATOM      3  C1  OXE d   1       1.756   1.259  -5.927  0.00  0.00    -0.078 A 
ATOM      4  C2  OXE d   1       2.527   2.395  -5.891  0.00  0.00    -0.078 A 
ATOM      5  C3  OXE d   1       1.921   3.644  -5.998  0.00  0.00     0.003 A 
ATOM      6  C4  OXE d   1       0.526   3.758  -5.987  0.00  0.00    -0.002 A 
ATOM      7  C5  OXE d   1      -0.280   2.614  -5.984  0.00  0.00    -0.002 A 
ATOM      8  C6  OXE d   1       0.319   1.359  -5.997  0.00  0.00     0.003 A 
ENDROOT
TORSDOF 0
ENDMDL
