MODEL 1
REMARK minimizedAffinity 0.540721178
REMARK minimizedRMSD -1
REMARK  0 active torsions:
REMARK  status: ('A' for Active; 'I' for Inactive)
ROOT
ATOM      1  C2' OXE d   1      -1.487   2.268  -5.999  0.00  0.00     0.078 C 
ATOM      2  C1' OXE d   1      -0.635   3.846  -3.839  0.00  0.00     0.078 C 
ATOM      3  C1  OXE d   1      -2.013   4.100  -4.395  0.00  0.00    -0.078 A 
ATOM      4  C2  OXE d   1      -2.404   3.356  -5.482  0.00  0.00    -0.078 A 
ATOM      5  C3  OXE d   1      -3.687   3.512  -6.000  0.00  0.00     0.003 A 
ATOM      6  C4  OXE d   1      -4.525   4.526  -5.522  0.00  0.00    -0.002 A 
ATOM      7  C5  OXE d   1      -4.131   5.323  -4.442  0.00  0.00    -0.002 A 
ATOM      8  C6  OXE d   1      -2.898   5.095  -3.841  0.00  0.00     0.003 A 
ENDROOT
TORSDOF 0
ENDMDL
