MODEL 1
REMARK minimizedAffinity -4.13126278
REMARK minimizedRMSD -1
REMARK  0 active torsions:
REMARK  status: ('A' for Active; 'I' for Inactive)
ROOT
ATOM      1  C2' OXE d   1       2.177   0.396   0.203  0.00  0.00     0.078 C 
ATOM      2  C1' OXE d   1      -0.246  -0.815  -0.531  0.00  0.00     0.078 C 
ATOM      3  C1  OXE d   1      -0.275   0.646  -0.157  0.00  0.00    -0.078 A 
ATOM      4  C2  OXE d   1       0.908   1.218   0.246  0.00  0.00    -0.078 A 
ATOM      5  C3  OXE d   1       0.948   2.576   0.549  0.00  0.00     0.003 A 
ATOM      6  C4  OXE d   1      -0.233   3.328   0.596  0.00  0.00    -0.002 A 
ATOM      7  C5  OXE d   1      -1.454   2.754   0.227  0.00  0.00    -0.002 A 
ATOM      8  C6  OXE d   1      -1.486   1.428  -0.191  0.00  0.00     0.003 A 
ENDROOT
TORSDOF 0
ENDMDL
