MODEL 1
REMARK minimizedAffinity 0.773514032
REMARK minimizedRMSD -1
REMARK  3 active torsions:
REMARK  status: ('A' for Active; 'I' for Inactive)
REMARK    1  A    between atoms: C3'_2  and  C2'_3 
REMARK    2  A    between atoms: C2'_3  and  C1'_4 
REMARK    3  A    between atoms: C1'_4  and  C1_5 
ROOT
ATOM      1  C1  N4B d   1       2.967  -0.969  -0.382  0.00  0.00    -0.075 A 
ATOM      2  C2  N4B d   1       2.135   0.060   0.111  0.00  0.00     0.002 A 
ATOM      3  C3  N4B d   1       2.509   1.374  -0.031  0.00  0.00     0.002 A 
ATOM      4  C4  N4B d   1       3.715   1.681  -0.643  0.00  0.00    -0.004 A 
ATOM      5  C5  N4B d   1       4.501   0.683  -1.140  0.00  0.00     0.002 A 
ATOM      6  C6  N4B d   1       4.136  -0.642  -1.008  0.00  0.00     0.002 A 
ENDROOT
BRANCH   1   7
ATOM      7  C1' N4B d   1       2.641  -2.422  -0.174  0.00  0.00     0.057 C 
BRANCH   7   8
ATOM      8  C2' N4B d   1       1.255  -2.540   0.452  0.00  0.00     0.009 C 
BRANCH   8   9
ATOM      9  C3' N4B d   1       0.488  -3.736  -0.087  0.00  0.00     0.004 C 
ATOM     10  C4' N4B d   1      -0.533  -3.355  -1.117  0.00  0.00     0.003 C 
ENDBRANCH   8   9
ENDBRANCH   7   8
ENDBRANCH   1   7
TORSDOF 3
ENDMDL
