MODEL 1
REMARK minimizedAffinity -2.70569682
REMARK minimizedRMSD -1
REMARK  3 active torsions:
REMARK  status: ('A' for Active; 'I' for Inactive)
REMARK    1  A    between atoms: C3'_2  and  C2'_3 
REMARK    2  A    between atoms: C2'_3  and  C1'_4 
REMARK    3  A    between atoms: C1'_4  and  C1_5 
ROOT
ATOM      1  C1  N4B d   1       0.667  -0.002   0.323  0.00  0.00    -0.075 A 
ATOM      2  C2  N4B d   1       2.046  -0.306   0.344  0.00  0.00     0.002 A 
ATOM      3  C3  N4B d   1       2.483  -1.543  -0.065  0.00  0.00     0.002 A 
ATOM      4  C4  N4B d   1       1.562  -2.493  -0.479  0.00  0.00    -0.004 A 
ATOM      5  C5  N4B d   1       0.234  -2.183  -0.521  0.00  0.00     0.002 A 
ATOM      6  C6  N4B d   1      -0.219  -0.943  -0.116  0.00  0.00     0.002 A 
ENDROOT
BRANCH   1   7
ATOM      7  C1' N4B d   1       0.135   1.305   0.842  0.00  0.00     0.057 C 
BRANCH   7   8
ATOM      8  C2' N4B d   1       1.048   2.437   0.379  0.00  0.00     0.009 C 
BRANCH   8   9
ATOM      9  C3' N4B d   1       1.476   3.329   1.532  0.00  0.00     0.004 C 
ATOM     10  C4' N4B d   1       0.714   4.619   1.582  0.00  0.00     0.003 C 
ENDBRANCH   8   9
ENDBRANCH   7   8
ENDBRANCH   1   7
TORSDOF 3
ENDMDL
