MODEL 1
REMARK minimizedAffinity 5.93576193
REMARK minimizedRMSD -1
REMARK  3 active torsions:
REMARK  status: ('A' for Active; 'I' for Inactive)
REMARK    1  A    between atoms: C3'_2  and  C2'_3 
REMARK    2  A    between atoms: C2'_3  and  C1'_4 
REMARK    3  A    between atoms: C1'_4  and  C1_5 
ROOT
ATOM      1  C1  N4B d   1      -0.217   1.956   2.000  0.00  0.00    -0.075 A 
ATOM      2  C2  N4B d   1       1.097   1.791   2.489  0.00  0.00     0.002 A 
ATOM      3  C3  N4B d   1       2.167   1.917   1.638  0.00  0.00     0.002 A 
ATOM      4  C4  N4B d   1       1.948   2.188   0.296  0.00  0.00    -0.004 A 
ATOM      5  C5  N4B d   1       0.677   2.372  -0.164  0.00  0.00     0.002 A 
ATOM      6  C6  N4B d   1      -0.408   2.252   0.681  0.00  0.00     0.002 A 
ENDROOT
BRANCH   1   7
ATOM      7  C1' N4B d   1      -1.423   1.743   2.874  0.00  0.00     0.057 C 
BRANCH   7   8
ATOM      8  C2' N4B d   1      -2.670   1.670   1.998  0.00  0.00     0.009 C 
BRANCH   8   9
ATOM      9  C3' N4B d   1      -3.676   2.753   2.349  0.00  0.00     0.004 C 
ATOM     10  C4' N4B d   1      -3.068   3.877   3.133  0.00  0.00     0.003 C 
ENDBRANCH   8   9
ENDBRANCH   7   8
ENDBRANCH   1   7
TORSDOF 3
ENDMDL
