MODEL 1
REMARK minimizedAffinity -0.695199966
REMARK minimizedRMSD -1
REMARK  3 active torsions:
REMARK  status: ('A' for Active; 'I' for Inactive)
REMARK    1  A    between atoms: C3'_2  and  C2'_3 
REMARK    2  A    between atoms: C2'_3  and  C1'_4 
REMARK    3  A    between atoms: C1'_4  and  C1_5 
ROOT
ATOM      1  C1  N4B d   1       5.937   0.804   4.055  0.00  0.00    -0.075 A 
ATOM      2  C2  N4B d   1       5.979  -0.343   3.233  0.00  0.00     0.002 A 
ATOM      3  C3  N4B d   1       5.999  -1.594   3.800  0.00  0.00     0.002 A 
ATOM      4  C4  N4B d   1       5.997  -1.720   5.181  0.00  0.00    -0.004 A 
ATOM      5  C5  N4B d   1       5.930  -0.608   5.968  0.00  0.00     0.002 A 
ATOM      6  C6  N4B d   1       5.905   0.655   5.411  0.00  0.00     0.002 A 
ENDROOT
BRANCH   1   7
ATOM      7  C1' N4B d   1       6.000   2.194   3.482  0.00  0.00     0.057 C 
BRANCH   7   8
ATOM      8  C2' N4B d   1       4.789   2.989   3.962  0.00  0.00     0.009 C 
BRANCH   8   9
ATOM      9  C3' N4B d   1       4.571   4.246   3.137  0.00  0.00     0.004 C 
ATOM     10  C4' N4B d   1       5.855   4.854   2.657  0.00  0.00     0.003 C 
ENDBRANCH   8   9
ENDBRANCH   7   8
ENDBRANCH   1   7
TORSDOF 3
ENDMDL
