MODEL 1
REMARK minimizedAffinity 3.089221
REMARK minimizedRMSD -1
REMARK  3 active torsions:
REMARK  status: ('A' for Active; 'I' for Inactive)
REMARK    1  A    between atoms: C3'_2  and  C2'_3 
REMARK    2  A    between atoms: C2'_3  and  C1'_4 
REMARK    3  A    between atoms: C1'_4  and  C1_5 
ROOT
ATOM      1  C1  N4B d   1       5.695   2.138   4.047  0.00  0.00    -0.075 A 
ATOM      2  C2  N4B d   1       5.972   1.154   3.072  0.00  0.00     0.002 A 
ATOM      3  C3  N4B d   1       5.769  -0.173   3.359  0.00  0.00     0.002 A 
ATOM      4  C4  N4B d   1       5.309  -0.541   4.615  0.00  0.00    -0.004 A 
ATOM      5  C5  N4B d   1       5.020   0.417   5.543  0.00  0.00     0.002 A 
ATOM      6  C6  N4B d   1       5.216   1.755   5.267  0.00  0.00     0.002 A 
ENDROOT
BRANCH   1   7
ATOM      7  C1' N4B d   1       5.983   3.595   3.809  0.00  0.00     0.057 C 
BRANCH   7   8
ATOM      8  C2' N4B d   1       5.662   3.938   2.357  0.00  0.00     0.009 C 
BRANCH   8   9
ATOM      9  C3' N4B d   1       5.996   5.383   2.028  0.00  0.00     0.004 C 
ATOM     10  C4' N4B d   1       5.997   5.657   0.554  0.00  0.00     0.003 C 
ENDBRANCH   8   9
ENDBRANCH   7   8
ENDBRANCH   1   7
TORSDOF 3
ENDMDL
