MODEL 1
REMARK minimizedAffinity 0.493238777
REMARK minimizedRMSD -1
REMARK  3 active torsions:
REMARK  status: ('A' for Active; 'I' for Inactive)
REMARK    1  A    between atoms: C3'_2  and  C2'_3 
REMARK    2  A    between atoms: C2'_3  and  C1'_4 
REMARK    3  A    between atoms: C1'_4  and  C1_5 
ROOT
ATOM      1  C1  N4B d   1       5.920   2.666   4.071  0.00  0.00    -0.075 A 
ATOM      2  C2  N4B d   1       5.871   3.052   5.429  0.00  0.00     0.002 A 
ATOM      3  C3  N4B d   1       5.881   4.383   5.765  0.00  0.00     0.002 A 
ATOM      4  C4  N4B d   1       5.958   5.342   4.766  0.00  0.00    -0.004 A 
ATOM      5  C5  N4B d   1       5.979   4.962   3.456  0.00  0.00     0.002 A 
ATOM      6  C6  N4B d   1       5.965   3.628   3.103  0.00  0.00     0.002 A 
ENDROOT
BRANCH   1   7
ATOM      7  C1' N4B d   1       5.998   1.222   3.658  0.00  0.00     0.057 C 
BRANCH   7   8
ATOM      8  C2' N4B d   1       5.935   1.132   2.136  0.00  0.00     0.009 C 
BRANCH   8   9
ATOM      9  C3' N4B d   1       5.786  -0.302   1.657  0.00  0.00     0.004 C 
ATOM     10  C4' N4B d   1       5.994  -1.305   2.752  0.00  0.00     0.003 C 
ENDBRANCH   8   9
ENDBRANCH   7   8
ENDBRANCH   1   7
TORSDOF 3
ENDMDL
