MODEL 1
REMARK minimizedAffinity -1.6626507
REMARK minimizedRMSD -1
REMARK  3 active torsions:
REMARK  status: ('A' for Active; 'I' for Inactive)
REMARK    1  A    between atoms: C3'_2  and  C2'_3 
REMARK    2  A    between atoms: C2'_3  and  C1'_4 
REMARK    3  A    between atoms: C1'_4  and  C1_5 
ROOT
ATOM      1  C1  N4B d   1       5.855  -0.066   5.046  0.00  0.00    -0.075 A 
ATOM      2  C2  N4B d   1       6.000  -0.017   3.642  0.00  0.00     0.002 A 
ATOM      3  C3  N4B d   1       5.991   1.193   2.993  0.00  0.00     0.002 A 
ATOM      4  C4  N4B d   1       5.822   2.361   3.721  0.00  0.00    -0.004 A 
ATOM      5  C5  N4B d   1       5.709   2.307   5.079  0.00  0.00     0.002 A 
ATOM      6  C6  N4B d   1       5.719   1.098   5.746  0.00  0.00     0.002 A 
ENDROOT
BRANCH   1   7
ATOM      7  C1' N4B d   1       5.772  -1.370   5.791  0.00  0.00     0.057 C 
BRANCH   7   8
ATOM      8  C2' N4B d   1       5.011  -2.384   4.942  0.00  0.00     0.009 C 
BRANCH   8   9
ATOM      9  C3' N4B d   1       5.877  -3.573   4.564  0.00  0.00     0.004 C 
ATOM     10  C4' N4B d   1       5.999  -3.754   3.080  0.00  0.00     0.003 C 
ENDBRANCH   8   9
ENDBRANCH   7   8
ENDBRANCH   1   7
TORSDOF 3
ENDMDL
