MODEL 1
REMARK minimizedAffinity -1.55278838
REMARK minimizedRMSD -1
REMARK  3 active torsions:
REMARK  status: ('A' for Active; 'I' for Inactive)
REMARK    1  A    between atoms: C3'_2  and  C2'_3 
REMARK    2  A    between atoms: C2'_3  and  C1'_4 
REMARK    3  A    between atoms: C1'_4  and  C1_5 
ROOT
ATOM      1  C1  N4B d   1       5.907   3.188   3.164  0.00  0.00    -0.075 A 
ATOM      2  C2  N4B d   1       5.940   3.887   1.938  0.00  0.00     0.002 A 
ATOM      3  C3  N4B d   1       5.996   5.259   1.931  0.00  0.00     0.002 A 
ATOM      4  C4  N4B d   1       6.000   5.951   3.133  0.00  0.00    -0.004 A 
ATOM      5  C5  N4B d   1       5.993   5.267   4.313  0.00  0.00     0.002 A 
ATOM      6  C6  N4B d   1       5.941   3.888   4.335  0.00  0.00     0.002 A 
ENDROOT
BRANCH   1   7
ATOM      7  C1' N4B d   1       5.759   1.692   3.221  0.00  0.00     0.057 C 
BRANCH   7   8
ATOM      8  C2' N4B d   1       5.959   1.224   4.660  0.00  0.00     0.009 C 
BRANCH   8   9
ATOM      9  C3' N4B d   1       5.112   0.005   4.984  0.00  0.00     0.004 C 
ATOM     10  C4' N4B d   1       4.990  -0.942   3.828  0.00  0.00     0.003 C 
ENDBRANCH   8   9
ENDBRANCH   7   8
ENDBRANCH   1   7
TORSDOF 3
ENDMDL
