MODEL 1
REMARK minimizedAffinity 0.597140074
REMARK minimizedRMSD -1
REMARK  3 active torsions:
REMARK  status: ('A' for Active; 'I' for Inactive)
REMARK    1  A    between atoms: C3'_2  and  C2'_3 
REMARK    2  A    between atoms: C2'_3  and  C1'_4 
REMARK    3  A    between atoms: C1'_4  and  C1_5 
ROOT
ATOM      1  C1  N4B d   1       5.739   2.313   4.016  0.00  0.00    -0.075 A 
ATOM      2  C2  N4B d   1       5.987   1.432   2.941  0.00  0.00     0.002 A 
ATOM      3  C3  N4B d   1       5.974   0.074   3.148  0.00  0.00     0.002 A 
ATOM      4  C4  N4B d   1       5.736  -0.423   4.420  0.00  0.00    -0.004 A 
ATOM      5  C5  N4B d   1       5.472   0.434   5.449  0.00  0.00     0.002 A 
ATOM      6  C6  N4B d   1       5.478   1.801   5.254  0.00  0.00     0.002 A 
ENDROOT
BRANCH   1   7
ATOM      7  C1' N4B d   1       5.828   3.806   3.856  0.00  0.00     0.057 C 
BRANCH   7   8
ATOM      8  C2' N4B d   1       5.988   4.143   2.377  0.00  0.00     0.009 C 
BRANCH   8   9
ATOM      9  C3' N4B d   1       6.000   5.642   2.133  0.00  0.00     0.004 C 
ATOM     10  C4' N4B d   1       5.999   5.994   0.676  0.00  0.00     0.003 C 
ENDBRANCH   8   9
ENDBRANCH   7   8
ENDBRANCH   1   7
TORSDOF 3
ENDMDL
