MODEL 1
REMARK minimizedAffinity 0.979052007
REMARK minimizedRMSD -1
REMARK  3 active torsions:
REMARK  status: ('A' for Active; 'I' for Inactive)
REMARK    1  A    between atoms: C3'_2  and  C2'_3 
REMARK    2  A    between atoms: C2'_3  and  C1'_4 
REMARK    3  A    between atoms: C1'_4  and  C1_5 
ROOT
ATOM      1  C1  N4B d   1       5.948   2.927   4.362  0.00  0.00    -0.075 A 
ATOM      2  C2  N4B d   1       5.952   3.540   3.090  0.00  0.00     0.002 A 
ATOM      3  C3  N4B d   1       5.964   4.909   2.988  0.00  0.00     0.002 A 
ATOM      4  C4  N4B d   1       5.953   5.683   4.138  0.00  0.00    -0.004 A 
ATOM      5  C5  N4B d   1       5.975   5.083   5.363  0.00  0.00     0.002 A 
ATOM      6  C6  N4B d   1       5.967   3.708   5.481  0.00  0.00     0.002 A 
ENDROOT
BRANCH   1   7
ATOM      7  C1' N4B d   1       5.849   1.435   4.524  0.00  0.00     0.057 C 
BRANCH   7   8
ATOM      8  C2' N4B d   1       5.162   0.842   3.297  0.00  0.00     0.009 C 
BRANCH   8   9
ATOM      9  C3' N4B d   1       5.992  -0.256   2.656  0.00  0.00     0.004 C 
ATOM     10  C4' N4B d   1       5.920  -1.552   3.408  0.00  0.00     0.003 C 
ENDBRANCH   8   9
ENDBRANCH   7   8
ENDBRANCH   1   7
TORSDOF 3
ENDMDL
