MODEL 1
REMARK minimizedAffinity -1.73710287
REMARK minimizedRMSD -1
REMARK  3 active torsions:
REMARK  status: ('A' for Active; 'I' for Inactive)
REMARK    1  A    between atoms: C3'_2  and  C2'_3 
REMARK    2  A    between atoms: C2'_3  and  C1'_4 
REMARK    3  A    between atoms: C1'_4  and  C1_5 
ROOT
ATOM      1  C1  N4B d   1       5.764   1.392   4.790  0.00  0.00    -0.075 A 
ATOM      2  C2  N4B d   1       5.986   0.653   3.607  0.00  0.00     0.002 A 
ATOM      3  C3  N4B d   1       5.997  -0.720   3.647  0.00  0.00     0.002 A 
ATOM      4  C4  N4B d   1       5.808  -1.372   4.856  0.00  0.00    -0.004 A 
ATOM      5  C5  N4B d   1       5.569  -0.651   5.990  0.00  0.00     0.002 A 
ATOM      6  C6  N4B d   1       5.551   0.729   5.964  0.00  0.00     0.002 A 
ENDROOT
BRANCH   1   7
ATOM      7  C1' N4B d   1       5.829   2.895   4.811  0.00  0.00     0.057 C 
BRANCH   7   8
ATOM      8  C2' N4B d   1       5.711   3.422   3.384  0.00  0.00     0.009 C 
BRANCH   8   9
ATOM      9  C3' N4B d   1       6.000   4.911   3.302  0.00  0.00     0.004 C 
ATOM     10  C4' N4B d   1       5.960   5.434   1.897  0.00  0.00     0.003 C 
ENDBRANCH   8   9
ENDBRANCH   7   8
ENDBRANCH   1   7
TORSDOF 3
ENDMDL
