MODEL 1
REMARK minimizedAffinity 6.90292788
REMARK minimizedRMSD -1
REMARK  3 active torsions:
REMARK  status: ('A' for Active; 'I' for Inactive)
REMARK    1  A    between atoms: C3'_2  and  C2'_3 
REMARK    2  A    between atoms: C2'_3  and  C1'_4 
REMARK    3  A    between atoms: C1'_4  and  C1_5 
ROOT
ATOM      1  C1  N4B d   1      -0.653   0.870   2.620  0.00  0.00    -0.075 A 
ATOM      2  C2  N4B d   1      -0.383   2.181   2.168  0.00  0.00     0.002 A 
ATOM      3  C3  N4B d   1      -0.768   3.261   2.924  0.00  0.00     0.002 A 
ATOM      4  C4  N4B d   1      -1.438   3.056   4.121  0.00  0.00    -0.004 A 
ATOM      5  C5  N4B d   1      -1.672   1.787   4.563  0.00  0.00     0.002 A 
ATOM      6  C6  N4B d   1      -1.287   0.692   3.816  0.00  0.00     0.002 A 
ENDROOT
BRANCH   1   7
ATOM      7  C1' N4B d   1      -0.328  -0.340   1.788  0.00  0.00     0.057 C 
BRANCH   7   8
ATOM      8  C2' N4B d   1       0.061   0.109   0.382  0.00  0.00     0.009 C 
BRANCH   8   9
ATOM      9  C3' N4B d   1      -0.420  -0.866  -0.679  0.00  0.00     0.004 C 
ATOM     10  C4' N4B d   1       0.698  -1.408  -1.518  0.00  0.00     0.003 C 
ENDBRANCH   8   9
ENDBRANCH   7   8
ENDBRANCH   1   7
TORSDOF 3
ENDMDL
