MODEL 1
REMARK minimizedAffinity 7.65438557
REMARK minimizedRMSD -1
REMARK  3 active torsions:
REMARK  status: ('A' for Active; 'I' for Inactive)
REMARK    1  A    between atoms: C3'_2  and  C2'_3 
REMARK    2  A    between atoms: C2'_3  and  C1'_4 
REMARK    3  A    between atoms: C1'_4  and  C1_5 
ROOT
ATOM      1  C1  N4B d   1       2.729   0.008  -2.278  0.00  0.00    -0.075 A 
ATOM      2  C2  N4B d   1       2.562   0.374  -0.924  0.00  0.00     0.002 A 
ATOM      3  C3  N4B d   1       1.564  -0.201  -0.176  0.00  0.00     0.002 A 
ATOM      4  C4  N4B d   1       0.713  -1.125  -0.762  0.00  0.00    -0.004 A 
ATOM      5  C5  N4B d   1       0.897  -1.492  -2.064  0.00  0.00     0.002 A 
ATOM      6  C6  N4B d   1       1.898  -0.926  -2.826  0.00  0.00     0.002 A 
ENDROOT
BRANCH   1   7
ATOM      7  C1' N4B d   1       3.751   0.672  -3.160  0.00  0.00     0.057 C 
BRANCH   7   8
ATOM      8  C2' N4B d   1       3.080   1.120  -4.455  0.00  0.00     0.009 C 
BRANCH   8   9
ATOM      9  C3' N4B d   1       4.036   1.885  -5.355  0.00  0.00     0.004 C 
ATOM     10  C4' N4B d   1       3.396   3.078  -6.000  0.00  0.00     0.003 C 
ENDBRANCH   8   9
ENDBRANCH   7   8
ENDBRANCH   1   7
TORSDOF 3
ENDMDL
