MODEL 1
REMARK minimizedAffinity 5.46136045
REMARK minimizedRMSD -1
REMARK  3 active torsions:
REMARK  status: ('A' for Active; 'I' for Inactive)
REMARK    1  A    between atoms: C3'_2  and  C2'_3 
REMARK    2  A    between atoms: C2'_3  and  C1'_4 
REMARK    3  A    between atoms: C1'_4  and  C1_5 
ROOT
ATOM      1  C1  N4B d   1       5.991   1.789   3.435  0.00  0.00    -0.075 A 
ATOM      2  C2  N4B d   1       5.997   3.187   3.640  0.00  0.00     0.002 A 
ATOM      3  C3  N4B d   1       6.000   3.694   4.916  0.00  0.00     0.002 A 
ATOM      4  C4  N4B d   1       5.977   2.828   5.998  0.00  0.00    -0.004 A 
ATOM      5  C5  N4B d   1       5.997   1.479   5.793  0.00  0.00     0.002 A 
ATOM      6  C6  N4B d   1       5.998   0.955   4.516  0.00  0.00     0.002 A 
ENDROOT
BRANCH   1   7
ATOM      7  C1' N4B d   1       5.901   1.188   2.059  0.00  0.00     0.057 C 
BRANCH   7   8
ATOM      8  C2' N4B d   1       4.458   0.777   1.786  0.00  0.00     0.009 C 
BRANCH   8   9
ATOM      9  C3' N4B d   1       3.678   1.875   1.081  0.00  0.00     0.004 C 
ATOM     10  C4' N4B d   1       2.424   1.371   0.431  0.00  0.00     0.003 C 
ENDBRANCH   8   9
ENDBRANCH   7   8
ENDBRANCH   1   7
TORSDOF 3
ENDMDL
