MODEL 1
REMARK minimizedAffinity 14.7217617
REMARK minimizedRMSD -1
REMARK  3 active torsions:
REMARK  status: ('A' for Active; 'I' for Inactive)
REMARK    1  A    between atoms: C3'_2  and  C2'_3 
REMARK    2  A    between atoms: C2'_3  and  C1'_4 
REMARK    3  A    between atoms: C1'_4  and  C1_5 
ROOT
ATOM      1  C1  N4B d   1      -1.481   4.297   3.448  0.00  0.00    -0.075 A 
ATOM      2  C2  N4B d   1      -2.161   3.693   2.368  0.00  0.00     0.002 A 
ATOM      3  C3  N4B d   1      -1.449   3.095   1.357  0.00  0.00     0.002 A 
ATOM      4  C4  N4B d   1      -0.063   3.105   1.396  0.00  0.00    -0.004 A 
ATOM      5  C5  N4B d   1       0.586   3.668   2.455  0.00  0.00     0.002 A 
ATOM      6  C6  N4B d   1      -0.117   4.270   3.480  0.00  0.00     0.002 A 
ENDROOT
BRANCH   1   7
ATOM      7  C1' N4B d   1      -2.214   5.039   4.533  0.00  0.00     0.057 C 
BRANCH   7   8
ATOM      8  C2' N4B d   1      -3.150   4.074   5.255  0.00  0.00     0.009 C 
BRANCH   8   9
ATOM      9  C3' N4B d   1      -4.330   4.792   5.886  0.00  0.00     0.004 C 
ATOM     10  C4' N4B d   1      -4.978   5.773   4.955  0.00  0.00     0.003 C 
ENDBRANCH   8   9
ENDBRANCH   7   8
ENDBRANCH   1   7
TORSDOF 3
ENDMDL
