MODEL 1
REMARK minimizedAffinity 4.04062843
REMARK minimizedRMSD -1
REMARK  3 active torsions:
REMARK  status: ('A' for Active; 'I' for Inactive)
REMARK    1  A    between atoms: C3'_2  and  C2'_3 
REMARK    2  A    between atoms: C2'_3  and  C1'_4 
REMARK    3  A    between atoms: C1'_4  and  C1_5 
ROOT
ATOM      1  C1  N4B d   1       5.932   0.817   3.916  0.00  0.00    -0.075 A 
ATOM      2  C2  N4B d   1       5.984  -0.108   2.850  0.00  0.00     0.002 A 
ATOM      3  C3  N4B d   1       5.999  -1.456   3.112  0.00  0.00     0.002 A 
ATOM      4  C4  N4B d   1       5.982  -1.900   4.425  0.00  0.00    -0.004 A 
ATOM      5  C5  N4B d   1       5.905  -1.001   5.448  0.00  0.00     0.002 A 
ATOM      6  C6  N4B d   1       5.885   0.357   5.200  0.00  0.00     0.002 A 
ENDROOT
BRANCH   1   7
ATOM      7  C1' N4B d   1       6.000   2.302   3.682  0.00  0.00     0.057 C 
BRANCH   7   8
ATOM      8  C2' N4B d   1       4.613   2.813   3.303  0.00  0.00     0.009 C 
BRANCH   8   9
ATOM      9  C3' N4B d   1       4.680   4.134   2.555  0.00  0.00     0.004 C 
ATOM     10  C4' N4B d   1       5.934   4.902   2.844  0.00  0.00     0.003 C 
ENDBRANCH   8   9
ENDBRANCH   7   8
ENDBRANCH   1   7
TORSDOF 3
ENDMDL
