MODEL 1
REMARK minimizedAffinity 6.57208395
REMARK minimizedRMSD -1
REMARK  3 active torsions:
REMARK  status: ('A' for Active; 'I' for Inactive)
REMARK    1  A    between atoms: C3'_2  and  C2'_3 
REMARK    2  A    between atoms: C2'_3  and  C1'_4 
REMARK    3  A    between atoms: C1'_4  and  C1_5 
ROOT
ATOM      1  C1  N4B d   1       5.994   2.818   3.756  0.00  0.00    -0.075 A 
ATOM      2  C2  N4B d   1       5.999   3.013   5.155  0.00  0.00     0.002 A 
ATOM      3  C3  N4B d   1       5.999   1.930   5.999  0.00  0.00     0.002 A 
ATOM      4  C4  N4B d   1       5.974   0.649   5.470  0.00  0.00    -0.004 A 
ATOM      5  C5  N4B d   1       5.995   0.468   4.118  0.00  0.00     0.002 A 
ATOM      6  C6  N4B d   1       6.000   1.548   3.258  0.00  0.00     0.002 A 
ENDROOT
BRANCH   1   7
ATOM      7  C1' N4B d   1       5.908   3.971   2.794  0.00  0.00     0.057 C 
BRANCH   7   8
ATOM      8  C2' N4B d   1       4.731   3.748   1.849  0.00  0.00     0.009 C 
BRANCH   8   9
ATOM      9  C3' N4B d   1       3.800   2.657   2.349  0.00  0.00     0.004 C 
ATOM     10  C4' N4B d   1       3.012   2.016   1.246  0.00  0.00     0.003 C 
ENDBRANCH   8   9
ENDBRANCH   7   8
ENDBRANCH   1   7
TORSDOF 3
ENDMDL
