MODEL 1
REMARK minimizedAffinity -4.97365332
REMARK minimizedRMSD -1
REMARK  0 active torsions:
REMARK  status: ('A' for Active; 'I' for Inactive)
ROOT
ATOM      1  C   UNL d   1      -2.053   2.781   0.798  0.00  0.00     0.077 C 
ATOM      2  C1  UNL d   1      -1.479   1.410   1.001  0.00  0.00    -0.074 A 
ATOM      3  C2  UNL d   1      -1.645   0.734   2.215  0.00  0.00    -0.005 A 
ATOM      4  C3  UNL d   1      -1.114  -0.544   2.386  0.00  0.00     0.006 A 
ATOM      5  C4  UNL d   1      -0.412  -1.159   1.348  0.00  0.00    -0.005 A 
ATOM      6  C5  UNL d   1      -0.237  -0.498   0.127  0.00  0.00    -0.074 A 
ATOM      7  C6  UNL d   1       0.506  -1.148  -1.002  0.00  0.00     0.077 C 
ATOM      8  C7  UNL d   1      -0.780   0.783  -0.040  0.00  0.00    -0.001 A 
ENDROOT
TORSDOF 0
ENDMDL
