MODEL 1
REMARK minimizedAffinity -5.71526957
REMARK minimizedRMSD -1
REMARK  0 active torsions:
REMARK  status: ('A' for Active; 'I' for Inactive)
ROOT
ATOM      1  C   UNL d   1       0.387  -1.143  -0.991  0.00  0.00     0.077 C 
ATOM      2  C1  UNL d   1      -0.239  -0.217   0.010  0.00  0.00    -0.074 A 
ATOM      3  C2  UNL d   1      -0.724  -0.699   1.230  0.00  0.00    -0.005 A 
ATOM      4  C3  UNL d   1      -1.295   0.176   2.154  0.00  0.00     0.006 A 
ATOM      5  C4  UNL d   1      -1.387   1.539   1.868  0.00  0.00    -0.005 A 
ATOM      6  C5  UNL d   1      -0.906   2.039   0.654  0.00  0.00    -0.074 A 
ATOM      7  C6  UNL d   1      -0.987   3.502   0.335  0.00  0.00     0.077 C 
ATOM      8  C7  UNL d   1      -0.327   1.155  -0.267  0.00  0.00    -0.001 A 
ENDROOT
TORSDOF 0
ENDMDL
