MODEL 1
REMARK minimizedAffinity -4.30487251
REMARK minimizedRMSD -1
REMARK  0 active torsions:
REMARK  status: ('A' for Active; 'I' for Inactive)
ROOT
ATOM      1  C   UNL d   1       1.193  -1.812  -0.526  0.00  0.00     0.077 C 
ATOM      2  C1  UNL d   1       0.388  -0.626  -0.085  0.00  0.00    -0.074 A 
ATOM      3  C2  UNL d   1      -0.366  -0.666   1.092  0.00  0.00    -0.005 A 
ATOM      4  C3  UNL d   1      -1.102   0.448   1.495  0.00  0.00     0.006 A 
ATOM      5  C4  UNL d   1      -1.092   1.612   0.725  0.00  0.00    -0.005 A 
ATOM      6  C5  UNL d   1      -0.344   1.671  -0.455  0.00  0.00    -0.074 A 
ATOM      7  C6  UNL d   1      -0.315   2.918  -1.288  0.00  0.00     0.077 C 
ATOM      8  C7  UNL d   1       0.399   0.550  -0.849  0.00  0.00    -0.001 A 
ENDROOT
TORSDOF 0
ENDMDL
