MODEL 1
REMARK minimizedAffinity -3.3644588
REMARK minimizedRMSD -1
REMARK  0 active torsions:
REMARK  status: ('A' for Active; 'I' for Inactive)
ROOT
ATOM      1  C   UNL d   1       0.351   2.397  -1.574  0.00  0.00     0.077 C 
ATOM      2  C1  UNL d   1       0.173   1.089  -0.862  0.00  0.00    -0.074 A 
ATOM      3  C2  UNL d   1      -0.620   0.998   0.286  0.00  0.00    -0.005 A 
ATOM      4  C3  UNL d   1      -0.784  -0.228   0.932  0.00  0.00     0.006 A 
ATOM      5  C4  UNL d   1      -0.158  -1.372   0.437  0.00  0.00    -0.005 A 
ATOM      6  C5  UNL d   1       0.637  -1.301  -0.711  0.00  0.00    -0.074 A 
ATOM      7  C6  UNL d   1       1.309  -2.523  -1.262  0.00  0.00     0.077 C 
ATOM      8  C7  UNL d   1       0.792  -0.067  -1.358  0.00  0.00    -0.001 A 
ENDROOT
TORSDOF 0
ENDMDL
