MODEL 1
REMARK minimizedAffinity -3.83969164
REMARK minimizedRMSD -1
REMARK  0 active torsions:
REMARK  status: ('A' for Active; 'I' for Inactive)
ROOT
ATOM      1  C   UNL d   1       0.398  -1.581   2.473  0.00  0.00     0.077 C 
ATOM      2  C1  UNL d   1       0.019  -0.569   1.433  0.00  0.00    -0.074 A 
ATOM      3  C2  UNL d   1       0.477  -0.683   0.117  0.00  0.00    -0.005 A 
ATOM      4  C3  UNL d   1       0.108   0.261  -0.841  0.00  0.00     0.006 A 
ATOM      5  C4  UNL d   1      -0.722   1.327  -0.493  0.00  0.00    -0.005 A 
ATOM      6  C5  UNL d   1      -1.191   1.458   0.818  0.00  0.00    -0.074 A 
ATOM      7  C6  UNL d   1      -2.092   2.592   1.206  0.00  0.00     0.077 C 
ATOM      8  C7  UNL d   1      -0.821   0.501   1.773  0.00  0.00    -0.001 A 
ENDROOT
TORSDOF 0
ENDMDL
