MODEL 1
REMARK minimizedAffinity -2.21844482
REMARK minimizedRMSD -1
REMARK  0 active torsions:
REMARK  status: ('A' for Active; 'I' for Inactive)
ROOT
ATOM      1  C   UNL d   1      -2.603   2.002   0.993  0.00  0.00     0.077 C 
ATOM      2  C1  UNL d   1      -1.451   1.042   1.023  0.00  0.00    -0.074 A 
ATOM      3  C2  UNL d   1      -0.914   0.601   2.237  0.00  0.00    -0.005 A 
ATOM      4  C3  UNL d   1       0.151  -0.299   2.250  0.00  0.00     0.006 A 
ATOM      5  C4  UNL d   1       0.690  -0.767   1.051  0.00  0.00    -0.005 A 
ATOM      6  C5  UNL d   1       0.166  -0.338  -0.173  0.00  0.00    -0.074 A 
ATOM      7  C6  UNL d   1       0.727  -0.838  -1.471  0.00  0.00     0.077 C 
ATOM      8  C7  UNL d   1      -0.909   0.562  -0.177  0.00  0.00    -0.001 A 
ENDROOT
TORSDOF 0
ENDMDL
