MODEL 1
REMARK minimizedAffinity -4.3452282
REMARK minimizedRMSD -1
REMARK  0 active torsions:
REMARK  status: ('A' for Active; 'I' for Inactive)
ROOT
ATOM      1  C   UNL d   1      -2.356   2.242   0.910  0.00  0.00     0.077 C 
ATOM      2  C1  UNL d   1      -1.307   1.174   0.822  0.00  0.00    -0.074 A 
ATOM      3  C2  UNL d   1      -1.097   0.284   1.880  0.00  0.00    -0.005 A 
ATOM      4  C3  UNL d   1      -0.124  -0.711   1.780  0.00  0.00     0.006 A 
ATOM      5  C4  UNL d   1       0.648  -0.825   0.623  0.00  0.00    -0.005 A 
ATOM      6  C5  UNL d   1       0.452   0.055  -0.446  0.00  0.00    -0.074 A 
ATOM      7  C6  UNL d   1       1.265  -0.060  -1.700  0.00  0.00     0.077 C 
ATOM      8  C7  UNL d   1      -0.533   1.048  -0.340  0.00  0.00    -0.001 A 
ENDROOT
TORSDOF 0
ENDMDL
