MODEL 1
REMARK minimizedAffinity -4.22237921
REMARK minimizedRMSD -1
REMARK  0 active torsions:
REMARK  status: ('A' for Active; 'I' for Inactive)
ROOT
ATOM      1  C   UNL d   1       1.319  -1.875  -1.472  0.00  0.00     0.077 C 
ATOM      2  C1  UNL d   1       0.774  -0.538  -1.066  0.00  0.00    -0.074 A 
ATOM      3  C2  UNL d   1       1.002   0.598  -1.849  0.00  0.00    -0.005 A 
ATOM      4  C3  UNL d   1       0.481   1.834  -1.464  0.00  0.00     0.006 A 
ATOM      5  C4  UNL d   1      -0.272   1.945  -0.295  0.00  0.00    -0.005 A 
ATOM      6  C5  UNL d   1      -0.511   0.819   0.500  0.00  0.00    -0.074 A 
ATOM      7  C6  UNL d   1      -1.326   0.920   1.755  0.00  0.00     0.077 C 
ATOM      8  C7  UNL d   1       0.010  -0.420   0.103  0.00  0.00    -0.001 A 
ENDROOT
TORSDOF 0
ENDMDL
