MODEL 1
REMARK minimizedAffinity -2.50054622
REMARK minimizedRMSD -1
REMARK  0 active torsions:
REMARK  status: ('A' for Active; 'I' for Inactive)
ROOT
ATOM      1  C   UNL d   1      -3.229   1.598  -0.012  0.00  0.00     0.077 C 
ATOM      2  C1  UNL d   1      -1.828   1.079   0.122  0.00  0.00    -0.074 A 
ATOM      3  C2  UNL d   1      -0.998   0.956  -0.996  0.00  0.00    -0.005 A 
ATOM      4  C3  UNL d   1       0.306   0.481  -0.855  0.00  0.00     0.006 A 
ATOM      5  C4  UNL d   1       0.791   0.125   0.404  0.00  0.00    -0.005 A 
ATOM      6  C5  UNL d   1      -0.024   0.242   1.534  0.00  0.00    -0.074 A 
ATOM      7  C6  UNL d   1       0.485  -0.127   2.895  0.00  0.00     0.077 C 
ATOM      8  C7  UNL d   1      -1.331   0.727   1.384  0.00  0.00    -0.001 A 
ENDROOT
TORSDOF 0
ENDMDL
