MODEL 1
REMARK minimizedAffinity -5.08261251
REMARK minimizedRMSD -1
REMARK  0 active torsions:
REMARK  status: ('A' for Active; 'I' for Inactive)
ROOT
ATOM      1  C   UNL d   1      -1.420   3.568   0.755  0.00  0.00     0.077 C 
ATOM      2  C1  UNL d   1      -0.725   2.241   0.686  0.00  0.00    -0.074 A 
ATOM      3  C2  UNL d   1       0.182   1.956  -0.340  0.00  0.00    -0.005 A 
ATOM      4  C3  UNL d   1       0.828   0.721  -0.385  0.00  0.00     0.006 A 
ATOM      5  C4  UNL d   1       0.573  -0.241   0.593  0.00  0.00    -0.005 A 
ATOM      6  C5  UNL d   1      -0.330   0.026   1.627  0.00  0.00    -0.074 A 
ATOM      7  C6  UNL d   1      -0.608  -0.993   2.692  0.00  0.00     0.077 C 
ATOM      8  C7  UNL d   1      -0.969   1.272   1.670  0.00  0.00    -0.001 A 
ENDROOT
TORSDOF 0
ENDMDL
