MODEL 1
REMARK minimizedAffinity -5.77924395
REMARK minimizedRMSD -1
REMARK  0 active torsions:
REMARK  status: ('A' for Active; 'I' for Inactive)
ROOT
ATOM      1  C   UNL d   1      -1.927   3.457   0.872  0.00  0.00     0.077 C 
ATOM      2  C1  UNL d   1      -1.120   2.220   0.612  0.00  0.00    -0.074 A 
ATOM      3  C2  UNL d   1      -0.360   2.089  -0.555  0.00  0.00    -0.005 A 
ATOM      4  C3  UNL d   1       0.394   0.937  -0.778  0.00  0.00     0.006 A 
ATOM      5  C4  UNL d   1       0.396  -0.094   0.162  0.00  0.00    -0.005 A 
ATOM      6  C5  UNL d   1      -0.357   0.019   1.335  0.00  0.00    -0.074 A 
ATOM      7  C6  UNL d   1      -0.358  -1.076   2.360  0.00  0.00     0.077 C 
ATOM      8  C7  UNL d   1      -1.106   1.183   1.555  0.00  0.00    -0.001 A 
ENDROOT
TORSDOF 0
ENDMDL
