MODEL 1
REMARK minimizedAffinity -3.79381013
REMARK minimizedRMSD -1
REMARK  0 active torsions:
REMARK  status: ('A' for Active; 'I' for Inactive)
ROOT
ATOM      1  C   UNL d   1       0.877   2.380  -1.704  0.00  0.00     0.077 C 
ATOM      2  C1  UNL d   1       0.325   1.460  -0.656  0.00  0.00    -0.074 A 
ATOM      3  C2  UNL d   1       1.008   0.297  -0.287  0.00  0.00    -0.005 A 
ATOM      4  C3  UNL d   1       0.487  -0.544   0.696  0.00  0.00     0.006 A 
ATOM      5  C4  UNL d   1      -0.721  -0.230   1.320  0.00  0.00    -0.005 A 
ATOM      6  C5  UNL d   1      -1.418   0.929   0.965  0.00  0.00    -0.074 A 
ATOM      7  C6  UNL d   1      -2.713   1.286   1.633  0.00  0.00     0.077 C 
ATOM      8  C7  UNL d   1      -0.884   1.773  -0.019  0.00  0.00    -0.001 A 
ENDROOT
TORSDOF 0
ENDMDL
