MODEL 1
REMARK minimizedAffinity -4.65474844
REMARK minimizedRMSD -1
REMARK  0 active torsions:
REMARK  status: ('A' for Active; 'I' for Inactive)
ROOT
ATOM      1  C   UNL d   1      -2.160   2.158   1.392  0.00  0.00     0.077 C 
ATOM      2  C1  UNL d   1      -1.087   1.196   0.977  0.00  0.00    -0.074 A 
ATOM      3  C2  UNL d   1      -0.568   1.213  -0.321  0.00  0.00    -0.005 A 
ATOM      4  C3  UNL d   1       0.436   0.319  -0.690  0.00  0.00     0.006 A 
ATOM      5  C4  UNL d   1       0.932  -0.602   0.235  0.00  0.00    -0.005 A 
ATOM      6  C5  UNL d   1       0.426  -0.634   1.539  0.00  0.00    -0.074 A 
ATOM      7  C6  UNL d   1       0.954  -1.610   2.548  0.00  0.00     0.077 C 
ATOM      8  C7  UNL d   1      -0.579   0.274   1.903  0.00  0.00    -0.001 A 
ENDROOT
TORSDOF 0
ENDMDL
