MODEL 1
REMARK minimizedAffinity -3.66212344
REMARK minimizedRMSD -1
REMARK  0 active torsions:
REMARK  status: ('A' for Active; 'I' for Inactive)
ROOT
ATOM      1  C   UNL d   1      -2.478   2.666   1.369  0.00  0.00     0.077 C 
ATOM      2  C1  UNL d   1      -1.429   1.595   1.400  0.00  0.00    -0.074 A 
ATOM      3  C2  UNL d   1      -0.758   1.280   2.586  0.00  0.00    -0.005 A 
ATOM      4  C3  UNL d   1       0.208   0.274   2.601  0.00  0.00     0.006 A 
ATOM      5  C4  UNL d   1       0.513  -0.425   1.433  0.00  0.00    -0.005 A 
ATOM      6  C5  UNL d   1      -0.148  -0.125   0.238  0.00  0.00    -0.074 A 
ATOM      7  C6  UNL d   1       0.161  -0.874  -1.024  0.00  0.00     0.077 C 
ATOM      8  C7  UNL d   1      -1.123   0.882   0.232  0.00  0.00    -0.001 A 
ENDROOT
TORSDOF 0
ENDMDL
