MODEL 1
REMARK minimizedAffinity -4.44819021
REMARK minimizedRMSD -1
REMARK  0 active torsions:
REMARK  status: ('A' for Active; 'I' for Inactive)
ROOT
ATOM      1  C   UNL d   1       1.316   1.916  -1.778  0.00  0.00     0.077 C 
ATOM      2  C1  UNL d   1       0.457   1.274  -0.728  0.00  0.00    -0.074 A 
ATOM      3  C2  UNL d   1       0.670  -0.053  -0.339  0.00  0.00    -0.005 A 
ATOM      4  C3  UNL d   1      -0.130  -0.633   0.645  0.00  0.00     0.006 A 
ATOM      5  C4  UNL d   1      -1.149   0.105   1.248  0.00  0.00    -0.005 A 
ATOM      6  C5  UNL d   1      -1.376   1.432   0.872  0.00  0.00    -0.074 A 
ATOM      7  C6  UNL d   1      -2.461   2.243   1.517  0.00  0.00     0.077 C 
ATOM      8  C7  UNL d   1      -0.563   2.011  -0.112  0.00  0.00    -0.001 A 
ENDROOT
TORSDOF 0
ENDMDL
