MODEL 1
REMARK minimizedAffinity 5.6720233
REMARK minimizedRMSD -1
REMARK  0 active torsions:
REMARK  status: ('A' for Active; 'I' for Inactive)
ROOT
ATOM      1  C   UNL d   1       2.064   1.665   4.070  0.00  0.00     0.078 C 
ATOM      2  C1  UNL d   1       1.430   0.451   3.460  0.00  0.00    -0.077 A 
ATOM      3  C2  UNL d   1       2.209  -0.540   2.850  0.00  0.00    -0.001 A 
ATOM      4  C3  UNL d   1       1.605  -1.661   2.277  0.00  0.00     0.003 A 
ATOM      5  C4  UNL d   1       0.219  -1.801   2.308  0.00  0.00    -0.005 A 
ATOM      6  C5  UNL d   1      -0.565  -0.819   2.911  0.00  0.00     0.003 A 
ATOM      7  C6  UNL d   1       0.038   0.302   3.484  0.00  0.00    -0.001 A 
ENDROOT
TORSDOF 0
ENDMDL
