MODEL 1
REMARK minimizedAffinity -4.61368132
REMARK minimizedRMSD -1
REMARK  0 active torsions:
REMARK  status: ('A' for Active; 'I' for Inactive)
ROOT
ATOM      1  C   UNL d   1      -0.014  -0.169  -1.088  0.00  0.00     0.078 C 
ATOM      2  C1  UNL d   1       0.602  -0.548   0.225  0.00  0.00    -0.077 A 
ATOM      3  C2  UNL d   1       1.983  -0.750   0.342  0.00  0.00    -0.001 A 
ATOM      4  C3  UNL d   1       2.542  -1.112   1.569  0.00  0.00     0.003 A 
ATOM      5  C4  UNL d   1       1.728  -1.277   2.688  0.00  0.00    -0.005 A 
ATOM      6  C5  UNL d   1       0.353  -1.081   2.580  0.00  0.00     0.003 A 
ATOM      7  C6  UNL d   1      -0.208  -0.718   1.355  0.00  0.00    -0.001 A 
ENDROOT
TORSDOF 0
ENDMDL
