MODEL 1
REMARK minimizedAffinity -1.55493069
REMARK minimizedRMSD -1
REMARK  0 active torsions:
REMARK  status: ('A' for Active; 'I' for Inactive)
ROOT
ATOM      1  C   UNL d   1       1.540  -1.131  -0.851  0.00  0.00     0.078 C 
ATOM      2  C1  UNL d   1       0.211  -0.789  -0.248  0.00  0.00    -0.077 A 
ATOM      3  C2  UNL d   1       0.028  -0.784   1.140  0.00  0.00    -0.001 A 
ATOM      4  C3  UNL d   1      -1.218  -0.473   1.687  0.00  0.00     0.003 A 
ATOM      5  C4  UNL d   1      -2.291  -0.164   0.854  0.00  0.00    -0.005 A 
ATOM      6  C5  UNL d   1      -2.119  -0.168  -0.529  0.00  0.00     0.003 A 
ATOM      7  C6  UNL d   1      -0.874  -0.479  -1.078  0.00  0.00    -0.001 A 
ENDROOT
TORSDOF 0
ENDMDL
