MODEL 1
REMARK minimizedAffinity -2.0880425
REMARK minimizedRMSD -1
REMARK  0 active torsions:
REMARK  status: ('A' for Active; 'I' for Inactive)
ROOT
ATOM      1  C   UNL d   1       1.811  -4.498   1.125  0.00  0.00     0.078 C 
ATOM      2  C1  UNL d   1       0.653  -3.829   1.803  0.00  0.00    -0.077 A 
ATOM      3  C2  UNL d   1      -0.360  -4.581   2.411  0.00  0.00    -0.001 A 
ATOM      4  C3  UNL d   1      -1.437  -3.944   3.030  0.00  0.00     0.003 A 
ATOM      5  C4  UNL d   1      -1.511  -2.553   3.047  0.00  0.00    -0.005 A 
ATOM      6  C5  UNL d   1      -0.509  -1.796   2.443  0.00  0.00     0.003 A 
ATOM      7  C6  UNL d   1       0.568  -2.431   1.823  0.00  0.00    -0.001 A 
ENDROOT
TORSDOF 0
ENDMDL
