MODEL 1
REMARK minimizedAffinity 0.455555737
REMARK minimizedRMSD -1
REMARK  0 active torsions:
REMARK  status: ('A' for Active; 'I' for Inactive)
ROOT
ATOM      1  C   UNL d   1      -1.372   1.061   1.169  0.00  0.00     0.078 C 
ATOM      2  C1  UNL d   1      -0.556  -0.185   1.351  0.00  0.00    -0.077 A 
ATOM      3  C2  UNL d   1       0.432  -0.540   0.425  0.00  0.00    -0.001 A 
ATOM      4  C3  UNL d   1       1.177  -1.707   0.601  0.00  0.00     0.003 A 
ATOM      5  C4  UNL d   1       0.941  -2.529   1.701  0.00  0.00    -0.005 A 
ATOM      6  C5  UNL d   1      -0.042  -2.184   2.627  0.00  0.00     0.003 A 
ATOM      7  C6  UNL d   1      -0.788  -1.018   2.452  0.00  0.00    -0.001 A 
ENDROOT
TORSDOF 0
ENDMDL
