MODEL 1
REMARK minimizedAffinity 2.8653872
REMARK minimizedRMSD -1
REMARK  0 active torsions:
REMARK  status: ('A' for Active; 'I' for Inactive)
ROOT
ATOM      1  C   UNL d   1       0.951  -1.283  -0.218  0.00  0.00     0.078 C 
ATOM      2  C1  UNL d   1      -0.190  -0.861   0.659  0.00  0.00    -0.077 A 
ATOM      3  C2  UNL d   1      -1.390  -0.396   0.107  0.00  0.00    -0.001 A 
ATOM      4  C3  UNL d   1      -2.440   0.003   0.935  0.00  0.00     0.003 A 
ATOM      5  C4  UNL d   1      -2.300  -0.058   2.320  0.00  0.00    -0.005 A 
ATOM      6  C5  UNL d   1      -1.110  -0.518   2.879  0.00  0.00     0.003 A 
ATOM      7  C6  UNL d   1      -0.058  -0.917   2.052  0.00  0.00    -0.001 A 
ENDROOT
TORSDOF 0
ENDMDL
