MODEL 1
REMARK minimizedAffinity 0.560714245
REMARK minimizedRMSD -1
REMARK  0 active torsions:
REMARK  status: ('A' for Active; 'I' for Inactive)
ROOT
ATOM      1  C2' OXE d   1       1.683  -1.192  -0.456  0.00  0.00     0.078 C 
ATOM      2  C1' OXE d   1       2.151   1.104   1.089  0.00  0.00     0.078 C 
ATOM      3  C1  OXE d   1       0.995   0.217   1.479  0.00  0.00    -0.078 A 
ATOM      4  C2  OXE d   1       0.745  -0.879   0.689  0.00  0.00    -0.078 A 
ATOM      5  C3  OXE d   1      -0.276  -1.760   1.036  0.00  0.00     0.003 A 
ATOM      6  C4  OXE d   1      -1.145  -1.458   2.091  0.00  0.00    -0.002 A 
ATOM      7  C5  OXE d   1      -0.932  -0.325   2.884  0.00  0.00    -0.002 A 
ATOM      8  C6  OXE d   1       0.156   0.498   2.618  0.00  0.00     0.003 A 
ENDROOT
TORSDOF 0
ENDMDL
