MODEL 1
REMARK minimizedAffinity 1.05546474
REMARK minimizedRMSD -1
REMARK  0 active torsions:
REMARK  status: ('A' for Active; 'I' for Inactive)
ROOT
ATOM      1  C2' OXE d   1       3.859   1.719  -1.914  0.00  0.00     0.078 C 
ATOM      2  C1' OXE d   1       4.975  -0.851  -2.088  0.00  0.00     0.078 C 
ATOM      3  C1  OXE d   1       3.672  -0.698  -1.343  0.00  0.00    -0.078 A 
ATOM      4  C2  OXE d   1       3.158   0.570  -1.223  0.00  0.00    -0.078 A 
ATOM      5  C3  OXE d   1       1.931   0.760  -0.593  0.00  0.00     0.003 A 
ATOM      6  C4  OXE d   1       1.293  -0.307   0.052  0.00  0.00    -0.002 A 
ATOM      7  C5  OXE d   1       1.821  -1.600  -0.024  0.00  0.00    -0.002 A 
ATOM      8  C6  OXE d   1       2.984  -1.820  -0.753  0.00  0.00     0.003 A 
ENDROOT
TORSDOF 0
ENDMDL
