MODEL 1
REMARK minimizedAffinity 0.724178433
REMARK minimizedRMSD -1
REMARK  0 active torsions:
REMARK  status: ('A' for Active; 'I' for Inactive)
ROOT
ATOM      1  C2' OXE d   1       3.729  -1.281  -1.698  0.00  0.00     0.078 C 
ATOM      2  C1' OXE d   1       3.322   1.480  -1.393  0.00  0.00     0.078 C 
ATOM      3  C1  OXE d   1       2.454   0.547  -0.586  0.00  0.00    -0.078 A 
ATOM      4  C2  OXE d   1       2.628  -0.802  -0.776  0.00  0.00    -0.078 A 
ATOM      5  C3  OXE d   1       1.891  -1.707  -0.017  0.00  0.00     0.003 A 
ATOM      6  C4  OXE d   1       0.868  -1.256   0.826  0.00  0.00    -0.002 A 
ATOM      7  C5  OXE d   1       0.647   0.114   1.005  0.00  0.00    -0.002 A 
ATOM      8  C6  OXE d   1       1.458   1.027   0.340  0.00  0.00     0.003 A 
ENDROOT
TORSDOF 0
ENDMDL
