MODEL 1
REMARK minimizedAffinity 2.93040395
REMARK minimizedRMSD -1
REMARK  0 active torsions:
REMARK  status: ('A' for Active; 'I' for Inactive)
ROOT
ATOM      1  C2' OXE d   1       4.412  -0.716  -1.218  0.00  0.00     0.078 C 
ATOM      2  C1' OXE d   1       2.536  -2.803  -1.147  0.00  0.00     0.078 C 
ATOM      3  C1  OXE d   1       2.146  -1.485  -0.524  0.00  0.00    -0.078 A 
ATOM      4  C2  OXE d   1       3.088  -0.484  -0.522  0.00  0.00    -0.078 A 
ATOM      5  C3  OXE d   1       2.762   0.768  -0.010  0.00  0.00     0.003 A 
ATOM      6  C4  OXE d   1       1.539   0.971   0.640  0.00  0.00    -0.002 A 
ATOM      7  C5  OXE d   1       0.581  -0.047   0.685  0.00  0.00    -0.002 A 
ATOM      8  C6  OXE d   1       0.852  -1.265   0.071  0.00  0.00     0.003 A 
ENDROOT
TORSDOF 0
ENDMDL
