MODEL 1
REMARK minimizedAffinity 3.20535994
REMARK minimizedRMSD -1
REMARK  0 active torsions:
REMARK  status: ('A' for Active; 'I' for Inactive)
ROOT
ATOM      1  C2' OXE d   1       3.861   1.007  -2.073  0.00  0.00     0.078 C 
ATOM      2  C1' OXE d   1       3.464  -1.772  -2.014  0.00  0.00     0.078 C 
ATOM      3  C1  OXE d   1       2.572  -0.915  -1.150  0.00  0.00    -0.078 A 
ATOM      4  C2  OXE d   1       2.804   0.440  -1.150  0.00  0.00    -0.078 A 
ATOM      5  C3  OXE d   1       1.975   1.281  -0.414  0.00  0.00     0.003 A 
ATOM      6  C4  OXE d   1       1.006   0.748   0.445  0.00  0.00    -0.002 A 
ATOM      7  C5  OXE d   1       0.780  -0.632   0.490  0.00  0.00    -0.002 A 
ATOM      8  C6  OXE d   1       1.524  -1.472  -0.332  0.00  0.00     0.003 A 
ENDROOT
TORSDOF 0
ENDMDL
