MODEL 1
REMARK minimizedAffinity 0.465049505
REMARK minimizedRMSD -1
REMARK  0 active torsions:
REMARK  status: ('A' for Active; 'I' for Inactive)
ROOT
ATOM      1  C2' OXE d   1       0.154  -1.187   0.592  0.00  0.00     0.078 C 
ATOM      2  C1' OXE d   1       1.217   1.392   0.906  0.00  0.00     0.078 C 
ATOM      3  C1  OXE d   1       1.831   0.502  -0.145  0.00  0.00    -0.078 A 
ATOM      4  C2  OXE d   1       1.335  -0.774  -0.261  0.00  0.00    -0.078 A 
ATOM      5  C3  OXE d   1       1.828  -1.619  -1.251  0.00  0.00     0.003 A 
ATOM      6  C4  OXE d   1       2.927  -1.233  -2.029  0.00  0.00    -0.002 A 
ATOM      7  C5  OXE d   1       3.473   0.048  -1.900  0.00  0.00    -0.002 A 
ATOM      8  C6  OXE d   1       2.910   0.941  -0.995  0.00  0.00     0.003 A 
ENDROOT
TORSDOF 0
ENDMDL
