MODEL 1
REMARK minimizedAffinity -0.398870885
REMARK minimizedRMSD -1
REMARK  0 active torsions:
REMARK  status: ('A' for Active; 'I' for Inactive)
ROOT
ATOM      1  C2' OXE d   1       2.986  -1.971  -1.525  0.00  0.00     0.078 C 
ATOM      2  C1' OXE d   1       2.985   0.829  -1.715  0.00  0.00     0.078 C 
ATOM      3  C1  OXE d   1       2.201   0.201  -0.591  0.00  0.00    -0.078 A 
ATOM      4  C2  OXE d   1       2.168  -1.172  -0.533  0.00  0.00    -0.078 A 
ATOM      5  C3  OXE d   1       1.505  -1.802   0.515  0.00  0.00     0.003 A 
ATOM      6  C4  OXE d   1       0.743  -1.056   1.422  0.00  0.00    -0.002 A 
ATOM      7  C5  OXE d   1       0.730   0.341   1.358  0.00  0.00    -0.002 A 
ATOM      8  C6  OXE d   1       1.486   0.985   0.385  0.00  0.00     0.003 A 
ENDROOT
TORSDOF 0
ENDMDL
