MODEL 1
REMARK minimizedAffinity 0.260060459
REMARK minimizedRMSD -1
REMARK  0 active torsions:
REMARK  status: ('A' for Active; 'I' for Inactive)
ROOT
ATOM      1  C2' OXE d   1       5.611  -0.379  -2.406  0.00  0.00     0.078 C 
ATOM      2  C1' OXE d   1       4.343   2.079  -1.926  0.00  0.00     0.078 C 
ATOM      3  C1  OXE d   1       3.647   0.826  -1.458  0.00  0.00    -0.078 A 
ATOM      4  C2  OXE d   1       4.252  -0.376  -1.739  0.00  0.00    -0.078 A 
ATOM      5  C3  OXE d   1       3.679  -1.559  -1.282  0.00  0.00     0.003 A 
ATOM      6  C4  OXE d   1       2.418  -1.548  -0.675  0.00  0.00    -0.002 A 
ATOM      7  C5  OXE d   1       1.765  -0.338  -0.415  0.00  0.00    -0.002 A 
ATOM      8  C6  OXE d   1       2.384   0.858  -0.762  0.00  0.00     0.003 A 
ENDROOT
TORSDOF 0
ENDMDL
