MODEL 1
REMARK minimizedAffinity 7.78386593
REMARK minimizedRMSD -1
REMARK  0 active torsions:
REMARK  status: ('A' for Active; 'I' for Inactive)
ROOT
ATOM      1  C2' OXE d   1      -0.153   1.613  -4.100  0.00  0.00     0.078 C 
ATOM      2  C1' OXE d   1       1.742   3.626  -3.612  0.00  0.00     0.078 C 
ATOM      3  C1  OXE d   1       0.325   3.868  -3.156  0.00  0.00    -0.078 A 
ATOM      4  C2  OXE d   1      -0.606   2.898  -3.441  0.00  0.00    -0.078 A 
ATOM      5  C3  OXE d   1      -1.916   3.047  -2.995  0.00  0.00     0.003 A 
ATOM      6  C4  OXE d   1      -2.329   4.243  -2.395  0.00  0.00    -0.002 A 
ATOM      7  C5  OXE d   1      -1.405   5.261  -2.131  0.00  0.00    -0.002 A 
ATOM      8  C6  OXE d   1      -0.069   5.072  -2.466  0.00  0.00     0.003 A 
ENDROOT
TORSDOF 0
ENDMDL
