MODEL 1
REMARK minimizedAffinity 1.5921793
REMARK minimizedRMSD -1
REMARK  0 active torsions:
REMARK  status: ('A' for Active; 'I' for Inactive)
ROOT
ATOM      1  C2' OXE d   1       0.614  -0.023   0.853  0.00  0.00     0.078 C 
ATOM      2  C1' OXE d   1       1.977   2.095  -0.385  0.00  0.00     0.078 C 
ATOM      3  C1  OXE d   1       2.431   0.690  -0.695  0.00  0.00    -0.078 A 
ATOM      4  C2  OXE d   1       1.788  -0.338  -0.049  0.00  0.00    -0.078 A 
ATOM      5  C3  OXE d   1       2.130  -1.656  -0.339  0.00  0.00     0.003 A 
ATOM      6  C4  OXE d   1       3.224  -1.938  -1.166  0.00  0.00    -0.002 A 
ATOM      7  C5  OXE d   1       3.918  -0.903  -1.804  0.00  0.00    -0.002 A 
ATOM      8  C6  OXE d   1       3.508   0.411  -1.612  0.00  0.00     0.003 A 
ENDROOT
TORSDOF 0
ENDMDL
