MODEL 1
REMARK minimizedAffinity 0.791858792
REMARK minimizedRMSD -1
REMARK  0 active torsions:
REMARK  status: ('A' for Active; 'I' for Inactive)
ROOT
ATOM      1  C2' OXE d   1       2.949  -1.094  -0.073  0.00  0.00     0.078 C 
ATOM      2  C1' OXE d   1       1.777   1.457  -0.035  0.00  0.00     0.078 C 
ATOM      3  C1  OXE d   1       1.076   0.349   0.711  0.00  0.00    -0.078 A 
ATOM      4  C2  OXE d   1       1.631  -0.906   0.648  0.00  0.00    -0.078 A 
ATOM      5  C3  OXE d   1       1.054  -1.952   1.362  0.00  0.00     0.003 A 
ATOM      6  C4  OXE d   1      -0.170  -1.772   2.018  0.00  0.00    -0.002 A 
ATOM      7  C5  OXE d   1      -0.773  -0.511   2.061  0.00  0.00    -0.002 A 
ATOM      8  C6  OXE d   1      -0.143   0.568   1.450  0.00  0.00     0.003 A 
ENDROOT
TORSDOF 0
ENDMDL
