MODEL 1
REMARK minimizedAffinity 3.24434328
REMARK minimizedRMSD -1
REMARK  0 active torsions:
REMARK  status: ('A' for Active; 'I' for Inactive)
ROOT
ATOM      1  C2' OXE d   1       2.498  -1.093  -0.190  0.00  0.00     0.078 C 
ATOM      2  C1' OXE d   1       2.160   1.309   1.224  0.00  0.00     0.078 C 
ATOM      3  C1  OXE d   1       1.100   0.248   1.376  0.00  0.00    -0.078 A 
ATOM      4  C2  OXE d   1       1.249  -0.906   0.645  0.00  0.00    -0.078 A 
ATOM      5  C3  OXE d   1       0.328  -1.939   0.790  0.00  0.00     0.003 A 
ATOM      6  C4  OXE d   1      -0.829  -1.754   1.556  0.00  0.00    -0.002 A 
ATOM      7  C5  OXE d   1      -1.021  -0.571   2.278  0.00  0.00    -0.002 A 
ATOM      8  C6  OXE d   1      -0.048   0.421   2.233  0.00  0.00     0.003 A 
ENDROOT
TORSDOF 0
ENDMDL
