MODEL 1
REMARK minimizedAffinity -0.364704669
REMARK minimizedRMSD -1
REMARK  0 active torsions:
REMARK  status: ('A' for Active; 'I' for Inactive)
ROOT
ATOM      1  C2' OXE d   1       3.430  -1.078  -0.561  0.00  0.00     0.078 C 
ATOM      2  C1' OXE d   1       2.336   1.416   0.119  0.00  0.00     0.078 C 
ATOM      3  C1  OXE d   1       1.600   0.179   0.570  0.00  0.00    -0.078 A 
ATOM      4  C2  OXE d   1       2.118  -1.037   0.193  0.00  0.00    -0.078 A 
ATOM      5  C3  OXE d   1       1.509  -2.210   0.629  0.00  0.00     0.003 A 
ATOM      6  C4  OXE d   1       0.290  -2.163   1.317  0.00  0.00    -0.002 A 
ATOM      7  C5  OXE d   1      -0.275  -0.935   1.676  0.00  0.00    -0.002 A 
ATOM      8  C6  OXE d   1       0.388   0.242   1.348  0.00  0.00     0.003 A 
ENDROOT
TORSDOF 0
ENDMDL
