MODEL 1
REMARK minimizedAffinity -1.9676702
REMARK minimizedRMSD -1
REMARK  0 active torsions:
REMARK  status: ('A' for Active; 'I' for Inactive)
ROOT
ATOM      1  C2' OXE d   1       0.393  -3.128   1.364  0.00  0.00     0.078 C 
ATOM      2  C1' OXE d   1       1.024  -0.564   2.316  0.00  0.00     0.078 C 
ATOM      3  C1  OXE d   1      -0.424  -0.871   2.028  0.00  0.00    -0.078 A 
ATOM      4  C2  OXE d   1      -0.718  -2.112   1.518  0.00  0.00    -0.078 A 
ATOM      5  C3  OXE d   1      -2.044  -2.466   1.286  0.00  0.00     0.003 A 
ATOM      6  C4  OXE d   1      -3.065  -1.517   1.421  0.00  0.00    -0.002 A 
ATOM      7  C5  OXE d   1      -2.782  -0.234   1.901  0.00  0.00    -0.002 A 
ATOM      8  C6  OXE d   1      -1.476   0.091   2.249  0.00  0.00     0.003 A 
ENDROOT
TORSDOF 0
ENDMDL
