MODEL 1
REMARK minimizedAffinity -4.15554667
REMARK minimizedRMSD -1
REMARK  0 active torsions:
REMARK  status: ('A' for Active; 'I' for Inactive)
ROOT
ATOM      1  C2' OXE d   1       4.168   0.011  -2.480  0.00  0.00     0.078 C 
ATOM      2  C1' OXE d   1       3.127  -2.428  -1.558  0.00  0.00     0.078 C 
ATOM      3  C1  OXE d   1       2.535  -1.156  -1.005  0.00  0.00    -0.078 A 
ATOM      4  C2  OXE d   1       3.082   0.032  -1.427  0.00  0.00    -0.078 A 
ATOM      5  C3  OXE d   1       2.537   1.236  -0.990  0.00  0.00     0.003 A 
ATOM      6  C4  OXE d   1       1.539   1.247  -0.008  0.00  0.00    -0.002 A 
ATOM      7  C5  OXE d   1       0.995   0.048   0.465  0.00  0.00    -0.002 A 
ATOM      8  C6  OXE d   1       1.451  -1.158  -0.053  0.00  0.00     0.003 A 
ENDROOT
TORSDOF 0
ENDMDL
