MODEL 1
REMARK minimizedAffinity -1.92453957
REMARK minimizedRMSD -1
REMARK  1 active torsions:
REMARK  status: ('A' for Active; 'I' for Inactive)
REMARK    1  A    between atoms: N_2  and  C1_3 
ROOT
ATOM      1  C1  UNL d   1       5.325   1.898  -4.666  0.00  0.00     0.143 A 
ATOM      2  C2  UNL d   1       5.991   3.128  -4.653  0.00  0.00    -0.057 A 
ATOM      3  C3  UNL d   1       5.441   4.258  -5.269  0.00  0.00     0.033 A 
ATOM      4  C4  UNL d   1       4.224   4.171  -5.937  0.00  0.00    -0.042 A 
ATOM      5  C5  UNL d   1       3.556   2.952  -5.985  0.00  0.00     0.033 A 
ATOM      6  C6  UNL d   1       4.107   1.829  -5.362  0.00  0.00    -0.057 A 
ENDROOT
BRANCH   1   7
ATOM      7  N   UNL d   1       5.865   0.715  -4.157  0.00  0.00    -0.732 N 
ATOM      8  C   UNL d   1       5.993  -0.458  -4.995  0.00  0.00     0.284 C 
ATOM      9  H3  UNL d   1       6.666   0.883  -3.552  0.00  0.00     0.395 HD
ENDBRANCH   1   7
TORSDOF 1
ENDMDL
