MODEL 1
REMARK minimizedAffinity 2.19332075
REMARK minimizedRMSD -1
REMARK  1 active torsions:
REMARK  status: ('A' for Active; 'I' for Inactive)
REMARK    1  A    between atoms: N_2  and  C1_3 
ROOT
ATOM      1  C1  UNL d   1      -2.763   2.695   0.635  0.00  0.00     0.143 A 
ATOM      2  C2  UNL d   1      -1.852   2.098   1.514  0.00  0.00    -0.057 A 
ATOM      3  C3  UNL d   1      -0.546   2.585   1.647  0.00  0.00     0.033 A 
ATOM      4  C4  UNL d   1      -0.118   3.663   0.880  0.00  0.00    -0.042 A 
ATOM      5  C5  UNL d   1      -0.998   4.256  -0.019  0.00  0.00     0.033 A 
ATOM      6  C6  UNL d   1      -2.303   3.769  -0.142  0.00  0.00    -0.057 A 
ENDROOT
BRANCH   1   7
ATOM      7  N   UNL d   1      -4.044   2.196   0.386  0.00  0.00    -0.732 N 
ATOM      8  C   UNL d   1      -4.458   0.921   0.932  0.00  0.00     0.284 C 
ATOM      9  H3  UNL d   1      -4.758   2.919   0.431  0.00  0.00     0.395 HD
ENDBRANCH   1   7
TORSDOF 1
ENDMDL
