MODEL 1
REMARK minimizedAffinity 5.33010387
REMARK minimizedRMSD -1
REMARK  1 active torsions:
REMARK  status: ('A' for Active; 'I' for Inactive)
REMARK    1  A    between atoms: N_2  and  C1_3 
ROOT
ATOM      1  C1  UNL d   1       5.997  -0.145  -3.160  0.00  0.00     0.143 A 
ATOM      2  C2  UNL d   1       5.985  -1.418  -3.738  0.00  0.00    -0.057 A 
ATOM      3  C3  UNL d   1       5.931  -1.585  -5.127  0.00  0.00     0.033 A 
ATOM      4  C4  UNL d   1       5.858  -0.476  -5.964  0.00  0.00    -0.042 A 
ATOM      5  C5  UNL d   1       5.843   0.799  -5.410  0.00  0.00     0.033 A 
ATOM      6  C6  UNL d   1       5.905   0.959  -4.023  0.00  0.00    -0.057 A 
ENDROOT
BRANCH   1   7
ATOM      7  N   UNL d   1       5.951   0.085  -1.783  0.00  0.00    -0.732 N 
ATOM      8  C   UNL d   1       5.592   1.388  -1.264  0.00  0.00     0.284 C 
ATOM      9  H3  UNL d   1       5.539  -0.693  -1.273  0.00  0.00     0.395 HD
ENDBRANCH   1   7
TORSDOF 1
ENDMDL
