MODEL 1
REMARK minimizedAffinity 8.62466908
REMARK minimizedRMSD -1
REMARK  1 active torsions:
REMARK  status: ('A' for Active; 'I' for Inactive)
REMARK    1  A    between atoms: N_2  and  C1_3 
ROOT
ATOM      1  C1  UNL d   1       5.194   0.889  -3.940  0.00  0.00     0.143 A 
ATOM      2  C2  UNL d   1       5.842  -0.118  -3.217  0.00  0.00    -0.057 A 
ATOM      3  C3  UNL d   1       5.823  -0.134  -1.817  0.00  0.00     0.033 A 
ATOM      4  C4  UNL d   1       5.178   0.878  -1.113  0.00  0.00    -0.042 A 
ATOM      5  C5  UNL d   1       4.549   1.903  -1.810  0.00  0.00     0.033 A 
ATOM      6  C6  UNL d   1       4.566   1.909  -3.208  0.00  0.00    -0.057 A 
ENDROOT
BRANCH   1   7
ATOM      7  N   UNL d   1       5.261   1.014  -5.330  0.00  0.00    -0.732 N 
ATOM      8  C   UNL d   1       4.632   2.132  -6.000  0.00  0.00     0.284 C 
ATOM      9  H3  UNL d   1       6.177   0.770  -5.698  0.00  0.00     0.395 HD
ENDBRANCH   1   7
TORSDOF 1
ENDMDL
