MODEL 1
REMARK minimizedAffinity -4.33754826
REMARK minimizedRMSD -1
REMARK  1 active torsions:
REMARK  status: ('A' for Active; 'I' for Inactive)
REMARK    1  A    between atoms: N_2  and  C1_3 
ROOT
ATOM      1  C1  UNL d   1       5.514   0.943  -4.924  0.00  0.00     0.143 A 
ATOM      2  C2  UNL d   1       4.741   1.596  -5.890  0.00  0.00    -0.057 A 
ATOM      3  C3  UNL d   1       4.404   2.949  -5.758  0.00  0.00     0.033 A 
ATOM      4  C4  UNL d   1       4.811   3.667  -4.638  0.00  0.00    -0.042 A 
ATOM      5  C5  UNL d   1       5.560   3.032  -3.654  0.00  0.00     0.033 A 
ATOM      6  C6  UNL d   1       5.899   1.683  -3.795  0.00  0.00    -0.057 A 
ENDROOT
BRANCH   1   7
ATOM      7  N   UNL d   1       5.799  -0.424  -4.950  0.00  0.00    -0.732 N 
ATOM      8  C   UNL d   1       5.873  -1.185  -3.721  0.00  0.00     0.284 C 
ATOM      9  H3  UNL d   1       5.324  -0.906  -5.710  0.00  0.00     0.395 HD
ENDBRANCH   1   7
TORSDOF 1
ENDMDL
