MODEL 1
REMARK minimizedAffinity 1.6301105
REMARK minimizedRMSD -1
REMARK  1 active torsions:
REMARK  status: ('A' for Active; 'I' for Inactive)
REMARK    1  A    between atoms: N_2  and  C1_3 
ROOT
ATOM      1  C1  UNL d   1       0.832  -5.439  -4.095  0.00  0.00     0.143 A 
ATOM      2  C2  UNL d   1       0.997  -5.971  -5.378  0.00  0.00    -0.057 A 
ATOM      3  C3  UNL d   1       2.252  -5.999  -5.997  0.00  0.00     0.033 A 
ATOM      4  C4  UNL d   1       3.364  -5.468  -5.352  0.00  0.00    -0.042 A 
ATOM      5  C5  UNL d   1       3.220  -4.912  -4.086  0.00  0.00     0.033 A 
ATOM      6  C6  UNL d   1       1.964  -4.893  -3.471  0.00  0.00    -0.057 A 
ENDROOT
BRANCH   1   7
ATOM      7  N   UNL d   1      -0.407  -5.293  -3.466  0.00  0.00    -0.732 N 
ATOM      8  C   UNL d   1      -0.535  -4.496  -2.265  0.00  0.00     0.284 C 
ATOM      9  H3  UNL d   1      -1.167  -5.169  -4.131  0.00  0.00     0.395 HD
ENDBRANCH   1   7
TORSDOF 1
ENDMDL
