MODEL 1
REMARK minimizedAffinity 7.97874069
REMARK minimizedRMSD -1
REMARK  1 active torsions:
REMARK  status: ('A' for Active; 'I' for Inactive)
REMARK    1  A    between atoms: N_2  and  C1_3 
ROOT
ATOM      1  C1  UNL d   1      -1.488  -2.353   0.943  0.00  0.00     0.143 A 
ATOM      2  C2  UNL d   1      -0.373  -1.736   0.365  0.00  0.00    -0.057 A 
ATOM      3  C3  UNL d   1       0.050  -2.067  -0.929  0.00  0.00     0.033 A 
ATOM      4  C4  UNL d   1      -0.620  -3.044  -1.657  0.00  0.00    -0.042 A 
ATOM      5  C5  UNL d   1      -1.715  -3.688  -1.092  0.00  0.00     0.033 A 
ATOM      6  C6  UNL d   1      -2.137  -3.349   0.197  0.00  0.00    -0.057 A 
ENDROOT
BRANCH   1   7
ATOM      7  N   UNL d   1      -1.898  -2.138   2.262  0.00  0.00    -0.732 N 
ATOM      8  C   UNL d   1      -2.021  -3.246   3.185  0.00  0.00     0.284 C 
ATOM      9  H3  UNL d   1      -1.482  -1.303   2.667  0.00  0.00     0.395 HD
ENDBRANCH   1   7
TORSDOF 1
ENDMDL
