MODEL 1
REMARK minimizedAffinity 4.64357853
REMARK minimizedRMSD -1
REMARK  1 active torsions:
REMARK  status: ('A' for Active; 'I' for Inactive)
REMARK    1  A    between atoms: N_2  and  C1_3 
ROOT
ATOM      1  C1  UNL d   1       0.864   2.504   1.460  0.00  0.00     0.143 A 
ATOM      2  C2  UNL d   1       0.126   1.920   2.496  0.00  0.00    -0.057 A 
ATOM      3  C3  UNL d   1      -1.267   2.046   2.556  0.00  0.00     0.033 A 
ATOM      4  C4  UNL d   1      -1.947   2.785   1.593  0.00  0.00    -0.042 A 
ATOM      5  C5  UNL d   1      -1.232   3.395   0.568  0.00  0.00     0.033 A 
ATOM      6  C6  UNL d   1       0.159   3.260   0.510  0.00  0.00    -0.057 A 
ENDROOT
BRANCH   1   7
ATOM      7  N   UNL d   1       2.259   2.498   1.399  0.00  0.00    -0.732 N 
ATOM      8  C   UNL d   1       3.036   1.763   2.374  0.00  0.00     0.284 C 
ATOM      9  H3  UNL d   1       2.606   2.419   0.446  0.00  0.00     0.395 HD
ENDBRANCH   1   7
TORSDOF 1
ENDMDL
