MODEL 1
REMARK minimizedAffinity 3.79215002
REMARK minimizedRMSD -1
REMARK  1 active torsions:
REMARK  status: ('A' for Active; 'I' for Inactive)
REMARK    1  A    between atoms: N_2  and  C1_3 
ROOT
ATOM      1  C1  UNL d   1       1.029  -4.034  -3.708  0.00  0.00     0.143 A 
ATOM      2  C2  UNL d   1      -0.258  -3.577  -3.405  0.00  0.00    -0.057 A 
ATOM      3  C3  UNL d   1      -0.688  -3.445  -2.079  0.00  0.00     0.033 A 
ATOM      4  C4  UNL d   1       0.155  -3.797  -1.030  0.00  0.00    -0.042 A 
ATOM      5  C5  UNL d   1       1.430  -4.277  -1.308  0.00  0.00     0.033 A 
ATOM      6  C6  UNL d   1       1.856  -4.400  -2.634  0.00  0.00    -0.057 A 
ENDROOT
BRANCH   1   7
ATOM      7  N   UNL d   1       1.481  -4.280  -5.007  0.00  0.00    -0.732 N 
ATOM      8  C   UNL d   1       1.403  -5.609  -5.575  0.00  0.00     0.284 C 
ATOM      9  H3  UNL d   1       1.230  -3.536  -5.653  0.00  0.00     0.395 HD
ENDBRANCH   1   7
TORSDOF 1
ENDMDL
