MODEL 1
REMARK minimizedAffinity 8.88314247
REMARK minimizedRMSD -1
REMARK  1 active torsions:
REMARK  status: ('A' for Active; 'I' for Inactive)
REMARK    1  A    between atoms: N_2  and  C1_3 
ROOT
ATOM      1  C1  UNL d   1      -0.463  -2.146  -0.791  0.00  0.00     0.143 A 
ATOM      2  C2  UNL d   1       0.172  -1.242   0.068  0.00  0.00    -0.057 A 
ATOM      3  C3  UNL d   1      -0.247  -1.084   1.395  0.00  0.00     0.033 A 
ATOM      4  C4  UNL d   1      -1.329  -1.810   1.879  0.00  0.00    -0.042 A 
ATOM      5  C5  UNL d   1      -1.991  -2.697   1.037  0.00  0.00     0.033 A 
ATOM      6  C6  UNL d   1      -1.564  -2.854  -0.285  0.00  0.00    -0.057 A 
ENDROOT
BRANCH   1   7
ATOM      7  N   UNL d   1      -0.157  -2.276  -2.148  0.00  0.00    -0.732 N 
ATOM      8  C   UNL d   1       0.180  -3.567  -2.707  0.00  0.00     0.284 C 
ATOM      9  H3  UNL d   1      -0.764  -1.712  -2.738  0.00  0.00     0.395 HD
ENDBRANCH   1   7
TORSDOF 1
ENDMDL
