MODEL 1
REMARK minimizedAffinity 2.82677007
REMARK minimizedRMSD -1
REMARK  1 active torsions:
REMARK  status: ('A' for Active; 'I' for Inactive)
REMARK    1  A    between atoms: N_2  and  C1_3 
ROOT
ATOM      1  C1  UNL d   1      -5.349   3.473  -4.082  0.00  0.00     0.143 A 
ATOM      2  C2  UNL d   1      -5.991   4.341  -4.972  0.00  0.00    -0.057 A 
ATOM      3  C3  UNL d   1      -5.269   5.060  -5.932  0.00  0.00     0.033 A 
ATOM      4  C4  UNL d   1      -3.884   4.945  -6.000  0.00  0.00    -0.042 A 
ATOM      5  C5  UNL d   1      -3.223   4.108  -5.109  0.00  0.00     0.033 A 
ATOM      6  C6  UNL d   1      -3.950   3.387  -4.156  0.00  0.00    -0.057 A 
ENDROOT
BRANCH   1   7
ATOM      7  N   UNL d   1      -6.000   2.806  -3.041  0.00  0.00    -0.732 N 
ATOM      8  C   UNL d   1      -5.354   2.636  -1.757  0.00  0.00     0.284 C 
ATOM      9  H3  UNL d   1      -6.986   3.048  -2.981  0.00  0.00     0.395 HD
ENDBRANCH   1   7
TORSDOF 1
ENDMDL
