MODEL 1
REMARK minimizedAffinity 9.94545269
REMARK minimizedRMSD -1
REMARK  1 active torsions:
REMARK  status: ('A' for Active; 'I' for Inactive)
REMARK    1  A    between atoms: N_2  and  C1_3 
ROOT
ATOM      1  C1  UNL d   1      -1.384  -2.748   0.589  0.00  0.00     0.143 A 
ATOM      2  C2  UNL d   1      -1.925  -3.881  -0.029  0.00  0.00    -0.057 A 
ATOM      3  C3  UNL d   1      -1.563  -4.240  -1.333  0.00  0.00     0.033 A 
ATOM      4  C4  UNL d   1      -0.672  -3.452  -2.055  0.00  0.00    -0.042 A 
ATOM      5  C5  UNL d   1      -0.141  -2.308  -1.471  0.00  0.00     0.033 A 
ATOM      6  C6  UNL d   1      -0.502  -1.959  -0.166  0.00  0.00    -0.057 A 
ENDROOT
BRANCH   1   7
ATOM      7  N   UNL d   1      -1.779  -2.285   1.846  0.00  0.00    -0.732 N 
ATOM      8  C   UNL d   1      -1.906  -3.197   2.962  0.00  0.00     0.284 C 
ATOM      9  H3  UNL d   1      -1.349  -1.394   2.084  0.00  0.00     0.395 HD
ENDBRANCH   1   7
TORSDOF 1
ENDMDL
