MODEL 1
REMARK minimizedAffinity 11.453125
REMARK minimizedRMSD -1
REMARK  1 active torsions:
REMARK  status: ('A' for Active; 'I' for Inactive)
REMARK    1  A    between atoms: N_2  and  C1_3 
ROOT
ATOM      1  C1  UNL d   1       5.129   1.425  -5.988  0.00  0.00     0.143 A 
ATOM      2  C2  UNL d   1       3.755   1.634  -5.821  0.00  0.00    -0.057 A 
ATOM      3  C3  UNL d   1       3.226   2.926  -5.716  0.00  0.00     0.033 A 
ATOM      4  C4  UNL d   1       4.066   4.034  -5.748  0.00  0.00    -0.042 A 
ATOM      5  C5  UNL d   1       5.437   3.848  -5.888  0.00  0.00     0.033 A 
ATOM      6  C6  UNL d   1       5.959   2.556  -5.999  0.00  0.00    -0.057 A 
ENDROOT
BRANCH   1   7
ATOM      7  N   UNL d   1       5.727   0.162  -5.999  0.00  0.00    -0.732 N 
ATOM      8  C   UNL d   1       5.854  -0.604  -4.778  0.00  0.00     0.284 C 
ATOM      9  H3  UNL d   1       5.455  -0.389  -6.810  0.00  0.00     0.395 HD
ENDBRANCH   1   7
TORSDOF 1
ENDMDL
