MODEL 1
REMARK minimizedAffinity -1.14506853
REMARK minimizedRMSD -1
REMARK  1 active torsions:
REMARK  status: ('A' for Active; 'I' for Inactive)
REMARK    1  A    between atoms: N_2  and  C1_3 
ROOT
ATOM      1  C1  UNL d   1       5.328   1.268  -5.270  0.00  0.00     0.143 A 
ATOM      2  C2  UNL d   1       3.976   1.281  -5.629  0.00  0.00    -0.057 A 
ATOM      3  C3  UNL d   1       3.330   2.472  -5.985  0.00  0.00     0.033 A 
ATOM      4  C4  UNL d   1       4.021   3.679  -5.961  0.00  0.00    -0.042 A 
ATOM      5  C5  UNL d   1       5.359   3.693  -5.583  0.00  0.00     0.033 A 
ATOM      6  C6  UNL d   1       6.000   2.500  -5.235  0.00  0.00    -0.057 A 
ENDROOT
BRANCH   1   7
ATOM      7  N   UNL d   1       6.000   0.133  -4.811  0.00  0.00    -0.732 N 
ATOM      8  C   UNL d   1       5.408  -0.715  -3.798  0.00  0.00     0.284 C 
ATOM      9  H3  UNL d   1       6.460  -0.376  -5.562  0.00  0.00     0.395 HD
ENDBRANCH   1   7
TORSDOF 1
ENDMDL
