MODEL 1
REMARK minimizedAffinity -2.80734038
REMARK minimizedRMSD -1
REMARK  1 active torsions:
REMARK  status: ('A' for Active; 'I' for Inactive)
REMARK    1  A    between atoms: N_2  and  C1_3 
ROOT
ATOM      1  C1  UNL d   1       5.281   2.124  -5.941  0.00  0.00     0.143 A 
ATOM      2  C2  UNL d   1       3.885   2.210  -5.993  0.00  0.00    -0.057 A 
ATOM      3  C3  UNL d   1       3.233   3.449  -6.000  0.00  0.00     0.033 A 
ATOM      4  C4  UNL d   1       3.967   4.628  -5.925  0.00  0.00    -0.042 A 
ATOM      5  C5  UNL d   1       5.354   4.566  -5.847  0.00  0.00     0.033 A 
ATOM      6  C6  UNL d   1       6.000   3.326  -5.848  0.00  0.00    -0.057 A 
ENDROOT
BRANCH   1   7
ATOM      7  N   UNL d   1       5.983   0.921  -5.833  0.00  0.00    -0.732 N 
ATOM      8  C   UNL d   1       5.984   0.178  -4.591  0.00  0.00     0.284 C 
ATOM      9  H3  UNL d   1       5.891   0.341  -6.664  0.00  0.00     0.395 HD
ENDBRANCH   1   7
TORSDOF 1
ENDMDL
