MODEL 1
REMARK minimizedAffinity 4.76435041
REMARK minimizedRMSD -1
REMARK  1 active torsions:
REMARK  status: ('A' for Active; 'I' for Inactive)
REMARK    1  A    between atoms: N_2  and  C1_3 
ROOT
ATOM      1  C1  UNL d   1      -3.404   3.315  -2.539  0.00  0.00     0.143 A 
ATOM      2  C2  UNL d   1      -2.561   4.079  -1.725  0.00  0.00    -0.057 A 
ATOM      3  C3  UNL d   1      -2.801   4.210  -0.352  0.00  0.00     0.033 A 
ATOM      4  C4  UNL d   1      -3.908   3.600   0.228  0.00  0.00    -0.042 A 
ATOM      5  C5  UNL d   1      -4.773   2.856  -0.566  0.00  0.00     0.033 A 
ATOM      6  C6  UNL d   1      -4.525   2.724  -1.936  0.00  0.00    -0.057 A 
ENDROOT
BRANCH   1   7
ATOM      7  N   UNL d   1      -3.275   3.227  -3.928  0.00  0.00    -0.732 N 
ATOM      8  C   UNL d   1      -3.389   4.409  -4.755  0.00  0.00     0.284 C 
ATOM      9  H3  UNL d   1      -2.530   2.594  -4.209  0.00  0.00     0.395 HD
ENDBRANCH   1   7
TORSDOF 1
ENDMDL
