MODEL 1
REMARK minimizedAffinity 7.23619986
REMARK minimizedRMSD -1
REMARK  1 active torsions:
REMARK  status: ('A' for Active; 'I' for Inactive)
REMARK    1  A    between atoms: C1_2  and  C2_3 
ROOT
ATOM      1  C2  UNL d   1       4.155  -5.982   2.422  0.00  0.00    -0.077 A 
ATOM      2  C3  UNL d   1       3.619  -5.971   1.127  0.00  0.00     0.002 A 
ATOM      3  C4  UNL d   1       2.236  -5.966   0.936  0.00  0.00     0.002 A 
ATOM      4  C5  UNL d   1       1.379  -5.968   2.034  0.00  0.00    -0.004 A 
ATOM      5  C6  UNL d   1       1.903  -5.981   3.326  0.00  0.00     0.002 A 
ATOM      6  C7  UNL d   1       3.285  -5.987   3.519  0.00  0.00     0.002 A 
ENDROOT
BRANCH   1   7
ATOM      7  C1  UNL d   1       5.647  -5.938   2.631  0.00  0.00     0.055 C 
ATOM      8  C   UNL d   1       5.998  -5.907   4.111  0.00  0.00     0.019 C 
ENDBRANCH   1   7
TORSDOF 1
ENDMDL
