MODEL 1
REMARK minimizedAffinity 7.77837944
REMARK minimizedRMSD -1
REMARK  1 active torsions:
REMARK  status: ('A' for Active; 'I' for Inactive)
REMARK    1  A    between atoms: C1_2  and  C2_3 
ROOT
ATOM      1  C2  UNL d   1      -2.299   0.608   1.906  0.00  0.00    -0.077 A 
ATOM      2  C3  UNL d   1      -3.133   0.614   0.778  0.00  0.00     0.002 A 
ATOM      3  C4  UNL d   1      -4.512   0.773   0.921  0.00  0.00     0.002 A 
ATOM      4  C5  UNL d   1      -5.070   0.931   2.188  0.00  0.00    -0.004 A 
ATOM      5  C6  UNL d   1      -4.250   0.925   3.315  0.00  0.00     0.002 A 
ATOM      6  C7  UNL d   1      -2.871   0.765   3.175  0.00  0.00     0.002 A 
ENDROOT
BRANCH   1   7
ATOM      7  C1  UNL d   1      -0.806   0.486   1.750  0.00  0.00     0.055 C 
ATOM      8  C   UNL d   1      -0.157  -0.032   3.026  0.00  0.00     0.019 C 
ENDBRANCH   1   7
TORSDOF 1
ENDMDL
