MODEL 1
REMARK minimizedAffinity 3.51506329
REMARK minimizedRMSD -1
REMARK  1 active torsions:
REMARK  status: ('A' for Active; 'I' for Inactive)
REMARK    1  A    between atoms: C1_2  and  C2_3 
ROOT
ATOM      1  C2  UNL d   1      -1.855   0.826   2.288  0.00  0.00    -0.077 A 
ATOM      2  C3  UNL d   1      -1.575   1.013   3.649  0.00  0.00     0.002 A 
ATOM      3  C4  UNL d   1      -0.288   0.794   4.142  0.00  0.00     0.002 A 
ATOM      4  C5  UNL d   1       0.731   0.391   3.281  0.00  0.00    -0.004 A 
ATOM      5  C6  UNL d   1       0.462   0.201   1.926  0.00  0.00     0.002 A 
ATOM      6  C7  UNL d   1      -0.824   0.418   1.432  0.00  0.00     0.002 A 
ENDROOT
BRANCH   1   7
ATOM      7  C1  UNL d   1      -3.231   1.109   1.745  0.00  0.00     0.055 C 
ATOM      8  C   UNL d   1      -3.551   0.218   0.554  0.00  0.00     0.019 C 
ENDBRANCH   1   7
TORSDOF 1
ENDMDL
