MODEL 1
REMARK minimizedAffinity 10.6730547
REMARK minimizedRMSD -1
REMARK  1 active torsions:
REMARK  status: ('A' for Active; 'I' for Inactive)
REMARK    1  A    between atoms: C1_2  and  C2_3 
ROOT
ATOM      1  C2  UNL d   1      -5.612   3.303   4.963  0.00  0.00    -0.077 A 
ATOM      2  C3  UNL d   1      -4.840   3.799   3.903  0.00  0.00     0.002 A 
ATOM      3  C4  UNL d   1      -4.461   5.142   3.874  0.00  0.00     0.002 A 
ATOM      4  C5  UNL d   1      -4.845   5.999   4.904  0.00  0.00    -0.004 A 
ATOM      5  C6  UNL d   1      -5.614   5.516   5.961  0.00  0.00     0.002 A 
ATOM      6  C7  UNL d   1      -5.995   4.173   5.991  0.00  0.00     0.002 A 
ENDROOT
BRANCH   1   7
ATOM      7  C1  UNL d   1      -5.981   1.843   5.021  0.00  0.00     0.055 C 
ATOM      8  C   UNL d   1      -5.048   1.073   5.944  0.00  0.00     0.019 C 
ENDBRANCH   1   7
TORSDOF 1
ENDMDL
