MODEL 1
REMARK minimizedAffinity 0.843382895
REMARK minimizedRMSD -1
REMARK  1 active torsions:
REMARK  status: ('A' for Active; 'I' for Inactive)
REMARK    1  A    between atoms: C1_2  and  C2_3 
ROOT
ATOM      1  C2  UNL d   1      -1.429   0.186   2.670  0.00  0.00    -0.077 A 
ATOM      2  C3  UNL d   1      -2.642   0.386   3.342  0.00  0.00     0.002 A 
ATOM      3  C4  UNL d   1      -3.843   0.438   2.632  0.00  0.00     0.002 A 
ATOM      4  C5  UNL d   1      -3.843   0.286   1.247  0.00  0.00    -0.004 A 
ATOM      5  C6  UNL d   1      -2.640   0.089   0.569  0.00  0.00     0.002 A 
ATOM      6  C7  UNL d   1      -1.439   0.039   1.277  0.00  0.00     0.002 A 
ENDROOT
BRANCH   1   7
ATOM      7  C1  UNL d   1      -0.138   0.081   3.439  0.00  0.00     0.055 C 
ATOM      8  C   UNL d   1       0.569   1.426   3.521  0.00  0.00     0.019 C 
ENDBRANCH   1   7
TORSDOF 1
ENDMDL
