MODEL 1
REMARK minimizedAffinity 8.23989964
REMARK minimizedRMSD -1
REMARK  1 active torsions:
REMARK  status: ('A' for Active; 'I' for Inactive)
REMARK    1  A    between atoms: C1_2  and  C2_3 
ROOT
ATOM      1  C2  UNL d   1      -2.153   0.169   2.192  0.00  0.00    -0.077 A 
ATOM      2  C3  UNL d   1      -2.592   1.196   1.345  0.00  0.00     0.002 A 
ATOM      3  C4  UNL d   1      -3.909   1.654   1.414  0.00  0.00     0.002 A 
ATOM      4  C5  UNL d   1      -4.796   1.094   2.332  0.00  0.00    -0.004 A 
ATOM      5  C6  UNL d   1      -4.369   0.071   3.178  0.00  0.00     0.002 A 
ATOM      6  C7  UNL d   1      -3.053  -0.388   3.109  0.00  0.00     0.002 A 
ENDROOT
BRANCH   1   7
ATOM      7  C1  UNL d   1      -0.719  -0.292   2.153  0.00  0.00     0.055 C 
ATOM      8  C   UNL d   1       0.240   0.887   2.069  0.00  0.00     0.019 C 
ENDBRANCH   1   7
TORSDOF 1
ENDMDL
