MODEL 1
REMARK minimizedAffinity 2.77668357
REMARK minimizedRMSD -1
REMARK  1 active torsions:
REMARK  status: ('A' for Active; 'I' for Inactive)
REMARK    1  A    between atoms: C1_2  and  C2_3 
ROOT
ATOM      1  C2  UNL d   1      -3.120   0.490   2.253  0.00  0.00    -0.077 A 
ATOM      2  C3  UNL d   1      -3.606  -0.161   3.395  0.00  0.00     0.002 A 
ATOM      3  C4  UNL d   1      -4.960  -0.488   3.499  0.00  0.00     0.002 A 
ATOM      4  C5  UNL d   1      -5.836  -0.171   2.464  0.00  0.00    -0.004 A 
ATOM      5  C6  UNL d   1      -5.362   0.478   1.324  0.00  0.00     0.002 A 
ATOM      6  C7  UNL d   1      -4.010   0.806   1.219  0.00  0.00     0.002 A 
ENDROOT
BRANCH   1   7
ATOM      7  C1  UNL d   1      -1.651   0.799   2.117  0.00  0.00     0.055 C 
ATOM      8  C   UNL d   1      -0.799  -0.241   2.831  0.00  0.00     0.019 C 
ENDBRANCH   1   7
TORSDOF 1
ENDMDL
