MODEL 1
REMARK minimizedAffinity -0.393987685
REMARK minimizedRMSD -1
REMARK  1 active torsions:
REMARK  status: ('A' for Active; 'I' for Inactive)
REMARK    1  A    between atoms: C1_2  and  C2_3 
ROOT
ATOM      1  C2  UNL d   1      -2.084   1.036   2.839  0.00  0.00    -0.077 A 
ATOM      2  C3  UNL d   1      -1.175  -0.010   3.049  0.00  0.00     0.002 A 
ATOM      3  C4  UNL d   1       0.127   0.260   3.477  0.00  0.00     0.002 A 
ATOM      4  C5  UNL d   1       0.530   1.575   3.700  0.00  0.00    -0.004 A 
ATOM      5  C6  UNL d   1      -0.366   2.623   3.492  0.00  0.00     0.002 A 
ATOM      6  C7  UNL d   1      -1.667   2.355   3.064  0.00  0.00     0.002 A 
ENDROOT
BRANCH   1   7
ATOM      7  C1  UNL d   1      -3.502   0.744   2.425  0.00  0.00     0.055 C 
ATOM      8  C   UNL d   1      -3.572   0.275   0.979  0.00  0.00     0.019 C 
ENDBRANCH   1   7
TORSDOF 1
ENDMDL
