MODEL 1
REMARK minimizedAffinity 3.46090555
REMARK minimizedRMSD -1
REMARK  1 active torsions:
REMARK  status: ('A' for Active; 'I' for Inactive)
REMARK    1  A    between atoms: C1_2  and  C2_3 
ROOT
ATOM      1  C2  UNL d   1      -2.858   0.749   1.858  0.00  0.00    -0.077 A 
ATOM      2  C3  UNL d   1      -3.229   1.543   2.953  0.00  0.00     0.002 A 
ATOM      3  C4  UNL d   1      -4.570   1.864   3.170  0.00  0.00     0.002 A 
ATOM      4  C5  UNL d   1      -5.551   1.394   2.299  0.00  0.00    -0.004 A 
ATOM      5  C6  UNL d   1      -5.192   0.606   1.206  0.00  0.00     0.002 A 
ATOM      6  C7  UNL d   1      -3.852   0.285   0.987  0.00  0.00     0.002 A 
ENDROOT
BRANCH   1   7
ATOM      7  C1  UNL d   1      -1.418   0.360   1.650  0.00  0.00     0.055 C 
ATOM      8  C   UNL d   1      -0.631   0.435   2.951  0.00  0.00     0.019 C 
ENDBRANCH   1   7
TORSDOF 1
ENDMDL
