MODEL 1
REMARK minimizedAffinity 0.219580814
REMARK minimizedRMSD -1
REMARK  1 active torsions:
REMARK  status: ('A' for Active; 'I' for Inactive)
REMARK    1  A    between atoms: C1_2  and  C2_3 
ROOT
ATOM      1  C2  UNL d   1      -1.328   0.431   3.158  0.00  0.00    -0.077 A 
ATOM      2  C3  UNL d   1      -1.528   0.295   1.777  0.00  0.00     0.002 A 
ATOM      3  C4  UNL d   1      -2.806   0.057   1.269  0.00  0.00     0.002 A 
ATOM      4  C5  UNL d   1      -3.895  -0.043   2.133  0.00  0.00    -0.004 A 
ATOM      5  C6  UNL d   1      -3.706   0.089   3.508  0.00  0.00     0.002 A 
ATOM      6  C7  UNL d   1      -2.429   0.325   4.019  0.00  0.00     0.002 A 
ENDROOT
BRANCH   1   7
ATOM      7  C1  UNL d   1       0.042   0.736   3.705  0.00  0.00     0.055 C 
ATOM      8  C   UNL d   1       0.938  -0.494   3.672  0.00  0.00     0.019 C 
ENDBRANCH   1   7
TORSDOF 1
ENDMDL
