MODEL 1
REMARK minimizedAffinity -2.28009009
REMARK minimizedRMSD -1
REMARK  1 active torsions:
REMARK  status: ('A' for Active; 'I' for Inactive)
REMARK    1  A    between atoms: C1_2  and  C2_3 
ROOT
ATOM      1  C2  UNL d   1      -0.204  -5.270   0.847  0.00  0.00    -0.077 A 
ATOM      2  C3  UNL d   1      -1.410  -5.984   0.857  0.00  0.00     0.002 A 
ATOM      3  C4  UNL d   1      -2.631  -5.310   0.787  0.00  0.00     0.002 A 
ATOM      4  C5  UNL d   1      -2.657  -3.919   0.702  0.00  0.00    -0.004 A 
ATOM      5  C6  UNL d   1      -1.463  -3.200   0.693  0.00  0.00     0.002 A 
ATOM      6  C7  UNL d   1      -0.242  -3.872   0.765  0.00  0.00     0.002 A 
ENDROOT
BRANCH   1   7
ATOM      7  C1  UNL d   1       1.114  -5.998   0.873  0.00  0.00     0.055 C 
ATOM      8  C   UNL d   1       1.786  -5.879   2.234  0.00  0.00     0.019 C 
ENDBRANCH   1   7
TORSDOF 1
ENDMDL
