MODEL 1
REMARK minimizedAffinity 2.47305679
REMARK minimizedRMSD -1
REMARK  1 active torsions:
REMARK  status: ('A' for Active; 'I' for Inactive)
REMARK    1  A    between atoms: C1_2  and  C2_3 
ROOT
ATOM      1  C2  UNL d   1       3.295  -0.053   1.630  0.00  0.00    -0.077 A 
ATOM      2  C3  UNL d   1       2.902  -0.147   2.972  0.00  0.00     0.002 A 
ATOM      3  C4  UNL d   1       1.576   0.092   3.338  0.00  0.00     0.002 A 
ATOM      4  C5  UNL d   1       0.632   0.422   2.367  0.00  0.00    -0.004 A 
ATOM      5  C6  UNL d   1       1.014   0.520   1.030  0.00  0.00     0.002 A 
ATOM      6  C7  UNL d   1       2.339   0.283   0.662  0.00  0.00     0.002 A 
ENDROOT
BRANCH   1   7
ATOM      7  C1  UNL d   1       4.714  -0.358   1.227  0.00  0.00     0.055 C 
ATOM      8  C   UNL d   1       5.690  -0.038   2.350  0.00  0.00     0.019 C 
ENDBRANCH   1   7
TORSDOF 1
ENDMDL
