MODEL 1
REMARK minimizedAffinity 8.97057533
REMARK minimizedRMSD -1
REMARK  1 active torsions:
REMARK  status: ('A' for Active; 'I' for Inactive)
REMARK    1  A    between atoms: C1_2  and  C2_3 
ROOT
ATOM      1  C2  UNL d   1      -4.271   1.353   1.380  0.00  0.00    -0.077 A 
ATOM      2  C3  UNL d   1      -2.949   1.038   1.724  0.00  0.00     0.002 A 
ATOM      3  C4  UNL d   1      -2.384  -0.174   1.324  0.00  0.00     0.002 A 
ATOM      4  C5  UNL d   1      -3.133  -1.080   0.574  0.00  0.00    -0.004 A 
ATOM      5  C6  UNL d   1      -4.449  -0.777   0.229  0.00  0.00     0.002 A 
ATOM      6  C7  UNL d   1      -5.015   0.434   0.629  0.00  0.00     0.002 A 
ENDROOT
BRANCH   1   7
ATOM      7  C1  UNL d   1      -4.866   2.681   1.769  0.00  0.00     0.055 C 
ATOM      8  C   UNL d   1      -5.371   2.663   3.204  0.00  0.00     0.019 C 
ENDBRANCH   1   7
TORSDOF 1
ENDMDL
