MODEL 1
REMARK minimizedAffinity 0.733923316
REMARK minimizedRMSD -1
REMARK  0 active torsions:
REMARK  status: ('A' for Active; 'I' for Inactive)
ROOT
ATOM      1  C1  DEN d   1      -3.870   5.986  -5.935  0.00  0.00     0.130 A 
ATOM      2  C2  DEN d   1      -5.309   5.741  -5.965  0.00  0.00    -0.031 A 
ATOM      3  C3  DEN d   1      -5.523   4.280  -5.997  0.00  0.00     0.027 A 
ATOM      4  C4  DEN d   1      -3.774   2.384  -5.999  0.00  0.00     0.027 A 
ATOM      5  C5  DEN d   1      -2.426   2.100  -5.992  0.00  0.00    -0.003 A 
ATOM      6  C6  DEN d   1      -1.473   3.083  -6.000  0.00  0.00     0.001 A 
ATOM      7  C7  DEN d   1      -1.854   4.399  -5.969  0.00  0.00     0.017 A 
ATOM      8  C8  DEN d   1      -3.211   4.693  -5.984  0.00  0.00    -0.094 A 
ATOM      9  C9  DEN d   1      -4.160   3.684  -5.964  0.00  0.00    -0.072 A 
ENDROOT
TORSDOF 0
ENDMDL
