MODEL 1
REMARK minimizedAffinity 0.555513144
REMARK minimizedRMSD -1
REMARK  0 active torsions:
REMARK  status: ('A' for Active; 'I' for Inactive)
ROOT
ATOM      1  C1  DEN d   1      -1.699   4.245  -5.953  0.00  0.00     0.130 A 
ATOM      2  C2  DEN d   1      -1.622   2.787  -5.951  0.00  0.00    -0.031 A 
ATOM      3  C3  DEN d   1      -3.000   2.256  -5.966  0.00  0.00     0.027 A 
ATOM      4  C4  DEN d   1      -5.234   3.544  -5.998  0.00  0.00     0.027 A 
ATOM      5  C5  DEN d   1      -5.808   4.796  -5.995  0.00  0.00    -0.003 A 
ATOM      6  C6  DEN d   1      -5.060   5.942  -5.944  0.00  0.00     0.001 A 
ATOM      7  C7  DEN d   1      -3.692   5.861  -5.940  0.00  0.00     0.017 A 
ATOM      8  C8  DEN d   1      -3.107   4.602  -5.935  0.00  0.00    -0.094 A 
ATOM      9  C9  DEN d   1      -3.880   3.455  -5.999  0.00  0.00    -0.072 A 
ENDROOT
TORSDOF 0
ENDMDL
