MODEL 1
REMARK minimizedAffinity 10.1343851
REMARK minimizedRMSD -1
REMARK  0 active torsions:
REMARK  status: ('A' for Active; 'I' for Inactive)
ROOT
ATOM      1  C1  DEN d   1      -0.505   0.435   0.303  0.00  0.00     0.130 A 
ATOM      2  C2  DEN d   1       0.661  -0.148  -0.354  0.00  0.00    -0.031 A 
ATOM      3  C3  DEN d   1       1.861   0.565   0.127  0.00  0.00     0.027 A 
ATOM      4  C4  DEN d   1       2.026   2.503   1.821  0.00  0.00     0.027 A 
ATOM      5  C5  DEN d   1       1.303   3.346   2.637  0.00  0.00    -0.003 A 
ATOM      6  C6  DEN d   1      -0.064   3.300   2.706  0.00  0.00     0.001 A 
ATOM      7  C7  DEN d   1      -0.749   2.362   1.980  0.00  0.00     0.017 A 
ATOM      8  C8  DEN d   1      -0.028   1.515   1.149  0.00  0.00    -0.094 A 
ATOM      9  C9  DEN d   1       1.354   1.569   1.102  0.00  0.00    -0.072 A 
ENDROOT
TORSDOF 0
ENDMDL
