MODEL 1
REMARK minimizedAffinity 1.37992525
REMARK minimizedRMSD -1
REMARK  0 active torsions:
REMARK  status: ('A' for Active; 'I' for Inactive)
ROOT
ATOM      1  C1  DEN d   1      -0.699  -0.227   0.244  0.00  0.00     0.130 A 
ATOM      2  C2  DEN d   1      -2.053   0.233   0.545  0.00  0.00    -0.031 A 
ATOM      3  C3  DEN d   1      -1.949   1.521   1.259  0.00  0.00     0.027 A 
ATOM      4  C4  DEN d   1       0.163   2.844   1.922  0.00  0.00     0.027 A 
ATOM      5  C5  DEN d   1       1.540   2.849   1.891  0.00  0.00    -0.003 A 
ATOM      6  C6  DEN d   1       2.262   1.821   1.345  0.00  0.00     0.001 A 
ATOM      7  C7  DEN d   1       1.609   0.766   0.765  0.00  0.00     0.017 A 
ATOM      8  C8  DEN d   1       0.220   0.750   0.798  0.00  0.00    -0.094 A 
ATOM      9  C9  DEN d   1      -0.491   1.805   1.345  0.00  0.00    -0.072 A 
ENDROOT
TORSDOF 0
ENDMDL
