MODEL 1
REMARK minimizedAffinity 11.4441137
REMARK minimizedRMSD -1
REMARK  0 active torsions:
REMARK  status: ('A' for Active; 'I' for Inactive)
ROOT
ATOM      1  C1  DEN d   1      -1.439   3.187   0.692  0.00  0.00     0.130 A 
ATOM      2  C2  DEN d   1       0.014   3.044   0.685  0.00  0.00    -0.031 A 
ATOM      3  C3  DEN d   1       0.332   1.602   0.699  0.00  0.00     0.027 A 
ATOM      4  C4  DEN d   1      -1.278  -0.413   0.727  0.00  0.00     0.027 A 
ATOM      5  C5  DEN d   1      -2.602  -0.792   0.750  0.00  0.00    -0.003 A 
ATOM      6  C6  DEN d   1      -3.622   0.121   0.790  0.00  0.00     0.001 A 
ATOM      7  C7  DEN d   1      -3.336   1.461   0.761  0.00  0.00     0.017 A 
ATOM      8  C8  DEN d   1      -2.003   1.850   0.745  0.00  0.00    -0.094 A 
ATOM      9  C9  DEN d   1      -0.986   0.912   0.693  0.00  0.00    -0.072 A 
ENDROOT
TORSDOF 0
ENDMDL
