MODEL 1
REMARK minimizedAffinity 5.67838573
REMARK minimizedRMSD -1
REMARK  0 active torsions:
REMARK  status: ('A' for Active; 'I' for Inactive)
ROOT
ATOM      1  C1  DEN d   1       1.745   3.622   3.035  0.00  0.00     0.130 A 
ATOM      2  C2  DEN d   1       3.113   3.195   2.756  0.00  0.00    -0.031 A 
ATOM      3  C3  DEN d   1       3.064   2.176   1.689  0.00  0.00     0.027 A 
ATOM      4  C4  DEN d   1       1.014   1.226   0.445  0.00  0.00     0.027 A 
ATOM      5  C5  DEN d   1      -0.359   1.273   0.345  0.00  0.00    -0.003 A 
ATOM      6  C6  DEN d   1      -1.123   2.074   1.151  0.00  0.00     0.001 A 
ATOM      7  C7  DEN d   1      -0.515   2.896   2.063  0.00  0.00     0.017 A 
ATOM      8  C8  DEN d   1       0.868   2.849   2.175  0.00  0.00    -0.094 A 
ATOM      9  C9  DEN d   1       1.624   2.041   1.343  0.00  0.00    -0.072 A 
ENDROOT
TORSDOF 0
ENDMDL
