MODEL 1
REMARK minimizedAffinity 1.11798942
REMARK minimizedRMSD -1
REMARK  0 active torsions:
REMARK  status: ('A' for Active; 'I' for Inactive)
ROOT
ATOM      1  C1  DEN d   1       2.026   0.775   1.103  0.00  0.00     0.130 A 
ATOM      2  C2  DEN d   1       2.637   1.965   1.689  0.00  0.00    -0.031 A 
ATOM      3  C3  DEN d   1       1.574   2.968   1.898  0.00  0.00     0.027 A 
ATOM      4  C4  DEN d   1      -0.947   2.793   1.378  0.00  0.00     0.027 A 
ATOM      5  C5  DEN d   1      -1.933   1.981   0.863  0.00  0.00    -0.003 A 
ATOM      6  C6  DEN d   1      -1.666   0.733   0.365  0.00  0.00     0.001 A 
ATOM      7  C7  DEN d   1      -0.387   0.243   0.413  0.00  0.00     0.017 A 
ATOM      8  C8  DEN d   1       0.614   1.059   0.923  0.00  0.00    -0.094 A 
ATOM      9  C9  DEN d   1       0.321   2.312   1.433  0.00  0.00    -0.072 A 
ENDROOT
TORSDOF 0
ENDMDL
