MODEL 1
REMARK minimizedAffinity 4.10299873
REMARK minimizedRMSD -1
REMARK  0 active torsions:
REMARK  status: ('A' for Active; 'I' for Inactive)
ROOT
ATOM      1  C1  DEN d   1       0.874   2.368   1.042  0.00  0.00     0.130 A 
ATOM      2  C2  DEN d   1       1.765   1.234   1.269  0.00  0.00    -0.031 A 
ATOM      3  C3  DEN d   1       0.968  -0.003   1.156  0.00  0.00     0.027 A 
ATOM      4  C4  DEN d   1      -1.547  -0.272   0.649  0.00  0.00     0.027 A 
ATOM      5  C5  DEN d   1      -2.719   0.404   0.394  0.00  0.00    -0.003 A 
ATOM      6  C6  DEN d   1      -2.783   1.772   0.371  0.00  0.00     0.001 A 
ATOM      7  C7  DEN d   1      -1.643   2.508   0.563  0.00  0.00     0.017 A 
ATOM      8  C8  DEN d   1      -0.459   1.833   0.828  0.00  0.00    -0.094 A 
ATOM      9  C9  DEN d   1      -0.413   0.449   0.835  0.00  0.00    -0.072 A 
ENDROOT
TORSDOF 0
ENDMDL
