MODEL 1
REMARK minimizedAffinity 5.61217451
REMARK minimizedRMSD -1
REMARK  0 active torsions:
REMARK  status: ('A' for Active; 'I' for Inactive)
ROOT
ATOM      1  C1  DEN d   1       1.365  -1.055   0.121  0.00  0.00     0.130 A 
ATOM      2  C2  DEN d   1       2.056   0.158  -0.307  0.00  0.00    -0.031 A 
ATOM      3  C3  DEN d   1       1.138   1.299  -0.114  0.00  0.00     0.027 A 
ATOM      4  C4  DEN d   1      -1.271   1.305   0.806  0.00  0.00     0.027 A 
ATOM      5  C5  DEN d   1      -2.290   0.515   1.290  0.00  0.00    -0.003 A 
ATOM      6  C6  DEN d   1      -2.176  -0.847   1.384  0.00  0.00     0.001 A 
ATOM      7  C7  DEN d   1      -1.000  -1.455   1.033  0.00  0.00     0.017 A 
ATOM      8  C8  DEN d   1       0.029  -0.666   0.538  0.00  0.00    -0.094 A 
ATOM      9  C9  DEN d   1      -0.102   0.711   0.461  0.00  0.00    -0.072 A 
ENDROOT
TORSDOF 0
ENDMDL
