MODEL 1
REMARK minimizedAffinity 9.78382778
REMARK minimizedRMSD -1
REMARK  0 active torsions:
REMARK  status: ('A' for Active; 'I' for Inactive)
ROOT
ATOM      1  C1  DEN d   1      -1.145   2.969   0.265  0.00  0.00     0.130 A 
ATOM      2  C2  DEN d   1      -1.209   1.911  -0.739  0.00  0.00    -0.031 A 
ATOM      3  C3  DEN d   1      -1.719   0.690  -0.083  0.00  0.00     0.027 A 
ATOM      4  C4  DEN d   1      -2.415   0.339   2.375  0.00  0.00     0.027 A 
ATOM      5  C5  DEN d   1      -2.525   0.944   3.608  0.00  0.00    -0.003 A 
ATOM      6  C6  DEN d   1      -2.154   2.245   3.819  0.00  0.00     0.001 A 
ATOM      7  C7  DEN d   1      -1.696   2.999   2.770  0.00  0.00     0.017 A 
ATOM      8  C8  DEN d   1      -1.576   2.394   1.526  0.00  0.00    -0.094 A 
ATOM      9  C9  DEN d   1      -1.968   1.081   1.331  0.00  0.00    -0.072 A 
ENDROOT
TORSDOF 0
ENDMDL
