MODEL 1
REMARK minimizedAffinity 5.0755949
REMARK minimizedRMSD -1
REMARK  0 active torsions:
REMARK  status: ('A' for Active; 'I' for Inactive)
ROOT
ATOM      1  C1  DEN d   1      -1.025  -4.224  -1.414  0.00  0.00     0.130 A 
ATOM      2  C2  DEN d   1      -1.044  -2.769  -1.542  0.00  0.00    -0.031 A 
ATOM      3  C3  DEN d   1      -2.291  -2.273  -0.926  0.00  0.00     0.027 A 
ATOM      4  C4  DEN d   1      -4.180  -3.609   0.214  0.00  0.00     0.027 A 
ATOM      5  C5  DEN d   1      -4.616  -4.870   0.555  0.00  0.00    -0.003 A 
ATOM      6  C6  DEN d   1      -3.907  -5.998   0.236  0.00  0.00     0.001 A 
ATOM      7  C7  DEN d   1      -2.701  -5.884  -0.405  0.00  0.00     0.017 A 
ATOM      8  C8  DEN d   1      -2.259  -4.615  -0.758  0.00  0.00    -0.094 A 
ATOM      9  C9  DEN d   1      -2.985  -3.487  -0.415  0.00  0.00    -0.072 A 
ENDROOT
TORSDOF 0
ENDMDL
