MODEL 1
REMARK minimizedAffinity 9.25640583
REMARK minimizedRMSD -1
REMARK  0 active torsions:
REMARK  status: ('A' for Active; 'I' for Inactive)
ROOT
ATOM      1  C1  DEN d   1       1.501   0.698   1.086  0.00  0.00     0.130 A 
ATOM      2  C2  DEN d   1       1.996   1.919   1.715  0.00  0.00    -0.031 A 
ATOM      3  C3  DEN d   1       0.841   2.801   1.973  0.00  0.00     0.027 A 
ATOM      4  C4  DEN d   1      -1.656   2.396   1.467  0.00  0.00     0.027 A 
ATOM      5  C5  DEN d   1      -2.562   1.510   0.928  0.00  0.00    -0.003 A 
ATOM      6  C6  DEN d   1      -2.177   0.316   0.377  0.00  0.00     0.001 A 
ATOM      7  C7  DEN d   1      -0.856  -0.045   0.394  0.00  0.00     0.017 A 
ATOM      8  C8  DEN d   1       0.065   0.847   0.929  0.00  0.00    -0.094 A 
ATOM      9  C9  DEN d   1      -0.345   2.043   1.492  0.00  0.00    -0.072 A 
ENDROOT
TORSDOF 0
ENDMDL
