MODEL 1
REMARK minimizedAffinity 8.18484974
REMARK minimizedRMSD -1
REMARK  0 active torsions:
REMARK  status: ('A' for Active; 'I' for Inactive)
ROOT
ATOM      1  C1  DEN d   1       1.702  -0.339   0.221  0.00  0.00     0.130 A 
ATOM      2  C2  DEN d   1       2.755   0.531   0.738  0.00  0.00    -0.031 A 
ATOM      3  C3  DEN d   1       2.114   1.734   1.307  0.00  0.00     0.027 A 
ATOM      4  C4  DEN d   1      -0.393   2.328   1.440  0.00  0.00     0.027 A 
ATOM      5  C5  DEN d   1      -1.665   1.905   1.124  0.00  0.00    -0.003 A 
ATOM      6  C6  DEN d   1      -1.900   0.731   0.460  0.00  0.00     0.001 A 
ATOM      7  C7  DEN d   1      -0.849  -0.085   0.130  0.00  0.00     0.017 A 
ATOM      8  C8  DEN d   1       0.437   0.338   0.439  0.00  0.00    -0.094 A 
ATOM      9  C9  DEN d   1       0.653   1.523   1.122  0.00  0.00    -0.072 A 
ENDROOT
TORSDOF 0
ENDMDL
