MODEL 1
REMARK minimizedAffinity 3.37717891
REMARK minimizedRMSD -1
REMARK  0 active torsions:
REMARK  status: ('A' for Active; 'I' for Inactive)
ROOT
ATOM      1  C1  DEN d   1       4.280   1.380  -0.854  0.00  0.00     0.130 A 
ATOM      2  C2  DEN d   1       2.990   0.801  -1.218  0.00  0.00    -0.031 A 
ATOM      3  C3  DEN d   1       2.006   1.195  -0.189  0.00  0.00     0.027 A 
ATOM      4  C4  DEN d   1       2.353   2.642   1.918  0.00  0.00     0.027 A 
ATOM      5  C5  DEN d   1       3.278   3.348   2.655  0.00  0.00    -0.003 A 
ATOM      6  C6  DEN d   1       4.598   3.419   2.295  0.00  0.00     0.001 A 
ATOM      7  C7  DEN d   1       5.021   2.810   1.143  0.00  0.00     0.017 A 
ATOM      8  C8  DEN d   1       4.096   2.090   0.399  0.00  0.00    -0.094 A 
ATOM      9  C9  DEN d   1       2.764   2.040   0.773  0.00  0.00    -0.072 A 
ENDROOT
TORSDOF 0
ENDMDL
