MODEL 1
REMARK minimizedAffinity 8.70339775
REMARK minimizedRMSD -1
REMARK  0 active torsions:
REMARK  status: ('A' for Active; 'I' for Inactive)
ROOT
ATOM      1  C1  DEN d   1      -1.434   3.149   1.359  0.00  0.00     0.130 A 
ATOM      2  C2  DEN d   1      -0.038   3.543   1.533  0.00  0.00    -0.031 A 
ATOM      3  C3  DEN d   1       0.811   2.398   1.147  0.00  0.00     0.027 A 
ATOM      4  C4  DEN d   1       0.104   0.068   0.295  0.00  0.00     0.027 A 
ATOM      5  C5  DEN d   1      -0.972  -0.738  -0.007  0.00  0.00    -0.003 A 
ATOM      6  C6  DEN d   1      -2.266  -0.320   0.156  0.00  0.00     0.001 A 
ATOM      7  C7  DEN d   1      -2.518   0.954   0.591  0.00  0.00     0.017 A 
ATOM      8  C8  DEN d   1      -1.439   1.770   0.905  0.00  0.00    -0.094 A 
ATOM      9  C9  DEN d   1      -0.138   1.334   0.721  0.00  0.00    -0.072 A 
ENDROOT
TORSDOF 0
ENDMDL
