MODEL 1
REMARK minimizedAffinity 1.46784198
REMARK minimizedRMSD -1
REMARK  0 active torsions:
REMARK  status: ('A' for Active; 'I' for Inactive)
ROOT
ATOM      1  C1  DEN d   1       1.005   3.006   1.533  0.00  0.00     0.130 A 
ATOM      2  C2  DEN d   1       2.174   2.159   1.315  0.00  0.00    -0.031 A 
ATOM      3  C3  DEN d   1       1.699   0.823   0.902  0.00  0.00     0.027 A 
ATOM      4  C4  DEN d   1      -0.720  -0.010   0.576  0.00  0.00     0.027 A 
ATOM      5  C5  DEN d   1      -2.049   0.344   0.653  0.00  0.00    -0.003 A 
ATOM      6  C6  DEN d   1      -2.451   1.589   1.058  0.00  0.00     0.001 A 
ATOM      7  C7  DEN d   1      -1.512   2.541   1.359  0.00  0.00     0.017 A 
ATOM      8  C8  DEN d   1      -0.170   2.190   1.290  0.00  0.00    -0.094 A 
ATOM      9  C9  DEN d   1       0.216   0.929   0.867  0.00  0.00    -0.072 A 
ENDROOT
TORSDOF 0
ENDMDL
