MODEL 1
REMARK minimizedAffinity -2.81086779
REMARK minimizedRMSD -1
REMARK  0 active torsions:
REMARK  status: ('A' for Active; 'I' for Inactive)
ROOT
ATOM      1  C   UNL d   1      -0.515   3.275   1.422  0.00  0.00     0.023 A 
ATOM      2  C1  UNL d   1      -1.538   2.486   0.897  0.00  0.00     0.003 A 
ATOM      3  C2  UNL d   1      -1.281   1.167   0.519  0.00  0.00     0.048 A 
ATOM      4  C3  UNL d   1       0.003   0.642   0.670  0.00  0.00     0.023 A 
ATOM      5  C4  UNL d   1       1.030   1.428   1.196  0.00  0.00     0.048 A 
ATOM      6  C5  UNL d   1       0.768   2.747   1.571  0.00  0.00     0.003 A 
ATOM      7  I   UNL d   1       0.389  -1.321   0.108  0.00  0.00    -0.146 I 
ENDROOT
TORSDOF 0
ENDMDL
