MODEL 1
REMARK minimizedAffinity -3.8540349
REMARK minimizedRMSD -1
REMARK  0 active torsions:
REMARK  status: ('A' for Active; 'I' for Inactive)
ROOT
ATOM      1  C   UNL d   1      -1.199  -2.731   3.331  0.00  0.00     0.023 A 
ATOM      2  C1  UNL d   1      -2.070  -1.643   3.406  0.00  0.00     0.003 A 
ATOM      3  C2  UNL d   1      -1.967  -0.601   2.483  0.00  0.00     0.048 A 
ATOM      4  C3  UNL d   1      -0.993  -0.653   1.487  0.00  0.00     0.023 A 
ATOM      5  C4  UNL d   1      -0.120  -1.740   1.407  0.00  0.00     0.048 A 
ATOM      6  C5  UNL d   1      -0.226  -2.779   2.333  0.00  0.00     0.003 A 
ATOM      7  I   UNL d   1      -0.838   0.898   0.111  0.00  0.00    -0.146 I 
ENDROOT
TORSDOF 0
ENDMDL
