MODEL 1
REMARK minimizedAffinity -2.05447412
REMARK minimizedRMSD -1
REMARK  0 active torsions:
REMARK  status: ('A' for Active; 'I' for Inactive)
ROOT
ATOM      1  C   UNL d   1      -1.517   2.575   0.989  0.00  0.00     0.023 A 
ATOM      2  C1  UNL d   1      -1.857   1.285   0.583  0.00  0.00     0.003 A 
ATOM      3  C2  UNL d   1      -0.859   0.329   0.381  0.00  0.00     0.048 A 
ATOM      4  C3  UNL d   1       0.477   0.670   0.589  0.00  0.00     0.023 A 
ATOM      5  C4  UNL d   1       0.822   1.960   0.997  0.00  0.00     0.048 A 
ATOM      6  C5  UNL d   1      -0.179   2.912   1.196  0.00  0.00     0.003 A 
ATOM      7  I   UNL d   1       1.964  -0.750   0.290  0.00  0.00    -0.146 I 
ENDROOT
TORSDOF 0
ENDMDL
