MODEL 1
REMARK minimizedAffinity -2.78331423
REMARK minimizedRMSD -1
REMARK  0 active torsions:
REMARK  status: ('A' for Active; 'I' for Inactive)
ROOT
ATOM      1  C   UNL d   1       0.366   2.508  -0.218  0.00  0.00     0.023 A 
ATOM      2  C1  UNL d   1      -0.912   2.501   0.341  0.00  0.00     0.003 A 
ATOM      3  C2  UNL d   1      -1.438   1.320   0.870  0.00  0.00     0.048 A 
ATOM      4  C3  UNL d   1      -0.680   0.150   0.838  0.00  0.00     0.023 A 
ATOM      5  C4  UNL d   1       0.599   0.152   0.280  0.00  0.00     0.048 A 
ATOM      6  C5  UNL d   1       1.121   1.335  -0.249  0.00  0.00     0.003 A 
ATOM      7  I   UNL d   1      -1.460  -1.608   1.624  0.00  0.00    -0.146 I 
ENDROOT
TORSDOF 0
ENDMDL
