MODEL 1
REMARK minimizedAffinity -2.06471157
REMARK minimizedRMSD -1
REMARK  0 active torsions:
REMARK  status: ('A' for Active; 'I' for Inactive)
ROOT
ATOM      1  C   UNL d   1      -0.191  -3.996  -2.827  0.00  0.00     0.023 A 
ATOM      2  C1  UNL d   1       0.519  -3.910  -1.630  0.00  0.00     0.003 A 
ATOM      3  C2  UNL d   1       0.460  -2.744  -0.863  0.00  0.00     0.048 A 
ATOM      4  C3  UNL d   1      -0.313  -1.669  -1.299  0.00  0.00     0.023 A 
ATOM      5  C4  UNL d   1      -1.027  -1.751  -2.496  0.00  0.00     0.048 A 
ATOM      6  C5  UNL d   1      -0.963  -2.918  -3.260  0.00  0.00     0.003 A 
ATOM      7  I   UNL d   1      -0.403   0.067  -0.160  0.00  0.00    -0.146 I 
ENDROOT
TORSDOF 0
ENDMDL
