MODEL 1
REMARK minimizedAffinity -3.45626712
REMARK minimizedRMSD -1
REMARK  0 active torsions:
REMARK  status: ('A' for Active; 'I' for Inactive)
ROOT
ATOM      1  C   UNL d   1       3.047   1.220   0.342  0.00  0.00     0.023 A 
ATOM      2  C1  UNL d   1       2.626   2.537   0.522  0.00  0.00     0.003 A 
ATOM      3  C2  UNL d   1       1.264   2.831   0.614  0.00  0.00     0.048 A 
ATOM      4  C3  UNL d   1       0.328   1.801   0.526  0.00  0.00     0.023 A 
ATOM      5  C4  UNL d   1       0.744   0.481   0.347  0.00  0.00     0.048 A 
ATOM      6  C5  UNL d   1       2.107   0.192   0.255  0.00  0.00     0.003 A 
ATOM      7  I   UNL d   1      -1.700   2.235   0.663  0.00  0.00    -0.146 I 
ENDROOT
TORSDOF 0
ENDMDL
