MODEL 1
REMARK minimizedAffinity -2.78580165
REMARK minimizedRMSD -1
REMARK  0 active torsions:
REMARK  status: ('A' for Active; 'I' for Inactive)
ROOT
ATOM      1  C   UNL d   1       1.674   1.788   0.044  0.00  0.00     0.023 A 
ATOM      2  C1  UNL d   1       1.074   2.999   0.391  0.00  0.00     0.003 A 
ATOM      3  C2  UNL d   1      -0.296   3.050   0.653  0.00  0.00     0.048 A 
ATOM      4  C3  UNL d   1      -1.061   1.887   0.567  0.00  0.00     0.023 A 
ATOM      5  C4  UNL d   1      -0.464   0.673   0.221  0.00  0.00     0.048 A 
ATOM      6  C5  UNL d   1       0.906   0.627  -0.041  0.00  0.00     0.003 A 
ATOM      7  I   UNL d   1      -3.101   1.961   0.958  0.00  0.00    -0.146 I 
ENDROOT
TORSDOF 0
ENDMDL
