MODEL 1
REMARK minimizedAffinity -0.618867874
REMARK minimizedRMSD -1
REMARK  0 active torsions:
REMARK  status: ('A' for Active; 'I' for Inactive)
ROOT
ATOM      1  C   UNL d   1      -2.181  -4.123   0.212  0.00  0.00     0.023 A 
ATOM      2  C1  UNL d   1      -1.813  -3.394   1.343  0.00  0.00     0.003 A 
ATOM      3  C2  UNL d   1      -0.960  -2.295   1.220  0.00  0.00     0.048 A 
ATOM      4  C3  UNL d   1      -0.479  -1.930  -0.037  0.00  0.00     0.023 A 
ATOM      5  C4  UNL d   1      -0.845  -2.656  -1.171  0.00  0.00     0.048 A 
ATOM      6  C5  UNL d   1      -1.698  -3.754  -1.044  0.00  0.00     0.003 A 
ATOM      7  I   UNL d   1       0.791  -0.296  -0.222  0.00  0.00    -0.146 I 
ENDROOT
TORSDOF 0
ENDMDL
