MODEL 1
REMARK minimizedAffinity -2.5287056
REMARK minimizedRMSD -1
REMARK  0 active torsions:
REMARK  status: ('A' for Active; 'I' for Inactive)
ROOT
ATOM      1  C   UNL d   1      -0.456   3.134   0.802  0.00  0.00     0.023 A 
ATOM      2  C1  UNL d   1      -1.506   2.275   1.128  0.00  0.00     0.003 A 
ATOM      3  C2  UNL d   1      -1.521   0.969   0.634  0.00  0.00     0.048 A 
ATOM      4  C3  UNL d   1      -0.482   0.528  -0.186  0.00  0.00     0.023 A 
ATOM      5  C4  UNL d   1       0.571   1.384  -0.514  0.00  0.00     0.048 A 
ATOM      6  C5  UNL d   1       0.581   2.689  -0.018  0.00  0.00     0.003 A 
ATOM      7  I   UNL d   1      -0.501  -1.415  -0.923  0.00  0.00    -0.146 I 
ENDROOT
TORSDOF 0
ENDMDL
