MODEL 1
REMARK minimizedAffinity -3.05942249
REMARK minimizedRMSD -1
REMARK  0 active torsions:
REMARK  status: ('A' for Active; 'I' for Inactive)
ROOT
ATOM      1  C   UNL d   1      -1.473  -3.403  -2.870  0.00  0.00     0.023 A 
ATOM      2  C1  UNL d   1      -2.382  -2.857  -1.964  0.00  0.00     0.003 A 
ATOM      3  C2  UNL d   1      -1.942  -1.970  -0.980  0.00  0.00     0.048 A 
ATOM      4  C3  UNL d   1      -0.590  -1.633  -0.907  0.00  0.00     0.023 A 
ATOM      5  C4  UNL d   1       0.323  -2.176  -1.812  0.00  0.00     0.048 A 
ATOM      6  C5  UNL d   1      -0.122  -3.063  -2.794  0.00  0.00     0.003 A 
ATOM      7  I   UNL d   1       0.068  -0.313   0.557  0.00  0.00    -0.146 I 
ENDROOT
TORSDOF 0
ENDMDL
