MODEL 1
REMARK minimizedAffinity -2.64342093
REMARK minimizedRMSD -1
REMARK  0 active torsions:
REMARK  status: ('A' for Active; 'I' for Inactive)
ROOT
ATOM      1  C   UNL d   1       0.859   4.405   0.288  0.00  0.00     0.023 A 
ATOM      2  C1  UNL d   1       0.550   3.762   1.487  0.00  0.00     0.003 A 
ATOM      3  C2  UNL d   1       0.143   2.426   1.479  0.00  0.00     0.048 A 
ATOM      4  C3  UNL d   1       0.049   1.739   0.270  0.00  0.00     0.023 A 
ATOM      5  C4  UNL d   1       0.359   2.378  -0.932  0.00  0.00     0.048 A 
ATOM      6  C5  UNL d   1       0.764   3.714  -0.920  0.00  0.00     0.003 A 
ATOM      7  I   UNL d   1      -0.556  -0.250   0.256  0.00  0.00    -0.146 I 
ENDROOT
TORSDOF 0
ENDMDL
