MODEL 1
REMARK minimizedAffinity 2.03944087
REMARK minimizedRMSD -1
REMARK  0 active torsions:
REMARK  status: ('A' for Active; 'I' for Inactive)
ROOT
ATOM      1  C   UNL d   1       0.528   4.865   4.719  0.00  0.00     0.023 A 
ATOM      2  C1  UNL d   1       0.100   3.580   4.389  0.00  0.00     0.003 A 
ATOM      3  C2  UNL d   1       0.661   2.914   3.297  0.00  0.00     0.048 A 
ATOM      4  C3  UNL d   1       1.651   3.539   2.540  0.00  0.00     0.023 A 
ATOM      5  C4  UNL d   1       2.084   4.825   2.867  0.00  0.00     0.048 A 
ATOM      6  C5  UNL d   1       1.519   5.487   3.959  0.00  0.00     0.003 A 
ATOM      7  I   UNL d   1       2.488   2.550   0.915  0.00  0.00    -0.146 I 
ENDROOT
TORSDOF 0
ENDMDL
