MODEL 1
REMARK minimizedAffinity 0.165997341
REMARK minimizedRMSD -1
REMARK  0 active torsions:
REMARK  status: ('A' for Active; 'I' for Inactive)
ROOT
ATOM      1  C   UNL d   1       3.487   1.620  -5.993  0.00  0.00     0.023 A 
ATOM      2  C1  UNL d   1       3.164   2.977  -5.987  0.00  0.00     0.003 A 
ATOM      3  C2  UNL d   1       1.826   3.378  -5.989  0.00  0.00     0.048 A 
ATOM      4  C3  UNL d   1       0.816   2.416  -5.995  0.00  0.00     0.023 A 
ATOM      5  C4  UNL d   1       1.135   1.057  -6.000  0.00  0.00     0.048 A 
ATOM      6  C5  UNL d   1       2.474   0.661  -5.999  0.00  0.00     0.003 A 
ATOM      7  I   UNL d   1      -1.175   3.010  -5.997  0.00  0.00    -0.146 I 
ENDROOT
TORSDOF 0
ENDMDL
