MODEL 1
REMARK minimizedAffinity 6.14374638
REMARK minimizedRMSD -1
REMARK  0 active torsions:
REMARK  status: ('A' for Active; 'I' for Inactive)
ROOT
ATOM      1  C   UNL d   1      -3.862   3.811  -5.985  0.00  0.00     0.023 A 
ATOM      2  C1  UNL d   1      -2.967   4.881  -5.995  0.00  0.00     0.003 A 
ATOM      3  C2  UNL d   1      -1.591   4.641  -5.999  0.00  0.00     0.048 A 
ATOM      4  C3  UNL d   1      -1.118   3.329  -5.994  0.00  0.00     0.023 A 
ATOM      5  C4  UNL d   1      -2.011   2.256  -5.984  0.00  0.00     0.048 A 
ATOM      6  C5  UNL d   1      -3.385   2.501  -5.980  0.00  0.00     0.003 A 
ATOM      7  I   UNL d   1       0.929   2.969  -5.999  0.00  0.00    -0.146 I 
ENDROOT
TORSDOF 0
ENDMDL
