MODEL 1
REMARK minimizedAffinity -3.0733192
REMARK minimizedRMSD -1
REMARK  0 active torsions:
REMARK  status: ('A' for Active; 'I' for Inactive)
ROOT
ATOM      1  C   UNL d   1      -0.147   3.219   0.661  0.00  0.00     0.023 A 
ATOM      2  C1  UNL d   1      -1.399   2.674   0.376  0.00  0.00     0.003 A 
ATOM      3  C2  UNL d   1      -1.498   1.384  -0.148  0.00  0.00     0.048 A 
ATOM      4  C3  UNL d   1      -0.341   0.643  -0.384  0.00  0.00     0.023 A 
ATOM      5  C4  UNL d   1       0.915   1.183  -0.100  0.00  0.00     0.048 A 
ATOM      6  C5  UNL d   1       1.009   2.474   0.423  0.00  0.00     0.003 A 
ATOM      7  I   UNL d   1      -0.485  -1.278  -1.164  0.00  0.00    -0.146 I 
ENDROOT
TORSDOF 0
ENDMDL
