MODEL 1
REMARK minimizedAffinity -1.9360044
REMARK minimizedRMSD -1
REMARK  0 active torsions:
REMARK  status: ('A' for Active; 'I' for Inactive)
ROOT
ATOM      1  C   UNL d   1       0.028  -1.841  -1.226  0.00  0.00     0.020 A 
ATOM      2  C1  UNL d   1      -0.467  -2.602  -0.168  0.00  0.00     0.020 A 
ATOM      3  C2  UNL d   1      -0.764  -1.991   1.052  0.00  0.00     0.034 A 
ATOM      4  C3  UNL d   1      -0.566  -0.615   1.217  0.00  0.00     0.017 A 
ATOM      5  C4  UNL d   1      -0.069   0.148   0.154  0.00  0.00     0.017 A 
ATOM      6  C5  UNL d   1       0.226  -0.469  -1.066  0.00  0.00     0.034 A 
ATOM      7 Cl   UNL d   1       0.201   1.850   0.281  0.00  0.00    -0.070 Cl
ATOM      8 Cl1  UNL d   1      -0.954   0.074   2.753  0.00  0.00    -0.070 Cl
ENDROOT
TORSDOF 0
ENDMDL
