MODEL 1
REMARK minimizedAffinity -2.05490351
REMARK minimizedRMSD -1
REMARK  0 active torsions:
REMARK  status: ('A' for Active; 'I' for Inactive)
ROOT
ATOM      1  C   UNL d   1      -0.738  -1.197   0.919  0.00  0.00     0.020 A 
ATOM      2  C1  UNL d   1       0.242  -0.753   1.805  0.00  0.00     0.020 A 
ATOM      3  C2  UNL d   1       0.806   0.515   1.644  0.00  0.00     0.034 A 
ATOM      4  C3  UNL d   1       0.389   1.342   0.595  0.00  0.00     0.017 A 
ATOM      5  C4  UNL d   1      -0.595   0.895  -0.294  0.00  0.00     0.017 A 
ATOM      6  C5  UNL d   1      -1.156  -0.375  -0.128  0.00  0.00     0.034 A 
ATOM      7 Cl   UNL d   1      -1.160   1.859  -1.613  0.00  0.00    -0.070 Cl
ATOM      8 Cl1  UNL d   1       1.129   2.897   0.456  0.00  0.00    -0.070 Cl
ENDROOT
TORSDOF 0
ENDMDL
