MODEL 1
REMARK minimizedAffinity -0.985657275
REMARK minimizedRMSD -1
REMARK  0 active torsions:
REMARK  status: ('A' for Active; 'I' for Inactive)
ROOT
ATOM      1  C   UNL d   1       0.024  -0.496   1.721  0.00  0.00     0.020 A 
ATOM      2  C1  UNL d   1      -0.955  -0.956   0.841  0.00  0.00     0.020 A 
ATOM      3  C2  UNL d   1      -1.144  -0.319  -0.388  0.00  0.00     0.034 A 
ATOM      4  C3  UNL d   1      -0.353   0.780  -0.740  0.00  0.00     0.017 A 
ATOM      5  C4  UNL d   1       0.629   1.241   0.144  0.00  0.00     0.017 A 
ATOM      6  C5  UNL d   1       0.815   0.600   1.373  0.00  0.00     0.034 A 
ATOM      7 Cl   UNL d   1       1.644   2.592  -0.221  0.00  0.00    -0.070 Cl
ATOM      8 Cl1  UNL d   1      -0.642   1.519  -2.275  0.00  0.00    -0.070 Cl
ENDROOT
TORSDOF 0
ENDMDL
