MODEL 1
REMARK minimizedAffinity 1.1962117
REMARK minimizedRMSD -1
REMARK  0 active torsions:
REMARK  status: ('A' for Active; 'I' for Inactive)
ROOT
ATOM      1  C   UNL d   1      -1.941  -0.766   2.001  0.00  0.00     0.020 A 
ATOM      2  C1  UNL d   1      -1.341   0.439   1.638  0.00  0.00     0.020 A 
ATOM      3  C2  UNL d   1      -0.721   0.564   0.393  0.00  0.00     0.034 A 
ATOM      4  C3  UNL d   1      -0.700  -0.519  -0.494  0.00  0.00     0.017 A 
ATOM      5  C4  UNL d   1      -1.302  -1.728  -0.129  0.00  0.00     0.017 A 
ATOM      6  C5  UNL d   1      -1.921  -1.848   1.119  0.00  0.00     0.034 A 
ATOM      7 Cl   UNL d   1      -1.316  -3.108  -1.169  0.00  0.00    -0.070 Cl
ATOM      8 Cl1  UNL d   1       0.084  -0.294  -2.017  0.00  0.00    -0.070 Cl
ENDROOT
TORSDOF 0
ENDMDL
