MODEL 1
REMARK minimizedAffinity 4.4704771
REMARK minimizedRMSD -1
REMARK  0 active torsions:
REMARK  status: ('A' for Active; 'I' for Inactive)
ROOT
ATOM      1  C   UNL d   1      -0.221  -5.659  -0.009  0.00  0.00     0.020 A 
ATOM      2  C1  UNL d   1      -1.125  -6.000  -1.014  0.00  0.00     0.020 A 
ATOM      3  C2  UNL d   1      -2.245  -5.199  -1.246  0.00  0.00     0.034 A 
ATOM      4  C3  UNL d   1      -2.463  -4.053  -0.472  0.00  0.00     0.017 A 
ATOM      5  C4  UNL d   1      -1.555  -3.712   0.536  0.00  0.00     0.017 A 
ATOM      6  C5  UNL d   1      -0.435  -4.518   0.764  0.00  0.00     0.034 A 
ATOM      7 Cl   UNL d   1      -1.757  -2.313   1.531  0.00  0.00    -0.070 Cl
ATOM      8 Cl1  UNL d   1      -3.869  -3.108  -0.815  0.00  0.00    -0.070 Cl
ENDROOT
TORSDOF 0
ENDMDL
