MODEL 1
REMARK minimizedAffinity -4.85869884
REMARK minimizedRMSD -1
REMARK  0 active torsions:
REMARK  status: ('A' for Active; 'I' for Inactive)
ROOT
ATOM      1  C   UNL d   1       0.371  -2.839   0.602  0.00  0.00     0.020 A 
ATOM      2  C1  UNL d   1       0.259  -3.330  -0.699  0.00  0.00     0.020 A 
ATOM      3  C2  UNL d   1       0.146  -2.443  -1.772  0.00  0.00     0.034 A 
ATOM      4  C3  UNL d   1       0.146  -1.062  -1.547  0.00  0.00     0.017 A 
ATOM      5  C4  UNL d   1       0.259  -0.570  -0.241  0.00  0.00     0.017 A 
ATOM      6  C5  UNL d   1       0.372  -1.462   0.830  0.00  0.00     0.034 A 
ATOM      7 Cl   UNL d   1       0.267   1.121   0.116  0.00  0.00    -0.070 Cl
ATOM      8 Cl1  UNL d   1       0.004  -0.024  -2.921  0.00  0.00    -0.070 Cl
ENDROOT
TORSDOF 0
ENDMDL
