MODEL 1
REMARK minimizedAffinity 6.04417276
REMARK minimizedRMSD -1
REMARK  0 active torsions:
REMARK  status: ('A' for Active; 'I' for Inactive)
ROOT
ATOM      1  C   UNL d   1      -1.933   0.159   2.593  0.00  0.00     0.020 A 
ATOM      2  C1  UNL d   1      -1.431   1.201   1.815  0.00  0.00     0.020 A 
ATOM      3  C2  UNL d   1      -0.975   0.947   0.519  0.00  0.00     0.034 A 
ATOM      4  C3  UNL d   1      -1.020  -0.351  -0.002  0.00  0.00     0.017 A 
ATOM      5  C4  UNL d   1      -1.525  -1.396   0.780  0.00  0.00     0.017 A 
ATOM      6  C5  UNL d   1      -1.980  -1.137   2.077  0.00  0.00     0.034 A 
ATOM      7 Cl   UNL d   1      -1.613  -3.024   0.206  0.00  0.00    -0.070 Cl
ATOM      8 Cl1  UNL d   1      -0.440  -0.591  -1.611  0.00  0.00    -0.070 Cl
ENDROOT
TORSDOF 0
ENDMDL
