MODEL 1
REMARK minimizedAffinity -3.17363262
REMARK minimizedRMSD -1
REMARK  0 active torsions:
REMARK  status: ('A' for Active; 'I' for Inactive)
ROOT
ATOM      1  C   UNL d   1      -0.122   0.653   1.506  0.00  0.00     0.020 A 
ATOM      2  C1  UNL d   1       0.321   1.306   0.357  0.00  0.00     0.020 A 
ATOM      3  C2  UNL d   1       0.378   0.620  -0.858  0.00  0.00     0.034 A 
ATOM      4  C3  UNL d   1      -0.009  -0.723  -0.927  0.00  0.00     0.017 A 
ATOM      5  C4  UNL d   1      -0.453  -1.378   0.227  0.00  0.00     0.017 A 
ATOM      6  C5  UNL d   1      -0.508  -0.686   1.441  0.00  0.00     0.034 A 
ATOM      7 Cl   UNL d   1      -0.947  -3.034   0.221  0.00  0.00    -0.070 Cl
ATOM      8 Cl1  UNL d   1       0.087  -1.509  -2.463  0.00  0.00    -0.070 Cl
ENDROOT
TORSDOF 0
ENDMDL
