MODEL 1
REMARK minimizedAffinity -1.32712424
REMARK minimizedRMSD -1
REMARK  0 active torsions:
REMARK  status: ('A' for Active; 'I' for Inactive)
ROOT
ATOM      1  C   UNL d   1      -0.938  -1.871   1.692  0.00  0.00     0.020 A 
ATOM      2  C1  UNL d   1      -1.013  -0.530   2.070  0.00  0.00     0.020 A 
ATOM      3  C2  UNL d   1      -0.768   0.474   1.131  0.00  0.00     0.034 A 
ATOM      4  C3  UNL d   1      -0.448   0.140  -0.190  0.00  0.00     0.017 A 
ATOM      5  C4  UNL d   1      -0.374  -1.205  -0.568  0.00  0.00     0.017 A 
ATOM      6  C5  UNL d   1      -0.620  -2.207   0.376  0.00  0.00     0.034 A 
ATOM      7 Cl   UNL d   1       0.016  -1.695  -2.179  0.00  0.00    -0.070 Cl
ATOM      8 Cl1  UNL d   1      -0.158   1.434  -1.298  0.00  0.00    -0.070 Cl
ENDROOT
TORSDOF 0
ENDMDL
