MODEL 1
REMARK minimizedAffinity -0.745180726
REMARK minimizedRMSD -1
REMARK  0 active torsions:
REMARK  status: ('A' for Active; 'I' for Inactive)
ROOT
ATOM      1  C   UNL d   1       0.167  -0.650  -2.378  0.00  0.00     0.020 A 
ATOM      2  C1  UNL d   1       1.018   0.428  -2.619  0.00  0.00     0.020 A 
ATOM      3  C2  UNL d   1       1.251   1.371  -1.617  0.00  0.00     0.034 A 
ATOM      4  C3  UNL d   1       0.633   1.239  -0.368  0.00  0.00     0.017 A 
ATOM      5  C4  UNL d   1      -0.221   0.157  -0.126  0.00  0.00     0.017 A 
ATOM      6  C5  UNL d   1      -0.451  -0.785  -1.134  0.00  0.00     0.034 A 
ATOM      7 Cl   UNL d   1      -1.020  -0.073   1.389  0.00  0.00    -0.070 Cl
ATOM      8 Cl1  UNL d   1       0.968   2.443   0.826  0.00  0.00    -0.070 Cl
ENDROOT
TORSDOF 0
ENDMDL
