MODEL 1
REMARK minimizedAffinity -1.20679045
REMARK minimizedRMSD -1
REMARK  0 active torsions:
REMARK  status: ('A' for Active; 'I' for Inactive)
ROOT
ATOM      1  C   UNL d   1      -0.746  -1.238   2.157  0.00  0.00     0.020 A 
ATOM      2  C1  UNL d   1      -0.991  -2.296   1.283  0.00  0.00     0.020 A 
ATOM      3  C2  UNL d   1      -0.671  -2.171  -0.071  0.00  0.00     0.034 A 
ATOM      4  C3  UNL d   1      -0.106  -0.986  -0.554  0.00  0.00     0.017 A 
ATOM      5  C4  UNL d   1       0.139   0.076   0.324  0.00  0.00     0.017 A 
ATOM      6  C5  UNL d   1      -0.182  -0.055   1.679  0.00  0.00     0.034 A 
ATOM      7 Cl   UNL d   1       0.835   1.569  -0.198  0.00  0.00    -0.070 Cl
ATOM      8 Cl1  UNL d   1       0.264  -0.901  -2.240  0.00  0.00    -0.070 Cl
ENDROOT
TORSDOF 0
ENDMDL
