MODEL 1
REMARK minimizedAffinity -2.52249336
REMARK minimizedRMSD -1
REMARK  0 active torsions:
REMARK  status: ('A' for Active; 'I' for Inactive)
ROOT
ATOM      1  C   UNL d   1       0.739  -0.403   2.178  0.00  0.00     0.020 A 
ATOM      2  C1  UNL d   1      -0.325  -0.893   1.422  0.00  0.00     0.020 A 
ATOM      3  C2  UNL d   1      -0.701  -0.245   0.244  0.00  0.00     0.034 A 
ATOM      4  C3  UNL d   1      -0.014   0.897  -0.181  0.00  0.00     0.017 A 
ATOM      5  C4  UNL d   1       1.054   1.389   0.579  0.00  0.00     0.017 A 
ATOM      6  C5  UNL d   1       1.427   0.736   1.757  0.00  0.00     0.034 A 
ATOM      7 Cl   UNL d   1       1.950   2.793   0.118  0.00  0.00    -0.070 Cl
ATOM      8 Cl1  UNL d   1      -0.533   1.648  -1.648  0.00  0.00    -0.070 Cl
ENDROOT
TORSDOF 0
ENDMDL
