MODEL 1
REMARK minimizedAffinity -2.14814281
REMARK minimizedRMSD -1
REMARK  0 active torsions:
REMARK  status: ('A' for Active; 'I' for Inactive)
ROOT
ATOM      1  C   UNL d   1      -0.860  -1.666   1.232  0.00  0.00     0.020 A 
ATOM      2  C1  UNL d   1      -0.708  -0.280   1.205  0.00  0.00     0.020 A 
ATOM      3  C2  UNL d   1      -0.480   0.374  -0.008  0.00  0.00     0.034 A 
ATOM      4  C3  UNL d   1      -0.403  -0.358  -1.198  0.00  0.00     0.017 A 
ATOM      5  C4  UNL d   1      -0.556  -1.749  -1.170  0.00  0.00     0.017 A 
ATOM      6  C5  UNL d   1      -0.785  -2.399   0.047  0.00  0.00     0.034 A 
ATOM      7 Cl   UNL d   1      -0.474  -2.720  -2.598  0.00  0.00    -0.070 Cl
ATOM      8 Cl1  UNL d   1      -0.119   0.516  -2.662  0.00  0.00    -0.070 Cl
ENDROOT
TORSDOF 0
ENDMDL
