MODEL 1
REMARK minimizedAffinity -3.50643253
REMARK minimizedRMSD -1
REMARK  0 active torsions:
REMARK  status: ('A' for Active; 'I' for Inactive)
ROOT
ATOM      1  C   UNL d   1       0.410   1.809  -0.238  0.00  0.00     0.020 A 
ATOM      2  C1  UNL d   1       0.522   1.604  -1.613  0.00  0.00     0.020 A 
ATOM      3  C2  UNL d   1       0.273   0.341  -2.153  0.00  0.00     0.034 A 
ATOM      4  C3  UNL d   1      -0.089  -0.723  -1.319  0.00  0.00     0.017 A 
ATOM      5  C4  UNL d   1      -0.202  -0.516   0.061  0.00  0.00     0.017 A 
ATOM      6  C5  UNL d   1       0.049   0.751   0.597  0.00  0.00     0.034 A 
ATOM      7 Cl   UNL d   1      -0.644  -1.780   1.154  0.00  0.00    -0.070 Cl
ATOM      8 Cl1  UNL d   1      -0.383  -2.258  -2.055  0.00  0.00    -0.070 Cl
ENDROOT
TORSDOF 0
ENDMDL
