MODEL 1
REMARK minimizedAffinity -2.74877667
REMARK minimizedRMSD -1
REMARK  0 active torsions:
REMARK  status: ('A' for Active; 'I' for Inactive)
ROOT
ATOM      1  C   UNL d   1       2.278   3.362   0.384  0.00  0.00     0.020 A 
ATOM      2  C1  UNL d   1       2.190   2.594   1.545  0.00  0.00     0.020 A 
ATOM      3  C2  UNL d   1       1.372   1.462   1.573  0.00  0.00     0.034 A 
ATOM      4  C3  UNL d   1       0.638   1.096   0.438  0.00  0.00     0.017 A 
ATOM      5  C4  UNL d   1       0.727   1.867  -0.726  0.00  0.00     0.017 A 
ATOM      6  C5  UNL d   1       1.548   2.999  -0.748  0.00  0.00     0.034 A 
ATOM      7 Cl   UNL d   1      -0.147   1.478  -2.165  0.00  0.00    -0.070 Cl
ATOM      8 Cl1  UNL d   1      -0.353  -0.316   0.544  0.00  0.00    -0.070 Cl
ENDROOT
TORSDOF 0
ENDMDL
