MODEL 1
REMARK minimizedAffinity -2.7463994
REMARK minimizedRMSD -1
REMARK  0 active torsions:
REMARK  status: ('A' for Active; 'I' for Inactive)
ROOT
ATOM      1  C   UNL d   1       1.491   2.833   1.067  0.00  0.00     0.020 A 
ATOM      2  C1  UNL d   1       1.286   2.014   2.176  0.00  0.00     0.020 A 
ATOM      3  C2  UNL d   1       0.698   0.757   2.017  0.00  0.00     0.034 A 
ATOM      4  C3  UNL d   1       0.313   0.316   0.745  0.00  0.00     0.017 A 
ATOM      5  C4  UNL d   1       0.519   1.140  -0.367  0.00  0.00     0.017 A 
ATOM      6  C5  UNL d   1       1.108   2.397  -0.202  0.00  0.00     0.034 A 
ATOM      7 Cl   UNL d   1       0.070   0.665  -1.968  0.00  0.00    -0.070 Cl
ATOM      8 Cl1  UNL d   1      -0.407  -1.249   0.622  0.00  0.00    -0.070 Cl
ENDROOT
TORSDOF 0
ENDMDL
