MODEL 1
REMARK minimizedAffinity -2.15000796
REMARK minimizedRMSD -1
REMARK  0 active torsions:
REMARK  status: ('A' for Active; 'I' for Inactive)
ROOT
ATOM      1  C   UNL d   1       0.074   1.471  -0.340  0.00  0.00     0.020 A 
ATOM      2  C1  UNL d   1      -0.423   1.175   0.929  0.00  0.00     0.020 A 
ATOM      3  C2  UNL d   1      -0.776  -0.136   1.252  0.00  0.00     0.034 A 
ATOM      4  C3  UNL d   1      -0.633  -1.157   0.305  0.00  0.00     0.017 A 
ATOM      5  C4  UNL d   1      -0.134  -0.859  -0.968  0.00  0.00     0.017 A 
ATOM      6  C5  UNL d   1       0.218   0.456  -1.286  0.00  0.00     0.034 A 
ATOM      7 Cl   UNL d   1       0.071  -2.066  -2.189  0.00  0.00    -0.070 Cl
ATOM      8 Cl1  UNL d   1      -1.090  -2.757   0.773  0.00  0.00    -0.070 Cl
ENDROOT
TORSDOF 0
ENDMDL
