MODEL 1
REMARK minimizedAffinity -2.26106477
REMARK minimizedRMSD -1
REMARK  0 active torsions:
REMARK  status: ('A' for Active; 'I' for Inactive)
ROOT
ATOM      1  C   UNL d   1      -1.057  -1.421   1.896  0.00  0.00     0.020 A 
ATOM      2  C1  UNL d   1      -1.389  -2.298   0.864  0.00  0.00     0.020 A 
ATOM      3  C2  UNL d   1      -1.047  -1.986  -0.453  0.00  0.00     0.034 A 
ATOM      4  C3  UNL d   1      -0.371  -0.795  -0.743  0.00  0.00     0.017 A 
ATOM      5  C4  UNL d   1      -0.038   0.084   0.294  0.00  0.00     0.017 A 
ATOM      6  C5  UNL d   1      -0.383  -0.233   1.612  0.00  0.00     0.034 A 
ATOM      7 Cl   UNL d   1       0.795   1.572   0.015  0.00  0.00    -0.070 Cl
ATOM      8 Cl1  UNL d   1       0.020  -0.475  -2.395  0.00  0.00    -0.070 Cl
ENDROOT
TORSDOF 0
ENDMDL
