MODEL 1
REMARK minimizedAffinity -3.00232244
REMARK minimizedRMSD -1
REMARK  0 active torsions:
REMARK  status: ('A' for Active; 'I' for Inactive)
ROOT
ATOM      1  C   UNL d   1      -0.952  -2.317   1.030  0.00  0.00     0.020 A 
ATOM      2  C1  UNL d   1      -1.081  -1.047   1.589  0.00  0.00     0.020 A 
ATOM      3  C2  UNL d   1      -0.767   0.084   0.832  0.00  0.00     0.034 A 
ATOM      4  C3  UNL d   1      -0.321  -0.054  -0.488  0.00  0.00     0.017 A 
ATOM      5  C4  UNL d   1      -0.192  -1.330  -1.048  0.00  0.00     0.017 A 
ATOM      6  C5  UNL d   1      -0.508  -2.459  -0.285  0.00  0.00     0.034 A 
ATOM      7 Cl   UNL d   1       0.351  -1.580  -2.669  0.00  0.00    -0.070 Cl
ATOM      8 Cl1  UNL d   1       0.049   1.387  -1.366  0.00  0.00    -0.070 Cl
ENDROOT
TORSDOF 0
ENDMDL
