MODEL 1
REMARK minimizedAffinity 9.35702229
REMARK minimizedRMSD -1
REMARK  0 active torsions:
REMARK  status: ('A' for Active; 'I' for Inactive)
ROOT
ATOM      1  C   UNL d   1       0.230   2.050  -0.957  0.00  0.00    -0.002 A 
ATOM      2  C1  UNL d   1      -0.781   1.226  -0.482  0.00  0.00     0.010 A 
ATOM      3  C2  UNL d   1      -0.579  -0.151  -0.366  0.00  0.00     0.041 A 
ATOM      4  C3  UNL d   1       0.668  -0.691  -0.738  0.00  0.00    -0.075 A 
ATOM      5  S   UNL d   1       1.143  -2.347  -0.680  0.00  0.00     0.015 SA
ATOM      6  C4  UNL d   1       2.699  -2.000  -1.283  0.00  0.00     0.022 A 
ATOM      7  C5  UNL d   1       2.869  -0.658  -1.528  0.00  0.00     0.026 A 
ATOM      8  C6  UNL d   1       1.702   0.119  -1.218  0.00  0.00    -0.082 A 
ATOM      9  C7  UNL d   1       1.466   1.511  -1.324  0.00  0.00     0.045 A 
ENDROOT
TORSDOF 0
ENDMDL
