MODEL 1
REMARK minimizedAffinity 9.74531269
REMARK minimizedRMSD -1
REMARK  0 active torsions:
REMARK  status: ('A' for Active; 'I' for Inactive)
ROOT
ATOM      1  C   UNL d   1       2.005   2.744  -0.886  0.00  0.00    -0.002 A 
ATOM      2  C1  UNL d   1       0.713   2.582  -1.367  0.00  0.00     0.010 A 
ATOM      3  C2  UNL d   1       0.256   1.325  -1.766  0.00  0.00     0.041 A 
ATOM      4  C3  UNL d   1       1.127   0.222  -1.673  0.00  0.00    -0.075 A 
ATOM      5  S   UNL d   1       0.785  -1.412  -2.103  0.00  0.00     0.015 SA
ATOM      6  C4  UNL d   1       2.345  -1.934  -1.659  0.00  0.00     0.022 A 
ATOM      7  C5  UNL d   1       3.122  -0.901  -1.191  0.00  0.00     0.026 A 
ATOM      8  C6  UNL d   1       2.432   0.359  -1.191  0.00  0.00    -0.082 A 
ATOM      9  C7  UNL d   1       2.866   1.647  -0.794  0.00  0.00     0.045 A 
ENDROOT
TORSDOF 0
ENDMDL
