MODEL 1
REMARK minimizedAffinity -2.01823425
REMARK minimizedRMSD -1
REMARK  0 active torsions:
REMARK  status: ('A' for Active; 'I' for Inactive)
ROOT
ATOM      1  C   UNL d   1       2.820  -2.205  -1.327  0.00  0.00    -0.002 A 
ATOM      2  C1  UNL d   1       1.822  -2.334  -0.372  0.00  0.00     0.010 A 
ATOM      3  C2  UNL d   1       0.876  -1.323  -0.191  0.00  0.00     0.041 A 
ATOM      4  C3  UNL d   1       0.951  -0.168  -0.995  0.00  0.00    -0.075 A 
ATOM      5  S   UNL d   1      -0.099   1.199  -0.950  0.00  0.00     0.015 SA
ATOM      6  C4  UNL d   1       0.753   1.987  -2.199  0.00  0.00     0.022 A 
ATOM      7  C5  UNL d   1       1.815   1.239  -2.650  0.00  0.00     0.026 A 
ATOM      8  C6  UNL d   1       1.947  -0.015  -1.963  0.00  0.00    -0.082 A 
ATOM      9  C7  UNL d   1       2.891  -1.058  -2.122  0.00  0.00     0.045 A 
ENDROOT
TORSDOF 0
ENDMDL
