MODEL 1
REMARK minimizedAffinity 6.48546362
REMARK minimizedRMSD -1
REMARK  0 active torsions:
REMARK  status: ('A' for Active; 'I' for Inactive)
ROOT
ATOM      1  C   UNL d   1      -5.999  -1.195  -0.320  0.00  0.00    -0.002 A 
ATOM      2  C1  UNL d   1      -5.904  -1.149   1.064  0.00  0.00     0.010 A 
ATOM      3  C2  UNL d   1      -4.793  -0.572   1.680  0.00  0.00     0.041 A 
ATOM      4  C3  UNL d   1      -3.769  -0.035   0.875  0.00  0.00    -0.075 A 
ATOM      5  S   UNL d   1      -2.315   0.723   1.410  0.00  0.00     0.015 SA
ATOM      6  C4  UNL d   1      -1.786   1.003  -0.185  0.00  0.00     0.022 A 
ATOM      7  C5  UNL d   1      -2.684   0.537  -1.116  0.00  0.00     0.026 A 
ATOM      8  C6  UNL d   1      -3.842  -0.069  -0.520  0.00  0.00    -0.082 A 
ATOM      9  C7  UNL d   1      -4.981  -0.662  -1.115  0.00  0.00     0.045 A 
ENDROOT
TORSDOF 0
ENDMDL
