MODEL 1
REMARK minimizedAffinity 8.10492134
REMARK minimizedRMSD -1
REMARK  0 active torsions:
REMARK  status: ('A' for Active; 'I' for Inactive)
ROOT
ATOM      1  C   UNL d   1       3.266   1.637  -3.319  0.00  0.00    -0.002 A 
ATOM      2  C1  UNL d   1       1.947   2.069  -3.326  0.00  0.00     0.010 A 
ATOM      3  C2  UNL d   1       0.966   1.367  -2.623  0.00  0.00     0.041 A 
ATOM      4  C3  UNL d   1       1.336   0.214  -1.904  0.00  0.00    -0.075 A 
ATOM      5  S   UNL d   1       0.305  -0.804  -0.969  0.00  0.00     0.015 SA
ATOM      6  C4  UNL d   1       1.591  -1.836  -0.537  0.00  0.00     0.022 A 
ATOM      7  C5  UNL d   1       2.784  -1.429  -1.084  0.00  0.00     0.026 A 
ATOM      8  C6  UNL d   1       2.657  -0.241  -1.881  0.00  0.00    -0.082 A 
ATOM      9  C7  UNL d   1       3.629   0.492  -2.604  0.00  0.00     0.045 A 
ENDROOT
TORSDOF 0
ENDMDL
