MODEL 1
REMARK minimizedAffinity 2.30298209
REMARK minimizedRMSD -1
REMARK  0 active torsions:
REMARK  status: ('A' for Active; 'I' for Inactive)
ROOT
ATOM      1  C   UNL d   1       1.495   2.325  -2.739  0.00  0.00    -0.002 A 
ATOM      2  C1  UNL d   1       0.369   2.342  -1.927  0.00  0.00     0.010 A 
ATOM      3  C2  UNL d   1      -0.024   1.195  -1.234  0.00  0.00     0.041 A 
ATOM      4  C3  UNL d   1       0.742   0.020  -1.370  0.00  0.00    -0.075 A 
ATOM      5  S   UNL d   1       0.452  -1.503  -0.617  0.00  0.00     0.015 SA
ATOM      6  C4  UNL d   1       1.816  -2.211  -1.354  0.00  0.00     0.022 A 
ATOM      7  C5  UNL d   1       2.487  -1.322  -2.159  0.00  0.00     0.026 A 
ATOM      8  C6  UNL d   1       1.880  -0.021  -2.181  0.00  0.00    -0.082 A 
ATOM      9  C7  UNL d   1       2.252   1.158  -2.872  0.00  0.00     0.045 A 
ENDROOT
TORSDOF 0
ENDMDL
