MODEL 1
REMARK minimizedAffinity 7.86505938
REMARK minimizedRMSD -1
REMARK  0 active torsions:
REMARK  status: ('A' for Active; 'I' for Inactive)
ROOT
ATOM      1  C   UNL d   1       1.861  -1.908  -1.133  0.00  0.00    -0.002 A 
ATOM      2  C1  UNL d   1       0.656  -1.980  -0.449  0.00  0.00     0.010 A 
ATOM      3  C2  UNL d   1      -0.215  -0.889  -0.428  0.00  0.00     0.041 A 
ATOM      4  C3  UNL d   1       0.148   0.287  -1.114  0.00  0.00    -0.075 A 
ATOM      5  S   UNL d   1      -0.760   1.748  -1.226  0.00  0.00     0.015 SA
ATOM      6  C4  UNL d   1       0.430   2.501  -2.186  0.00  0.00     0.022 A 
ATOM      7  C5  UNL d   1       1.501   1.673  -2.424  0.00  0.00     0.026 A 
ATOM      8  C6  UNL d   1       1.356   0.383  -1.810  0.00  0.00    -0.082 A 
ATOM      9  C7  UNL d   1       2.218  -0.740  -1.812  0.00  0.00     0.045 A 
ENDROOT
TORSDOF 0
ENDMDL
