MODEL 1
REMARK minimizedAffinity 11.0730581
REMARK minimizedRMSD -1
REMARK  0 active torsions:
REMARK  status: ('A' for Active; 'I' for Inactive)
ROOT
ATOM      1  C   UNL d   1       0.901   2.083   1.469  0.00  0.00    -0.002 A 
ATOM      2  C1  UNL d   1      -0.304   2.187   0.789  0.00  0.00     0.010 A 
ATOM      3  C2  UNL d   1      -0.351   2.039  -0.599  0.00  0.00     0.041 A 
ATOM      4  C3  UNL d   1       0.844   1.780  -1.298  0.00  0.00    -0.075 A 
ATOM      5  S   UNL d   1       1.028   1.561  -2.998  0.00  0.00     0.015 SA
ATOM      6  C4  UNL d   1       2.710   1.324  -2.861  0.00  0.00     0.022 A 
ATOM      7  C5  UNL d   1       3.138   1.406  -1.557  0.00  0.00     0.026 A 
ATOM      8  C6  UNL d   1       2.070   1.670  -0.635  0.00  0.00    -0.082 A 
ATOM      9  C7  UNL d   1       2.085   1.826   0.772  0.00  0.00     0.045 A 
ENDROOT
TORSDOF 0
ENDMDL
