MODEL 1
REMARK minimizedAffinity 1.58938909
REMARK minimizedRMSD -1
REMARK  0 active torsions:
REMARK  status: ('A' for Active; 'I' for Inactive)
ROOT
ATOM      1  C   UNL d   1       2.620  -1.615  -1.297  0.00  0.00    -0.002 A 
ATOM      2  C1  UNL d   1       2.951  -0.366  -1.802  0.00  0.00     0.010 A 
ATOM      3  C2  UNL d   1       2.029   0.681  -1.768  0.00  0.00     0.041 A 
ATOM      4  C3  UNL d   1       0.756   0.450  -1.210  0.00  0.00    -0.075 A 
ATOM      5  S   UNL d   1      -0.535   1.584  -1.061  0.00  0.00     0.015 SA
ATOM      6  C4  UNL d   1      -1.556   0.436  -0.322  0.00  0.00     0.022 A 
ATOM      7  C5  UNL d   1      -0.943  -0.787  -0.185  0.00  0.00     0.026 A 
ATOM      8  C6  UNL d   1       0.399  -0.799  -0.694  0.00  0.00    -0.082 A 
ATOM      9  C7  UNL d   1       1.357  -1.841  -0.744  0.00  0.00     0.045 A 
ENDROOT
TORSDOF 0
ENDMDL
