MODEL 1
REMARK minimizedAffinity 18.6612244
REMARK minimizedRMSD -1
REMARK  0 active torsions:
REMARK  status: ('A' for Active; 'I' for Inactive)
ROOT
ATOM      1  C   UNL d   1       2.593  -2.082  -1.688  0.00  0.00    -0.002 A 
ATOM      2  C1  UNL d   1       1.395  -2.324  -1.030  0.00  0.00     0.010 A 
ATOM      3  C2  UNL d   1       0.424  -1.326  -0.934  0.00  0.00     0.041 A 
ATOM      4  C3  UNL d   1       0.677  -0.069  -1.518  0.00  0.00    -0.075 A 
ATOM      5  S   UNL d   1      -0.367   1.303  -1.527  0.00  0.00     0.015 SA
ATOM      6  C4  UNL d   1       0.752   2.242  -2.405  0.00  0.00     0.022 A 
ATOM      7  C5  UNL d   1       1.900   1.542  -2.693  0.00  0.00     0.026 A 
ATOM      8  C6  UNL d   1       1.875   0.198  -2.187  0.00  0.00    -0.082 A 
ATOM      9  C7  UNL d   1       2.841  -0.834  -2.266  0.00  0.00     0.045 A 
ENDROOT
TORSDOF 0
ENDMDL
