MODEL 1
REMARK minimizedAffinity 1.58934832
REMARK minimizedRMSD -1
REMARK  0 active torsions:
REMARK  status: ('A' for Active; 'I' for Inactive)
ROOT
ATOM      1  C   UNL d   1       2.860  -2.217  -0.355  0.00  0.00    -0.002 A 
ATOM      2  C1  UNL d   1       1.519  -2.281  -0.002  0.00  0.00     0.010 A 
ATOM      3  C2  UNL d   1       0.622  -1.306  -0.440  0.00  0.00     0.041 A 
ATOM      4  C3  UNL d   1       1.098  -0.255  -1.249  0.00  0.00    -0.075 A 
ATOM      5  S   UNL d   1       0.182   1.051  -1.903  0.00  0.00     0.015 SA
ATOM      6  C4  UNL d   1       1.548   1.724  -2.668  0.00  0.00     0.022 A 
ATOM      7  C5  UNL d   1       2.684   0.983  -2.440  0.00  0.00     0.026 A 
ATOM      8  C6  UNL d   1       2.443  -0.170  -1.619  0.00  0.00    -0.082 A 
ATOM      9  C7  UNL d   1       3.328  -1.174  -1.158  0.00  0.00     0.045 A 
ENDROOT
TORSDOF 0
ENDMDL
