MODEL 1
REMARK minimizedAffinity -2.66201162
REMARK minimizedRMSD -1
REMARK  2 active torsions:
REMARK  status: ('A' for Active; 'I' for Inactive)
REMARK    1  A    between atoms: C1_2  and  C2_3 
REMARK    2  A    between atoms: C2_3  and  C3_4 
ROOT
ATOM      1  C3  UNL d   1      -0.017   0.728   0.313  0.00  0.00    -0.075 A 
ATOM      2  C4  UNL d   1      -0.236   0.823   1.695  0.00  0.00     0.002 A 
ATOM      3  C5  UNL d   1      -0.709  -0.274   2.415  0.00  0.00     0.002 A 
ATOM      4  C6  UNL d   1      -0.978  -1.476   1.763  0.00  0.00    -0.004 A 
ATOM      5  C7  UNL d   1      -0.780  -1.577   0.387  0.00  0.00     0.002 A 
ATOM      6  C8  UNL d   1      -0.303  -0.482  -0.335  0.00  0.00     0.002 A 
ENDROOT
BRANCH   1   7
ATOM      7  C2  UNL d   1       0.522   1.903  -0.467  0.00  0.00     0.056 C 
BRANCH   7   8
ATOM      8  C1  UNL d   1       1.166   2.987   0.404  0.00  0.00     0.007 C 
ATOM      9  C   UNL d   1       2.612   3.278   0.029  0.00  0.00     0.009 C 
ENDBRANCH   7   8
ENDBRANCH   1   7
TORSDOF 2
ENDMDL
