MODEL 1
REMARK minimizedAffinity -2.6556778
REMARK minimizedRMSD -1
REMARK  2 active torsions:
REMARK  status: ('A' for Active; 'I' for Inactive)
REMARK    1  A    between atoms: C1_2  and  C2_3 
REMARK    2  A    between atoms: C2_3  and  C3_4 
ROOT
ATOM      1  C3  UNL d   1      -0.270   0.590   0.441  0.00  0.00    -0.075 A 
ATOM      2  C4  UNL d   1      -0.897  -0.168   1.441  0.00  0.00     0.002 A 
ATOM      3  C5  UNL d   1      -1.093  -1.539   1.272  0.00  0.00     0.002 A 
ATOM      4  C6  UNL d   1      -0.675  -2.167   0.101  0.00  0.00    -0.004 A 
ATOM      5  C7  UNL d   1      -0.066  -1.421  -0.906  0.00  0.00     0.002 A 
ATOM      6  C8  UNL d   1       0.136  -0.050  -0.738  0.00  0.00     0.002 A 
ENDROOT
BRANCH   1   7
ATOM      7  C2  UNL d   1      -0.028   2.068   0.629  0.00  0.00     0.056 C 
BRANCH   7   8
ATOM      8  C1  UNL d   1       1.441   2.482   0.492  0.00  0.00     0.007 C 
ATOM      9  C   UNL d   1       1.860   3.551   1.493  0.00  0.00     0.009 C 
ENDBRANCH   7   8
ENDBRANCH   1   7
TORSDOF 2
ENDMDL
