MODEL 1
REMARK minimizedAffinity -4.59703684
REMARK minimizedRMSD -1
REMARK  2 active torsions:
REMARK  status: ('A' for Active; 'I' for Inactive)
REMARK    1  A    between atoms: C1_2  and  C2_3 
REMARK    2  A    between atoms: C2_3  and  C3_4 
ROOT
ATOM      1  C3  UNL d   1       0.081   0.665  -0.225  0.00  0.00    -0.075 A 
ATOM      2  C4  UNL d   1       0.477  -0.585  -0.723  0.00  0.00     0.002 A 
ATOM      3  C5  UNL d   1       0.113  -1.758  -0.062  0.00  0.00     0.002 A 
ATOM      4  C6  UNL d   1      -0.640  -1.697   1.108  0.00  0.00    -0.004 A 
ATOM      5  C7  UNL d   1      -1.025  -0.460   1.621  0.00  0.00     0.002 A 
ATOM      6  C8  UNL d   1      -0.666   0.715   0.959  0.00  0.00     0.002 A 
ENDROOT
BRANCH   1   7
ATOM      7  C2  UNL d   1       0.446   1.937  -0.952  0.00  0.00     0.056 C 
BRANCH   7   8
ATOM      8  C1  UNL d   1       0.576   3.161  -0.039  0.00  0.00     0.007 C 
ATOM      9  C   UNL d   1       2.000   3.400   0.446  0.00  0.00     0.009 C 
ENDBRANCH   7   8
ENDBRANCH   1   7
TORSDOF 2
ENDMDL
