MODEL 1
REMARK minimizedAffinity -3.96092749
REMARK minimizedRMSD -1
REMARK  2 active torsions:
REMARK  status: ('A' for Active; 'I' for Inactive)
REMARK    1  A    between atoms: C1_2  and  C2_3 
REMARK    2  A    between atoms: C2_3  and  C3_4 
ROOT
ATOM      1  C3  UNL d   1      -0.075   0.238   0.049  0.00  0.00    -0.075 A 
ATOM      2  C4  UNL d   1       0.221  -0.503  -1.104  0.00  0.00     0.002 A 
ATOM      3  C5  UNL d   1      -0.127  -1.852  -1.188  0.00  0.00     0.002 A 
ATOM      4  C6  UNL d   1      -0.763  -2.478  -0.118  0.00  0.00    -0.004 A 
ATOM      5  C7  UNL d   1      -1.046  -1.755   1.039  0.00  0.00     0.002 A 
ATOM      6  C8  UNL d   1      -0.704  -0.405   1.123  0.00  0.00     0.002 A 
ENDROOT
BRANCH   1   7
ATOM      7  C2  UNL d   1       0.272   1.705   0.134  0.00  0.00     0.056 C 
BRANCH   7   8
ATOM      8  C1  UNL d   1       1.750   2.013  -0.128  0.00  0.00     0.007 C 
ATOM      9  C   UNL d   1       2.253   3.232   0.634  0.00  0.00     0.009 C 
ENDBRANCH   7   8
ENDBRANCH   1   7
TORSDOF 2
ENDMDL
