MODEL 1
REMARK minimizedAffinity -0.434364021
REMARK minimizedRMSD -1
REMARK  2 active torsions:
REMARK  status: ('A' for Active; 'I' for Inactive)
REMARK    1  A    between atoms: C1_2  and  C2_3 
REMARK    2  A    between atoms: C2_3  and  C3_4 
ROOT
ATOM      1  C3  UNL d   1      -0.499  -1.685   0.122  0.00  0.00    -0.075 A 
ATOM      2  C4  UNL d   1      -1.453  -1.244   1.051  0.00  0.00     0.002 A 
ATOM      3  C5  UNL d   1      -1.460   0.083   1.484  0.00  0.00     0.002 A 
ATOM      4  C6  UNL d   1      -0.508   0.980   1.004  0.00  0.00    -0.004 A 
ATOM      5  C7  UNL d   1       0.455   0.549   0.095  0.00  0.00     0.002 A 
ATOM      6  C8  UNL d   1       0.461  -0.777  -0.344  0.00  0.00     0.002 A 
ENDROOT
BRANCH   1   7
ATOM      7  C2  UNL d   1      -0.504  -3.111  -0.373  0.00  0.00     0.056 C 
BRANCH   7   8
ATOM      8  C1  UNL d   1      -1.237  -3.306  -1.705  0.00  0.00     0.007 C 
ATOM      9  C   UNL d   1      -0.350  -3.061  -2.919  0.00  0.00     0.009 C 
ENDBRANCH   7   8
ENDBRANCH   1   7
TORSDOF 2
ENDMDL
