MODEL 1
REMARK minimizedAffinity -2.96329188
REMARK minimizedRMSD -1
REMARK  2 active torsions:
REMARK  status: ('A' for Active; 'I' for Inactive)
REMARK    1  A    between atoms: C1_2  and  C2_3 
REMARK    2  A    between atoms: C2_3  and  C3_4 
ROOT
ATOM      1  C3  UNL d   1      -0.347   0.336   0.091  0.00  0.00    -0.075 A 
ATOM      2  C4  UNL d   1       0.034  -0.397  -1.043  0.00  0.00     0.002 A 
ATOM      3  C5  UNL d   1      -0.111  -1.784  -1.071  0.00  0.00     0.002 A 
ATOM      4  C6  UNL d   1      -0.626  -2.456   0.035  0.00  0.00    -0.004 A 
ATOM      5  C7  UNL d   1      -0.992  -1.740   1.173  0.00  0.00     0.002 A 
ATOM      6  C8  UNL d   1      -0.853  -0.352   1.202  0.00  0.00     0.002 A 
ENDROOT
BRANCH   1   7
ATOM      7  C2  UNL d   1      -0.221   1.841   0.117  0.00  0.00     0.056 C 
BRANCH   7   8
ATOM      8  C1  UNL d   1       1.225   2.345   0.164  0.00  0.00     0.007 C 
ATOM      9  C   UNL d   1       1.393   3.612   0.991  0.00  0.00     0.009 C 
ENDBRANCH   7   8
ENDBRANCH   1   7
TORSDOF 2
ENDMDL
