MODEL 1
REMARK minimizedAffinity -4.41289234
REMARK minimizedRMSD -1
REMARK  2 active torsions:
REMARK  status: ('A' for Active; 'I' for Inactive)
REMARK    1  A    between atoms: C1_2  and  C2_3 
REMARK    2  A    between atoms: C2_3  and  C3_4 
ROOT
ATOM      1  C3  UNL d   1      -0.259   0.081  -0.130  0.00  0.00    -0.075 A 
ATOM      2  C4  UNL d   1      -0.807  -0.680   0.913  0.00  0.00     0.002 A 
ATOM      3  C5  UNL d   1      -1.069  -2.039   0.736  0.00  0.00     0.002 A 
ATOM      4  C6  UNL d   1      -0.798  -2.650  -0.486  0.00  0.00    -0.004 A 
ATOM      5  C7  UNL d   1      -0.270  -1.900  -1.534  0.00  0.00     0.002 A 
ATOM      6  C8  UNL d   1      -0.002  -0.542  -1.359  0.00  0.00     0.002 A 
ENDROOT
BRANCH   1   7
ATOM      7  C2  UNL d   1       0.055   1.545   0.064  0.00  0.00     0.056 C 
BRANCH   7   8
ATOM      8  C1  UNL d   1       1.444   1.813   0.652  0.00  0.00     0.007 C 
ATOM      9  C   UNL d   1       1.690   3.282   0.969  0.00  0.00     0.009 C 
ENDBRANCH   7   8
ENDBRANCH   1   7
TORSDOF 2
ENDMDL
