MODEL 1
REMARK minimizedAffinity -2.48181367
REMARK minimizedRMSD -1
REMARK  2 active torsions:
REMARK  status: ('A' for Active; 'I' for Inactive)
REMARK    1  A    between atoms: C1_2  and  C2_3 
REMARK    2  A    between atoms: C2_3  and  C3_4 
ROOT
ATOM      1  C3  UNL d   1      -0.531  -0.858   0.559  0.00  0.00    -0.075 A 
ATOM      2  C4  UNL d   1      -0.799   0.381   1.158  0.00  0.00     0.002 A 
ATOM      3  C5  UNL d   1      -0.303   1.560   0.599  0.00  0.00     0.002 A 
ATOM      4  C6  UNL d   1       0.472   1.514  -0.557  0.00  0.00    -0.004 A 
ATOM      5  C7  UNL d   1       0.759   0.287  -1.151  0.00  0.00     0.002 A 
ATOM      6  C8  UNL d   1       0.261  -0.894  -0.597  0.00  0.00     0.002 A 
ENDROOT
BRANCH   1   7
ATOM      7  C2  UNL d   1      -1.088  -2.135   1.142  0.00  0.00     0.056 C 
BRANCH   7   8
ATOM      8  C1  UNL d   1      -1.954  -2.940   0.167  0.00  0.00     0.007 C 
ATOM      9  C   UNL d   1      -3.442  -2.645   0.301  0.00  0.00     0.009 C 
ENDBRANCH   7   8
ENDBRANCH   1   7
TORSDOF 2
ENDMDL
