MODEL 1
REMARK minimizedAffinity -3.58600831
REMARK minimizedRMSD -1
REMARK  2 active torsions:
REMARK  status: ('A' for Active; 'I' for Inactive)
REMARK    1  A    between atoms: C1_2  and  C2_3 
REMARK    2  A    between atoms: C2_3  and  C3_4 
ROOT
ATOM      1  C3  UNL d   1       0.053  -0.835  -0.292  0.00  0.00    -0.075 A 
ATOM      2  C4  UNL d   1      -0.613  -1.906   0.321  0.00  0.00     0.002 A 
ATOM      3  C5  UNL d   1      -0.884  -3.074  -0.393  0.00  0.00     0.002 A 
ATOM      4  C6  UNL d   1      -0.502  -3.182  -1.728  0.00  0.00    -0.004 A 
ATOM      5  C7  UNL d   1       0.145  -2.118  -2.352  0.00  0.00     0.002 A 
ATOM      6  C8  UNL d   1       0.421  -0.950  -1.639  0.00  0.00     0.002 A 
ENDROOT
BRANCH   1   7
ATOM      7  C2  UNL d   1       0.375   0.420   0.483  0.00  0.00     0.056 C 
BRANCH   7   8
ATOM      8  C1  UNL d   1       0.653   1.643  -0.398  0.00  0.00     0.007 C 
ATOM      9  C   UNL d   1       1.826   2.482   0.092  0.00  0.00     0.009 C 
ENDBRANCH   7   8
ENDBRANCH   1   7
TORSDOF 2
ENDMDL
