MODEL 1
REMARK minimizedAffinity -3.71200728
REMARK minimizedRMSD -1
REMARK  2 active torsions:
REMARK  status: ('A' for Active; 'I' for Inactive)
REMARK    1  A    between atoms: C1_2  and  C2_3 
REMARK    2  A    between atoms: C2_3  and  C3_4 
ROOT
ATOM      1  C3  UNL d   1      -0.174  -0.050   0.017  0.00  0.00    -0.075 A 
ATOM      2  C4  UNL d   1      -0.145  -0.826  -1.151  0.00  0.00     0.002 A 
ATOM      3  C5  UNL d   1      -0.342  -2.206  -1.089  0.00  0.00     0.002 A 
ATOM      4  C6  UNL d   1      -0.561  -2.827   0.138  0.00  0.00    -0.004 A 
ATOM      5  C7  UNL d   1      -0.576  -2.068   1.306  0.00  0.00     0.002 A 
ATOM      6  C8  UNL d   1      -0.383  -0.687   1.247  0.00  0.00     0.002 A 
ENDROOT
BRANCH   1   7
ATOM      7  C2  UNL d   1       0.010   1.448  -0.046  0.00  0.00     0.056 C 
BRANCH   7   8
ATOM      8  C1  UNL d   1       1.435   1.915   0.268  0.00  0.00     0.007 C 
ATOM      9  C   UNL d   1       1.500   3.355   0.758  0.00  0.00     0.009 C 
ENDBRANCH   7   8
ENDBRANCH   1   7
TORSDOF 2
ENDMDL
