MODEL 1
REMARK minimizedAffinity -3.64421678
REMARK minimizedRMSD -1
REMARK  2 active torsions:
REMARK  status: ('A' for Active; 'I' for Inactive)
REMARK    1  A    between atoms: C1_2  and  C2_3 
REMARK    2  A    between atoms: C2_3  and  C3_4 
ROOT
ATOM      1  C3  UNL d   1      -0.344   0.520   0.276  0.00  0.00    -0.075 A 
ATOM      2  C4  UNL d   1      -0.388  -0.348  -0.825  0.00  0.00     0.002 A 
ATOM      3  C5  UNL d   1      -0.748  -1.686  -0.658  0.00  0.00     0.002 A 
ATOM      4  C6  UNL d   1      -1.057  -2.174   0.609  0.00  0.00    -0.004 A 
ATOM      5  C7  UNL d   1      -1.000  -1.325   1.712  0.00  0.00     0.002 A 
ATOM      6  C8  UNL d   1      -0.644   0.015   1.548  0.00  0.00     0.002 A 
ENDROOT
BRANCH   1   7
ATOM      7  C2  UNL d   1       0.017   1.975   0.097  0.00  0.00     0.056 C 
BRANCH   7   8
ATOM      8  C1  UNL d   1       1.525   2.246   0.069  0.00  0.00     0.007 C 
ATOM      9  C   UNL d   1       1.902   3.602   0.650  0.00  0.00     0.009 C 
ENDBRANCH   7   8
ENDBRANCH   1   7
TORSDOF 2
ENDMDL
