MODEL 1
REMARK minimizedAffinity 9.86737061
REMARK minimizedRMSD -1
REMARK  0 active torsions:
REMARK  status: ('A' for Active; 'I' for Inactive)
ROOT
ATOM      1  C   UNL d   1      -4.045  -6.000   0.241  0.00  0.00     0.020 A 
ATOM      2  C1  UNL d   1      -5.413  -5.882  -0.004  0.00  0.00     0.020 A 
ATOM      3  C2  UNL d   1      -5.996  -4.618  -0.115  0.00  0.00     0.034 A 
ATOM      4  C3  UNL d   1      -5.212  -3.467   0.019  0.00  0.00     0.017 A 
ATOM      5  C4  UNL d   1      -3.839  -3.586   0.265  0.00  0.00     0.017 A 
ATOM      6  C5  UNL d   1      -3.260  -4.854   0.375  0.00  0.00     0.034 A 
ATOM      7 Cl   UNL d   1      -2.807  -2.211   0.442  0.00  0.00    -0.070 Cl
ATOM      8 Cl1  UNL d   1      -6.000  -1.936  -0.130  0.00  0.00    -0.070 Cl
ENDROOT
TORSDOF 0
ENDMDL
