MODEL 1
REMARK minimizedAffinity 7.75367641
REMARK minimizedRMSD -1
REMARK  0 active torsions:
REMARK  status: ('A' for Active; 'I' for Inactive)
ROOT
ATOM      1  C   UNL d   1       0.196  -0.429   3.339  0.00  0.00     0.020 A 
ATOM      2  C1  UNL d   1      -1.133  -0.727   3.040  0.00  0.00     0.020 A 
ATOM      3  C2  UNL d   1      -2.007   0.291   2.654  0.00  0.00     0.034 A 
ATOM      4  C3  UNL d   1      -1.553   1.612   2.566  0.00  0.00     0.017 A 
ATOM      5  C4  UNL d   1      -0.219   1.910   2.866  0.00  0.00     0.017 A 
ATOM      6  C5  UNL d   1       0.652   0.887   3.252  0.00  0.00     0.034 A 
ATOM      7 Cl   UNL d   1       0.414   3.516   2.780  0.00  0.00    -0.070 Cl
ATOM      8 Cl1  UNL d   1      -2.689   2.822   2.082  0.00  0.00    -0.070 Cl
ENDROOT
TORSDOF 0
ENDMDL
