MODEL 1
REMARK minimizedAffinity 1.99525106
REMARK minimizedRMSD -1
REMARK  0 active torsions:
REMARK  status: ('A' for Active; 'I' for Inactive)
ROOT
ATOM      1  C   UNL d   1      -2.288   1.791   1.298  0.00  0.00     0.020 A 
ATOM      2  C1  UNL d   1      -3.479   2.222   1.880  0.00  0.00     0.020 A 
ATOM      3  C2  UNL d   1      -3.964   1.592   3.027  0.00  0.00     0.034 A 
ATOM      4  C3  UNL d   1      -3.258   0.526   3.597  0.00  0.00     0.017 A 
ATOM      5  C4  UNL d   1      -2.062   0.094   3.012  0.00  0.00     0.017 A 
ATOM      6  C5  UNL d   1      -1.581   0.729   1.863  0.00  0.00     0.034 A 
ATOM      7 Cl   UNL d   1      -1.135  -1.214   3.657  0.00  0.00    -0.070 Cl
ATOM      8 Cl1  UNL d   1      -3.916  -0.207   5.016  0.00  0.00    -0.070 Cl
ENDROOT
TORSDOF 0
ENDMDL
