MODEL 1
REMARK minimizedAffinity 16.6372681
REMARK minimizedRMSD -1
REMARK  0 active torsions:
REMARK  status: ('A' for Active; 'I' for Inactive)
ROOT
ATOM      1  C   UNL d   1      -5.009  -4.936   0.574  0.00  0.00     0.020 A 
ATOM      2  C1  UNL d   1      -5.670  -4.294   1.621  0.00  0.00     0.020 A 
ATOM      3  C2  UNL d   1      -5.959  -2.931   1.532  0.00  0.00     0.034 A 
ATOM      4  C3  UNL d   1      -5.588  -2.205   0.395  0.00  0.00     0.017 A 
ATOM      5  C4  UNL d   1      -4.925  -2.850  -0.655  0.00  0.00     0.017 A 
ATOM      6  C5  UNL d   1      -4.637  -4.215  -0.561  0.00  0.00     0.034 A 
ATOM      7 Cl   UNL d   1      -4.435  -2.021  -2.091  0.00  0.00    -0.070 Cl
ATOM      8 Cl1  UNL d   1      -5.978  -0.522   0.353  0.00  0.00    -0.070 Cl
ENDROOT
TORSDOF 0
ENDMDL
