MODEL 1
REMARK minimizedAffinity 10.3485565
REMARK minimizedRMSD -1
REMARK  0 active torsions:
REMARK  status: ('A' for Active; 'I' for Inactive)
ROOT
ATOM      1  C   UNL d   1      -2.151   0.470   1.869  0.00  0.00     0.020 A 
ATOM      2  C1  UNL d   1      -2.174   1.860   1.975  0.00  0.00     0.020 A 
ATOM      3  C2  UNL d   1      -3.372   2.555   1.800  0.00  0.00     0.034 A 
ATOM      4  C3  UNL d   1      -4.554   1.859   1.517  0.00  0.00     0.017 A 
ATOM      5  C4  UNL d   1      -4.530   0.464   1.411  0.00  0.00     0.017 A 
ATOM      6  C5  UNL d   1      -3.327  -0.226   1.587  0.00  0.00     0.034 A 
ATOM      7 Cl   UNL d   1      -5.947  -0.463   1.064  0.00  0.00    -0.070 Cl
ATOM      8 Cl1  UNL d   1      -6.000   2.782   1.313  0.00  0.00    -0.070 Cl
ENDROOT
TORSDOF 0
ENDMDL
