MODEL 1
REMARK minimizedAffinity 0.137275562
REMARK minimizedRMSD -1
REMARK  0 active torsions:
REMARK  status: ('A' for Active; 'I' for Inactive)
ROOT
ATOM      1  C   UNL d   1      -4.924  -2.204  -0.230  0.00  0.00     0.020 A 
ATOM      2  C1  UNL d   1      -5.740  -1.883   0.854  0.00  0.00     0.020 A 
ATOM      3  C2  UNL d   1      -6.000  -2.839   1.838  0.00  0.00     0.034 A 
ATOM      4  C3  UNL d   1      -5.443  -4.119   1.741  0.00  0.00     0.017 A 
ATOM      5  C4  UNL d   1      -4.624  -4.440   0.653  0.00  0.00     0.017 A 
ATOM      6  C5  UNL d   1      -4.367  -3.479  -0.330  0.00  0.00     0.034 A 
ATOM      7 Cl   UNL d   1      -3.901  -5.998   0.465  0.00  0.00    -0.070 Cl
ATOM      8 Cl1  UNL d   1      -5.806  -5.250   2.996  0.00  0.00    -0.070 Cl
ENDROOT
TORSDOF 0
ENDMDL
