MODEL 1
REMARK minimizedAffinity 12.3633966
REMARK minimizedRMSD -1
REMARK  0 active torsions:
REMARK  status: ('A' for Active; 'I' for Inactive)
ROOT
ATOM      1  C   UNL d   1       5.919  -5.821   4.041  0.00  0.00     0.020 A 
ATOM      2  C1  UNL d   1       5.924  -5.679   5.428  0.00  0.00     0.020 A 
ATOM      3  C2  UNL d   1       5.907  -4.405   6.000  0.00  0.00     0.034 A 
ATOM      4  C3  UNL d   1       5.884  -3.267   5.184  0.00  0.00     0.017 A 
ATOM      5  C4  UNL d   1       5.879  -3.411   3.792  0.00  0.00     0.017 A 
ATOM      6  C5  UNL d   1       5.896  -4.689   3.225  0.00  0.00     0.034 A 
ATOM      7 Cl   UNL d   1       5.851  -2.055   2.720  0.00  0.00    -0.070 Cl
ATOM      8 Cl1  UNL d   1       5.864  -1.723   5.959  0.00  0.00    -0.070 Cl
ENDROOT
TORSDOF 0
ENDMDL
