MODEL 1
REMARK minimizedAffinity 5.83884001
REMARK minimizedRMSD -1
REMARK  0 active torsions:
REMARK  status: ('A' for Active; 'I' for Inactive)
ROOT
ATOM      1  C   UNL d   1      -3.411  -0.037   1.064  0.00  0.00     0.020 A 
ATOM      2  C1  UNL d   1      -2.110  -0.532   1.139  0.00  0.00     0.020 A 
ATOM      3  C2  UNL d   1      -1.099   0.246   1.707  0.00  0.00     0.034 A 
ATOM      4  C3  UNL d   1      -1.387   1.523   2.203  0.00  0.00     0.017 A 
ATOM      5  C4  UNL d   1      -2.694   2.018   2.128  0.00  0.00     0.017 A 
ATOM      6  C5  UNL d   1      -3.703   1.235   1.558  0.00  0.00     0.034 A 
ATOM      7 Cl   UNL d   1      -3.127   3.584   2.718  0.00  0.00    -0.070 Cl
ATOM      8 Cl1  UNL d   1      -0.088   2.430   2.892  0.00  0.00    -0.070 Cl
ENDROOT
TORSDOF 0
ENDMDL
