MODEL 1
REMARK minimizedAffinity 6.71368742
REMARK minimizedRMSD -1
REMARK  0 active torsions:
REMARK  status: ('A' for Active; 'I' for Inactive)
ROOT
ATOM      1  C   UNL d   1      -4.269  -3.991  -6.000  0.00  0.00     0.020 A 
ATOM      2  C1  UNL d   1      -5.454  -3.735  -5.311  0.00  0.00     0.020 A 
ATOM      3  C2  UNL d   1      -5.615  -2.531  -4.622  0.00  0.00     0.034 A 
ATOM      4  C3  UNL d   1      -4.589  -1.579  -4.619  0.00  0.00     0.017 A 
ATOM      5  C4  UNL d   1      -3.400  -1.837  -5.311  0.00  0.00     0.017 A 
ATOM      6  C5  UNL d   1      -3.244  -3.044  -6.000  0.00  0.00     0.034 A 
ATOM      7 Cl   UNL d   1      -2.089  -0.711  -5.353  0.00  0.00    -0.070 Cl
ATOM      8 Cl1  UNL d   1      -4.856  -0.112  -3.746  0.00  0.00    -0.070 Cl
ENDROOT
TORSDOF 0
ENDMDL
