MODEL 1
REMARK minimizedAffinity 13.1001434
REMARK minimizedRMSD -1
REMARK  0 active torsions:
REMARK  status: ('A' for Active; 'I' for Inactive)
ROOT
ATOM      1  C   UNL d   1       4.975   3.729  -4.865  0.00  0.00     0.020 A 
ATOM      2  C1  UNL d   1       4.165   3.723  -6.000  0.00  0.00     0.020 A 
ATOM      3  C2  UNL d   1       2.958   4.426  -6.000  0.00  0.00     0.034 A 
ATOM      4  C3  UNL d   1       2.558   5.138  -4.863  0.00  0.00     0.017 A 
ATOM      5  C4  UNL d   1       3.372   5.144  -3.725  0.00  0.00     0.017 A 
ATOM      6  C5  UNL d   1       4.579   4.438  -3.730  0.00  0.00     0.034 A 
ATOM      7 Cl   UNL d   1       2.946   5.999  -2.285  0.00  0.00    -0.070 Cl
ATOM      8 Cl1  UNL d   1       1.053   5.985  -4.934  0.00  0.00    -0.070 Cl
ENDROOT
TORSDOF 0
ENDMDL
