MODEL 1
REMARK minimizedAffinity 10.7447443
REMARK minimizedRMSD -1
REMARK  0 active torsions:
REMARK  status: ('A' for Active; 'I' for Inactive)
ROOT
ATOM      1  C   UNL d   1       5.852   3.289  -5.928  0.00  0.00     0.020 A 
ATOM      2  C1  UNL d   1       5.836   4.673  -5.762  0.00  0.00     0.020 A 
ATOM      3  C2  UNL d   1       4.618   5.350  -5.665  0.00  0.00     0.034 A 
ATOM      4  C3  UNL d   1       3.412   4.643  -5.735  0.00  0.00     0.017 A 
ATOM      5  C4  UNL d   1       3.430   3.254  -5.902  0.00  0.00     0.017 A 
ATOM      6  C5  UNL d   1       4.652   2.581  -5.998  0.00  0.00     0.034 A 
ATOM      7 Cl   UNL d   1       1.983   2.313  -5.996  0.00  0.00    -0.070 Cl
ATOM      8 Cl1  UNL d   1       1.944   5.545  -5.608  0.00  0.00    -0.070 Cl
ENDROOT
TORSDOF 0
ENDMDL
