MODEL 1
REMARK minimizedAffinity 12.5899763
REMARK minimizedRMSD -1
REMARK  0 active torsions:
REMARK  status: ('A' for Active; 'I' for Inactive)
ROOT
ATOM      1  C   UNL d   1      -1.136  -3.667  -5.609  0.00  0.00     0.020 A 
ATOM      2  C1  UNL d   1      -2.382  -3.177  -6.000  0.00  0.00     0.020 A 
ATOM      3  C2  UNL d   1      -2.623  -1.801  -6.000  0.00  0.00     0.034 A 
ATOM      4  C3  UNL d   1      -1.617  -0.911  -5.608  0.00  0.00     0.017 A 
ATOM      5  C4  UNL d   1      -0.367  -1.403  -5.216  0.00  0.00     0.017 A 
ATOM      6  C5  UNL d   1      -0.131  -2.781  -5.218  0.00  0.00     0.034 A 
ATOM      7 Cl   UNL d   1       0.924  -0.366  -4.720  0.00  0.00    -0.070 Cl
ATOM      8 Cl1  UNL d   1      -1.984   0.777  -5.633  0.00  0.00    -0.070 Cl
ENDROOT
TORSDOF 0
ENDMDL
