MODEL 1
REMARK minimizedAffinity 7.32092905
REMARK minimizedRMSD -1
REMARK  0 active torsions:
REMARK  status: ('A' for Active; 'I' for Inactive)
ROOT
ATOM      1  C   UNL d   1      -0.980  -3.312  -5.993  0.00  0.00     0.020 A 
ATOM      2  C1  UNL d   1      -1.651  -2.090  -5.995  0.00  0.00     0.020 A 
ATOM      3  C2  UNL d   1      -3.048  -2.060  -5.998  0.00  0.00     0.034 A 
ATOM      4  C3  UNL d   1      -3.777  -3.255  -5.997  0.00  0.00     0.017 A 
ATOM      5  C4  UNL d   1      -3.102  -4.481  -5.995  0.00  0.00     0.017 A 
ATOM      6  C5  UNL d   1      -1.704  -4.505  -5.993  0.00  0.00     0.034 A 
ATOM      7 Cl   UNL d   1      -3.933  -5.997  -5.994  0.00  0.00    -0.070 Cl
ATOM      8 Cl1  UNL d   1      -5.501  -3.144  -6.000  0.00  0.00    -0.070 Cl
ENDROOT
TORSDOF 0
ENDMDL
