MODEL 1
REMARK minimizedAffinity 1.88140786
REMARK minimizedRMSD -1
REMARK  0 active torsions:
REMARK  status: ('A' for Active; 'I' for Inactive)
ROOT
ATOM      1  C   UNL d   1      -5.998  -3.339  -5.540  0.00  0.00     0.020 A 
ATOM      2  C1  UNL d   1      -4.925  -4.101  -6.000  0.00  0.00     0.020 A 
ATOM      3  C2  UNL d   1      -3.636  -3.564  -6.000  0.00  0.00     0.034 A 
ATOM      4  C3  UNL d   1      -3.417  -2.261  -5.539  0.00  0.00     0.017 A 
ATOM      5  C4  UNL d   1      -4.495  -1.496  -5.078  0.00  0.00     0.017 A 
ATOM      6  C5  UNL d   1      -5.784  -2.039  -5.080  0.00  0.00     0.034 A 
ATOM      7 Cl   UNL d   1      -4.303   0.119  -4.494  0.00  0.00    -0.070 Cl
ATOM      8 Cl1  UNL d   1      -1.797  -1.660  -5.568  0.00  0.00    -0.070 Cl
ENDROOT
TORSDOF 0
ENDMDL
