MODEL 1
REMARK minimizedAffinity 8.64241982
REMARK minimizedRMSD -1
REMARK  0 active torsions:
REMARK  status: ('A' for Active; 'I' for Inactive)
ROOT
ATOM      1  C   UNL d   1       2.473   5.208  -6.000  0.00  0.00     0.020 A 
ATOM      2  C1  UNL d   1       1.399   5.214  -5.112  0.00  0.00     0.020 A 
ATOM      3  C2  UNL d   1       1.587   4.820  -3.785  0.00  0.00     0.034 A 
ATOM      4  C3  UNL d   1       2.853   4.419  -3.343  0.00  0.00     0.017 A 
ATOM      5  C4  UNL d   1       3.932   4.414  -4.236  0.00  0.00     0.017 A 
ATOM      6  C5  UNL d   1       3.737   4.809  -5.563  0.00  0.00     0.034 A 
ATOM      7 Cl   UNL d   1       5.523   3.932  -3.764  0.00  0.00    -0.070 Cl
ATOM      8 Cl1  UNL d   1       3.014   3.945  -1.690  0.00  0.00    -0.070 Cl
ENDROOT
TORSDOF 0
ENDMDL
