MODEL 1
REMARK minimizedAffinity 8.3921814
REMARK minimizedRMSD -1
REMARK  0 active torsions:
REMARK  status: ('A' for Active; 'I' for Inactive)
ROOT
ATOM      1  C   UNL d   1       1.545   1.103   3.036  0.00  0.00     0.020 A 
ATOM      2  C1  UNL d   1       1.909   2.024   2.054  0.00  0.00     0.020 A 
ATOM      3  C2  UNL d   1       3.155   1.926   1.432  0.00  0.00     0.034 A 
ATOM      4  C3  UNL d   1       4.043   0.906   1.791  0.00  0.00     0.017 A 
ATOM      5  C4  UNL d   1       3.678  -0.018   2.777  0.00  0.00     0.017 A 
ATOM      6  C5  UNL d   1       2.428   0.084   3.396  0.00  0.00     0.034 A 
ATOM      7 Cl   UNL d   1       4.720  -1.304   3.274  0.00  0.00    -0.070 Cl
ATOM      8 Cl1  UNL d   1       5.568   0.845   0.981  0.00  0.00    -0.070 Cl
ENDROOT
TORSDOF 0
ENDMDL
