MODEL 1
REMARK minimizedAffinity 15.0458002
REMARK minimizedRMSD -1
REMARK  0 active torsions:
REMARK  status: ('A' for Active; 'I' for Inactive)
ROOT
ATOM      1  C   UNL d   1      -2.614   1.026   1.775  0.00  0.00     0.020 A 
ATOM      2  C1  UNL d   1      -1.312   0.526   1.804  0.00  0.00     0.020 A 
ATOM      3  C2  UNL d   1      -1.067  -0.804   1.456  0.00  0.00     0.034 A 
ATOM      4  C3  UNL d   1      -2.125  -1.639   1.076  0.00  0.00     0.017 A 
ATOM      5  C4  UNL d   1      -3.431  -1.136   1.047  0.00  0.00     0.017 A 
ATOM      6  C5  UNL d   1      -3.670   0.197   1.397  0.00  0.00     0.034 A 
ATOM      7 Cl   UNL d   1      -4.787  -2.105   0.590  0.00  0.00    -0.070 Cl
ATOM      8 Cl1  UNL d   1      -1.749  -3.272   0.658  0.00  0.00    -0.070 Cl
ENDROOT
TORSDOF 0
ENDMDL
