MODEL 1
REMARK minimizedAffinity 12.9021015
REMARK minimizedRMSD -1
REMARK  0 active torsions:
REMARK  status: ('A' for Active; 'I' for Inactive)
ROOT
ATOM      1  C   UNL d   1       0.901  -0.405  -4.767  0.00  0.00     0.020 A 
ATOM      2  C1  UNL d   1       0.826   0.536  -5.793  0.00  0.00     0.020 A 
ATOM      3  C2  UNL d   1       1.745   1.587  -5.845  0.00  0.00     0.034 A 
ATOM      4  C3  UNL d   1       2.742   1.699  -4.869  0.00  0.00     0.017 A 
ATOM      5  C4  UNL d   1       2.816   0.754  -3.840  0.00  0.00     0.017 A 
ATOM      6  C5  UNL d   1       1.894  -0.296  -3.793  0.00  0.00     0.034 A 
ATOM      7 Cl   UNL d   1       4.018   0.826  -2.600  0.00  0.00    -0.070 Cl
ATOM      8 Cl1  UNL d   1       3.844   3.024  -4.995  0.00  0.00    -0.070 Cl
ENDROOT
TORSDOF 0
ENDMDL
