MODEL 1
REMARK minimizedAffinity 0.892681539
REMARK minimizedRMSD -1
REMARK  0 active torsions:
REMARK  status: ('A' for Active; 'I' for Inactive)
ROOT
ATOM      1  C   UNL d   1      -0.569   2.324   3.374  0.00  0.00     0.020 A 
ATOM      2  C1  UNL d   1      -0.926   0.979   3.454  0.00  0.00     0.020 A 
ATOM      3  C2  UNL d   1      -2.009   0.589   4.244  0.00  0.00     0.034 A 
ATOM      4  C3  UNL d   1      -2.740   1.546   4.958  0.00  0.00     0.017 A 
ATOM      5  C4  UNL d   1      -2.381   2.897   4.878  0.00  0.00     0.017 A 
ATOM      6  C5  UNL d   1      -1.295   3.281   4.085  0.00  0.00     0.034 A 
ATOM      7 Cl   UNL d   1      -3.234   4.135   5.730  0.00  0.00    -0.070 Cl
ATOM      8 Cl1  UNL d   1      -4.068   0.993   5.916  0.00  0.00    -0.070 Cl
ENDROOT
TORSDOF 0
ENDMDL
