MODEL 1
REMARK minimizedAffinity -2.25936222
REMARK minimizedRMSD -1
REMARK  0 active torsions:
REMARK  status: ('A' for Active; 'I' for Inactive)
ROOT
ATOM      1  C2' OXE d   1      -0.303   0.943  -0.786  0.00  0.00     0.078 C 
ATOM      2  C1' OXE d   1       1.722  -0.944  -1.251  0.00  0.00     0.078 C 
ATOM      3  C1  OXE d   1       1.071  -0.932   0.109  0.00  0.00    -0.078 A 
ATOM      4  C2  OXE d   1       0.114   0.026   0.343  0.00  0.00    -0.078 A 
ATOM      5  C3  OXE d   1      -0.557   0.047   1.562  0.00  0.00     0.003 A 
ATOM      6  C4  OXE d   1      -0.159  -0.799   2.605  0.00  0.00    -0.002 A 
ATOM      7  C5  OXE d   1       0.841  -1.755   2.401  0.00  0.00    -0.002 A 
ATOM      8  C6  OXE d   1       1.435  -1.863   1.148  0.00  0.00     0.003 A 
ENDROOT
TORSDOF 0
ENDMDL
