MODEL 1
REMARK minimizedAffinity 2.73498082
REMARK minimizedRMSD -1
REMARK  0 active torsions:
REMARK  status: ('A' for Active; 'I' for Inactive)
ROOT
ATOM      1  C2' OXE d   1       3.008  -4.943  -3.671  0.00  0.00     0.078 C 
ATOM      2  C1' OXE d   1       1.873  -4.950  -1.104  0.00  0.00     0.078 C 
ATOM      3  C1  OXE d   1       2.612  -3.711  -1.543  0.00  0.00    -0.078 A 
ATOM      4  C2  OXE d   1       3.205  -3.734  -2.783  0.00  0.00    -0.078 A 
ATOM      5  C3  OXE d   1       3.852  -2.597  -3.259  0.00  0.00     0.003 A 
ATOM      6  C4  OXE d   1       4.038  -1.487  -2.426  0.00  0.00    -0.002 A 
ATOM      7  C5  OXE d   1       3.477  -1.458  -1.145  0.00  0.00    -0.002 A 
ATOM      8  C6  OXE d   1       2.727  -2.543  -0.705  0.00  0.00     0.003 A 
ENDROOT
TORSDOF 0
ENDMDL
