MODEL 1
REMARK minimizedAffinity 5.8199749
REMARK minimizedRMSD -1
REMARK  0 active torsions:
REMARK  status: ('A' for Active; 'I' for Inactive)
ROOT
ATOM      1  C2' OXE d   1      -0.471   0.780  -0.234  0.00  0.00     0.078 C 
ATOM      2  C1' OXE d   1      -0.310   2.458   2.010  0.00  0.00     0.078 C 
ATOM      3  C1  OXE d   1      -0.325   3.105   0.648  0.00  0.00    -0.078 A 
ATOM      4  C2  OXE d   1      -0.357   2.274  -0.446  0.00  0.00    -0.078 A 
ATOM      5  C3  OXE d   1      -0.428   2.820  -1.725  0.00  0.00     0.003 A 
ATOM      6  C4  OXE d   1      -0.312   4.203  -1.912  0.00  0.00    -0.002 A 
ATOM      7  C5  OXE d   1      -0.238   5.065  -0.813  0.00  0.00    -0.002 A 
ATOM      8  C6  OXE d   1      -0.287   4.536   0.472  0.00  0.00     0.003 A 
ENDROOT
TORSDOF 0
ENDMDL
