MODEL 1
REMARK minimizedAffinity 0.913011789
REMARK minimizedRMSD -1
REMARK  0 active torsions:
REMARK  status: ('A' for Active; 'I' for Inactive)
ROOT
ATOM      1  C2' OXE d   1       5.210  -5.318  -0.671  0.00  0.00     0.078 C 
ATOM      2  C1' OXE d   1       5.151  -2.516  -0.831  0.00  0.00     0.078 C 
ATOM      3  C1  OXE d   1       4.421  -3.297  -1.895  0.00  0.00    -0.078 A 
ATOM      4  C2  OXE d   1       4.494  -4.668  -1.835  0.00  0.00    -0.078 A 
ATOM      5  C3  OXE d   1       3.793  -5.437  -2.760  0.00  0.00     0.003 A 
ATOM      6  C4  OXE d   1       3.141  -4.828  -3.839  0.00  0.00    -0.002 A 
ATOM      7  C5  OXE d   1       3.088  -3.434  -3.941  0.00  0.00    -0.002 A 
ATOM      8  C6  OXE d   1       3.685  -2.655  -2.956  0.00  0.00     0.003 A 
ENDROOT
TORSDOF 0
ENDMDL
