MODEL 1
REMARK minimizedAffinity -2.63418603
REMARK minimizedRMSD -1
REMARK  0 active torsions:
REMARK  status: ('A' for Active; 'I' for Inactive)
ROOT
ATOM      1  C2' OXE d   1       5.339  -4.654  -0.076  0.00  0.00     0.078 C 
ATOM      2  C1' OXE d   1       4.735  -1.913  -0.048  0.00  0.00     0.078 C 
ATOM      3  C1  OXE d   1       4.433  -2.687  -1.306  0.00  0.00    -0.078 A 
ATOM      4  C2  OXE d   1       4.775  -4.018  -1.328  0.00  0.00    -0.078 A 
ATOM      5  C3  OXE d   1       4.468  -4.790  -2.444  0.00  0.00     0.003 A 
ATOM      6  C4  OXE d   1       3.955  -4.192  -3.601  0.00  0.00    -0.002 A 
ATOM      7  C5  OXE d   1       3.637  -2.829  -3.615  0.00  0.00    -0.002 A 
ATOM      8  C6  OXE d   1       3.830  -2.073  -2.464  0.00  0.00     0.003 A 
ENDROOT
TORSDOF 0
ENDMDL
