MODEL 1
REMARK minimizedAffinity 1.23904788
REMARK minimizedRMSD -1
REMARK  0 active torsions:
REMARK  status: ('A' for Active; 'I' for Inactive)
ROOT
ATOM      1  C2' OXE d   1       3.395  -0.874   1.323  0.00  0.00     0.078 C 
ATOM      2  C1' OXE d   1       2.899  -3.605   1.741  0.00  0.00     0.078 C 
ATOM      3  C1  OXE d   1       3.768  -3.219   0.570  0.00  0.00    -0.078 A 
ATOM      4  C2  OXE d   1       3.967  -1.878   0.346  0.00  0.00    -0.078 A 
ATOM      5  C3  OXE d   1       4.805  -1.469  -0.688  0.00  0.00     0.003 A 
ATOM      6  C4  OXE d   1       5.322  -2.404  -1.593  0.00  0.00    -0.002 A 
ATOM      7  C5  OXE d   1       5.099  -3.772  -1.406  0.00  0.00    -0.002 A 
ATOM      8  C6  OXE d   1       4.361  -4.198  -0.307  0.00  0.00     0.003 A 
ENDROOT
TORSDOF 0
ENDMDL
