MODEL 1
REMARK minimizedAffinity 2.58067918
REMARK minimizedRMSD -1
REMARK  0 active torsions:
REMARK  status: ('A' for Active; 'I' for Inactive)
ROOT
ATOM      1  C2' OXE d   1       1.763  -5.221  -1.110  0.00  0.00     0.078 C 
ATOM      2  C1' OXE d   1       4.223  -5.731  -2.362  0.00  0.00     0.078 C 
ATOM      3  C1  OXE d   1       4.080  -4.444  -1.589  0.00  0.00    -0.078 A 
ATOM      4  C2  OXE d   1       2.858  -4.181  -1.019  0.00  0.00    -0.078 A 
ATOM      5  C3  OXE d   1       2.690  -3.034  -0.249  0.00  0.00     0.003 A 
ATOM      6  C4  OXE d   1       3.705  -2.072  -0.178  0.00  0.00    -0.002 A 
ATOM      7  C5  OXE d   1       4.944  -2.302  -0.784  0.00  0.00    -0.002 A 
ATOM      8  C6  OXE d   1       5.162  -3.500  -1.457  0.00  0.00     0.003 A 
ENDROOT
TORSDOF 0
ENDMDL
