MODEL 1
REMARK minimizedAffinity 1.1503799
REMARK minimizedRMSD -1
REMARK  0 active torsions:
REMARK  status: ('A' for Active; 'I' for Inactive)
ROOT
ATOM      1  C2' OXE d   1       4.939  -4.941  -0.224  0.00  0.00     0.078 C 
ATOM      2  C1' OXE d   1       4.943  -2.149  -0.515  0.00  0.00     0.078 C 
ATOM      3  C1  OXE d   1       4.557  -2.980  -1.712  0.00  0.00    -0.078 A 
ATOM      4  C2  OXE d   1       4.603  -4.346  -1.575  0.00  0.00    -0.078 A 
ATOM      5  C3  OXE d   1       4.205  -5.160  -2.632  0.00  0.00     0.003 A 
ATOM      6  C4  OXE d   1       3.905  -4.602  -3.881  0.00  0.00    -0.002 A 
ATOM      7  C5  OXE d   1       3.891  -3.214  -4.054  0.00  0.00    -0.002 A 
ATOM      8  C6  OXE d   1       4.172  -2.389  -2.970  0.00  0.00     0.003 A 
ENDROOT
TORSDOF 0
ENDMDL
