MODEL 1
REMARK minimizedAffinity -4.61148167
REMARK minimizedRMSD -1
REMARK  0 active torsions:
REMARK  status: ('A' for Active; 'I' for Inactive)
ROOT
ATOM      1  C2' OXE d   1       5.552  -2.065  -0.622  0.00  0.00     0.078 C 
ATOM      2  C1' OXE d   1       2.988  -1.746   0.474  0.00  0.00     0.078 C 
ATOM      3  C1  OXE d   1       3.225  -2.932  -0.426  0.00  0.00    -0.078 A 
ATOM      4  C2  OXE d   1       4.470  -3.055  -0.996  0.00  0.00    -0.078 A 
ATOM      5  C3  OXE d   1       4.758  -4.160  -1.791  0.00  0.00     0.003 A 
ATOM      6  C4  OXE d   1       3.749  -5.065  -2.140  0.00  0.00    -0.002 A 
ATOM      7  C5  OXE d   1       2.463  -4.937  -1.603  0.00  0.00    -0.002 A 
ATOM      8  C6  OXE d   1       2.197  -3.902  -0.713  0.00  0.00     0.003 A 
ENDROOT
TORSDOF 0
ENDMDL
