MODEL 1
REMARK minimizedAffinity -0.11239025
REMARK minimizedRMSD -1
REMARK  0 active torsions:
REMARK  status: ('A' for Active; 'I' for Inactive)
ROOT
ATOM      1  C2' OXE d   1       4.252  -2.181  -0.350  0.00  0.00     0.078 C 
ATOM      2  C1' OXE d   1       5.843  -4.481  -0.116  0.00  0.00     0.078 C 
ATOM      3  C1  OXE d   1       4.967  -4.353  -1.337  0.00  0.00    -0.078 A 
ATOM      4  C2  OXE d   1       4.157  -3.247  -1.421  0.00  0.00    -0.078 A 
ATOM      5  C3  OXE d   1       3.369  -3.053  -2.552  0.00  0.00     0.003 A 
ATOM      6  C4  OXE d   1       3.280  -4.048  -3.532  0.00  0.00    -0.002 A 
ATOM      7  C5  OXE d   1       4.067  -5.202  -3.447  0.00  0.00    -0.002 A 
ATOM      8  C6  OXE d   1       4.946  -5.349  -2.379  0.00  0.00     0.003 A 
ENDROOT
TORSDOF 0
ENDMDL
