MODEL 1
REMARK minimizedAffinity -1.91511202
REMARK minimizedRMSD -1
REMARK  0 active torsions:
REMARK  status: ('A' for Active; 'I' for Inactive)
ROOT
ATOM      1  C2' OXE d   1       2.650  -1.474   0.170  0.00  0.00     0.078 C 
ATOM      2  C1' OXE d   1       2.431  -4.207   0.774  0.00  0.00     0.078 C 
ATOM      3  C1  OXE d   1       3.344  -3.808  -0.358  0.00  0.00    -0.078 A 
ATOM      4  C2  OXE d   1       3.409  -2.473  -0.678  0.00  0.00    -0.078 A 
ATOM      5  C3  OXE d   1       4.277  -2.045  -1.678  0.00  0.00     0.003 A 
ATOM      6  C4  OXE d   1       4.968  -2.976  -2.463  0.00  0.00    -0.002 A 
ATOM      7  C5  OXE d   1       4.884  -4.344  -2.181  0.00  0.00    -0.002 A 
ATOM      8  C6  OXE d   1       4.112  -4.772  -1.107  0.00  0.00     0.003 A 
ENDROOT
TORSDOF 0
ENDMDL
