MODEL 1
REMARK minimizedAffinity -1.51117468
REMARK minimizedRMSD -1
REMARK  0 active torsions:
REMARK  status: ('A' for Active; 'I' for Inactive)
ROOT
ATOM      1  C2' OXE d   1      -0.464   5.862  -0.357  0.00  0.00     0.078 C 
ATOM      2  C1' OXE d   1      -2.272   5.675  -2.496  0.00  0.00     0.078 C 
ATOM      3  C1  OXE d   1      -2.839   5.792  -1.103  0.00  0.00    -0.078 A 
ATOM      4  C2  OXE d   1      -1.947   5.836  -0.059  0.00  0.00    -0.078 A 
ATOM      5  C3  OXE d   1      -2.416   5.999   1.241  0.00  0.00     0.003 A 
ATOM      6  C4  OXE d   1      -3.789   5.964   1.510  0.00  0.00    -0.002 A 
ATOM      7  C5  OXE d   1      -4.715   5.880   0.464  0.00  0.00    -0.002 A 
ATOM      8  C6  OXE d   1      -4.258   5.836  -0.849  0.00  0.00     0.003 A 
ENDROOT
TORSDOF 0
ENDMDL
