MODEL 1
REMARK minimizedAffinity 0.770990431
REMARK minimizedRMSD -1
REMARK  0 active torsions:
REMARK  status: ('A' for Active; 'I' for Inactive)
ROOT
ATOM      1  C   UNL d   1       3.375   1.805  -2.550  0.00  0.00     0.078 C 
ATOM      2  C1  UNL d   1       2.932   2.573  -3.759  0.00  0.00    -0.077 A 
ATOM      3  C2  UNL d   1       3.852   2.983  -4.731  0.00  0.00    -0.001 A 
ATOM      4  C3  UNL d   1       3.427   3.706  -5.846  0.00  0.00     0.003 A 
ATOM      5  C4  UNL d   1       2.080   4.027  -6.000  0.00  0.00    -0.005 A 
ATOM      6  C5  UNL d   1       1.156   3.626  -5.036  0.00  0.00     0.003 A 
ATOM      7  C6  UNL d   1       1.580   2.903  -3.920  0.00  0.00    -0.001 A 
ENDROOT
TORSDOF 0
ENDMDL
