MODEL 1
REMARK minimizedAffinity 3.11682034
REMARK minimizedRMSD -1
REMARK  0 active torsions:
REMARK  status: ('A' for Active; 'I' for Inactive)
ROOT
ATOM      1  C   UNL d   1       4.149   2.560  -2.772  0.00  0.00     0.078 C 
ATOM      2  C1  UNL d   1       3.322   1.711  -3.691  0.00  0.00    -0.077 A 
ATOM      3  C2  UNL d   1       3.041   0.375  -3.379  0.00  0.00    -0.001 A 
ATOM      4  C3  UNL d   1       2.278  -0.407  -4.248  0.00  0.00     0.003 A 
ATOM      5  C4  UNL d   1       1.791   0.138  -5.435  0.00  0.00    -0.005 A 
ATOM      6  C5  UNL d   1       2.068   1.466  -5.754  0.00  0.00     0.003 A 
ATOM      7  C6  UNL d   1       2.831   2.249  -4.887  0.00  0.00    -0.001 A 
ENDROOT
TORSDOF 0
ENDMDL
