MODEL 1
REMARK minimizedAffinity -4.31320477
REMARK minimizedRMSD -1
REMARK  0 active torsions:
REMARK  status: ('A' for Active; 'I' for Inactive)
ROOT
ATOM      1  C   UNL d   1       1.104   0.697   0.487  0.00  0.00     0.078 C 
ATOM      2  C1  UNL d   1      -0.392   0.811   0.509  0.00  0.00    -0.077 A 
ATOM      3  C2  UNL d   1      -1.198  -0.321   0.677  0.00  0.00    -0.001 A 
ATOM      4  C3  UNL d   1      -2.589  -0.202   0.686  0.00  0.00     0.003 A 
ATOM      5  C4  UNL d   1      -3.185   1.048   0.527  0.00  0.00    -0.005 A 
ATOM      6  C5  UNL d   1      -2.390   2.180   0.357  0.00  0.00     0.003 A 
ATOM      7  C6  UNL d   1      -1.000   2.062   0.348  0.00  0.00    -0.001 A 
ENDROOT
TORSDOF 0
ENDMDL
