MODEL 1
REMARK minimizedAffinity -2.57463408
REMARK minimizedRMSD -1
REMARK  0 active torsions:
REMARK  status: ('A' for Active; 'I' for Inactive)
ROOT
ATOM      1  C   UNL d   1       1.835   0.744   0.372  0.00  0.00     0.078 C 
ATOM      2  C1  UNL d   1       0.380   1.010   0.615  0.00  0.00    -0.077 A 
ATOM      3  C2  UNL d   1      -0.542  -0.042   0.695  0.00  0.00    -0.001 A 
ATOM      4  C3  UNL d   1      -1.895   0.221   0.912  0.00  0.00     0.003 A 
ATOM      5  C4  UNL d   1      -2.340   1.534   1.049  0.00  0.00    -0.005 A 
ATOM      6  C5  UNL d   1      -1.431   2.587   0.969  0.00  0.00     0.003 A 
ATOM      7  C6  UNL d   1      -0.077   2.327   0.752  0.00  0.00    -0.001 A 
ENDROOT
TORSDOF 0
ENDMDL
