MODEL 1
REMARK minimizedAffinity -0.581202507
REMARK minimizedRMSD -1
REMARK  0 active torsions:
REMARK  status: ('A' for Active; 'I' for Inactive)
ROOT
ATOM      1  C   UNL d   1      -1.810   2.758  -5.960  0.00  0.00     0.078 C 
ATOM      2  C1  UNL d   1      -2.999   3.671  -5.980  0.00  0.00    -0.077 A 
ATOM      3  C2  UNL d   1      -2.840   5.062  -5.988  0.00  0.00    -0.001 A 
ATOM      4  C3  UNL d   1      -3.956   5.900  -5.997  0.00  0.00     0.003 A 
ATOM      5  C4  UNL d   1      -5.239   5.356  -5.998  0.00  0.00    -0.005 A 
ATOM      6  C5  UNL d   1      -5.407   3.973  -5.988  0.00  0.00     0.003 A 
ATOM      7  C6  UNL d   1      -4.292   3.134  -5.979  0.00  0.00    -0.001 A 
ENDROOT
TORSDOF 0
ENDMDL
