MODEL 1
REMARK minimizedAffinity -0.0607420616
REMARK minimizedRMSD -1
REMARK  0 active torsions:
REMARK  status: ('A' for Active; 'I' for Inactive)
ROOT
ATOM      1  C   UNL d   1      -3.892   2.794  -5.994  0.00  0.00     0.078 C 
ATOM      2  C1  UNL d   1      -2.537   3.438  -5.986  0.00  0.00    -0.077 A 
ATOM      3  C2  UNL d   1      -2.400   4.831  -5.996  0.00  0.00    -0.001 A 
ATOM      4  C3  UNL d   1      -1.133   5.416  -5.999  0.00  0.00     0.003 A 
ATOM      5  C4  UNL d   1       0.007   4.615  -5.993  0.00  0.00    -0.005 A 
ATOM      6  C5  UNL d   1      -0.119   3.228  -5.986  0.00  0.00     0.003 A 
ATOM      7  C6  UNL d   1      -1.385   2.641  -5.983  0.00  0.00    -0.001 A 
ENDROOT
TORSDOF 0
ENDMDL
