MODEL 1
REMARK minimizedAffinity -1.44127417
REMARK minimizedRMSD -1
REMARK  0 active torsions:
REMARK  status: ('A' for Active; 'I' for Inactive)
ROOT
ATOM      1  C   UNL d   1      -5.690   3.805  -5.978  0.00  0.00     0.078 C 
ATOM      2  C1  UNL d   1      -4.251   4.227  -5.987  0.00  0.00    -0.077 A 
ATOM      3  C2  UNL d   1      -3.221   3.278  -5.994  0.00  0.00    -0.001 A 
ATOM      4  C3  UNL d   1      -1.886   3.685  -5.993  0.00  0.00     0.003 A 
ATOM      5  C4  UNL d   1      -1.568   5.041  -5.984  0.00  0.00    -0.005 A 
ATOM      6  C5  UNL d   1      -2.585   5.993  -5.975  0.00  0.00     0.003 A 
ATOM      7  C6  UNL d   1      -3.921   5.588  -5.976  0.00  0.00    -0.001 A 
ENDROOT
TORSDOF 0
ENDMDL
