MODEL 1
REMARK minimizedAffinity -3.83754563
REMARK minimizedRMSD -1
REMARK  0 active torsions:
REMARK  status: ('A' for Active; 'I' for Inactive)
ROOT
ATOM      1  C   UNL d   1      -1.651   5.785  -4.490  0.00  0.00     0.078 C 
ATOM      2  C1  UNL d   1      -2.898   5.134  -5.009  0.00  0.00    -0.077 A 
ATOM      3  C2  UNL d   1      -2.875   3.824  -5.505  0.00  0.00    -0.001 A 
ATOM      4  C3  UNL d   1      -4.042   3.234  -5.994  0.00  0.00     0.003 A 
ATOM      5  C4  UNL d   1      -5.240   3.946  -5.993  0.00  0.00    -0.005 A 
ATOM      6  C5  UNL d   1      -5.272   5.251  -5.504  0.00  0.00     0.003 A 
ATOM      7  C6  UNL d   1      -4.106   5.842  -5.014  0.00  0.00    -0.001 A 
ENDROOT
TORSDOF 0
ENDMDL
