MODEL 1
REMARK minimizedAffinity -1.51165664
REMARK minimizedRMSD -1
REMARK  0 active torsions:
REMARK  status: ('A' for Active; 'I' for Inactive)
ROOT
ATOM      1  C   UNL d   1      -1.950   2.631  -5.998  0.00  0.00     0.078 C 
ATOM      2  C1  UNL d   1      -3.003   3.687  -5.841  0.00  0.00    -0.077 A 
ATOM      3  C2  UNL d   1      -4.360   3.382  -5.997  0.00  0.00    -0.001 A 
ATOM      4  C3  UNL d   1      -5.329   4.378  -5.858  0.00  0.00     0.003 A 
ATOM      5  C4  UNL d   1      -4.949   5.686  -5.564  0.00  0.00    -0.005 A 
ATOM      6  C5  UNL d   1      -3.601   6.000  -5.409  0.00  0.00     0.003 A 
ATOM      7  C6  UNL d   1      -2.631   5.005  -5.548  0.00  0.00    -0.001 A 
ENDROOT
TORSDOF 0
ENDMDL
