MODEL 1
REMARK minimizedAffinity -1.76467025
REMARK minimizedRMSD -1
REMARK  0 active torsions:
REMARK  status: ('A' for Active; 'I' for Inactive)
ROOT
ATOM      1  C   UNL d   1      -5.674   3.718  -6.000  0.00  0.00     0.078 C 
ATOM      2  C1  UNL d   1      -4.252   4.195  -5.990  0.00  0.00    -0.077 A 
ATOM      3  C2  UNL d   1      -3.950   5.562  -5.985  0.00  0.00    -0.001 A 
ATOM      4  C3  UNL d   1      -2.622   5.991  -5.985  0.00  0.00     0.003 A 
ATOM      5  C4  UNL d   1      -1.585   5.060  -5.992  0.00  0.00    -0.005 A 
ATOM      6  C5  UNL d   1      -1.877   3.697  -6.000  0.00  0.00     0.003 A 
ATOM      7  C6  UNL d   1      -3.204   3.266  -5.999  0.00  0.00    -0.001 A 
ENDROOT
TORSDOF 0
ENDMDL
