MODEL 1
REMARK minimizedAffinity 2.29050446
REMARK minimizedRMSD -1
REMARK  0 active torsions:
REMARK  status: ('A' for Active; 'I' for Inactive)
ROOT
ATOM      1  C   UNL d   1       1.114  -0.584   0.095  0.00  0.00     0.078 C 
ATOM      2  C1  UNL d   1       0.235  -1.648  -0.490  0.00  0.00    -0.077 A 
ATOM      3  C2  UNL d   1      -0.811  -2.209   0.254  0.00  0.00    -0.001 A 
ATOM      4  C3  UNL d   1      -1.615  -3.206  -0.300  0.00  0.00     0.003 A 
ATOM      5  C4  UNL d   1      -1.382  -3.652  -1.599  0.00  0.00    -0.005 A 
ATOM      6  C5  UNL d   1      -0.343  -3.102  -2.346  0.00  0.00     0.003 A 
ATOM      7  C6  UNL d   1       0.463  -2.104  -1.795  0.00  0.00    -0.001 A 
ENDROOT
TORSDOF 0
ENDMDL
