MODEL 1
REMARK minimizedAffinity 10.0698843
REMARK minimizedRMSD -1
REMARK  0 active torsions:
REMARK  status: ('A' for Active; 'I' for Inactive)
ROOT
ATOM      1  C   UNL d   1       0.140   4.581  -4.113  0.00  0.00     0.077 C 
ATOM      2  C1  UNL d   1      -0.517   3.748  -3.053  0.00  0.00    -0.074 A 
ATOM      3  C2  UNL d   1      -0.053   3.768  -1.733  0.00  0.00    -0.005 A 
ATOM      4  C3  UNL d   1      -0.680   2.995  -0.756  0.00  0.00     0.006 A 
ATOM      5  C4  UNL d   1      -1.775   2.195  -1.087  0.00  0.00    -0.005 A 
ATOM      6  C5  UNL d   1      -2.253   2.163  -2.401  0.00  0.00    -0.074 A 
ATOM      7  C6  UNL d   1      -3.434   1.317  -2.772  0.00  0.00     0.077 C 
ATOM      8  C7  UNL d   1      -1.622   2.948  -3.376  0.00  0.00    -0.001 A 
ENDROOT
TORSDOF 0
ENDMDL
