MODEL 1
REMARK minimizedAffinity 13.5695829
REMARK minimizedRMSD -1
REMARK  0 active torsions:
REMARK  status: ('A' for Active; 'I' for Inactive)
ROOT
ATOM      1  C   UNL d   1       3.193   5.991  -4.531  0.00  0.00     0.077 C 
ATOM      2  C1  UNL d   1       1.777   5.506  -4.444  0.00  0.00    -0.074 A 
ATOM      3  C2  UNL d   1       0.803   5.967  -5.335  0.00  0.00    -0.005 A 
ATOM      4  C3  UNL d   1      -0.508   5.500  -5.248  0.00  0.00     0.006 A 
ATOM      5  C4  UNL d   1      -0.859   4.568  -4.270  0.00  0.00    -0.005 A 
ATOM      6  C5  UNL d   1       0.102   4.095  -3.370  0.00  0.00    -0.074 A 
ATOM      7  C6  UNL d   1      -0.256   3.087  -2.319  0.00  0.00     0.077 C 
ATOM      8  C7  UNL d   1       1.419   4.564  -3.469  0.00  0.00    -0.001 A 
ENDROOT
TORSDOF 0
ENDMDL
