MODEL 1
REMARK minimizedAffinity 7.24156618
REMARK minimizedRMSD -1
REMARK  0 active torsions:
REMARK  status: ('A' for Active; 'I' for Inactive)
ROOT
ATOM      1  C   UNL d   1      -5.247   5.998   4.094  0.00  0.00     0.077 C 
ATOM      2  C1  UNL d   1      -4.940   5.991   2.626  0.00  0.00    -0.074 A 
ATOM      3  C2  UNL d   1      -5.968   5.996   1.677  0.00  0.00    -0.005 A 
ATOM      4  C3  UNL d   1      -5.667   5.999   0.315  0.00  0.00     0.006 A 
ATOM      5  C4  UNL d   1      -4.338   5.997  -0.111  0.00  0.00    -0.005 A 
ATOM      6  C5  UNL d   1      -3.298   5.992   0.823  0.00  0.00    -0.074 A 
ATOM      7  C6  UNL d   1      -1.864   6.000   0.382  0.00  0.00     0.077 C 
ATOM      8  C7  UNL d   1      -3.608   5.997   2.190  0.00  0.00    -0.001 A 
ENDROOT
TORSDOF 0
ENDMDL
