MODEL 1
REMARK minimizedAffinity 14.522028
REMARK minimizedRMSD -1
REMARK  0 active torsions:
REMARK  status: ('A' for Active; 'I' for Inactive)
ROOT
ATOM      1  C   UNL d   1      -0.356   1.341   3.268  0.00  0.00     0.077 C 
ATOM      2  C1  UNL d   1       0.081   2.309   2.209  0.00  0.00    -0.074 A 
ATOM      3  C2  UNL d   1      -0.321   2.148   0.879  0.00  0.00    -0.005 A 
ATOM      4  C3  UNL d   1       0.086   3.061  -0.094  0.00  0.00     0.006 A 
ATOM      5  C4  UNL d   1       0.898   4.142   0.253  0.00  0.00    -0.005 A 
ATOM      6  C5  UNL d   1       1.309   4.319   1.578  0.00  0.00    -0.074 A 
ATOM      7  C6  UNL d   1       2.173   5.481   1.969  0.00  0.00     0.077 C 
ATOM      8  C7  UNL d   1       0.890   3.402   2.551  0.00  0.00    -0.001 A 
ENDROOT
TORSDOF 0
ENDMDL
