MODEL 1
REMARK minimizedAffinity 12.4905186
REMARK minimizedRMSD -1
REMARK  0 active torsions:
REMARK  status: ('A' for Active; 'I' for Inactive)
ROOT
ATOM      1  C   UNL d   1      -3.011   2.382  -3.618  0.00  0.00     0.077 C 
ATOM      2  C1  UNL d   1      -1.739   2.715  -2.897  0.00  0.00    -0.074 A 
ATOM      3  C2  UNL d   1      -0.755   3.503  -3.504  0.00  0.00    -0.005 A 
ATOM      4  C3  UNL d   1       0.420   3.812  -2.818  0.00  0.00     0.006 A 
ATOM      5  C4  UNL d   1       0.622   3.339  -1.521  0.00  0.00    -0.005 A 
ATOM      6  C5  UNL d   1      -0.352   2.550  -0.898  0.00  0.00    -0.074 A 
ATOM      7  C6  UNL d   1      -0.155   2.041   0.499  0.00  0.00     0.077 C 
ATOM      8  C7  UNL d   1      -1.532   2.249  -1.591  0.00  0.00    -0.001 A 
ENDROOT
TORSDOF 0
ENDMDL
