MODEL 1
REMARK minimizedAffinity 12.3268824
REMARK minimizedRMSD -1
REMARK  0 active torsions:
REMARK  status: ('A' for Active; 'I' for Inactive)
ROOT
ATOM      1  C   UNL d   1       1.875  -6.000  -1.493  0.00  0.00     0.077 C 
ATOM      2  C1  UNL d   1       1.642  -4.542  -1.761  0.00  0.00    -0.074 A 
ATOM      3  C2  UNL d   1       1.414  -3.646  -0.712  0.00  0.00    -0.005 A 
ATOM      4  C3  UNL d   1       1.209  -2.292  -0.976  0.00  0.00     0.006 A 
ATOM      5  C4  UNL d   1       1.230  -1.821  -2.290  0.00  0.00    -0.005 A 
ATOM      6  C5  UNL d   1       1.458  -2.703  -3.351  0.00  0.00    -0.074 A 
ATOM      7  C6  UNL d   1       1.493  -2.212  -4.768  0.00  0.00     0.077 C 
ATOM      8  C7  UNL d   1       1.670  -4.061  -3.077  0.00  0.00    -0.001 A 
ENDROOT
TORSDOF 0
ENDMDL
