MODEL 1
REMARK minimizedAffinity 20.5839882
REMARK minimizedRMSD -1
REMARK  0 active torsions:
REMARK  status: ('A' for Active; 'I' for Inactive)
ROOT
ATOM      1  C   UNL d   1      -4.142   6.000  -2.858  0.00  0.00     0.077 C 
ATOM      2  C1  UNL d   1      -2.936   5.279  -3.383  0.00  0.00    -0.074 A 
ATOM      3  C2  UNL d   1      -2.679   3.952  -3.026  0.00  0.00    -0.005 A 
ATOM      4  C3  UNL d   1      -1.559   3.292  -3.530  0.00  0.00     0.006 A 
ATOM      5  C4  UNL d   1      -0.684   3.952  -4.395  0.00  0.00    -0.005 A 
ATOM      6  C5  UNL d   1      -0.925   5.279  -4.763  0.00  0.00    -0.074 A 
ATOM      7  C6  UNL d   1      -0.001   6.000  -5.699  0.00  0.00     0.077 C 
ATOM      8  C7  UNL d   1      -2.057   5.933  -4.258  0.00  0.00    -0.001 A 
ENDROOT
TORSDOF 0
ENDMDL
