MODEL 1
REMARK minimizedAffinity 12.224062
REMARK minimizedRMSD -1
REMARK  0 active torsions:
REMARK  status: ('A' for Active; 'I' for Inactive)
ROOT
ATOM      1  C   UNL d   1       1.970  -0.214  -5.991  0.00  0.00     0.077 C 
ATOM      2  C1  UNL d   1       1.589  -1.478  -5.280  0.00  0.00    -0.074 A 
ATOM      3  C2  UNL d   1       1.137  -2.594  -5.991  0.00  0.00    -0.005 A 
ATOM      4  C3  UNL d   1       0.796  -3.767  -5.317  0.00  0.00     0.006 A 
ATOM      5  C4  UNL d   1       0.904  -3.835  -3.928  0.00  0.00    -0.005 A 
ATOM      6  C5  UNL d   1       1.355  -2.730  -3.200  0.00  0.00    -0.074 A 
ATOM      7  C6  UNL d   1       1.487  -2.790  -1.707  0.00  0.00     0.077 C 
ATOM      8  C7  UNL d   1       1.703  -1.558  -3.885  0.00  0.00    -0.001 A 
ENDROOT
TORSDOF 0
ENDMDL
