MODEL 1
REMARK minimizedAffinity 12.3631535
REMARK minimizedRMSD -1
REMARK  0 active torsions:
REMARK  status: ('A' for Active; 'I' for Inactive)
ROOT
ATOM      1  C   UNL d   1       1.345  -2.420  -3.882  0.00  0.00     0.077 C 
ATOM      2  C1  UNL d   1       1.515  -3.073  -2.543  0.00  0.00    -0.074 A 
ATOM      3  C2  UNL d   1       1.704  -4.455  -2.437  0.00  0.00    -0.005 A 
ATOM      4  C3  UNL d   1       1.870  -5.048  -1.185  0.00  0.00     0.006 A 
ATOM      5  C4  UNL d   1       1.848  -4.266  -0.029  0.00  0.00    -0.005 A 
ATOM      6  C5  UNL d   1       1.660  -2.883  -0.116  0.00  0.00    -0.074 A 
ATOM      7  C6  UNL d   1       1.643  -2.027   1.116  0.00  0.00     0.077 C 
ATOM      8  C7  UNL d   1       1.501  -2.294  -1.378  0.00  0.00    -0.001 A 
ENDROOT
TORSDOF 0
ENDMDL
