MODEL 1
REMARK minimizedAffinity 20.2770195
REMARK minimizedRMSD -1
REMARK  0 active torsions:
REMARK  status: ('A' for Active; 'I' for Inactive)
ROOT
ATOM      1  C   UNL d   1       1.212   6.000  -4.064  0.00  0.00     0.077 C 
ATOM      2  C1  UNL d   1       0.417   4.887  -3.449  0.00  0.00    -0.074 A 
ATOM      3  C2  UNL d   1      -0.781   4.455  -4.027  0.00  0.00    -0.005 A 
ATOM      4  C3  UNL d   1      -1.505   3.412  -3.449  0.00  0.00     0.006 A 
ATOM      5  C4  UNL d   1      -1.040   2.793  -2.288  0.00  0.00    -0.005 A 
ATOM      6  C5  UNL d   1       0.156   3.211  -1.696  0.00  0.00    -0.074 A 
ATOM      7  C6  UNL d   1       0.675   2.550  -0.454  0.00  0.00     0.077 C 
ATOM      8  C7  UNL d   1       0.882   4.255  -2.287  0.00  0.00    -0.001 A 
ENDROOT
TORSDOF 0
ENDMDL
