MODEL 1
REMARK minimizedAffinity 16.7145519
REMARK minimizedRMSD -1
REMARK  0 active torsions:
REMARK  status: ('A' for Active; 'I' for Inactive)
ROOT
ATOM      1  C   UNL d   1       2.751   5.996  -3.489  0.00  0.00     0.077 C 
ATOM      2  C1  UNL d   1       1.406   5.624  -4.040  0.00  0.00    -0.074 A 
ATOM      3  C2  UNL d   1       1.031   6.000  -5.334  0.00  0.00    -0.005 A 
ATOM      4  C3  UNL d   1      -0.219   5.638  -5.836  0.00  0.00     0.006 A 
ATOM      5  C4  UNL d   1      -1.105   4.899  -5.052  0.00  0.00    -0.005 A 
ATOM      6  C5  UNL d   1      -0.746   4.513  -3.756  0.00  0.00    -0.074 A 
ATOM      7  C6  UNL d   1      -1.682   3.709  -2.904  0.00  0.00     0.077 C 
ATOM      8  C7  UNL d   1       0.514   4.874  -3.261  0.00  0.00    -0.001 A 
ENDROOT
TORSDOF 0
ENDMDL
