MODEL 1
REMARK minimizedAffinity 12.7785854
REMARK minimizedRMSD -1
REMARK  0 active torsions:
REMARK  status: ('A' for Active; 'I' for Inactive)
ROOT
ATOM      1  C   UNL d   1       1.284   2.175   3.302  0.00  0.00     0.077 C 
ATOM      2  C1  UNL d   1       0.413   2.343   2.094  0.00  0.00    -0.074 A 
ATOM      3  C2  UNL d   1      -0.947   2.017   2.137  0.00  0.00    -0.005 A 
ATOM      4  C3  UNL d   1      -1.747   2.188   1.007  0.00  0.00     0.006 A 
ATOM      5  C4  UNL d   1      -1.197   2.685  -0.175  0.00  0.00    -0.005 A 
ATOM      6  C5  UNL d   1       0.160   3.018  -0.236  0.00  0.00    -0.074 A 
ATOM      7  C6  UNL d   1       0.764   3.563  -1.496  0.00  0.00     0.077 C 
ATOM      8  C7  UNL d   1       0.956   2.850   0.905  0.00  0.00    -0.001 A 
ENDROOT
TORSDOF 0
ENDMDL
