MODEL 1
REMARK minimizedAffinity 13.463253
REMARK minimizedRMSD -1
REMARK  0 active torsions:
REMARK  status: ('A' for Active; 'I' for Inactive)
ROOT
ATOM      1  C   UNL d   1       2.877  -1.016  -5.985  0.00  0.00     0.077 C 
ATOM      2  C1  UNL d   1       2.007  -2.014  -5.281  0.00  0.00    -0.074 A 
ATOM      3  C2  UNL d   1       1.137  -2.841  -5.999  0.00  0.00    -0.005 A 
ATOM      4  C3  UNL d   1       0.340  -3.771  -5.331  0.00  0.00     0.006 A 
ATOM      5  C4  UNL d   1       0.405  -3.884  -3.942  0.00  0.00    -0.005 A 
ATOM      6  C5  UNL d   1       1.270  -3.065  -3.207  0.00  0.00    -0.074 A 
ATOM      7  C6  UNL d   1       1.359  -3.180  -1.715  0.00  0.00     0.077 C 
ATOM      8  C7  UNL d   1       2.072  -2.138  -3.886  0.00  0.00    -0.001 A 
ENDROOT
TORSDOF 0
ENDMDL
