MODEL 1
REMARK minimizedAffinity 8.25719547
REMARK minimizedRMSD -1
REMARK  0 active torsions:
REMARK  status: ('A' for Active; 'I' for Inactive)
ROOT
ATOM      1  C   UNL d   1      -1.857   1.423   0.670  0.00  0.00     0.077 C 
ATOM      2  C1  UNL d   1      -1.000   2.323  -0.169  0.00  0.00    -0.074 A 
ATOM      3  C2  UNL d   1       0.299   2.654   0.230  0.00  0.00    -0.005 A 
ATOM      4  C3  UNL d   1       1.088   3.485  -0.565  0.00  0.00     0.006 A 
ATOM      5  C4  UNL d   1       0.587   3.994  -1.764  0.00  0.00    -0.005 A 
ATOM      6  C5  UNL d   1      -0.709   3.673  -2.179  0.00  0.00    -0.074 A 
ATOM      7  C6  UNL d   1      -1.260   4.203  -3.470  0.00  0.00     0.077 C 
ATOM      8  C7  UNL d   1      -1.494   2.831  -1.378  0.00  0.00    -0.001 A 
ENDROOT
TORSDOF 0
ENDMDL
