MODEL 1
REMARK minimizedAffinity 12.7270155
REMARK minimizedRMSD -1
REMARK  0 active torsions:
REMARK  status: ('A' for Active; 'I' for Inactive)
ROOT
ATOM      1  C   UNL d   1       1.849  -2.157  -4.261  0.00  0.00     0.077 C 
ATOM      2  C1  UNL d   1       1.858  -2.650  -2.844  0.00  0.00    -0.074 A 
ATOM      3  C2  UNL d   1       2.015  -4.010  -2.557  0.00  0.00    -0.005 A 
ATOM      4  C3  UNL d   1       2.032  -4.452  -1.234  0.00  0.00     0.006 A 
ATOM      5  C4  UNL d   1       1.892  -3.540  -0.187  0.00  0.00    -0.005 A 
ATOM      6  C5  UNL d   1       1.734  -2.177  -0.455  0.00  0.00    -0.074 A 
ATOM      7  C6  UNL d   1       1.592  -1.183   0.659  0.00  0.00     0.077 C 
ATOM      8  C7  UNL d   1       1.726  -1.739  -1.787  0.00  0.00    -0.001 A 
ENDROOT
TORSDOF 0
ENDMDL
