MODEL 1
REMARK minimizedAffinity 12.6293545
REMARK minimizedRMSD -1
REMARK  0 active torsions:
REMARK  status: ('A' for Active; 'I' for Inactive)
ROOT
ATOM      1  C   UNL d   1      -0.028   1.679   0.641  0.00  0.00     0.077 C 
ATOM      2  C1  UNL d   1      -0.026   2.943  -0.166  0.00  0.00    -0.074 A 
ATOM      3  C2  UNL d   1       0.491   4.131   0.360  0.00  0.00    -0.005 A 
ATOM      4  C3  UNL d   1       0.494   5.297  -0.407  0.00  0.00     0.006 A 
ATOM      5  C4  UNL d   1      -0.018   5.286  -1.705  0.00  0.00    -0.005 A 
ATOM      6  C5  UNL d   1      -0.538   4.107  -2.248  0.00  0.00    -0.074 A 
ATOM      7  C6  UNL d   1      -1.083   4.076  -3.645  0.00  0.00     0.077 C 
ATOM      8  C7  UNL d   1      -0.532   2.938  -1.474  0.00  0.00    -0.001 A 
ENDROOT
TORSDOF 0
ENDMDL
