MODEL 1
REMARK minimizedAffinity 10.8305063
REMARK minimizedRMSD -1
REMARK  0 active torsions:
REMARK  status: ('A' for Active; 'I' for Inactive)
ROOT
ATOM      1  C   UNL d   1      -0.318   1.534   0.586  0.00  0.00     0.077 C 
ATOM      2  C1  UNL d   1      -0.247   2.942   0.072  0.00  0.00    -0.074 A 
ATOM      3  C2  UNL d   1      -0.913   3.981   0.729  0.00  0.00    -0.005 A 
ATOM      4  C3  UNL d   1      -0.830   5.287   0.245  0.00  0.00     0.006 A 
ATOM      5  C4  UNL d   1      -0.082   5.565  -0.900  0.00  0.00    -0.005 A 
ATOM      6  C5  UNL d   1       0.591   4.538  -1.569  0.00  0.00    -0.074 A 
ATOM      7  C6  UNL d   1       1.408   4.822  -2.795  0.00  0.00     0.077 C 
ATOM      8  C7  UNL d   1       0.509   3.231  -1.072  0.00  0.00    -0.001 A 
ENDROOT
TORSDOF 0
ENDMDL
