MODEL 1
REMARK minimizedAffinity 1.07875466
REMARK minimizedRMSD -1
REMARK  0 active torsions:
REMARK  status: ('A' for Active; 'I' for Inactive)
ROOT
ATOM      1  C   UNL d   1      -5.987  -2.273   1.478  0.00  0.00     0.077 C 
ATOM      2  C1  UNL d   1      -5.996  -3.542   2.277  0.00  0.00    -0.074 A 
ATOM      3  C2  UNL d   1      -5.988  -4.789   1.644  0.00  0.00    -0.005 A 
ATOM      4  C3  UNL d   1      -5.986  -5.961   2.400  0.00  0.00     0.006 A 
ATOM      5  C4  UNL d   1      -5.992  -5.898   3.794  0.00  0.00    -0.005 A 
ATOM      6  C5  UNL d   1      -5.999  -4.660   4.444  0.00  0.00    -0.074 A 
ATOM      7  C6  UNL d   1      -5.996  -4.575   5.942  0.00  0.00     0.077 C 
ATOM      8  C7  UNL d   1      -5.994  -3.487   3.678  0.00  0.00    -0.001 A 
ENDROOT
TORSDOF 0
ENDMDL
