MODEL 1
REMARK minimizedAffinity -0.254368871
REMARK minimizedRMSD -1
REMARK  0 active torsions:
REMARK  status: ('A' for Active; 'I' for Inactive)
ROOT
ATOM      1  C1  DEN d   1      -2.469   2.003  -5.256  0.00  0.00     0.130 A 
ATOM      2  C2  DEN d   1      -2.676   2.834  -4.074  0.00  0.00    -0.031 A 
ATOM      3  C3  DEN d   1      -3.427   2.039  -3.081  0.00  0.00     0.027 A 
ATOM      4  C4  DEN d   1      -4.279  -0.389  -3.258  0.00  0.00     0.027 A 
ATOM      5  C5  DEN d   1      -4.353  -1.496  -4.075  0.00  0.00    -0.003 A 
ATOM      6  C6  DEN d   1      -3.839  -1.503  -5.344  0.00  0.00     0.001 A 
ATOM      7  C7  DEN d   1      -3.187  -0.395  -5.818  0.00  0.00     0.017 A 
ATOM      8  C8  DEN d   1      -3.114   0.727  -5.004  0.00  0.00    -0.094 A 
ATOM      9  C9  DEN d   1      -3.629   0.710  -3.719  0.00  0.00    -0.072 A 
ENDROOT
TORSDOF 0
ENDMDL
