MODEL 1
REMARK minimizedAffinity -1.65701342
REMARK minimizedRMSD -1
REMARK  0 active torsions:
REMARK  status: ('A' for Active; 'I' for Inactive)
ROOT
ATOM      1  C1  DEN d   1      -2.418  -0.731  -2.780  0.00  0.00     0.130 A 
ATOM      2  C2  DEN d   1      -3.375  -1.522  -2.010  0.00  0.00    -0.031 A 
ATOM      3  C3  DEN d   1      -4.658  -1.524  -2.740  0.00  0.00     0.027 A 
ATOM      4  C4  DEN d   1      -5.253  -0.389  -4.979  0.00  0.00     0.027 A 
ATOM      5  C5  DEN d   1      -4.773   0.403  -5.998  0.00  0.00    -0.003 A 
ATOM      6  C6  DEN d   1      -3.495   0.896  -6.000  0.00  0.00     0.001 A 
ATOM      7  C7  DEN d   1      -2.638   0.565  -4.983  0.00  0.00     0.017 A 
ATOM      8  C8  DEN d   1      -3.118  -0.227  -3.948  0.00  0.00    -0.094 A 
ATOM      9  C9  DEN d   1      -4.409  -0.725  -3.971  0.00  0.00    -0.072 A 
ENDROOT
TORSDOF 0
ENDMDL
