MODEL 1
REMARK minimizedAffinity 11.380661
REMARK minimizedRMSD -1
REMARK  0 active torsions:
REMARK  status: ('A' for Active; 'I' for Inactive)
ROOT
ATOM      1  C1  DEN d   1       3.542  -2.244   0.217  0.00  0.00     0.130 A 
ATOM      2  C2  DEN d   1       2.304  -2.872   0.671  0.00  0.00    -0.031 A 
ATOM      3  C3  DEN d   1       1.259  -1.831   0.729  0.00  0.00     0.027 A 
ATOM      4  C4  DEN d   1       1.435   0.679   0.159  0.00  0.00     0.027 A 
ATOM      5  C5  DEN d   1       2.286   1.678  -0.259  0.00  0.00    -0.003 A 
ATOM      6  C6  DEN d   1       3.612   1.449  -0.513  0.00  0.00     0.001 A 
ATOM      7  C7  DEN d   1       4.116   0.180  -0.395  0.00  0.00     0.017 A 
ATOM      8  C8  DEN d   1       3.266  -0.831   0.033  0.00  0.00    -0.094 A 
ATOM      9  C9  DEN d   1       1.926  -0.581   0.273  0.00  0.00    -0.072 A 
ENDROOT
TORSDOF 0
ENDMDL
