MODEL 1
REMARK minimizedAffinity 4.96251106
REMARK minimizedRMSD -1
REMARK  0 active torsions:
REMARK  status: ('A' for Active; 'I' for Inactive)
ROOT
ATOM      1  C1  DEN d   1      -5.081   0.606  -3.633  0.00  0.00     0.130 A 
ATOM      2  C2  DEN d   1      -5.675   1.133  -4.859  0.00  0.00    -0.031 A 
ATOM      3  C3  DEN d   1      -4.873   0.649  -6.000  0.00  0.00     0.027 A 
ATOM      4  C4  DEN d   1      -2.781  -0.860  -5.989  0.00  0.00     0.027 A 
ATOM      5  C5  DEN d   1      -1.897  -1.547  -5.187  0.00  0.00    -0.003 A 
ATOM      6  C6  DEN d   1      -1.991  -1.537  -3.820  0.00  0.00     0.001 A 
ATOM      7  C7  DEN d   1      -3.018  -0.862  -3.216  0.00  0.00     0.017 A 
ATOM      8  C8  DEN d   1      -3.909  -0.161  -4.017  0.00  0.00    -0.094 A 
ATOM      9  C9  DEN d   1      -3.805  -0.193  -5.398  0.00  0.00    -0.072 A 
ENDROOT
TORSDOF 0
ENDMDL
