MODEL 1
REMARK minimizedAffinity -0.38773188
REMARK minimizedRMSD -1
REMARK  0 active torsions:
REMARK  status: ('A' for Active; 'I' for Inactive)
ROOT
ATOM      1  C1  DEN d   1      -3.451  -0.356  -5.086  0.00  0.00     0.130 A 
ATOM      2  C2  DEN d   1      -3.664  -0.933  -3.761  0.00  0.00    -0.031 A 
ATOM      3  C3  DEN d   1      -3.788   0.177  -2.795  0.00  0.00     0.027 A 
ATOM      4  C4  DEN d   1      -3.676   2.718  -3.220  0.00  0.00     0.027 A 
ATOM      5  C5  DEN d   1      -3.499   3.689  -4.181  0.00  0.00    -0.003 A 
ATOM      6  C6  DEN d   1      -3.262   3.382  -5.494  0.00  0.00     0.001 A 
ATOM      7  C7  DEN d   1      -3.240   2.071  -5.891  0.00  0.00     0.017 A 
ATOM      8  C8  DEN d   1      -3.410   1.086  -4.927  0.00  0.00    -0.094 A 
ATOM      9  C9  DEN d   1      -3.661   1.417  -3.606  0.00  0.00    -0.072 A 
ENDROOT
TORSDOF 0
ENDMDL
