MODEL 1
REMARK minimizedAffinity 4.38788986
REMARK minimizedRMSD -1
REMARK  0 active torsions:
REMARK  status: ('A' for Active; 'I' for Inactive)
ROOT
ATOM      1  C1  DEN d   1      -4.135   1.618  -5.141  0.00  0.00     0.130 A 
ATOM      2  C2  DEN d   1      -2.989   1.911  -5.998  0.00  0.00    -0.031 A 
ATOM      3  C3  DEN d   1      -2.103   0.730  -5.994  0.00  0.00     0.027 A 
ATOM      4  C4  DEN d   1      -2.394  -1.514  -4.755  0.00  0.00     0.027 A 
ATOM      5  C5  DEN d   1      -3.203  -2.225  -3.897  0.00  0.00    -0.003 A 
ATOM      6  C6  DEN d   1      -4.353  -1.698  -3.371  0.00  0.00     0.001 A 
ATOM      7  C7  DEN d   1      -4.749  -0.437  -3.734  0.00  0.00     0.017 A 
ATOM      8  C8  DEN d   1      -3.935   0.289  -4.593  0.00  0.00    -0.094 A 
ATOM      9  C9  DEN d   1      -2.783  -0.267  -5.123  0.00  0.00    -0.072 A 
ENDROOT
TORSDOF 0
ENDMDL
