MODEL 1
REMARK minimizedAffinity 4.74834871
REMARK minimizedRMSD -1
REMARK  1 active torsions:
REMARK  status: ('A' for Active; 'I' for Inactive)
REMARK    1  A    between atoms: C1_2  and  C2_3 
ROOT
ATOM      1  C2  UNL d   1      -3.124   5.448   1.989  0.00  0.00    -0.081 A 
ATOM      2  C3  UNL d   1      -2.255   5.809   3.026  0.00  0.00     0.006 A 
ATOM      3  C4  UNL d   1      -2.739   5.997   4.323  0.00  0.00     0.002 A 
ATOM      4  C5  UNL d   1      -4.098   5.820   4.605  0.00  0.00    -0.080 A 
ATOM      5  C6  UNL d   1      -4.626   5.989   5.999  0.00  0.00     0.076 C 
ATOM      6  C7  UNL d   1      -4.969   5.477   3.565  0.00  0.00     0.002 A 
ATOM      7  C8  UNL d   1      -4.485   5.289   2.269  0.00  0.00     0.006 A 
ENDROOT
BRANCH   1   8
ATOM      8  C1  UNL d   1      -2.594   5.182   0.603  0.00  0.00     0.054 C 
ATOM      9  C   UNL d   1      -1.338   5.995   0.325  0.00  0.00     0.018 C 
ENDBRANCH   1   8
TORSDOF 1
ENDMDL
