MODEL 1
REMARK minimizedAffinity 11.4273005
REMARK minimizedRMSD -1
REMARK  1 active torsions:
REMARK  status: ('A' for Active; 'I' for Inactive)
REMARK    1  A    between atoms: C1_2  and  C2_3 
ROOT
ATOM      1  C2  UNL d   1      -3.980   5.873   3.726  0.00  0.00    -0.081 A 
ATOM      2  C3  UNL d   1      -5.050   5.839   2.824  0.00  0.00     0.006 A 
ATOM      3  C4  UNL d   1      -4.816   5.711   1.453  0.00  0.00     0.002 A 
ATOM      4  C5  UNL d   1      -3.510   5.608   0.962  0.00  0.00    -0.080 A 
ATOM      5  C6  UNL d   1      -3.246   5.440  -0.505  0.00  0.00     0.076 C 
ATOM      6  C7  UNL d   1      -2.440   5.660   1.862  0.00  0.00     0.002 A 
ATOM      7  C8  UNL d   1      -2.673   5.788   3.233  0.00  0.00     0.006 A 
ENDROOT
BRANCH   1   8
ATOM      8  C1  UNL d   1      -4.231   5.946   5.211  0.00  0.00     0.054 C 
ATOM      9  C   UNL d   1      -2.939   5.785   5.999  0.00  0.00     0.018 C 
ENDBRANCH   1   8
TORSDOF 1
ENDMDL
