MODEL 1
REMARK minimizedAffinity 18.1859608
REMARK minimizedRMSD -1
REMARK  1 active torsions:
REMARK  status: ('A' for Active; 'I' for Inactive)
REMARK    1  A    between atoms: C1_2  and  C2_3 
ROOT
ATOM      1  C2  UNL d   1      -3.632   5.998   4.456  0.00  0.00    -0.081 A 
ATOM      2  C3  UNL d   1      -4.531   5.992   3.382  0.00  0.00     0.006 A 
ATOM      3  C4  UNL d   1      -4.062   5.968   2.067  0.00  0.00     0.002 A 
ATOM      4  C5  UNL d   1      -2.688   5.941   1.803  0.00  0.00    -0.080 A 
ATOM      5  C6  UNL d   1      -2.172   5.884   0.396  0.00  0.00     0.076 C 
ATOM      6  C7  UNL d   1      -1.790   5.964   2.876  0.00  0.00     0.002 A 
ATOM      7  C8  UNL d   1      -2.258   5.989   4.191  0.00  0.00     0.006 A 
ENDROOT
BRANCH   1   8
ATOM      8  C1  UNL d   1      -4.135   5.958   5.876  0.00  0.00     0.054 C 
ATOM      9  C   UNL d   1      -5.656   5.947   5.925  0.00  0.00     0.018 C 
ENDBRANCH   1   8
TORSDOF 1
ENDMDL
