MODEL 1
REMARK minimizedAffinity 8.17218208
REMARK minimizedRMSD -1
REMARK  1 active torsions:
REMARK  status: ('A' for Active; 'I' for Inactive)
REMARK    1  A    between atoms: C1_2  and  C2_3 
ROOT
ATOM      1  C2  UNL d   1      -3.699   5.918   4.694  0.00  0.00    -0.081 A 
ATOM      2  C3  UNL d   1      -3.008   5.825   3.480  0.00  0.00     0.006 A 
ATOM      3  C4  UNL d   1      -3.702   5.824   2.268  0.00  0.00     0.002 A 
ATOM      4  C5  UNL d   1      -5.097   5.924   2.249  0.00  0.00    -0.080 A 
ATOM      5  C6  UNL d   1      -5.852   5.955   0.954  0.00  0.00     0.076 C 
ATOM      6  C7  UNL d   1      -5.789   5.999   3.462  0.00  0.00     0.002 A 
ATOM      7  C8  UNL d   1      -5.096   5.999   4.675  0.00  0.00     0.006 A 
ENDROOT
BRANCH   1   8
ATOM      8  C1  UNL d   1      -2.949   5.984   6.000  0.00  0.00     0.054 C 
ATOM      9  C   UNL d   1      -1.444   6.000   5.774  0.00  0.00     0.018 C 
ENDBRANCH   1   8
TORSDOF 1
ENDMDL
