MODEL 1
REMARK minimizedAffinity 4.36730337
REMARK minimizedRMSD -1
REMARK  1 active torsions:
REMARK  status: ('A' for Active; 'I' for Inactive)
REMARK    1  A    between atoms: C1_2  and  C2_3 
ROOT
ATOM      1  C2  UNL d   1      -3.351   5.868   2.071  0.00  0.00    -0.081 A 
ATOM      2  C3  UNL d   1      -2.542   5.945   3.211  0.00  0.00     0.006 A 
ATOM      3  C4  UNL d   1      -3.116   6.000   4.484  0.00  0.00     0.002 A 
ATOM      4  C5  UNL d   1      -4.506   5.971   4.637  0.00  0.00    -0.080 A 
ATOM      5  C6  UNL d   1      -5.134   5.998   5.999  0.00  0.00     0.076 C 
ATOM      6  C7  UNL d   1      -5.315   5.911   3.497  0.00  0.00     0.002 A 
ATOM      7  C8  UNL d   1      -4.742   5.857   2.224  0.00  0.00     0.006 A 
ENDROOT
BRANCH   1   8
ATOM      8  C1  UNL d   1      -2.734   5.744   0.701  0.00  0.00     0.054 C 
ATOM      9  C   UNL d   1      -1.234   5.999   0.744  0.00  0.00     0.018 C 
ENDBRANCH   1   8
TORSDOF 1
ENDMDL
