MODEL 1
REMARK minimizedAffinity 12.4759579
REMARK minimizedRMSD -1
REMARK  1 active torsions:
REMARK  status: ('A' for Active; 'I' for Inactive)
REMARK    1  A    between atoms: C1_2  and  C2_3 
ROOT
ATOM      1  C2  UNL d   1       0.521  -2.090  -3.881  0.00  0.00    -0.081 A 
ATOM      2  C3  UNL d   1       0.876  -1.524  -2.650  0.00  0.00     0.006 A 
ATOM      3  C4  UNL d   1       0.815  -0.141  -2.463  0.00  0.00     0.002 A 
ATOM      4  C5  UNL d   1       0.391   0.697  -3.499  0.00  0.00    -0.080 A 
ATOM      5  C6  UNL d   1       0.292   2.181  -3.302  0.00  0.00     0.076 C 
ATOM      6  C7  UNL d   1       0.053   0.133  -4.734  0.00  0.00     0.002 A 
ATOM      7  C8  UNL d   1       0.115  -1.249  -4.922  0.00  0.00     0.006 A 
ENDROOT
BRANCH   1   8
ATOM      8  C1  UNL d   1       0.524  -3.586  -4.065  0.00  0.00     0.054 C 
ATOM      9  C   UNL d   1       1.579  -4.017  -5.074  0.00  0.00     0.018 C 
ENDBRANCH   1   8
TORSDOF 1
ENDMDL
