MODEL 1
REMARK minimizedAffinity 10.2724762
REMARK minimizedRMSD -1
REMARK  1 active torsions:
REMARK  status: ('A' for Active; 'I' for Inactive)
REMARK    1  A    between atoms: C1_2  and  C2_3 
ROOT
ATOM      1  C2  UNL d   1      -3.204   5.355   2.202  0.00  0.00    -0.081 A 
ATOM      2  C3  UNL d   1      -4.575   5.108   2.341  0.00  0.00     0.006 A 
ATOM      3  C4  UNL d   1      -5.209   5.303   3.570  0.00  0.00     0.002 A 
ATOM      4  C5  UNL d   1      -4.486   5.756   4.678  0.00  0.00    -0.080 A 
ATOM      5  C6  UNL d   1      -5.160   5.998   5.996  0.00  0.00     0.076 C 
ATOM      6  C7  UNL d   1      -3.112   5.986   4.545  0.00  0.00     0.002 A 
ATOM      7  C8  UNL d   1      -2.478   5.791   3.316  0.00  0.00     0.006 A 
ENDROOT
BRANCH   1   8
ATOM      8  C1  UNL d   1      -2.531   5.208   0.862  0.00  0.00     0.054 C 
ATOM      9  C   UNL d   1      -2.710   3.803   0.304  0.00  0.00     0.018 C 
ENDBRANCH   1   8
TORSDOF 1
ENDMDL
