MODEL 1
REMARK minimizedAffinity 8.54089165
REMARK minimizedRMSD -1
REMARK  1 active torsions:
REMARK  status: ('A' for Active; 'I' for Inactive)
REMARK    1  A    between atoms: C1_2  and  C2_3 
ROOT
ATOM      1  C2  UNL d   1      -2.905   4.797   1.955  0.00  0.00    -0.081 A 
ATOM      2  C3  UNL d   1      -2.007   5.587   2.683  0.00  0.00     0.006 A 
ATOM      3  C4  UNL d   1      -2.310   5.984   3.988  0.00  0.00     0.002 A 
ATOM      4  C5  UNL d   1      -3.510   5.591   4.589  0.00  0.00    -0.080 A 
ATOM      5  C6  UNL d   1      -3.833   5.984   6.000  0.00  0.00     0.076 C 
ATOM      6  C7  UNL d   1      -4.415   4.816   3.855  0.00  0.00     0.002 A 
ATOM      7  C8  UNL d   1      -4.114   4.420   2.550  0.00  0.00     0.006 A 
ENDROOT
BRANCH   1   8
ATOM      8  C1  UNL d   1      -2.553   4.314   0.571  0.00  0.00     0.054 C 
ATOM      9  C   UNL d   1      -2.799   2.819   0.428  0.00  0.00     0.018 C 
ENDBRANCH   1   8
TORSDOF 1
ENDMDL
