MODEL 1
REMARK minimizedAffinity 5.67639732
REMARK minimizedRMSD -1
REMARK  1 active torsions:
REMARK  status: ('A' for Active; 'I' for Inactive)
REMARK    1  A    between atoms: C1_2  and  C2_3 
ROOT
ATOM      1  C2  UNL d   1      -3.378   4.729   3.472  0.00  0.00    -0.081 A 
ATOM      2  C3  UNL d   1      -3.913   4.584   2.186  0.00  0.00     0.006 A 
ATOM      3  C4  UNL d   1      -3.764   3.383   1.488  0.00  0.00     0.002 A 
ATOM      4  C5  UNL d   1      -3.083   2.306   2.066  0.00  0.00    -0.080 A 
ATOM      5  C6  UNL d   1      -2.942   1.002   1.339  0.00  0.00     0.076 C 
ATOM      6  C7  UNL d   1      -2.533   2.457   3.343  0.00  0.00     0.002 A 
ATOM      7  C8  UNL d   1      -2.682   3.657   4.041  0.00  0.00     0.006 A 
ENDROOT
BRANCH   1   8
ATOM      8  C1  UNL d   1      -3.593   6.000   4.253  0.00  0.00     0.054 C 
ATOM      9  C   UNL d   1      -2.836   5.973   5.573  0.00  0.00     0.018 C 
ENDBRANCH   1   8
TORSDOF 1
ENDMDL
