MODEL 1
REMARK minimizedAffinity 8.68438244
REMARK minimizedRMSD -1
REMARK  1 active torsions:
REMARK  status: ('A' for Active; 'I' for Inactive)
REMARK    1  A    between atoms: C1_2  and  C2_3 
ROOT
ATOM      1  C2  UNL d   1      -3.021   4.592   3.441  0.00  0.00    -0.081 A 
ATOM      2  C3  UNL d   1      -2.294   3.592   4.097  0.00  0.00     0.006 A 
ATOM      3  C4  UNL d   1      -2.204   2.309   3.552  0.00  0.00     0.002 A 
ATOM      4  C5  UNL d   1      -2.833   2.007   2.340  0.00  0.00    -0.080 A 
ATOM      5  C6  UNL d   1      -2.719   0.642   1.729  0.00  0.00     0.076 C 
ATOM      6  C7  UNL d   1      -3.575   3.001   1.693  0.00  0.00     0.002 A 
ATOM      7  C8  UNL d   1      -3.666   4.284   2.238  0.00  0.00     0.006 A 
ENDROOT
BRANCH   1   8
ATOM      8  C1  UNL d   1      -3.067   5.994   3.994  0.00  0.00     0.054 C 
ATOM      9  C   UNL d   1      -2.905   5.998   5.507  0.00  0.00     0.018 C 
ENDBRANCH   1   8
TORSDOF 1
ENDMDL
