MODEL 1
REMARK minimizedAffinity 4.25292158
REMARK minimizedRMSD -1
REMARK  1 active torsions:
REMARK  status: ('A' for Active; 'I' for Inactive)
REMARK    1  A    between atoms: C1_2  and  C2_3 
ROOT
ATOM      1  C2  UNL d   1      -2.460   5.906   3.645  0.00  0.00    -0.081 A 
ATOM      2  C3  UNL d   1      -3.730   5.998   4.226  0.00  0.00     0.006 A 
ATOM      3  C4  UNL d   1      -4.877   5.981   3.428  0.00  0.00     0.002 A 
ATOM      4  C5  UNL d   1      -4.773   5.865   2.038  0.00  0.00    -0.080 A 
ATOM      5  C6  UNL d   1      -5.997   5.816   1.173  0.00  0.00     0.076 C 
ATOM      6  C7  UNL d   1      -3.503   5.792   1.456  0.00  0.00     0.002 A 
ATOM      7  C8  UNL d   1      -2.356   5.809   2.253  0.00  0.00     0.006 A 
ENDROOT
BRANCH   1   8
ATOM      8  C1  UNL d   1      -1.224   5.859   4.507  0.00  0.00     0.054 C 
ATOM      9  C   UNL d   1      -1.573   5.999   5.982  0.00  0.00     0.018 C 
ENDBRANCH   1   8
TORSDOF 1
ENDMDL
