MODEL 1
REMARK minimizedAffinity 13.7071371
REMARK minimizedRMSD -1
REMARK  1 active torsions:
REMARK  status: ('A' for Active; 'I' for Inactive)
REMARK    1  A    between atoms: C1_2  and  C2_3 
ROOT
ATOM      1  C2  UNL d   1      -4.348   5.989   2.621  0.00  0.00    -0.081 A 
ATOM      2  C3  UNL d   1      -2.963   5.994   2.421  0.00  0.00     0.006 A 
ATOM      3  C4  UNL d   1      -2.090   5.996   3.512  0.00  0.00     0.002 A 
ATOM      4  C5  UNL d   1      -2.588   5.986   4.819  0.00  0.00    -0.080 A 
ATOM      5  C6  UNL d   1      -1.663   5.957   5.999  0.00  0.00     0.076 C 
ATOM      6  C7  UNL d   1      -3.973   5.999   5.019  0.00  0.00     0.002 A 
ATOM      7  C8  UNL d   1      -4.846   5.997   3.928  0.00  0.00     0.006 A 
ENDROOT
BRANCH   1   8
ATOM      8  C1  UNL d   1      -5.291   5.922   1.446  0.00  0.00     0.054 C 
ATOM      9  C   UNL d   1      -5.715   4.489   1.158  0.00  0.00     0.018 C 
ENDBRANCH   1   8
TORSDOF 1
ENDMDL
