MODEL 1
REMARK minimizedAffinity 5.54285288
REMARK minimizedRMSD -1
REMARK  1 active torsions:
REMARK  status: ('A' for Active; 'I' for Inactive)
REMARK    1  A    between atoms: C1_2  and  C2_3 
ROOT
ATOM      1  C2  UNL d   1      -3.010   2.386   2.100  0.00  0.00    -0.081 A 
ATOM      2  C3  UNL d   1      -2.669   2.369   3.458  0.00  0.00     0.006 A 
ATOM      3  C4  UNL d   1      -2.733   3.539   4.218  0.00  0.00     0.002 A 
ATOM      4  C5  UNL d   1      -3.147   4.742   3.636  0.00  0.00    -0.080 A 
ATOM      5  C6  UNL d   1      -3.249   5.999   4.449  0.00  0.00     0.076 C 
ATOM      6  C7  UNL d   1      -3.471   4.762   2.276  0.00  0.00     0.002 A 
ATOM      7  C8  UNL d   1      -3.406   3.593   1.515  0.00  0.00     0.006 A 
ENDROOT
BRANCH   1   8
ATOM      8  C1  UNL d   1      -3.004   1.113   1.293  0.00  0.00     0.054 C 
ATOM      9  C   UNL d   1      -2.970  -0.114   2.194  0.00  0.00     0.018 C 
ENDBRANCH   1   8
TORSDOF 1
ENDMDL
