MODEL 1
REMARK minimizedAffinity 8.65273476
REMARK minimizedRMSD -1
REMARK  1 active torsions:
REMARK  status: ('A' for Active; 'I' for Inactive)
REMARK    1  A    between atoms: C1_2  and  C2_3 
ROOT
ATOM      1  C2  UNL d   1      -2.873   5.913   1.833  0.00  0.00    -0.081 A 
ATOM      2  C3  UNL d   1      -1.889   5.923   2.830  0.00  0.00     0.006 A 
ATOM      3  C4  UNL d   1      -2.249   5.958   4.179  0.00  0.00     0.002 A 
ATOM      4  C5  UNL d   1      -3.597   5.976   4.554  0.00  0.00    -0.080 A 
ATOM      5  C6  UNL d   1      -3.997   5.983   5.999  0.00  0.00     0.076 C 
ATOM      6  C7  UNL d   1      -4.579   5.984   3.558  0.00  0.00     0.002 A 
ATOM      7  C8  UNL d   1      -4.220   5.949   2.209  0.00  0.00     0.006 A 
ENDROOT
BRANCH   1   8
ATOM      8  C1  UNL d   1      -2.489   5.810   0.379  0.00  0.00     0.054 C 
ATOM      9  C   UNL d   1      -2.254   4.363  -0.030  0.00  0.00     0.018 C 
ENDBRANCH   1   8
TORSDOF 1
ENDMDL
