MODEL 1
REMARK minimizedAffinity -4.44562912
REMARK minimizedRMSD -1
REMARK  0 active torsions:
REMARK  status: ('A' for Active; 'I' for Inactive)
ROOT
ATOM      1  C   UNL d   1       0.837   0.810  -0.866  0.00  0.00     0.020 A 
ATOM      2  C1  UNL d   1      -0.415   1.176  -0.374  0.00  0.00     0.020 A 
ATOM      3  C2  UNL d   1      -1.034   0.399   0.607  0.00  0.00     0.034 A 
ATOM      4  C3  UNL d   1      -0.402  -0.749   1.098  0.00  0.00     0.017 A 
ATOM      5  C4  UNL d   1       0.854  -1.116   0.603  0.00  0.00     0.017 A 
ATOM      6  C5  UNL d   1       1.470  -0.334  -0.379  0.00  0.00     0.034 A 
ATOM      7 Cl   UNL d   1       1.696  -2.519   1.161  0.00  0.00    -0.070 Cl
ATOM      8 Cl1  UNL d   1      -1.227  -1.663   2.310  0.00  0.00    -0.070 Cl
ENDROOT
TORSDOF 0
ENDMDL
