MODEL 1
REMARK minimizedAffinity -5.82102776
REMARK minimizedRMSD -1
REMARK  0 active torsions:
REMARK  status: ('A' for Active; 'I' for Inactive)
ROOT
ATOM      1  C   UNL d   1      -0.610  -2.243   2.581  0.00  0.00     0.020 A 
ATOM      2  C1  UNL d   1       0.614  -2.777   2.181  0.00  0.00     0.020 A 
ATOM      3  C2  UNL d   1       1.382  -2.120   1.217  0.00  0.00     0.034 A 
ATOM      4  C3  UNL d   1       0.926  -0.925   0.649  0.00  0.00     0.017 A 
ATOM      5  C4  UNL d   1      -0.303  -0.389   1.051  0.00  0.00     0.017 A 
ATOM      6  C5  UNL d   1      -1.068  -1.051   2.017  0.00  0.00     0.034 A 
ATOM      7 Cl   UNL d   1      -0.932   1.081   0.395  0.00  0.00    -0.070 Cl
ATOM      8 Cl1  UNL d   1       1.927  -0.166  -0.537  0.00  0.00    -0.070 Cl
ENDROOT
TORSDOF 0
ENDMDL
