MODEL 1
REMARK minimizedAffinity -4.44574261
REMARK minimizedRMSD -1
REMARK  0 active torsions:
REMARK  status: ('A' for Active; 'I' for Inactive)
ROOT
ATOM      1  C   UNL d   1      -0.337  -2.284   2.364  0.00  0.00     0.020 A 
ATOM      2  C1  UNL d   1       0.914  -2.830   2.081  0.00  0.00     0.020 A 
ATOM      3  C2  UNL d   1       1.674  -2.323   1.024  0.00  0.00     0.034 A 
ATOM      4  C3  UNL d   1       1.183  -1.268   0.247  0.00  0.00     0.017 A 
ATOM      5  C4  UNL d   1      -0.074  -0.721   0.531  0.00  0.00     0.017 A 
ATOM      6  C5  UNL d   1      -0.830  -1.232   1.591  0.00  0.00     0.034 A 
ATOM      7 Cl   UNL d   1      -0.746   0.582  -0.383  0.00  0.00    -0.070 Cl
ATOM      8 Cl1  UNL d   1       2.176  -0.691  -1.044  0.00  0.00    -0.070 Cl
ENDROOT
TORSDOF 0
ENDMDL
