MODEL 1
REMARK minimizedAffinity -0.523224533
REMARK minimizedRMSD -1
REMARK  0 active torsions:
REMARK  status: ('A' for Active; 'I' for Inactive)
ROOT
ATOM      1  C   UNL d   1      -1.653   1.883  -3.125  0.00  0.00     0.020 A 
ATOM      2  C1  UNL d   1      -0.735   0.930  -3.566  0.00  0.00     0.020 A 
ATOM      3  C2  UNL d   1      -0.050   0.140  -2.641  0.00  0.00     0.034 A 
ATOM      4  C3  UNL d   1      -0.281   0.301  -1.270  0.00  0.00     0.017 A 
ATOM      5  C4  UNL d   1      -1.202   1.258  -0.828  0.00  0.00     0.017 A 
ATOM      6  C5  UNL d   1      -1.885   2.047  -1.759  0.00  0.00     0.034 A 
ATOM      7 Cl   UNL d   1      -1.540   1.515   0.847  0.00  0.00    -0.070 Cl
ATOM      8 Cl1  UNL d   1       0.601  -0.710  -0.182  0.00  0.00    -0.070 Cl
ENDROOT
TORSDOF 0
ENDMDL
