MODEL 1
REMARK minimizedAffinity -5.50175238
REMARK minimizedRMSD -1
REMARK  0 active torsions:
REMARK  status: ('A' for Active; 'I' for Inactive)
ROOT
ATOM      1  C   UNL d   1       1.499  -2.798   1.783  0.00  0.00     0.020 A 
ATOM      2  C1  UNL d   1       0.234  -2.520   2.298  0.00  0.00     0.020 A 
ATOM      3  C2  UNL d   1      -0.504  -1.446   1.796  0.00  0.00     0.034 A 
ATOM      4  C3  UNL d   1       0.022  -0.647   0.775  0.00  0.00     0.017 A 
ATOM      5  C4  UNL d   1       1.292  -0.927   0.258  0.00  0.00     0.017 A 
ATOM      6  C5  UNL d   1       2.027  -2.003   0.765  0.00  0.00     0.034 A 
ATOM      7 Cl   UNL d   1       2.008   0.014  -1.003  0.00  0.00    -0.070 Cl
ATOM      8 Cl1  UNL d   1      -0.946   0.664   0.200  0.00  0.00    -0.070 Cl
ENDROOT
TORSDOF 0
ENDMDL
