MODEL 1
REMARK minimizedAffinity -4.22304153
REMARK minimizedRMSD -1
REMARK  0 active torsions:
REMARK  status: ('A' for Active; 'I' for Inactive)
ROOT
ATOM      1  C   UNL d   1       1.633  -2.209   1.197  0.00  0.00     0.020 A 
ATOM      2  C1  UNL d   1       0.252  -2.198   1.389  0.00  0.00     0.020 A 
ATOM      3  C2  UNL d   1      -0.529  -1.211   0.784  0.00  0.00     0.034 A 
ATOM      4  C3  UNL d   1       0.071  -0.230  -0.014  0.00  0.00     0.017 A 
ATOM      5  C4  UNL d   1       1.457  -0.242  -0.206  0.00  0.00     0.017 A 
ATOM      6  C5  UNL d   1       2.234  -1.232   0.402  0.00  0.00     0.034 A 
ATOM      7 Cl   UNL d   1       2.269   0.935  -1.177  0.00  0.00    -0.070 Cl
ATOM      8 Cl1  UNL d   1      -0.956   0.960  -0.732  0.00  0.00    -0.070 Cl
ENDROOT
TORSDOF 0
ENDMDL
