MODEL 1
REMARK minimizedAffinity -2.77355552
REMARK minimizedRMSD -1
REMARK  0 active torsions:
REMARK  status: ('A' for Active; 'I' for Inactive)
ROOT
ATOM      1  C   UNL d   1       0.390  -2.602   2.131  0.00  0.00     0.020 A 
ATOM      2  C1  UNL d   1       1.725  -2.569   1.728  0.00  0.00     0.020 A 
ATOM      3  C2  UNL d   1       2.159  -1.594   0.827  0.00  0.00     0.034 A 
ATOM      4  C3  UNL d   1       1.258  -0.648   0.326  0.00  0.00     0.017 A 
ATOM      5  C4  UNL d   1      -0.082  -0.681   0.731  0.00  0.00     0.017 A 
ATOM      6  C5  UNL d   1      -0.511  -1.659   1.633  0.00  0.00     0.034 A 
ATOM      7 Cl   UNL d   1      -1.252   0.453   0.156  0.00  0.00    -0.070 Cl
ATOM      8 Cl1  UNL d   1       1.864   0.529  -0.784  0.00  0.00    -0.070 Cl
ENDROOT
TORSDOF 0
ENDMDL
