MODEL 1
REMARK minimizedAffinity -4.52755117
REMARK minimizedRMSD -1
REMARK  0 active torsions:
REMARK  status: ('A' for Active; 'I' for Inactive)
ROOT
ATOM      1  C   UNL d   1       0.896  -2.648   2.375  0.00  0.00     0.020 A 
ATOM      2  C1  UNL d   1      -0.339  -2.149   2.789  0.00  0.00     0.020 A 
ATOM      3  C2  UNL d   1      -0.920  -1.075   2.111  0.00  0.00     0.034 A 
ATOM      4  C3  UNL d   1      -0.267  -0.496   1.016  0.00  0.00     0.017 A 
ATOM      5  C4  UNL d   1       0.972  -0.998   0.602  0.00  0.00     0.017 A 
ATOM      6  C5  UNL d   1       1.550  -2.074   1.284  0.00  0.00     0.034 A 
ATOM      7 Cl   UNL d   1       1.838  -0.337  -0.739  0.00  0.00    -0.070 Cl
ATOM      8 Cl1  UNL d   1      -1.044   0.828   0.225  0.00  0.00    -0.070 Cl
ENDROOT
TORSDOF 0
ENDMDL
