MODEL 1
REMARK minimizedAffinity -3.05514622
REMARK minimizedRMSD -1
REMARK  0 active torsions:
REMARK  status: ('A' for Active; 'I' for Inactive)
ROOT
ATOM      1  C   UNL d   1       0.329  -2.345   2.133  0.00  0.00     0.020 A 
ATOM      2  C1  UNL d   1       1.560  -2.777   1.639  0.00  0.00     0.020 A 
ATOM      3  C2  UNL d   1       2.161  -2.102   0.575  0.00  0.00     0.034 A 
ATOM      4  C3  UNL d   1       1.532  -0.991   0.001  0.00  0.00     0.017 A 
ATOM      5  C4  UNL d   1       0.297  -0.558   0.497  0.00  0.00     0.017 A 
ATOM      6  C5  UNL d   1      -0.301  -1.238   1.563  0.00  0.00     0.034 A 
ATOM      7 Cl   UNL d   1      -0.540   0.804  -0.159  0.00  0.00    -0.070 Cl
ATOM      8 Cl1  UNL d   1       2.333  -0.203  -1.312  0.00  0.00    -0.070 Cl
ENDROOT
TORSDOF 0
ENDMDL
