MODEL 1
REMARK minimizedAffinity -4.98667479
REMARK minimizedRMSD -1
REMARK  0 active torsions:
REMARK  status: ('A' for Active; 'I' for Inactive)
ROOT
ATOM      1  C   UNL d   1       0.099  -2.425   2.008  0.00  0.00     0.020 A 
ATOM      2  C1  UNL d   1       1.198  -3.032   1.402  0.00  0.00     0.020 A 
ATOM      3  C2  UNL d   1       1.788  -2.447   0.280  0.00  0.00     0.034 A 
ATOM      4  C3  UNL d   1       1.280  -1.251  -0.240  0.00  0.00     0.017 A 
ATOM      5  C4  UNL d   1       0.176  -0.642   0.369  0.00  0.00     0.017 A 
ATOM      6  C5  UNL d   1      -0.411  -1.233   1.492  0.00  0.00     0.034 A 
ATOM      7 Cl   UNL d   1      -0.508   0.834  -0.216  0.00  0.00    -0.070 Cl
ATOM      8 Cl1  UNL d   1       2.060  -0.583  -1.630  0.00  0.00    -0.070 Cl
ENDROOT
TORSDOF 0
ENDMDL
