MODEL 1
REMARK minimizedAffinity -5.58847809
REMARK minimizedRMSD -1
REMARK  0 active torsions:
REMARK  status: ('A' for Active; 'I' for Inactive)
ROOT
ATOM      1  C   UNL d   1       0.906   0.352  -0.506  0.00  0.00     0.020 A 
ATOM      2  C1  UNL d   1      -0.189   0.848   0.202  0.00  0.00     0.020 A 
ATOM      3  C2  UNL d   1      -0.802   0.062   1.180  0.00  0.00     0.034 A 
ATOM      4  C3  UNL d   1      -0.321  -1.224   1.454  0.00  0.00     0.017 A 
ATOM      5  C4  UNL d   1       0.778  -1.720   0.743  0.00  0.00     0.017 A 
ATOM      6  C5  UNL d   1       1.388  -0.929  -0.235  0.00  0.00     0.034 A 
ATOM      7 Cl   UNL d   1       1.428  -3.297   1.025  0.00  0.00    -0.070 Cl
ATOM      8 Cl1  UNL d   1      -1.127  -2.140   2.677  0.00  0.00    -0.070 Cl
ENDROOT
TORSDOF 0
ENDMDL
