MODEL 1
REMARK minimizedAffinity -2.51376033
REMARK minimizedRMSD -1
REMARK  0 active torsions:
REMARK  status: ('A' for Active; 'I' for Inactive)
ROOT
ATOM      1  C   UNL d   1       1.536  -0.249  -0.507  0.00  0.00     0.020 A 
ATOM      2  C1  UNL d   1       0.305   0.400  -0.422  0.00  0.00     0.020 A 
ATOM      3  C2  UNL d   1      -0.580   0.087   0.611  0.00  0.00     0.034 A 
ATOM      4  C3  UNL d   1      -0.235  -0.879   1.564  0.00  0.00     0.017 A 
ATOM      5  C4  UNL d   1       1.001  -1.530   1.478  0.00  0.00     0.017 A 
ATOM      6  C5  UNL d   1       1.883  -1.212   0.441  0.00  0.00     0.034 A 
ATOM      7 Cl   UNL d   1       1.496  -2.733   2.617  0.00  0.00    -0.070 Cl
ATOM      8 Cl1  UNL d   1      -1.378  -1.217   2.815  0.00  0.00    -0.070 Cl
ENDROOT
TORSDOF 0
ENDMDL
