MODEL 1
REMARK minimizedAffinity -5.61247015
REMARK minimizedRMSD -1
REMARK  0 active torsions:
REMARK  status: ('A' for Active; 'I' for Inactive)
ROOT
ATOM      1  C   UNL d   1      -0.241  -2.169   2.669  0.00  0.00     0.020 A 
ATOM      2  C1  UNL d   1       0.917  -2.793   2.206  0.00  0.00     0.020 A 
ATOM      3  C2  UNL d   1       1.633  -2.236   1.144  0.00  0.00     0.034 A 
ATOM      4  C3  UNL d   1       1.192  -1.052   0.542  0.00  0.00     0.017 A 
ATOM      5  C4  UNL d   1       0.030  -0.426   1.008  0.00  0.00     0.017 A 
ATOM      6  C5  UNL d   1      -0.683  -0.988   2.071  0.00  0.00     0.034 A 
ATOM      7 Cl   UNL d   1      -0.576   1.037   0.316  0.00  0.00    -0.070 Cl
ATOM      8 Cl1  UNL d   1       2.127  -0.419  -0.766  0.00  0.00    -0.070 Cl
ENDROOT
TORSDOF 0
ENDMDL
