MODEL 1
REMARK minimizedAffinity -5.36845636
REMARK minimizedRMSD -1
REMARK  0 active torsions:
REMARK  status: ('A' for Active; 'I' for Inactive)
ROOT
ATOM      1  C   UNL d   1       1.432  -3.227   1.603  0.00  0.00     0.020 A 
ATOM      2  C1  UNL d   1       1.870  -2.628   0.422  0.00  0.00     0.020 A 
ATOM      3  C2  UNL d   1       1.254  -1.463  -0.040  0.00  0.00     0.034 A 
ATOM      4  C3  UNL d   1       0.196  -0.894   0.679  0.00  0.00     0.017 A 
ATOM      5  C4  UNL d   1      -0.243  -1.496   1.863  0.00  0.00     0.017 A 
ATOM      6  C5  UNL d   1       0.378  -2.662   2.322  0.00  0.00     0.034 A 
ATOM      7 Cl   UNL d   1      -1.542  -0.852   2.804  0.00  0.00    -0.070 Cl
ATOM      8 Cl1  UNL d   1      -0.519   0.547   0.049  0.00  0.00    -0.070 Cl
ENDROOT
TORSDOF 0
ENDMDL
