MODEL 1
REMARK minimizedAffinity -3.00976562
REMARK minimizedRMSD -1
REMARK  0 active torsions:
REMARK  status: ('A' for Active; 'I' for Inactive)
ROOT
ATOM      1  C   UNL d   1       1.580  -2.534   0.849  0.00  0.00     0.020 A 
ATOM      2  C1  UNL d   1       0.221  -2.446   1.149  0.00  0.00     0.020 A 
ATOM      3  C2  UNL d   1      -0.506  -1.315   0.771  0.00  0.00     0.034 A 
ATOM      4  C3  UNL d   1       0.125  -0.267   0.091  0.00  0.00     0.017 A 
ATOM      5  C4  UNL d   1       1.489  -0.356  -0.210  0.00  0.00     0.017 A 
ATOM      6  C5  UNL d   1       2.212  -1.491   0.171  0.00  0.00     0.034 A 
ATOM      7 Cl   UNL d   1       2.337   0.896  -1.046  0.00  0.00    -0.070 Cl
ATOM      8 Cl1  UNL d   1      -0.836   1.101  -0.346  0.00  0.00    -0.070 Cl
ENDROOT
TORSDOF 0
ENDMDL
