MODEL 1
REMARK minimizedAffinity -3.99585867
REMARK minimizedRMSD -1
REMARK  0 active torsions:
REMARK  status: ('A' for Active; 'I' for Inactive)
ROOT
ATOM      1  C   UNL d   1       2.342  -1.719   0.569  0.00  0.00     0.020 A 
ATOM      2  C1  UNL d   1       1.990  -2.409   1.728  0.00  0.00     0.020 A 
ATOM      3  C2  UNL d   1       0.758  -2.167   2.338  0.00  0.00     0.034 A 
ATOM      4  C3  UNL d   1      -0.127  -1.231   1.790  0.00  0.00     0.017 A 
ATOM      5  C4  UNL d   1       0.227  -0.538   0.627  0.00  0.00     0.017 A 
ATOM      6  C5  UNL d   1       1.462  -0.785   0.020  0.00  0.00     0.034 A 
ATOM      7 Cl   UNL d   1      -0.812   0.631  -0.108  0.00  0.00    -0.070 Cl
ATOM      8 Cl1  UNL d   1      -1.634  -0.981   2.597  0.00  0.00    -0.070 Cl
ENDROOT
TORSDOF 0
ENDMDL
