MODEL 1
REMARK minimizedAffinity -0.918347716
REMARK minimizedRMSD -1
REMARK  0 active torsions:
REMARK  status: ('A' for Active; 'I' for Inactive)
ROOT
ATOM      1  C   UNL d   1      -1.164  -0.070   0.727  0.00  0.00     0.020 A 
ATOM      2  C1  UNL d   1      -1.016   1.103  -0.012  0.00  0.00     0.020 A 
ATOM      3  C2  UNL d   1       0.239   1.459  -0.512  0.00  0.00     0.034 A 
ATOM      4  C3  UNL d   1       1.350   0.642  -0.273  0.00  0.00     0.017 A 
ATOM      5  C4  UNL d   1       1.200  -0.535   0.469  0.00  0.00     0.017 A 
ATOM      6  C5  UNL d   1      -0.059  -0.887   0.967  0.00  0.00     0.034 A 
ATOM      7 Cl   UNL d   1       2.524  -1.594   0.805  0.00  0.00    -0.070 Cl
ATOM      8 Cl1  UNL d   1       2.871   1.144  -0.921  0.00  0.00    -0.070 Cl
ENDROOT
TORSDOF 0
ENDMDL
