MODEL 1
REMARK minimizedAffinity 8.00756931
REMARK minimizedRMSD -1
REMARK  0 active torsions:
REMARK  status: ('A' for Active; 'I' for Inactive)
ROOT
ATOM      1  C1  DEN d   1       1.292   0.565   3.007  0.00  0.00     0.130 A 
ATOM      2  C2  DEN d   1       0.470   1.566   2.333  0.00  0.00    -0.031 A 
ATOM      3  C3  DEN d   1       1.278   2.166   1.252  0.00  0.00     0.027 A 
ATOM      4  C4  DEN d   1       3.706   1.641   0.558  0.00  0.00     0.027 A 
ATOM      5  C5  DEN d   1       4.814   0.874   0.843  0.00  0.00    -0.003 A 
ATOM      6  C6  DEN d   1       4.837  -0.018   1.882  0.00  0.00     0.001 A 
ATOM      7  C7  DEN d   1       3.715  -0.198   2.647  0.00  0.00     0.017 A 
ATOM      8  C8  DEN d   1       2.596   0.577   2.370  0.00  0.00    -0.094 A 
ATOM      9  C9  DEN d   1       2.588   1.465   1.308  0.00  0.00    -0.072 A 
ENDROOT
TORSDOF 0
ENDMDL
