MODEL 1
REMARK minimizedAffinity -0.424463779
REMARK minimizedRMSD -1
REMARK  0 active torsions:
REMARK  status: ('A' for Active; 'I' for Inactive)
ROOT
ATOM      1  C1  DEN d   1      -5.532   3.663   2.150  0.00  0.00     0.130 A 
ATOM      2  C2  DEN d   1      -5.986   4.854   1.436  0.00  0.00    -0.031 A 
ATOM      3  C3  DEN d   1      -6.000   5.981   2.390  0.00  0.00     0.027 A 
ATOM      4  C4  DEN d   1      -5.360   6.000   4.888  0.00  0.00     0.027 A 
ATOM      5  C5  DEN d   1      -4.926   5.226   5.942  0.00  0.00    -0.003 A 
ATOM      6  C6  DEN d   1      -4.698   3.881   5.815  0.00  0.00     0.001 A 
ATOM      7  C7  DEN d   1      -4.860   3.278   4.596  0.00  0.00     0.017 A 
ATOM      8  C8  DEN d   1      -5.305   4.050   3.531  0.00  0.00    -0.094 A 
ATOM      9  C9  DEN d   1      -5.518   5.410   3.676  0.00  0.00    -0.072 A 
ENDROOT
TORSDOF 0
ENDMDL
