MODEL 1
REMARK minimizedAffinity 18.5322323
REMARK minimizedRMSD -1
REMARK  0 active torsions:
REMARK  status: ('A' for Active; 'I' for Inactive)
ROOT
ATOM      1  C1  DEN d   1      -2.579  -3.828   0.672  0.00  0.00     0.130 A 
ATOM      2  C2  DEN d   1      -2.800  -2.420   0.993  0.00  0.00    -0.031 A 
ATOM      3  C3  DEN d   1      -3.376  -1.765  -0.198  0.00  0.00     0.027 A 
ATOM      4  C4  DEN d   1      -3.950  -2.789  -2.495  0.00  0.00     0.027 A 
ATOM      5  C5  DEN d   1      -3.930  -3.943  -3.246  0.00  0.00    -0.003 A 
ATOM      6  C6  DEN d   1      -3.431  -5.122  -2.760  0.00  0.00     0.001 A 
ATOM      7  C7  DEN d   1      -2.972  -5.184  -1.470  0.00  0.00     0.017 A 
ATOM      8  C8  DEN d   1      -2.983  -4.023  -0.709  0.00  0.00    -0.094 A 
ATOM      9  C9  DEN d   1      -3.503  -2.844  -1.215  0.00  0.00    -0.072 A 
ENDROOT
TORSDOF 0
ENDMDL
