MODEL 1
REMARK minimizedAffinity 5.55938482
REMARK minimizedRMSD -1
REMARK  0 active torsions:
REMARK  status: ('A' for Active; 'I' for Inactive)
ROOT
ATOM      1  C1  DEN d   1       4.407   3.620   1.075  0.00  0.00     0.130 A 
ATOM      2  C2  DEN d   1       3.635   4.831   1.339  0.00  0.00    -0.031 A 
ATOM      3  C3  DEN d   1       2.225   4.440   1.534  0.00  0.00     0.027 A 
ATOM      4  C4  DEN d   1       1.167   2.089   1.457  0.00  0.00     0.027 A 
ATOM      5  C5  DEN d   1       1.421   0.750   1.255  0.00  0.00    -0.003 A 
ATOM      6  C6  DEN d   1       2.671   0.282   0.947  0.00  0.00     0.001 A 
ATOM      7  C7  DEN d   1       3.724   1.154   0.878  0.00  0.00     0.017 A 
ATOM      8  C8  DEN d   1       3.475   2.507   1.073  0.00  0.00    -0.094 A 
ATOM      9  C9  DEN d   1       2.207   2.959   1.395  0.00  0.00    -0.072 A 
ENDROOT
TORSDOF 0
ENDMDL
