MODEL 1
REMARK minimizedAffinity 18.8653469
REMARK minimizedRMSD -1
REMARK  0 active torsions:
REMARK  status: ('A' for Active; 'I' for Inactive)
ROOT
ATOM      1  C1  DEN d   1      -4.425   2.574   4.546  0.00  0.00     0.130 A 
ATOM      2  C2  DEN d   1      -4.158   3.055   5.899  0.00  0.00    -0.031 A 
ATOM      3  C3  DEN d   1      -4.569   4.472   5.968  0.00  0.00     0.027 A 
ATOM      4  C4  DEN d   1      -5.592   5.958   4.125  0.00  0.00     0.027 A 
ATOM      5  C5  DEN d   1      -5.995   5.995   2.808  0.00  0.00    -0.003 A 
ATOM      6  C6  DEN d   1      -5.873   4.914   1.976  0.00  0.00     0.001 A 
ATOM      7  C7  DEN d   1      -5.376   3.734   2.464  0.00  0.00     0.017 A 
ATOM      8  C8  DEN d   1      -4.960   3.691   3.789  0.00  0.00    -0.094 A 
ATOM      9  C9  DEN d   1      -5.104   4.791   4.617  0.00  0.00    -0.072 A 
ENDROOT
TORSDOF 0
ENDMDL
