MODEL 1
REMARK minimizedAffinity 22.7739029
REMARK minimizedRMSD -1
REMARK  0 active torsions:
REMARK  status: ('A' for Active; 'I' for Inactive)
ROOT
ATOM      1  C1  DEN d   1      -0.040   1.603   3.864  0.00  0.00     0.130 A 
ATOM      2  C2  DEN d   1       0.464   0.246   4.061  0.00  0.00    -0.031 A 
ATOM      3  C3  DEN d   1      -0.641  -0.695   3.789  0.00  0.00     0.027 A 
ATOM      4  C4  DEN d   1      -3.068  -0.187   3.080  0.00  0.00     0.027 A 
ATOM      5  C5  DEN d   1      -3.968   0.817   2.798  0.00  0.00    -0.003 A 
ATOM      6  C6  DEN d   1      -3.634   2.143   2.883  0.00  0.00     0.001 A 
ATOM      7  C7  DEN d   1      -2.355   2.500   3.217  0.00  0.00     0.017 A 
ATOM      8  C8  DEN d   1      -1.444   1.494   3.510  0.00  0.00    -0.094 A 
ATOM      9  C9  DEN d   1      -1.797   0.159   3.406  0.00  0.00    -0.072 A 
ENDROOT
TORSDOF 0
ENDMDL
