MODEL 1
REMARK minimizedAffinity 9.14915466
REMARK minimizedRMSD -1
REMARK  0 active torsions:
REMARK  status: ('A' for Active; 'I' for Inactive)
ROOT
ATOM      1  C1  DEN d   1       3.178   6.000   2.235  0.00  0.00     0.130 A 
ATOM      2  C2  DEN d   1       4.525   5.457   2.084  0.00  0.00    -0.031 A 
ATOM      3  C3  DEN d   1       4.405   4.051   1.648  0.00  0.00     0.027 A 
ATOM      4  C4  DEN d   1       2.274   2.671   1.191  0.00  0.00     0.027 A 
ATOM      5  C5  DEN d   1       0.897   2.698   1.195  0.00  0.00    -0.003 A 
ATOM      6  C6  DEN d   1       0.190   3.807   1.575  0.00  0.00     0.001 A 
ATOM      7  C7  DEN d   1       0.857   4.951   1.924  0.00  0.00     0.017 A 
ATOM      8  C8  DEN d   1       2.246   4.930   1.930  0.00  0.00    -0.094 A 
ATOM      9  C9  DEN d   1       2.943   3.802   1.531  0.00  0.00    -0.072 A 
ENDROOT
TORSDOF 0
ENDMDL
