MODEL 1
REMARK minimizedAffinity 6.92428684
REMARK minimizedRMSD -1
REMARK  0 active torsions:
REMARK  status: ('A' for Active; 'I' for Inactive)
ROOT
ATOM      1  C1  DEN d   1       4.109   6.000  -5.998  0.00  0.00     0.130 A 
ATOM      2  C2  DEN d   1       5.551   5.894  -5.800  0.00  0.00    -0.031 A 
ATOM      3  C3  DEN d   1       5.790   4.982  -4.663  0.00  0.00     0.027 A 
ATOM      4  C4  DEN d   1       4.074   3.727  -3.202  0.00  0.00     0.027 A 
ATOM      5  C5  DEN d   1       2.732   3.511  -2.982  0.00  0.00    -0.003 A 
ATOM      6  C6  DEN d   1       1.761   4.132  -3.724  0.00  0.00     0.001 A 
ATOM      7  C7  DEN d   1       2.120   4.963  -4.751  0.00  0.00     0.017 A 
ATOM      8  C8  DEN d   1       3.472   5.191  -4.975  0.00  0.00    -0.094 A 
ATOM      9  C9  DEN d   1       4.438   4.545  -4.222  0.00  0.00    -0.072 A 
ENDROOT
TORSDOF 0
ENDMDL
