MODEL 1
REMARK minimizedAffinity 12.9023085
REMARK minimizedRMSD -1
REMARK  0 active torsions:
REMARK  status: ('A' for Active; 'I' for Inactive)
ROOT
ATOM      1  C1  DEN d   1      -0.167  -1.798   0.742  0.00  0.00     0.130 A 
ATOM      2  C2  DEN d   1      -1.037  -2.066   1.884  0.00  0.00    -0.031 A 
ATOM      3  C3  DEN d   1      -0.762  -1.047   2.916  0.00  0.00     0.027 A 
ATOM      4  C4  DEN d   1       0.913   0.914   2.855  0.00  0.00     0.027 A 
ATOM      5  C5  DEN d   1       1.881   1.540   2.101  0.00  0.00    -0.003 A 
ATOM      6  C6  DEN d   1       2.254   1.082   0.865  0.00  0.00     0.001 A 
ATOM      7  C7  DEN d   1       1.624  -0.009   0.327  0.00  0.00     0.017 A 
ATOM      8  C8  DEN d   1       0.653  -0.651   1.085  0.00  0.00    -0.094 A 
ATOM      9  C9  DEN d   1       0.281  -0.165   2.327  0.00  0.00    -0.072 A 
ENDROOT
TORSDOF 0
ENDMDL
