MODEL 1
REMARK minimizedAffinity 13.2200317
REMARK minimizedRMSD -1
REMARK  0 active torsions:
REMARK  status: ('A' for Active; 'I' for Inactive)
ROOT
ATOM      1  C1  DEN d   1      -0.679   5.466  -1.808  0.00  0.00     0.130 A 
ATOM      2  C2  DEN d   1      -1.951   5.062  -1.216  0.00  0.00    -0.031 A 
ATOM      3  C3  DEN d   1      -2.020   3.587  -1.244  0.00  0.00     0.027 A 
ATOM      4  C4  DEN d   1      -0.287   1.899  -2.137  0.00  0.00     0.027 A 
ATOM      5  C5  DEN d   1       0.943   1.767  -2.743  0.00  0.00    -0.003 A 
ATOM      6  C6  DEN d   1       1.698   2.851  -3.107  0.00  0.00     0.001 A 
ATOM      7  C7  DEN d   1       1.249   4.115  -2.828  0.00  0.00     0.017 A 
ATOM      8  C8  DEN d   1       0.006   4.256  -2.224  0.00  0.00    -0.094 A 
ATOM      9  C9  DEN d   1      -0.736   3.147  -1.853  0.00  0.00    -0.072 A 
ENDROOT
TORSDOF 0
ENDMDL
