MODEL 1
REMARK minimizedAffinity 0.309910178
REMARK minimizedRMSD -1
REMARK  0 active torsions:
REMARK  status: ('A' for Active; 'I' for Inactive)
ROOT
ATOM      1  C1  DEN d   1       4.083   2.895  -4.096  0.00  0.00     0.130 A 
ATOM      2  C2  DEN d   1       5.463   3.366  -4.177  0.00  0.00    -0.031 A 
ATOM      3  C3  DEN d   1       5.461   4.670  -4.871  0.00  0.00     0.027 A 
ATOM      4  C4  DEN d   1       3.464   5.999  -5.818  0.00  0.00     0.027 A 
ATOM      5  C5  DEN d   1       2.098   5.998  -5.998  0.00  0.00    -0.003 A 
ATOM      6  C6  DEN d   1       1.309   4.956  -5.590  0.00  0.00     0.001 A 
ATOM      7  C7  DEN d   1       1.874   3.890  -4.940  0.00  0.00     0.017 A 
ATOM      8  C8  DEN d   1       3.251   3.881  -4.762  0.00  0.00    -0.094 A 
ATOM      9  C9  DEN d   1       4.031   4.950  -5.171  0.00  0.00    -0.072 A 
ENDROOT
TORSDOF 0
ENDMDL
