MODEL 1
REMARK minimizedAffinity 17.4927177
REMARK minimizedRMSD -1
REMARK  0 active torsions:
REMARK  status: ('A' for Active; 'I' for Inactive)
ROOT
ATOM      1  C1  DEN d   1       4.161  -0.034  -5.999  0.00  0.00     0.130 A 
ATOM      2  C2  DEN d   1       5.253  -0.966  -5.732  0.00  0.00    -0.031 A 
ATOM      3  C3  DEN d   1       6.000  -0.469  -4.558  0.00  0.00     0.027 A 
ATOM      4  C4  DEN d   1       5.569   1.637  -3.133  0.00  0.00     0.027 A 
ATOM      5  C5  DEN d   1       4.764   2.744  -2.981  0.00  0.00    -0.003 A 
ATOM      6  C6  DEN d   1       3.730   3.018  -3.837  0.00  0.00     0.001 A 
ATOM      7  C7  DEN d   1       3.446   2.151  -4.858  0.00  0.00     0.017 A 
ATOM      8  C8  DEN d   1       4.259   1.036  -5.023  0.00  0.00    -0.094 A 
ATOM      9  C9  DEN d   1       5.291   0.770  -4.140  0.00  0.00    -0.072 A 
ENDROOT
TORSDOF 0
ENDMDL
