MODEL 1
REMARK minimizedAffinity 14.8449011
REMARK minimizedRMSD -1
REMARK  0 active torsions:
REMARK  status: ('A' for Active; 'I' for Inactive)
ROOT
ATOM      1  C1  DEN d   1       1.429   2.442   1.089  0.00  0.00     0.130 A 
ATOM      2  C2  DEN d   1       1.022   1.699   2.278  0.00  0.00    -0.031 A 
ATOM      3  C3  DEN d   1       1.866   0.491   2.372  0.00  0.00     0.027 A 
ATOM      4  C4  DEN d   1       3.755  -0.295   0.802  0.00  0.00     0.027 A 
ATOM      5  C5  DEN d   1       4.454  -0.001  -0.348  0.00  0.00    -0.003 A 
ATOM      6  C6  DEN d   1       4.174   1.101  -1.111  0.00  0.00     0.001 A 
ATOM      7  C7  DEN d   1       3.198   1.974  -0.710  0.00  0.00     0.017 A 
ATOM      8  C8  DEN d   1       2.483   1.681   0.444  0.00  0.00    -0.094 A 
ATOM      9  C9  DEN d   1       2.790   0.568   1.209  0.00  0.00    -0.072 A 
ENDROOT
TORSDOF 0
ENDMDL
