MODEL 1
REMARK minimizedAffinity 13.2068367
REMARK minimizedRMSD -1
REMARK  0 active torsions:
REMARK  status: ('A' for Active; 'I' for Inactive)
ROOT
ATOM      1  C1  DEN d   1      -1.223  -4.516  -3.337  0.00  0.00     0.130 A 
ATOM      2  C2  DEN d   1      -1.258  -3.163  -3.885  0.00  0.00    -0.031 A 
ATOM      3  C3  DEN d   1      -2.616  -2.622  -3.678  0.00  0.00     0.027 A 
ATOM      4  C4  DEN d   1      -4.656  -3.741  -2.565  0.00  0.00     0.027 A 
ATOM      5  C5  DEN d   1      -5.114  -4.890  -1.958  0.00  0.00    -0.003 A 
ATOM      6  C6  DEN d   1      -4.324  -5.997  -1.800  0.00  0.00     0.001 A 
ATOM      7  C7  DEN d   1      -3.019  -5.964  -2.214  0.00  0.00     0.017 A 
ATOM      8  C8  DEN d   1      -2.552  -4.813  -2.834  0.00  0.00    -0.094 A 
ATOM      9  C9  DEN d   1      -3.363  -3.699  -2.973  0.00  0.00    -0.072 A 
ENDROOT
TORSDOF 0
ENDMDL
