MODEL 1
REMARK minimizedAffinity 5.19717216
REMARK minimizedRMSD -1
REMARK  0 active torsions:
REMARK  status: ('A' for Active; 'I' for Inactive)
ROOT
ATOM      1  C1  DEN d   1      -0.754  -2.068   0.004  0.00  0.00     0.130 A 
ATOM      2  C2  DEN d   1       0.637  -2.513   0.013  0.00  0.00    -0.031 A 
ATOM      3  C3  DEN d   1       0.915  -3.168  -1.281  0.00  0.00     0.027 A 
ATOM      4  C4  DEN d   1      -0.663  -3.529  -3.290  0.00  0.00     0.027 A 
ATOM      5  C5  DEN d   1      -1.942  -3.334  -3.761  0.00  0.00    -0.003 A 
ATOM      6  C6  DEN d   1      -2.916  -2.739  -3.004  0.00  0.00     0.001 A 
ATOM      7  C7  DEN d   1      -2.614  -2.276  -1.751  0.00  0.00     0.017 A 
ATOM      8  C8  DEN d   1      -1.329  -2.476  -1.266  0.00  0.00    -0.094 A 
ATOM      9  C9  DEN d   1      -0.354  -3.069  -2.051  0.00  0.00    -0.072 A 
ENDROOT
TORSDOF 0
ENDMDL
