MODEL 1
REMARK minimizedAffinity 15.1035919
REMARK minimizedRMSD -1
REMARK  0 active torsions:
REMARK  status: ('A' for Active; 'I' for Inactive)
ROOT
ATOM      1  C1  DEN d   1      -1.860  -3.354  -5.852  0.00  0.00     0.130 A 
ATOM      2  C2  DEN d   1      -0.711  -2.465  -5.998  0.00  0.00    -0.031 A 
ATOM      3  C3  DEN d   1      -0.446  -1.841  -4.686  0.00  0.00     0.027 A 
ATOM      4  C4  DEN d   1      -1.695  -2.166  -2.453  0.00  0.00     0.027 A 
ATOM      5  C5  DEN d   1      -2.744  -2.813  -1.837  0.00  0.00    -0.003 A 
ATOM      6  C6  DEN d   1      -3.586  -3.651  -2.519  0.00  0.00     0.001 A 
ATOM      7  C7  DEN d   1      -3.366  -3.902  -3.847  0.00  0.00     0.017 A 
ATOM      8  C8  DEN d   1      -2.314  -3.248  -4.477  0.00  0.00    -0.094 A 
ATOM      9  C9  DEN d   1      -1.467  -2.413  -3.768  0.00  0.00    -0.072 A 
ENDROOT
TORSDOF 0
ENDMDL
