MODEL 1
REMARK minimizedAffinity -5.24229288
REMARK minimizedRMSD -1
REMARK  0 active torsions:
REMARK  status: ('A' for Active; 'I' for Inactive)
ROOT
ATOM      1  C2' OXE d   1       1.095   1.030   0.255  0.00  0.00     0.078 C 
ATOM      2  C1' OXE d   1      -1.621   1.525   0.765  0.00  0.00     0.078 C 
ATOM      3  C1  OXE d   1      -1.184   0.089   0.611  0.00  0.00    -0.078 A 
ATOM      4  C2  OXE d   1       0.139  -0.141   0.316  0.00  0.00    -0.078 A 
ATOM      5  C3  OXE d   1       0.605  -1.449   0.218  0.00  0.00     0.003 A 
ATOM      6  C4  OXE d   1      -0.288  -2.526   0.265  0.00  0.00    -0.002 A 
ATOM      7  C5  OXE d   1      -1.646  -2.311   0.526  0.00  0.00    -0.002 A 
ATOM      8  C6  OXE d   1      -2.101  -1.015   0.743  0.00  0.00     0.003 A 
ENDROOT
TORSDOF 0
ENDMDL
