MODEL 1
REMARK minimizedAffinity -4.59020805
REMARK minimizedRMSD -1
REMARK  0 active torsions:
REMARK  status: ('A' for Active; 'I' for Inactive)
ROOT
ATOM      1  C2' OXE d   1      -2.557   0.385   0.844  0.00  0.00     0.078 C 
ATOM      2  C1' OXE d   1      -1.559  -2.236   0.954  0.00  0.00     0.078 C 
ATOM      3  C1  OXE d   1      -0.599  -1.133   0.583  0.00  0.00    -0.078 A 
ATOM      4  C2  OXE d   1      -1.107   0.140   0.486  0.00  0.00    -0.078 A 
ATOM      5  C3  OXE d   1      -0.254   1.203   0.201  0.00  0.00     0.003 A 
ATOM      6  C4  OXE d   1       1.083   0.966  -0.139  0.00  0.00    -0.002 A 
ATOM      7  C5  OXE d   1       1.611  -0.328  -0.085  0.00  0.00    -0.002 A 
ATOM      8  C6  OXE d   1       0.796  -1.381   0.315  0.00  0.00     0.003 A 
ENDROOT
TORSDOF 0
ENDMDL
