MODEL 1
REMARK minimizedAffinity -6.61813354
REMARK minimizedRMSD -1
REMARK  0 active torsions:
REMARK  status: ('A' for Active; 'I' for Inactive)
ROOT
ATOM      1  C2' OXE d   1       1.600  -1.575   0.275  0.00  0.00     0.078 C 
ATOM      2  C1' OXE d   1       0.342   0.927   0.085  0.00  0.00     0.078 C 
ATOM      3  C1  OXE d   1      -0.434  -0.205   0.709  0.00  0.00    -0.078 A 
ATOM      4  C2  OXE d   1       0.172  -1.437   0.756  0.00  0.00    -0.078 A 
ATOM      5  C3  OXE d   1      -0.479  -2.503   1.371  0.00  0.00     0.003 A 
ATOM      6  C4  OXE d   1      -1.804  -2.370   1.804  0.00  0.00    -0.002 A 
ATOM      7  C5  OXE d   1      -2.454  -1.133   1.729  0.00  0.00    -0.002 A 
ATOM      8  C6  OXE d   1      -1.770  -0.033   1.225  0.00  0.00     0.003 A 
ENDROOT
TORSDOF 0
ENDMDL
