MODEL 1
REMARK minimizedAffinity -4.02350569
REMARK minimizedRMSD -1
REMARK  0 active torsions:
REMARK  status: ('A' for Active; 'I' for Inactive)
ROOT
ATOM      1  C2' OXE d   1       2.183  -0.859   0.742  0.00  0.00     0.078 C 
ATOM      2  C1' OXE d   1       0.698   1.061  -0.669  0.00  0.00     0.078 C 
ATOM      3  C1  OXE d   1      -0.017  -0.187  -0.214  0.00  0.00    -0.078 A 
ATOM      4  C2  OXE d   1       0.729  -1.142   0.435  0.00  0.00    -0.078 A 
ATOM      5  C3  OXE d   1       0.107  -2.287   0.924  0.00  0.00     0.003 A 
ATOM      6  C4  OXE d   1      -1.237  -2.546   0.627  0.00  0.00    -0.002 A 
ATOM      7  C5  OXE d   1      -2.005  -1.605  -0.067  0.00  0.00    -0.002 A 
ATOM      8  C6  OXE d   1      -1.422  -0.404  -0.457  0.00  0.00     0.003 A 
ENDROOT
TORSDOF 0
ENDMDL
