MODEL 1
REMARK minimizedAffinity -3.59248042
REMARK minimizedRMSD -1
REMARK  0 active torsions:
REMARK  status: ('A' for Active; 'I' for Inactive)
ROOT
ATOM      1  C2' OXE d   1      -1.602  -2.620   1.465  0.00  0.00     0.078 C 
ATOM      2  C1' OXE d   1      -2.585   0.008   1.377  0.00  0.00     0.078 C 
ATOM      3  C1  OXE d   1      -1.243  -0.262   0.746  0.00  0.00    -0.078 A 
ATOM      4  C2  OXE d   1      -0.748  -1.541   0.834  0.00  0.00    -0.078 A 
ATOM      5  C3  OXE d   1       0.461  -1.856   0.221  0.00  0.00     0.003 A 
ATOM      6  C4  OXE d   1       1.249  -0.851  -0.351  0.00  0.00    -0.002 A 
ATOM      7  C5  OXE d   1       0.782   0.466  -0.417  0.00  0.00    -0.002 A 
ATOM      8  C6  OXE d   1      -0.478   0.769   0.088  0.00  0.00     0.003 A 
ENDROOT
TORSDOF 0
ENDMDL
