MODEL 1
REMARK minimizedAffinity -4.92073393
REMARK minimizedRMSD -1
REMARK  0 active torsions:
REMARK  status: ('A' for Active; 'I' for Inactive)
ROOT
ATOM      1  C2' OXE d   1      -2.950   0.198   0.282  0.00  0.00     0.078 C 
ATOM      2  C1' OXE d   1      -1.935  -2.396   0.629  0.00  0.00     0.078 C 
ATOM      3  C1  OXE d   1      -0.957  -1.248   0.659  0.00  0.00    -0.078 A 
ATOM      4  C2  OXE d   1      -1.456   0.013   0.442  0.00  0.00    -0.078 A 
ATOM      5  C3  OXE d   1      -0.606   1.113   0.513  0.00  0.00     0.003 A 
ATOM      6  C4  OXE d   1       0.776   0.932   0.651  0.00  0.00    -0.002 A 
ATOM      7  C5  OXE d   1       1.310  -0.347   0.834  0.00  0.00    -0.002 A 
ATOM      8  C6  OXE d   1       0.454  -1.442   0.883  0.00  0.00     0.003 A 
ENDROOT
TORSDOF 0
ENDMDL
