MODEL 1
REMARK minimizedAffinity -3.58909488
REMARK minimizedRMSD -1
REMARK  0 active torsions:
REMARK  status: ('A' for Active; 'I' for Inactive)
ROOT
ATOM      1  C2' OXE d   1      -1.679  -2.388   1.021  0.00  0.00     0.078 C 
ATOM      2  C1' OXE d   1      -2.604   0.223   0.566  0.00  0.00     0.078 C 
ATOM      3  C1  OXE d   1      -1.128  -0.040   0.399  0.00  0.00    -0.078 A 
ATOM      4  C2  OXE d   1      -0.677  -1.310   0.669  0.00  0.00    -0.078 A 
ATOM      5  C3  OXE d   1       0.666  -1.620   0.479  0.00  0.00     0.003 A 
ATOM      6  C4  OXE d   1       1.588  -0.614   0.164  0.00  0.00    -0.002 A 
ATOM      7  C5  OXE d   1       1.156   0.695  -0.077  0.00  0.00    -0.002 A 
ATOM      8  C6  OXE d   1      -0.201   0.988  -0.005  0.00  0.00     0.003 A 
ENDROOT
TORSDOF 0
ENDMDL
