MODEL 1
REMARK minimizedAffinity -5.19542313
REMARK minimizedRMSD -1
REMARK  0 active torsions:
REMARK  status: ('A' for Active; 'I' for Inactive)
ROOT
ATOM      1  C2' OXE d   1      -0.020   1.582   0.042  0.00  0.00     0.078 C 
ATOM      2  C1' OXE d   1      -2.674   1.010   0.757  0.00  0.00     0.078 C 
ATOM      3  C1  OXE d   1      -1.707  -0.143   0.660  0.00  0.00    -0.078 A 
ATOM      4  C2  OXE d   1      -0.422   0.140   0.264  0.00  0.00    -0.078 A 
ATOM      5  C3  OXE d   1       0.523  -0.880   0.212  0.00  0.00     0.003 A 
ATOM      6  C4  OXE d   1       0.141  -2.213   0.409  0.00  0.00    -0.002 A 
ATOM      7  C5  OXE d   1      -1.172  -2.527   0.775  0.00  0.00    -0.002 A 
ATOM      8  C6  OXE d   1      -2.096  -1.502   0.946  0.00  0.00     0.003 A 
ENDROOT
TORSDOF 0
ENDMDL
