MODEL 1
REMARK minimizedAffinity -5.47304583
REMARK minimizedRMSD -1
REMARK  0 active torsions:
REMARK  status: ('A' for Active; 'I' for Inactive)
ROOT
ATOM      1  C2' OXE d   1       0.079   0.971  -0.043  0.00  0.00     0.078 C 
ATOM      2  C1' OXE d   1       1.036  -1.666  -0.128  0.00  0.00     0.078 C 
ATOM      3  C1  OXE d   1      -0.298  -1.423   0.533  0.00  0.00    -0.078 A 
ATOM      4  C2  OXE d   1      -0.736  -0.123   0.611  0.00  0.00    -0.078 A 
ATOM      5  C3  OXE d   1      -1.985   0.150   1.162  0.00  0.00     0.003 A 
ATOM      6  C4  OXE d   1      -2.728  -0.866   1.774  0.00  0.00    -0.002 A 
ATOM      7  C5  OXE d   1      -2.281  -2.191   1.741  0.00  0.00    -0.002 A 
ATOM      8  C6  OXE d   1      -1.091  -2.492   1.088  0.00  0.00     0.003 A 
ENDROOT
TORSDOF 0
ENDMDL
