MODEL 1
REMARK minimizedAffinity -4.23145008
REMARK minimizedRMSD -1
REMARK  0 active torsions:
REMARK  status: ('A' for Active; 'I' for Inactive)
ROOT
ATOM      1  C2' OXE d   1      -1.825  -2.373   1.137  0.00  0.00     0.078 C 
ATOM      2  C1' OXE d   1       0.935  -2.782   0.829  0.00  0.00     0.078 C 
ATOM      3  C1  OXE d   1       0.397  -1.396   0.577  0.00  0.00    -0.078 A 
ATOM      4  C2  OXE d   1      -0.961  -1.215   0.685  0.00  0.00    -0.078 A 
ATOM      5  C3  OXE d   1      -1.503   0.056   0.517  0.00  0.00     0.003 A 
ATOM      6  C4  OXE d   1      -0.698   1.119   0.089  0.00  0.00    -0.002 A 
ATOM      7  C5  OXE d   1       0.682   0.947  -0.065  0.00  0.00    -0.002 A 
ATOM      8  C6  OXE d   1       1.250  -0.290   0.216  0.00  0.00     0.003 A 
ENDROOT
TORSDOF 0
ENDMDL
