MODEL 1
REMARK minimizedAffinity -1.84541059
REMARK minimizedRMSD -1
REMARK  0 active torsions:
REMARK  status: ('A' for Active; 'I' for Inactive)
ROOT
ATOM      1  C2' OXE d   1      -2.714   0.249   0.803  0.00  0.00     0.078 C 
ATOM      2  C1' OXE d   1      -1.709  -2.368   0.951  0.00  0.00     0.078 C 
ATOM      3  C1  OXE d   1      -0.730  -1.253   0.682  0.00  0.00    -0.078 A 
ATOM      4  C2  OXE d   1      -1.237   0.019   0.565  0.00  0.00    -0.078 A 
ATOM      5  C3  OXE d   1      -0.371   1.092   0.372  0.00  0.00     0.003 A 
ATOM      6  C4  OXE d   1       0.993   0.869   0.142  0.00  0.00    -0.002 A 
ATOM      7  C5  OXE d   1       1.524  -0.423   0.218  0.00  0.00    -0.002 A 
ATOM      8  C6  OXE d   1       0.685  -1.487   0.528  0.00  0.00     0.003 A 
ENDROOT
TORSDOF 0
ENDMDL
