MODEL 1
REMARK minimizedAffinity 1.44691455
REMARK minimizedRMSD -1
REMARK  0 active torsions:
REMARK  status: ('A' for Active; 'I' for Inactive)
ROOT
ATOM      1  C2' OXE d   1      -0.830  -2.451   1.293  0.00  0.00     0.078 C 
ATOM      2  C1' OXE d   1      -2.352  -0.092   1.265  0.00  0.00     0.078 C 
ATOM      3  C1  OXE d   1      -1.052  -0.100   0.499  0.00  0.00    -0.078 A 
ATOM      4  C2  OXE d   1      -0.292  -1.243   0.557  0.00  0.00    -0.078 A 
ATOM      5  C3  OXE d   1       0.889  -1.323  -0.176  0.00  0.00     0.003 A 
ATOM      6  C4  OXE d   1       1.385  -0.198  -0.846  0.00  0.00    -0.002 A 
ATOM      7  C5  OXE d   1       0.646   0.989  -0.884  0.00  0.00    -0.002 A 
ATOM      8  C6  OXE d   1      -0.593   1.041  -0.253  0.00  0.00     0.003 A 
ENDROOT
TORSDOF 0
ENDMDL
