MODEL 1
REMARK minimizedAffinity -2.38202524
REMARK minimizedRMSD -1
REMARK  0 active torsions:
REMARK  status: ('A' for Active; 'I' for Inactive)
ROOT
ATOM      1  C2' OXE d   1       1.316  -2.732   0.310  0.00  0.00     0.078 C 
ATOM      2  C1' OXE d   1      -1.349  -2.795   1.189  0.00  0.00     0.078 C 
ATOM      3  C1  OXE d   1      -0.796  -1.475   0.713  0.00  0.00    -0.078 A 
ATOM      4  C2  OXE d   1       0.523  -1.443   0.328  0.00  0.00    -0.078 A 
ATOM      5  C3  OXE d   1       1.067  -0.264  -0.171  0.00  0.00     0.003 A 
ATOM      6  C4  OXE d   1       0.329   0.926  -0.142  0.00  0.00    -0.002 A 
ATOM      7  C5  OXE d   1      -1.004   0.924   0.283  0.00  0.00    -0.002 A 
ATOM      8  C6  OXE d   1      -1.593  -0.274   0.672  0.00  0.00     0.003 A 
ENDROOT
TORSDOF 0
ENDMDL
