MODEL 1
REMARK minimizedAffinity -3.49797606
REMARK minimizedRMSD -1
REMARK  0 active torsions:
REMARK  status: ('A' for Active; 'I' for Inactive)
ROOT
ATOM      1  C2' OXE d   1       0.692  -3.198   1.061  0.00  0.00     0.078 C 
ATOM      2  C1' OXE d   1      -2.030  -2.548   0.840  0.00  0.00     0.078 C 
ATOM      3  C1  OXE d   1      -1.022  -1.479   0.500  0.00  0.00    -0.078 A 
ATOM      4  C2  OXE d   1       0.308  -1.791   0.656  0.00  0.00    -0.078 A 
ATOM      5  C3  OXE d   1       1.280  -0.859   0.304  0.00  0.00     0.003 A 
ATOM      6  C4  OXE d   1       0.916   0.443  -0.060  0.00  0.00    -0.002 A 
ATOM      7  C5  OXE d   1      -0.433   0.793  -0.186  0.00  0.00    -0.002 A 
ATOM      8  C6  OXE d   1      -1.411  -0.166   0.048  0.00  0.00     0.003 A 
ENDROOT
TORSDOF 0
ENDMDL
