MODEL 1
REMARK minimizedAffinity -2.12104416
REMARK minimizedRMSD -1
REMARK  0 active torsions:
REMARK  status: ('A' for Active; 'I' for Inactive)
ROOT
ATOM      1  C2' OXE d   1       1.559  -0.849   1.309  0.00  0.00     0.078 C 
ATOM      2  C1' OXE d   1       0.284   1.619   0.903  0.00  0.00     0.078 C 
ATOM      3  C1  OXE d   1       1.651   1.426   0.297  0.00  0.00    -0.078 A 
ATOM      4  C2  OXE d   1       2.288   0.232   0.540  0.00  0.00    -0.078 A 
ATOM      5  C3  OXE d   1       3.528  -0.018  -0.041  0.00  0.00     0.003 A 
ATOM      6  C4  OXE d   1       4.199   0.991  -0.742  0.00  0.00    -0.002 A 
ATOM      7  C5  OXE d   1       3.586   2.228  -0.967  0.00  0.00    -0.002 A 
ATOM      8  C6  OXE d   1       2.297   2.446  -0.491  0.00  0.00     0.003 A 
ENDROOT
TORSDOF 0
ENDMDL
