MODEL 1
REMARK minimizedAffinity -5.66044569
REMARK minimizedRMSD -1
REMARK  0 active torsions:
REMARK  status: ('A' for Active; 'I' for Inactive)
ROOT
ATOM      1  C2' OXE d   1       1.980  -1.272   0.319  0.00  0.00     0.078 C 
ATOM      2  C1' OXE d   1       0.234   0.700  -0.653  0.00  0.00     0.078 C 
ATOM      3  C1  OXE d   1      -0.338  -0.361   0.254  0.00  0.00    -0.078 A 
ATOM      4  C2  OXE d   1       0.514  -1.348   0.688  0.00  0.00    -0.078 A 
ATOM      5  C3  OXE d   1       0.051  -2.320   1.570  0.00  0.00     0.003 A 
ATOM      6  C4  OXE d   1      -1.309  -2.390   1.897  0.00  0.00    -0.002 A 
ATOM      7  C5  OXE d   1      -2.201  -1.417   1.435  0.00  0.00    -0.002 A 
ATOM      8  C6  OXE d   1      -1.725  -0.374   0.649  0.00  0.00     0.003 A 
ENDROOT
TORSDOF 0
ENDMDL
