MODEL 1
REMARK minimizedAffinity -5.73726797
REMARK minimizedRMSD -1
REMARK  0 active torsions:
REMARK  status: ('A' for Active; 'I' for Inactive)
ROOT
ATOM      1  C2' OXE d   1       1.137  -1.311   0.260  0.00  0.00     0.078 C 
ATOM      2  C1' OXE d   1       0.205   1.334   0.379  0.00  0.00     0.078 C 
ATOM      3  C1  OXE d   1      -0.704   0.244   0.889  0.00  0.00    -0.078 A 
ATOM      4  C2  OXE d   1      -0.259  -1.052   0.784  0.00  0.00    -0.078 A 
ATOM      5  C3  OXE d   1      -1.035  -2.091   1.289  0.00  0.00     0.003 A 
ATOM      6  C4  OXE d   1      -2.329  -1.843   1.763  0.00  0.00    -0.002 A 
ATOM      7  C5  OXE d   1      -2.818  -0.535   1.842  0.00  0.00    -0.002 A 
ATOM      8  C6  OXE d   1      -2.003   0.522   1.450  0.00  0.00     0.003 A 
ENDROOT
TORSDOF 0
ENDMDL
