MODEL 1
REMARK minimizedAffinity -4.41130447
REMARK minimizedRMSD -1
REMARK  0 active torsions:
REMARK  status: ('A' for Active; 'I' for Inactive)
ROOT
ATOM      1  C2' OXE d   1      -3.267   0.595   0.587  0.00  0.00     0.078 C 
ATOM      2  C1' OXE d   1      -1.168   2.447   0.798  0.00  0.00     0.078 C 
ATOM      3  C1  OXE d   1      -0.809   0.985   0.697  0.00  0.00    -0.078 A 
ATOM      4  C2  OXE d   1      -1.844   0.083   0.641  0.00  0.00    -0.078 A 
ATOM      5  C3  OXE d   1      -1.568  -1.273   0.492  0.00  0.00     0.003 A 
ATOM      6  C4  OXE d   1      -0.249  -1.739   0.553  0.00  0.00    -0.002 A 
ATOM      7  C5  OXE d   1       0.818  -0.840   0.650  0.00  0.00    -0.002 A 
ATOM      8  C6  OXE d   1       0.557   0.526   0.680  0.00  0.00     0.003 A 
ENDROOT
TORSDOF 0
ENDMDL
