MODEL 1
REMARK minimizedAffinity -4.09611607
REMARK minimizedRMSD -1
REMARK  1 active torsions:
REMARK  status: ('A' for Active; 'I' for Inactive)
REMARK    1  A    between atoms: C1_2  and  C2_3 
ROOT
ATOM      1  C2  UNL d   1      -1.301   0.192  -1.508  0.00  0.00    -0.077 A 
ATOM      2  C3  UNL d   1      -1.274   0.209  -0.107  0.00  0.00     0.002 A 
ATOM      3  C4  UNL d   1      -0.066   0.371   0.575  0.00  0.00     0.002 A 
ATOM      4  C5  UNL d   1       1.122   0.522  -0.136  0.00  0.00    -0.004 A 
ATOM      5  C6  UNL d   1       1.106   0.504  -1.530  0.00  0.00     0.002 A 
ATOM      6  C7  UNL d   1      -0.100   0.341  -2.213  0.00  0.00     0.002 A 
ENDROOT
BRANCH   1   7
ATOM      7  C1  UNL d   1      -2.608   0.067  -2.245  0.00  0.00     0.055 C 
ATOM      8  C   UNL d   1      -2.484  -0.870  -3.438  0.00  0.00     0.019 C 
ENDBRANCH   1   7
TORSDOF 1
ENDMDL
