MODEL 1
REMARK minimizedAffinity -4.72584391
REMARK minimizedRMSD -1
REMARK  1 active torsions:
REMARK  status: ('A' for Active; 'I' for Inactive)
REMARK    1  A    between atoms: C1_2  and  C2_3 
ROOT
ATOM      1  C2  UNL d   1      -0.169   0.022  -0.352  0.00  0.00    -0.077 A 
ATOM      2  C3  UNL d   1       0.251  -1.296  -0.128  0.00  0.00     0.002 A 
ATOM      3  C4  UNL d   1       1.569  -1.563   0.251  0.00  0.00     0.002 A 
ATOM      4  C5  UNL d   1       2.475  -0.517   0.412  0.00  0.00    -0.004 A 
ATOM      5  C6  UNL d   1       2.067   0.798   0.190  0.00  0.00     0.002 A 
ATOM      6  C7  UNL d   1       0.751   1.066  -0.190  0.00  0.00     0.002 A 
ENDROOT
BRANCH   1   7
ATOM      7  C1  UNL d   1      -1.601   0.316  -0.712  0.00  0.00     0.055 C 
ATOM      8  C   UNL d   1      -2.073  -0.558  -1.864  0.00  0.00     0.019 C 
ENDBRANCH   1   7
TORSDOF 1
ENDMDL
