MODEL 1
REMARK minimizedAffinity -2.10708308
REMARK minimizedRMSD -1
REMARK  1 active torsions:
REMARK  status: ('A' for Active; 'I' for Inactive)
REMARK    1  A    between atoms: C1_2  and  C2_3 
ROOT
ATOM      1  C2  UNL d   1       0.332   0.170   0.133  0.00  0.00    -0.077 A 
ATOM      2  C3  UNL d   1       0.573  -0.958   0.930  0.00  0.00     0.002 A 
ATOM      3  C4  UNL d   1       1.808  -1.129   1.557  0.00  0.00     0.002 A 
ATOM      4  C5  UNL d   1       2.811  -0.175   1.398  0.00  0.00    -0.004 A 
ATOM      5  C6  UNL d   1       2.582   0.949   0.606  0.00  0.00     0.002 A 
ATOM      6  C7  UNL d   1       1.348   1.122  -0.023  0.00  0.00     0.002 A 
ENDROOT
BRANCH   1   7
ATOM      7  C1  UNL d   1      -1.016   0.381  -0.505  0.00  0.00     0.055 C 
ATOM      8  C   UNL d   1      -2.130  -0.212   0.346  0.00  0.00     0.019 C 
ENDBRANCH   1   7
TORSDOF 1
ENDMDL
