MODEL 1
REMARK minimizedAffinity -2.99024439
REMARK minimizedRMSD -1
REMARK  1 active torsions:
REMARK  status: ('A' for Active; 'I' for Inactive)
REMARK    1  A    between atoms: C1_2  and  C2_3 
ROOT
ATOM      1  C2  UNL d   1      -0.059   0.398   0.426  0.00  0.00    -0.077 A 
ATOM      2  C3  UNL d   1       0.805  -0.058   1.432  0.00  0.00     0.002 A 
ATOM      3  C4  UNL d   1       2.120   0.405   1.498  0.00  0.00     0.002 A 
ATOM      4  C5  UNL d   1       2.582   1.331   0.564  0.00  0.00    -0.004 A 
ATOM      5  C6  UNL d   1       1.732   1.789  -0.441  0.00  0.00     0.002 A 
ATOM      6  C7  UNL d   1       0.417   1.326  -0.510  0.00  0.00     0.002 A 
ENDROOT
BRANCH   1   7
ATOM      7  C1  UNL d   1      -1.492  -0.063   0.382  0.00  0.00     0.055 C 
ATOM      8  C   UNL d   1      -2.246   0.581  -0.772  0.00  0.00     0.019 C 
ENDBRANCH   1   7
TORSDOF 1
ENDMDL
