MODEL 1
REMARK minimizedAffinity -3.75730491
REMARK minimizedRMSD -1
REMARK  1 active torsions:
REMARK  status: ('A' for Active; 'I' for Inactive)
REMARK    1  A    between atoms: C1_2  and  C2_3 
ROOT
ATOM      1  C2  UNL d   1       0.579   0.399  -0.014  0.00  0.00    -0.077 A 
ATOM      2  C3  UNL d   1       0.392  -0.908   0.457  0.00  0.00     0.002 A 
ATOM      3  C4  UNL d   1       1.490  -1.696   0.808  0.00  0.00     0.002 A 
ATOM      4  C5  UNL d   1       2.781  -1.185   0.695  0.00  0.00    -0.004 A 
ATOM      5  C6  UNL d   1       2.978   0.113   0.225  0.00  0.00     0.002 A 
ATOM      6  C7  UNL d   1       1.882   0.902  -0.127  0.00  0.00     0.002 A 
ENDROOT
BRANCH   1   7
ATOM      7  C1  UNL d   1      -0.606   1.268  -0.347  0.00  0.00     0.055 C 
ATOM      8  C   UNL d   1      -1.486   0.621  -1.406  0.00  0.00     0.019 C 
ENDBRANCH   1   7
TORSDOF 1
ENDMDL
