MODEL 1
REMARK minimizedAffinity -3.89517021
REMARK minimizedRMSD -1
REMARK  1 active torsions:
REMARK  status: ('A' for Active; 'I' for Inactive)
REMARK    1  A    between atoms: C1_2  and  C2_3 
ROOT
ATOM      1  C2  UNL d   1      -2.778   1.316  -2.843  0.00  0.00    -0.077 A 
ATOM      2  C3  UNL d   1      -2.738   0.225  -3.723  0.00  0.00     0.002 A 
ATOM      3  C4  UNL d   1      -2.474  -1.060  -3.245  0.00  0.00     0.002 A 
ATOM      4  C5  UNL d   1      -2.253  -1.266  -1.885  0.00  0.00    -0.004 A 
ATOM      5  C6  UNL d   1      -2.288  -0.188  -1.002  0.00  0.00     0.002 A 
ATOM      6  C7  UNL d   1      -2.550   1.097  -1.479  0.00  0.00     0.002 A 
ENDROOT
BRANCH   1   7
ATOM      7  C1  UNL d   1      -3.110   2.694  -3.351  0.00  0.00     0.055 C 
ATOM      8  C   UNL d   1      -3.780   3.534  -2.273  0.00  0.00     0.019 C 
ENDBRANCH   1   7
TORSDOF 1
ENDMDL
