MODEL 1
REMARK minimizedAffinity -5.39029884
REMARK minimizedRMSD -1
REMARK  1 active torsions:
REMARK  status: ('A' for Active; 'I' for Inactive)
REMARK    1  A    between atoms: C1_2  and  C2_3 
ROOT
ATOM      1  C2  UNL d   1       0.205  -0.558   0.281  0.00  0.00    -0.077 A 
ATOM      2  C3  UNL d   1       0.750   0.691   0.610  0.00  0.00     0.002 A 
ATOM      3  C4  UNL d   1       2.131   0.847   0.740  0.00  0.00     0.002 A 
ATOM      4  C5  UNL d   1       2.979  -0.240   0.539  0.00  0.00    -0.004 A 
ATOM      5  C6  UNL d   1       2.447  -1.487   0.214  0.00  0.00     0.002 A 
ATOM      6  C7  UNL d   1       1.067  -1.645   0.084  0.00  0.00     0.002 A 
ENDROOT
BRANCH   1   7
ATOM      7  C1  UNL d   1      -1.281  -0.717   0.092  0.00  0.00     0.055 C 
ATOM      8  C   UNL d   1      -1.696  -0.383  -1.334  0.00  0.00     0.019 C 
ENDBRANCH   1   7
TORSDOF 1
ENDMDL
