MODEL 1
REMARK minimizedAffinity 0.343423635
REMARK minimizedRMSD -1
REMARK  2 active torsions:
REMARK  status: ('A' for Active; 'I' for Inactive)
REMARK    1  A    between atoms: C2'_3  and  C1'_4 
REMARK    2  A    between atoms: C1'_4  and  C1_5 
ROOT
ATOM      1  C1  I4B d   1      -0.537  -1.365   1.256  0.00  0.00    -0.075 A 
ATOM      2  C2  I4B d   1      -0.507  -2.067   2.435  0.00  0.00     0.003 A 
ATOM      3  C3  I4B d   1       0.488  -3.050   2.655  0.00  0.00     0.002 A 
ATOM      4  C4  I4B d   1       1.397  -3.332   1.656  0.00  0.00    -0.004 A 
ATOM      5  C5  I4B d   1       1.380  -2.603   0.470  0.00  0.00     0.002 A 
ATOM      6  C6  I4B d   1       0.415  -1.605   0.273  0.00  0.00     0.003 A 
ENDROOT
BRANCH   1   7
ATOM      7  C1' I4B d   1      -1.622  -0.358   1.044  0.00  0.00     0.060 C 
BRANCH   7   8
ATOM      8  C2' I4B d   1      -2.787  -1.060   0.377  0.00  0.00    -0.013 C 
ATOM      9  C4' I4B d   1      -4.069  -0.823   1.131  0.00  0.00     0.013 C 
ATOM     10  C3' I4B d   1      -2.886  -0.556  -1.032  0.00  0.00     0.013 C 
ENDBRANCH   7   8
ENDBRANCH   1   7
TORSDOF 2
ENDMDL
