MODEL 1
REMARK minimizedAffinity -1.21287358
REMARK minimizedRMSD -1
REMARK  2 active torsions:
REMARK  status: ('A' for Active; 'I' for Inactive)
REMARK    1  A    between atoms: C2'_3  and  C1'_4 
REMARK    2  A    between atoms: C1'_4  and  C1_5 
ROOT
ATOM      1  C1  I4B d   1      -1.976  -0.697   1.980  0.00  0.00    -0.075 A 
ATOM      2  C2  I4B d   1      -1.371  -1.485   2.928  0.00  0.00     0.003 A 
ATOM      3  C3  I4B d   1      -0.053  -1.961   2.724  0.00  0.00     0.002 A 
ATOM      4  C4  I4B d   1       0.600  -1.669   1.544  0.00  0.00    -0.004 A 
ATOM      5  C5  I4B d   1      -0.006  -0.852   0.594  0.00  0.00     0.002 A 
ATOM      6  C6  I4B d   1      -1.297  -0.352   0.819  0.00  0.00     0.003 A 
ENDROOT
BRANCH   1   7
ATOM      7  C1' I4B d   1      -3.380  -0.239   2.214  0.00  0.00     0.060 C 
BRANCH   7   8
ATOM      8  C2' I4B d   1      -4.258  -0.864   1.149  0.00  0.00    -0.013 C 
ATOM      9  C4' I4B d   1      -4.014  -2.347   1.043  0.00  0.00     0.013 C 
ATOM     10  C3' I4B d   1      -5.687  -0.574   1.498  0.00  0.00     0.013 C 
ENDBRANCH   7   8
ENDBRANCH   1   7
TORSDOF 2
ENDMDL
