MODEL 1
REMARK minimizedAffinity 4.94279385
REMARK minimizedRMSD -1
REMARK  2 active torsions:
REMARK  status: ('A' for Active; 'I' for Inactive)
REMARK    1  A    between atoms: C2'_3  and  C1'_4 
REMARK    2  A    between atoms: C1'_4  and  C1_5 
ROOT
ATOM      1  C1  I4B d   1       1.165   2.841  -2.559  0.00  0.00    -0.075 A 
ATOM      2  C2  I4B d   1       0.787   3.327  -3.786  0.00  0.00     0.003 A 
ATOM      3  C3  I4B d   1      -0.586   3.483  -4.098  0.00  0.00     0.002 A 
ATOM      4  C4  I4B d   1      -1.540   3.097  -3.180  0.00  0.00    -0.004 A 
ATOM      5  C5  I4B d   1      -1.154   2.626  -1.928  0.00  0.00     0.002 A 
ATOM      6  C6  I4B d   1       0.207   2.509  -1.611  0.00  0.00     0.003 A 
ENDROOT
BRANCH   1   7
ATOM      7  C1' I4B d   1       2.622   2.657  -2.275  0.00  0.00     0.060 C 
BRANCH   7   8
ATOM      8  C2' I4B d   1       2.885   1.173  -2.127  0.00  0.00    -0.013 C 
ATOM      9  C4' I4B d   1       4.039   0.735  -2.990  0.00  0.00     0.013 C 
ATOM     10  C3' I4B d   1       3.156   0.893  -0.679  0.00  0.00     0.013 C 
ENDBRANCH   7   8
ENDBRANCH   1   7
TORSDOF 2
ENDMDL
