MODEL 1
REMARK minimizedAffinity 2.81403661
REMARK minimizedRMSD -1
REMARK  2 active torsions:
REMARK  status: ('A' for Active; 'I' for Inactive)
REMARK    1  A    between atoms: C2'_3  and  C1'_4 
REMARK    2  A    between atoms: C1'_4  and  C1_5 
ROOT
ATOM      1  C1  I4B d   1      -2.355  -0.657   0.763  0.00  0.00    -0.075 A 
ATOM      2  C2  I4B d   1      -2.098  -1.582   1.744  0.00  0.00     0.003 A 
ATOM      3  C3  I4B d   1      -0.764  -1.949   2.045  0.00  0.00     0.002 A 
ATOM      4  C4  I4B d   1       0.272  -1.409   1.311  0.00  0.00    -0.004 A 
ATOM      5  C5  I4B d   1       0.010  -0.454   0.332  0.00  0.00     0.002 A 
ATOM      6  C6  I4B d   1      -1.310  -0.066   0.065  0.00  0.00     0.003 A 
ENDROOT
BRANCH   1   7
ATOM      7  C1' I4B d   1      -3.778  -0.316   0.449  0.00  0.00     0.060 C 
BRANCH   7   8
ATOM      8  C2' I4B d   1      -4.624  -0.694   1.648  0.00  0.00    -0.013 C 
ATOM      9  C4' I4B d   1      -4.682   0.428   2.650  0.00  0.00     0.013 C 
ATOM     10  C3' I4B d   1      -5.994  -1.050   1.153  0.00  0.00     0.013 C 
ENDBRANCH   7   8
ENDBRANCH   1   7
TORSDOF 2
ENDMDL
