MODEL 1
REMARK minimizedAffinity 2.78624105
REMARK minimizedRMSD -1
REMARK  2 active torsions:
REMARK  status: ('A' for Active; 'I' for Inactive)
REMARK    1  A    between atoms: C2'_3  and  C1'_4 
REMARK    2  A    between atoms: C1'_4  and  C1_5 
ROOT
ATOM      1  C1  I4B d   1       0.286  -2.067   1.950  0.00  0.00    -0.075 A 
ATOM      2  C2  I4B d   1       0.710  -1.402   0.827  0.00  0.00     0.003 A 
ATOM      3  C3  I4B d   1      -0.199  -0.618   0.077  0.00  0.00     0.002 A 
ATOM      4  C4  I4B d   1      -1.526  -0.569   0.454  0.00  0.00    -0.004 A 
ATOM      5  C5  I4B d   1      -1.949  -1.226   1.606  0.00  0.00     0.002 A 
ATOM      6  C6  I4B d   1      -1.035  -1.970   2.366  0.00  0.00     0.003 A 
ENDROOT
BRANCH   1   7
ATOM      7  C1' I4B d   1       1.267  -2.912   2.700  0.00  0.00     0.060 C 
BRANCH   7   8
ATOM      8  C2' I4B d   1       1.719  -4.029   1.782  0.00  0.00    -0.013 C 
ATOM      9  C4' I4B d   1       3.221  -4.078   1.681  0.00  0.00     0.013 C 
ATOM     10  C3' I4B d   1       1.170  -5.318   2.316  0.00  0.00     0.013 C 
ENDBRANCH   7   8
ENDBRANCH   1   7
TORSDOF 2
ENDMDL
