MODEL 1
REMARK minimizedAffinity -4.44499207
REMARK minimizedRMSD -1
REMARK  1 active torsions:
REMARK  status: ('A' for Active; 'I' for Inactive)
REMARK    1  A    between atoms: C1_2  and  C2_3 
ROOT
ATOM      1  C2  UNL d   1       0.030   0.246   2.420  0.00  0.00    -0.077 A 
ATOM      2  C3  UNL d   1      -1.313   0.632   2.523  0.00  0.00     0.002 A 
ATOM      3  C4  UNL d   1      -2.082   0.826   1.373  0.00  0.00     0.002 A 
ATOM      4  C5  UNL d   1      -1.518   0.631   0.115  0.00  0.00    -0.004 A 
ATOM      5  C6  UNL d   1      -0.181   0.249   0.002  0.00  0.00     0.002 A 
ATOM      6  C7  UNL d   1       0.589   0.057   1.150  0.00  0.00     0.002 A 
ENDROOT
BRANCH   1   7
ATOM      7  C1  UNL d   1       0.847  -0.011   3.660  0.00  0.00     0.055 C 
ATOM      8  C   UNL d   1       2.303  -0.292   3.315  0.00  0.00     0.019 C 
ENDBRANCH   1   7
TORSDOF 1
ENDMDL
