MODEL 1
REMARK minimizedAffinity -4.3611474
REMARK minimizedRMSD -1
REMARK  1 active torsions:
REMARK  status: ('A' for Active; 'I' for Inactive)
REMARK    1  A    between atoms: C1_2  and  C2_3 
ROOT
ATOM      1  C2  UNL d   1       0.211  -0.099  -0.154  0.00  0.00    -0.077 A 
ATOM      2  C3  UNL d   1       0.767   0.584   0.936  0.00  0.00     0.002 A 
ATOM      3  C4  UNL d   1      -0.047   1.033   1.978  0.00  0.00     0.002 A 
ATOM      4  C5  UNL d   1      -1.420   0.799   1.942  0.00  0.00    -0.004 A 
ATOM      5  C6  UNL d   1      -1.983   0.123   0.861  0.00  0.00     0.002 A 
ATOM      6  C7  UNL d   1      -1.171  -0.325  -0.182  0.00  0.00     0.002 A 
ENDROOT
BRANCH   1   7
ATOM      7  C1  UNL d   1       1.094  -0.627  -1.255  0.00  0.00     0.055 C 
ATOM      8  C   UNL d   1       0.509  -0.323  -2.627  0.00  0.00     0.019 C 
ENDBRANCH   1   7
TORSDOF 1
ENDMDL
