MODEL 1
REMARK minimizedAffinity -5.23563051
REMARK minimizedRMSD -1
REMARK  1 active torsions:
REMARK  status: ('A' for Active; 'I' for Inactive)
REMARK    1  A    between atoms: C1_2  and  C2_3 
ROOT
ATOM      1  C2  UNL d   1       0.557  -0.018   0.573  0.00  0.00    -0.077 A 
ATOM      2  C3  UNL d   1       1.416  -0.363   1.626  0.00  0.00     0.002 A 
ATOM      3  C4  UNL d   1       1.041  -0.124   2.950  0.00  0.00     0.002 A 
ATOM      4  C5  UNL d   1      -0.193   0.456   3.232  0.00  0.00    -0.004 A 
ATOM      5  C6  UNL d   1      -1.053   0.805   2.191  0.00  0.00     0.002 A 
ATOM      6  C7  UNL d   1      -0.680   0.568   0.868  0.00  0.00     0.002 A 
ENDROOT
BRANCH   1   7
ATOM      7  C1  UNL d   1       0.939  -0.320  -0.853  0.00  0.00     0.055 C 
ATOM      8  C   UNL d   1      -0.276  -0.291  -1.769  0.00  0.00     0.019 C 
ENDBRANCH   1   7
TORSDOF 1
ENDMDL
