MODEL 1
REMARK minimizedAffinity -1.12661445
REMARK minimizedRMSD -1
REMARK  1 active torsions:
REMARK  status: ('A' for Active; 'I' for Inactive)
REMARK    1  A    between atoms: C1_2  and  C2_3 
ROOT
ATOM      1  C2  UNL d   1       0.598  -0.069   1.149  0.00  0.00    -0.077 A 
ATOM      2  C3  UNL d   1       1.303  -0.385   2.319  0.00  0.00     0.002 A 
ATOM      3  C4  UNL d   1       0.734  -0.151   3.572  0.00  0.00     0.002 A 
ATOM      4  C5  UNL d   1      -0.544   0.396   3.667  0.00  0.00    -0.004 A 
ATOM      5  C6  UNL d   1      -1.253   0.715   2.510  0.00  0.00     0.002 A 
ATOM      6  C7  UNL d   1      -0.685   0.483   1.257  0.00  0.00     0.002 A 
ENDROOT
BRANCH   1   7
ATOM      7  C1  UNL d   1       1.190  -0.367  -0.204  0.00  0.00     0.055 C 
ATOM      8  C   UNL d   1       0.155  -0.976  -1.139  0.00  0.00     0.019 C 
ENDBRANCH   1   7
TORSDOF 1
ENDMDL
