MODEL 1
REMARK minimizedAffinity -4.05207348
REMARK minimizedRMSD -1
REMARK  1 active torsions:
REMARK  status: ('A' for Active; 'I' for Inactive)
REMARK    1  A    between atoms: C1_2  and  C2_3 
ROOT
ATOM      1  C2  UNL d   1       0.231   0.409   0.528  0.00  0.00    -0.077 A 
ATOM      2  C3  UNL d   1       0.882   1.104   1.557  0.00  0.00     0.002 A 
ATOM      3  C4  UNL d   1       0.205   1.413   2.739  0.00  0.00     0.002 A 
ATOM      4  C5  UNL d   1      -1.124   1.027   2.904  0.00  0.00    -0.004 A 
ATOM      5  C6  UNL d   1      -1.780   0.338   1.886  0.00  0.00     0.002 A 
ATOM      6  C7  UNL d   1      -1.106   0.029   0.703  0.00  0.00     0.002 A 
ENDROOT
BRANCH   1   7
ATOM      7  C1  UNL d   1       0.974   0.032  -0.727  0.00  0.00     0.055 C 
ATOM      8  C   UNL d   1       0.198   0.437  -1.972  0.00  0.00     0.019 C 
ENDBRANCH   1   7
TORSDOF 1
ENDMDL
