MODEL 1
REMARK minimizedAffinity -4.79083872
REMARK minimizedRMSD -1
REMARK  1 active torsions:
REMARK  status: ('A' for Active; 'I' for Inactive)
REMARK    1  A    between atoms: C1_2  and  C2_3 
ROOT
ATOM      1  C2  UNL d   1      -0.258  -0.302   0.278  0.00  0.00    -0.077 A 
ATOM      2  C3  UNL d   1       0.147   1.035   0.387  0.00  0.00     0.002 A 
ATOM      3  C4  UNL d   1      -0.315   1.829   1.439  0.00  0.00     0.002 A 
ATOM      4  C5  UNL d   1      -1.182   1.294   2.389  0.00  0.00    -0.004 A 
ATOM      5  C6  UNL d   1      -1.592  -0.034   2.288  0.00  0.00     0.002 A 
ATOM      6  C7  UNL d   1      -1.132  -0.829   1.237  0.00  0.00     0.002 A 
ENDROOT
BRANCH   1   7
ATOM      7  C1  UNL d   1       0.278  -1.174  -0.827  0.00  0.00     0.055 C 
ATOM      8  C   UNL d   1       0.411  -0.398  -2.130  0.00  0.00     0.019 C 
ENDBRANCH   1   7
TORSDOF 1
ENDMDL
