MODEL 1
REMARK minimizedAffinity -2.57411909
REMARK minimizedRMSD -1
REMARK  1 active torsions:
REMARK  status: ('A' for Active; 'I' for Inactive)
REMARK    1  A    between atoms: C1_2  and  C2_3 
ROOT
ATOM      1  C2  UNL d   1       1.156   0.141   1.472  0.00  0.00    -0.077 A 
ATOM      2  C3  UNL d   1       0.774   1.356   2.058  0.00  0.00     0.002 A 
ATOM      3  C4  UNL d   1      -0.568   1.612   2.341  0.00  0.00     0.002 A 
ATOM      4  C5  UNL d   1      -1.539   0.657   2.047  0.00  0.00    -0.004 A 
ATOM      5  C6  UNL d   1      -1.170  -0.553   1.462  0.00  0.00     0.002 A 
ATOM      6  C7  UNL d   1       0.171  -0.811   1.177  0.00  0.00     0.002 A 
ENDROOT
BRANCH   1   7
ATOM      7  C1  UNL d   1       2.609  -0.158   1.210  0.00  0.00     0.055 C 
ATOM      8  C   UNL d   1       2.801  -1.585   0.717  0.00  0.00     0.019 C 
ENDBRANCH   1   7
TORSDOF 1
ENDMDL
