MODEL 1
REMARK minimizedAffinity 20.0108547
REMARK minimizedRMSD -1
REMARK  0 active torsions:
REMARK  status: ('A' for Active; 'I' for Inactive)
ROOT
ATOM      1  C   UNL d   1       0.237   2.760   2.296  0.00  0.00     0.124 A 
ATOM      2  C1  UNL d   1      -0.734   1.787   2.490  0.00  0.00     0.062 A 
ATOM      3  C2  UNL d   1      -0.392   0.558   3.045  0.00  0.00     0.162 A 
ATOM      4  C3  UNL d   1       0.928   0.293   3.411  0.00  0.00    -0.034 A 
ATOM      5  C4  UNL d   1       1.899   1.276   3.211  0.00  0.00     0.162 A 
ATOM      6  C5  UNL d   1       1.552   2.503   2.656  0.00  0.00     0.062 A 
ATOM      7  F   UNL d   1       2.492   3.441   2.469  0.00  0.00    -0.097 F 
ATOM      8  F1  UNL d   1       3.178   1.055   3.551  0.00  0.00    -0.096 F 
ATOM      9  I   UNL d   1       1.443  -1.545   4.241  0.00  0.00    -0.060 I 
ATOM     10  F2  UNL d   1      -1.351  -0.363   3.222  0.00  0.00    -0.096 F 
ATOM     11  F3  UNL d   1      -2.006   2.033   2.142  0.00  0.00    -0.097 F 
ATOM     12  F4  UNL d   1      -0.095   3.942   1.761  0.00  0.00    -0.092 F 
ENDROOT
TORSDOF 0
ENDMDL
