MODEL 1
REMARK minimizedAffinity 21.4823532
REMARK minimizedRMSD -1
REMARK  0 active torsions:
REMARK  status: ('A' for Active; 'I' for Inactive)
ROOT
ATOM      1  C   UNL d   1       0.095   2.759   2.009  0.00  0.00     0.124 A 
ATOM      2  C1  UNL d   1       0.073   3.132   0.672  0.00  0.00     0.062 A 
ATOM      3  C2  UNL d   1      -0.794   2.503  -0.216  0.00  0.00     0.162 A 
ATOM      4  C3  UNL d   1      -1.648   1.495   0.230  0.00  0.00    -0.034 A 
ATOM      5  C4  UNL d   1      -1.620   1.124   1.576  0.00  0.00     0.162 A 
ATOM      6  C5  UNL d   1      -0.751   1.756   2.459  0.00  0.00     0.062 A 
ATOM      7  F   UNL d   1      -0.731   1.394   3.750  0.00  0.00    -0.097 F 
ATOM      8  F1  UNL d   1      -2.427   0.158   2.038  0.00  0.00    -0.096 F 
ATOM      9  I   UNL d   1      -2.947   0.551  -1.095  0.00  0.00    -0.060 I 
ATOM     10  F2  UNL d   1      -0.794   2.884  -1.502  0.00  0.00    -0.096 F 
ATOM     11  F3  UNL d   1       0.891   4.101   0.234  0.00  0.00    -0.097 F 
ATOM     12  F4  UNL d   1       0.932   3.366   2.861  0.00  0.00    -0.092 F 
ENDROOT
TORSDOF 0
ENDMDL
