MODEL 1
REMARK minimizedAffinity 12.0356407
REMARK minimizedRMSD -1
REMARK  0 active torsions:
REMARK  status: ('A' for Active; 'I' for Inactive)
ROOT
ATOM      1  C   UNL d   1       2.290  -3.347  -2.157  0.00  0.00     0.124 A 
ATOM      2  C1  UNL d   1       2.325  -2.731  -0.914  0.00  0.00     0.062 A 
ATOM      3  C2  UNL d   1       1.613  -1.556  -0.695  0.00  0.00     0.162 A 
ATOM      4  C3  UNL d   1       0.857  -0.989  -1.721  0.00  0.00    -0.034 A 
ATOM      5  C4  UNL d   1       0.827  -1.614  -2.969  0.00  0.00     0.162 A 
ATOM      6  C5  UNL d   1       1.541  -2.788  -3.183  0.00  0.00     0.062 A 
ATOM      7  F   UNL d   1       1.505  -3.382  -4.385  0.00  0.00    -0.097 F 
ATOM      8  F1  UNL d   1       0.111  -1.096  -3.978  0.00  0.00    -0.096 F 
ATOM      9  I   UNL d   1      -0.209   0.769  -1.397  0.00  0.00    -0.060 I 
ATOM     10  F2  UNL d   1       1.666  -0.982   0.517  0.00  0.00    -0.096 F 
ATOM     11  F3  UNL d   1       3.049  -3.269   0.078  0.00  0.00    -0.097 F 
ATOM     12  F4  UNL d   1       2.977  -4.478  -2.366  0.00  0.00    -0.092 F 
ENDROOT
TORSDOF 0
ENDMDL
