MODEL 1
REMARK minimizedAffinity 25.8011627
REMARK minimizedRMSD -1
REMARK  0 active torsions:
REMARK  status: ('A' for Active; 'I' for Inactive)
ROOT
ATOM      1  C   UNL d   1      -2.264  -1.169  -2.739  0.00  0.00     0.124 A 
ATOM      2  C1  UNL d   1      -0.912  -0.964  -2.502  0.00  0.00     0.062 A 
ATOM      3  C2  UNL d   1      -0.502  -0.093  -1.497  0.00  0.00     0.162 A 
ATOM      4  C3  UNL d   1      -1.445   0.579  -0.720  0.00  0.00    -0.034 A 
ATOM      5  C4  UNL d   1      -2.803   0.368  -0.964  0.00  0.00     0.162 A 
ATOM      6  C5  UNL d   1      -3.208  -0.503  -1.970  0.00  0.00     0.062 A 
ATOM      7  F   UNL d   1      -4.515  -0.700  -2.198  0.00  0.00    -0.097 F 
ATOM      8  F1  UNL d   1      -3.737   0.998  -0.236  0.00  0.00    -0.096 F 
ATOM      9  I   UNL d   1      -0.835   1.882   0.784  0.00  0.00    -0.060 I 
ATOM     10  F2  UNL d   1       0.812   0.086  -1.290  0.00  0.00    -0.096 F 
ATOM     11  F3  UNL d   1       0.002  -1.606  -3.244  0.00  0.00    -0.097 F 
ATOM     12  F4  UNL d   1      -2.656  -2.007  -3.707  0.00  0.00    -0.092 F 
ENDROOT
TORSDOF 0
ENDMDL
