MODEL 1
REMARK minimizedAffinity 7.49915457
REMARK minimizedRMSD -1
REMARK  0 active torsions:
REMARK  status: ('A' for Active; 'I' for Inactive)
ROOT
ATOM      1  C   UNL d   1       0.296   3.945  -0.466  0.00  0.00     0.124 A 
ATOM      2  C1  UNL d   1      -0.756   3.078  -0.204  0.00  0.00     0.062 A 
ATOM      3  C2  UNL d   1      -0.781   2.347   0.980  0.00  0.00     0.162 A 
ATOM      4  C3  UNL d   1       0.248   2.480   1.912  0.00  0.00    -0.034 A 
ATOM      5  C4  UNL d   1       1.303   3.353   1.641  0.00  0.00     0.162 A 
ATOM      6  C5  UNL d   1       1.324   4.082   0.456  0.00  0.00     0.062 A 
ATOM      7  F   UNL d   1       2.341   4.919   0.205  0.00  0.00    -0.097 F 
ATOM      8  F1  UNL d   1       2.309   3.506   2.515  0.00  0.00    -0.096 F 
ATOM      9  I   UNL d   1       0.214   1.388   3.684  0.00  0.00    -0.060 I 
ATOM     10  F2  UNL d   1      -1.810   1.516   1.208  0.00  0.00    -0.096 F 
ATOM     11  F3  UNL d   1      -1.749   2.943  -1.093  0.00  0.00    -0.097 F 
ATOM     12  F4  UNL d   1       0.319   4.647  -1.606  0.00  0.00    -0.092 F 
ENDROOT
TORSDOF 0
ENDMDL
