MODEL 1
REMARK minimizedAffinity 15.2834539
REMARK minimizedRMSD -1
REMARK  0 active torsions:
REMARK  status: ('A' for Active; 'I' for Inactive)
ROOT
ATOM      1  C   UNL d   1       0.333   1.168   3.469  0.00  0.00     0.124 A 
ATOM      2  C1  UNL d   1      -0.850   1.013   2.760  0.00  0.00     0.062 A 
ATOM      3  C2  UNL d   1      -1.053   1.714   1.575  0.00  0.00     0.162 A 
ATOM      4  C3  UNL d   1      -0.070   2.577   1.091  0.00  0.00    -0.034 A 
ATOM      5  C4  UNL d   1       1.117   2.728   1.810  0.00  0.00     0.162 A 
ATOM      6  C5  UNL d   1       1.315   2.025   2.993  0.00  0.00     0.062 A 
ATOM      7  F   UNL d   1       2.459   2.176   3.677  0.00  0.00    -0.097 F 
ATOM      8  F1  UNL d   1       2.084   3.549   1.372  0.00  0.00    -0.096 F 
ATOM      9  I   UNL d   1      -0.369   3.627  -0.681  0.00  0.00    -0.060 I 
ATOM     10  F2  UNL d   1      -2.206   1.545   0.911  0.00  0.00    -0.096 F 
ATOM     11  F3  UNL d   1      -1.802   0.187   3.218  0.00  0.00    -0.097 F 
ATOM     12  F4  UNL d   1       0.525   0.493   4.610  0.00  0.00    -0.092 F 
ENDROOT
TORSDOF 0
ENDMDL
