MODEL 1
REMARK minimizedAffinity 16.7126541
REMARK minimizedRMSD -1
REMARK  0 active torsions:
REMARK  status: ('A' for Active; 'I' for Inactive)
ROOT
ATOM      1  C   UNL d   1       0.880   2.761   2.283  0.00  0.00     0.124 A 
ATOM      2  C1  UNL d   1      -0.059   1.835   2.716  0.00  0.00     0.062 A 
ATOM      3  C2  UNL d   1      -1.083   1.427   1.866  0.00  0.00     0.162 A 
ATOM      4  C3  UNL d   1      -1.175   1.945   0.575  0.00  0.00    -0.034 A 
ATOM      5  C4  UNL d   1      -0.228   2.878   0.147  0.00  0.00     0.162 A 
ATOM      6  C5  UNL d   1       0.794   3.282   0.999  0.00  0.00     0.062 A 
ATOM      7  F   UNL d   1       1.700   4.177   0.579  0.00  0.00    -0.097 F 
ATOM      8  F1  UNL d   1      -0.286   3.396  -1.089  0.00  0.00    -0.096 F 
ATOM      9  I   UNL d   1      -2.706   1.339  -0.698  0.00  0.00    -0.060 I 
ATOM     10  F2  UNL d   1      -1.976   0.530   2.311  0.00  0.00    -0.096 F 
ATOM     11  F3  UNL d   1       0.021   1.331   3.956  0.00  0.00    -0.097 F 
ATOM     12  F4  UNL d   1       1.864   3.152   3.102  0.00  0.00    -0.092 F 
ENDROOT
TORSDOF 0
ENDMDL
