MODEL 1
REMARK minimizedAffinity 14.9484482
REMARK minimizedRMSD -1
REMARK  0 active torsions:
REMARK  status: ('A' for Active; 'I' for Inactive)
ROOT
ATOM      1  C   UNL d   1      -0.669   4.500  -0.956  0.00  0.00     0.124 A 
ATOM      2  C1  UNL d   1      -1.815   4.354  -1.725  0.00  0.00     0.062 A 
ATOM      3  C2  UNL d   1      -2.427   3.109  -1.841  0.00  0.00     0.162 A 
ATOM      4  C3  UNL d   1      -1.894   2.000  -1.184  0.00  0.00    -0.034 A 
ATOM      5  C4  UNL d   1      -0.741   2.154  -0.414  0.00  0.00     0.162 A 
ATOM      6  C5  UNL d   1      -0.133   3.400  -0.301  0.00  0.00     0.062 A 
ATOM      7  F   UNL d   1       0.975   3.539   0.442  0.00  0.00    -0.097 F 
ATOM      8  F1  UNL d   1      -0.202   1.108   0.231  0.00  0.00    -0.096 F 
ATOM      9  I   UNL d   1      -2.806   0.137  -1.355  0.00  0.00    -0.060 I 
ATOM     10  F2  UNL d   1      -3.534   2.998  -2.590  0.00  0.00    -0.096 F 
ATOM     11  F3  UNL d   1      -2.334   5.415  -2.359  0.00  0.00    -0.097 F 
ATOM     12  F4  UNL d   1      -0.082   5.698  -0.847  0.00  0.00    -0.092 F 
ENDROOT
TORSDOF 0
ENDMDL
