MODEL 1
REMARK minimizedAffinity 10.4032745
REMARK minimizedRMSD -1
REMARK  0 active torsions:
REMARK  status: ('A' for Active; 'I' for Inactive)
ROOT
ATOM      1  C   UNL d   1      -0.481   4.284  -1.097  0.00  0.00     0.124 A 
ATOM      2  C1  UNL d   1       0.328   4.600  -0.014  0.00  0.00     0.062 A 
ATOM      3  C2  UNL d   1       0.458   3.707   1.046  0.00  0.00     0.162 A 
ATOM      4  C3  UNL d   1      -0.221   2.489   1.028  0.00  0.00    -0.034 A 
ATOM      5  C4  UNL d   1      -1.033   2.179  -0.064  0.00  0.00     0.162 A 
ATOM      6  C5  UNL d   1      -1.160   3.074  -1.121  0.00  0.00     0.062 A 
ATOM      7  F   UNL d   1      -1.942   2.768  -2.166  0.00  0.00    -0.097 F 
ATOM      8  F1  UNL d   1      -1.701   1.017  -0.113  0.00  0.00    -0.096 F 
ATOM      9  I   UNL d   1      -0.028   1.152   2.611  0.00  0.00    -0.060 I 
ATOM     10  F2  UNL d   1       1.247   4.039   2.080  0.00  0.00    -0.096 F 
ATOM     11  F3  UNL d   1       0.985   5.769   0.012  0.00  0.00    -0.097 F 
ATOM     12  F4  UNL d   1      -0.605   5.145  -2.115  0.00  0.00    -0.092 F 
ENDROOT
TORSDOF 0
ENDMDL
