MODEL 1
REMARK minimizedAffinity 25.6156101
REMARK minimizedRMSD -1
REMARK  0 active torsions:
REMARK  status: ('A' for Active; 'I' for Inactive)
ROOT
ATOM      1  C   UNL d   1       1.579   3.162   2.395  0.00  0.00     0.124 A 
ATOM      2  C1  UNL d   1       1.013   3.835   1.322  0.00  0.00     0.062 A 
ATOM      3  C2  UNL d   1       0.076   3.200   0.512  0.00  0.00     0.162 A 
ATOM      4  C3  UNL d   1      -0.303   1.883   0.774  0.00  0.00    -0.034 A 
ATOM      5  C4  UNL d   1       0.272   1.212   1.855  0.00  0.00     0.162 A 
ATOM      6  C5  UNL d   1       1.208   1.851   2.661  0.00  0.00     0.062 A 
ATOM      7  F   UNL d   1       1.754   1.199   3.698  0.00  0.00    -0.097 F 
ATOM      8  F1  UNL d   1      -0.069  -0.055   2.135  0.00  0.00    -0.096 F 
ATOM      9  I   UNL d   1      -1.704   0.929  -0.433  0.00  0.00    -0.060 I 
ATOM     10  F2  UNL d   1      -0.455   3.875  -0.518  0.00  0.00    -0.096 F 
ATOM     11  F3  UNL d   1       1.370   5.101   1.062  0.00  0.00    -0.097 F 
ATOM     12  F4  UNL d   1       2.482   3.775   3.172  0.00  0.00    -0.092 F 
ENDROOT
TORSDOF 0
ENDMDL
