MODEL 1
REMARK minimizedAffinity 17.2788334
REMARK minimizedRMSD -1
REMARK  0 active torsions:
REMARK  status: ('A' for Active; 'I' for Inactive)
ROOT
ATOM      1  C   UNL d   1      -0.464   1.498   1.926  0.00  0.00     0.124 A 
ATOM      2  C1  UNL d   1      -1.295   2.513   1.471  0.00  0.00     0.062 A 
ATOM      3  C2  UNL d   1      -0.819   3.453   0.562  0.00  0.00     0.162 A 
ATOM      4  C3  UNL d   1       0.495   3.383   0.101  0.00  0.00    -0.034 A 
ATOM      5  C4  UNL d   1       1.326   2.361   0.564  0.00  0.00     0.162 A 
ATOM      6  C5  UNL d   1       0.845   1.423   1.473  0.00  0.00     0.062 A 
ATOM      7  F   UNL d   1       1.649   0.444   1.911  0.00  0.00    -0.097 F 
ATOM      8  F1  UNL d   1       2.595   2.264   0.141  0.00  0.00    -0.096 F 
ATOM      9  I   UNL d   1       1.211   4.787  -1.258  0.00  0.00    -0.060 I 
ATOM     10  F2  UNL d   1      -1.645   4.422   0.139  0.00  0.00    -0.096 F 
ATOM     11  F3  UNL d   1      -2.561   2.588   1.909  0.00  0.00    -0.097 F 
ATOM     12  F4  UNL d   1      -0.925   0.596   2.802  0.00  0.00    -0.092 F 
ENDROOT
TORSDOF 0
ENDMDL
