MODEL 1
REMARK minimizedAffinity 14.2570591
REMARK minimizedRMSD -1
REMARK  0 active torsions:
REMARK  status: ('A' for Active; 'I' for Inactive)
ROOT
ATOM      1  C   UNL d   1      -0.838   2.780  -1.120  0.00  0.00     0.124 A 
ATOM      2  C1  UNL d   1      -0.720   3.148   0.213  0.00  0.00     0.062 A 
ATOM      3  C2  UNL d   1       0.061   2.390   1.081  0.00  0.00     0.162 A 
ATOM      4  C3  UNL d   1       0.730   1.257   0.620  0.00  0.00    -0.034 A 
ATOM      5  C4  UNL d   1       0.606   0.893  -0.722  0.00  0.00     0.162 A 
ATOM      6  C5  UNL d   1      -0.175   1.653  -1.587  0.00  0.00     0.062 A 
ATOM      7  F   UNL d   1      -0.288   1.296  -2.874  0.00  0.00    -0.097 F 
ATOM      8  F1  UNL d   1       1.236  -0.191  -1.200  0.00  0.00    -0.096 F 
ATOM      9  I   UNL d   1       1.898   0.122   1.915  0.00  0.00    -0.060 I 
ATOM     10  F2  UNL d   1       0.157   2.769   2.365  0.00  0.00    -0.096 F 
ATOM     11  F3  UNL d   1      -1.360   4.235   0.666  0.00  0.00    -0.097 F 
ATOM     12  F4  UNL d   1      -1.590   3.510  -1.954  0.00  0.00    -0.092 F 
ENDROOT
TORSDOF 0
ENDMDL
