MODEL 1
REMARK minimizedAffinity 5.38885307
REMARK minimizedRMSD -1
REMARK  2 active torsions:
REMARK  status: ('A' for Active; 'I' for Inactive)
REMARK    1  A    between atoms: C2'_3  and  C1'_4 
REMARK    2  A    between atoms: C1'_4  and  C1_5 
ROOT
ATOM      1  C1  I4B d   1      -2.360   0.528   1.962  0.00  0.00    -0.075 A 
ATOM      2  C2  I4B d   1      -1.729   1.544   1.289  0.00  0.00     0.003 A 
ATOM      3  C3  I4B d   1      -0.633   2.218   1.881  0.00  0.00     0.002 A 
ATOM      4  C4  I4B d   1      -0.236   1.878   3.158  0.00  0.00    -0.004 A 
ATOM      5  C5  I4B d   1      -0.862   0.832   3.829  0.00  0.00     0.002 A 
ATOM      6  C6  I4B d   1      -1.923   0.144   3.223  0.00  0.00     0.003 A 
ENDROOT
BRANCH   1   7
ATOM      7  C1' I4B d   1      -3.535  -0.140   1.320  0.00  0.00     0.060 C 
BRANCH   7   8
ATOM      8  C2' I4B d   1      -3.130  -0.555  -0.079  0.00  0.00    -0.013 C 
ATOM      9  C4' I4B d   1      -2.503  -1.925  -0.082  0.00  0.00     0.013 C 
ATOM     10  C3' I4B d   1      -4.353  -0.518  -0.946  0.00  0.00     0.013 C 
ENDBRANCH   7   8
ENDBRANCH   1   7
TORSDOF 2
ENDMDL
