MODEL 1
REMARK minimizedAffinity 13.8077402
REMARK minimizedRMSD -1
REMARK  2 active torsions:
REMARK  status: ('A' for Active; 'I' for Inactive)
REMARK    1  A    between atoms: C2'_3  and  C1'_4 
REMARK    2  A    between atoms: C1'_4  and  C1_5 
ROOT
ATOM      1  C1  I4B d   1      -1.757  -2.891  -0.049  0.00  0.00    -0.075 A 
ATOM      2  C2  I4B d   1      -1.551  -3.560  -1.229  0.00  0.00     0.003 A 
ATOM      3  C3  I4B d   1      -1.233  -4.940  -1.220  0.00  0.00     0.002 A 
ATOM      4  C4  I4B d   1      -1.082  -5.594  -0.015  0.00  0.00    -0.004 A 
ATOM      5  C5  I4B d   1      -1.314  -4.919   1.180  0.00  0.00     0.002 A 
ATOM      6  C6  I4B d   1      -1.666  -3.562   1.163  0.00  0.00     0.003 A 
ENDROOT
BRANCH   1   7
ATOM      7  C1' I4B d   1      -2.060  -1.426  -0.094  0.00  0.00     0.060 C 
BRANCH   7   8
ATOM      8  C2' I4B d   1      -2.962  -1.099   1.079  0.00  0.00    -0.013 C 
ATOM      9  C4' I4B d   1      -2.191  -0.442   2.193  0.00  0.00     0.013 C 
ATOM     10  C3' I4B d   1      -4.062  -0.209   0.583  0.00  0.00     0.013 C 
ENDBRANCH   7   8
ENDBRANCH   1   7
TORSDOF 2
ENDMDL
