MODEL 1
REMARK minimizedAffinity 18.9307594
REMARK minimizedRMSD -1
REMARK  2 active torsions:
REMARK  status: ('A' for Active; 'I' for Inactive)
REMARK    1  A    between atoms: C2'_3  and  C1'_4 
REMARK    2  A    between atoms: C1'_4  and  C1_5 
ROOT
ATOM      1  C1  I4B d   1      -5.882   4.712  -2.004  0.00  0.00    -0.075 A 
ATOM      2  C2  I4B d   1      -5.709   3.358  -1.856  0.00  0.00     0.003 A 
ATOM      3  C3  I4B d   1      -5.656   2.517  -2.994  0.00  0.00     0.002 A 
ATOM      4  C4  I4B d   1      -5.829   3.062  -4.250  0.00  0.00    -0.004 A 
ATOM      5  C5  I4B d   1      -5.982   4.437  -4.400  0.00  0.00     0.002 A 
ATOM      6  C6  I4B d   1      -5.996   5.269  -3.271  0.00  0.00     0.003 A 
ENDROOT
BRANCH   1   7
ATOM      7  C1' I4B d   1      -5.966   5.566  -0.780  0.00  0.00     0.060 C 
BRANCH   7   8
ATOM      8  C2' I4B d   1      -5.833   4.663   0.430  0.00  0.00    -0.013 C 
ATOM      9  C4' I4B d   1      -4.506   3.951   0.435  0.00  0.00     0.013 C 
ATOM     10  C3' I4B d   1      -6.000   5.507   1.658  0.00  0.00     0.013 C 
ENDBRANCH   7   8
ENDBRANCH   1   7
TORSDOF 2
ENDMDL
