MODEL 1
REMARK minimizedAffinity 14.8452578
REMARK minimizedRMSD -1
REMARK  2 active torsions:
REMARK  status: ('A' for Active; 'I' for Inactive)
REMARK    1  A    between atoms: C2'_3  and  C1'_4 
REMARK    2  A    between atoms: C1'_4  and  C1_5 
ROOT
ATOM      1  C1  I4B d   1      -4.664   1.741  -1.565  0.00  0.00    -0.075 A 
ATOM      2  C2  I4B d   1      -5.395   1.853  -2.721  0.00  0.00     0.003 A 
ATOM      3  C3  I4B d   1      -5.942   3.103  -3.100  0.00  0.00     0.002 A 
ATOM      4  C4  I4B d   1      -5.778   4.195  -2.272  0.00  0.00    -0.004 A 
ATOM      5  C5  I4B d   1      -5.018   4.085  -1.112  0.00  0.00     0.002 A 
ATOM      6  C6  I4B d   1      -4.446   2.853  -0.762  0.00  0.00     0.003 A 
ENDROOT
BRANCH   1   7
ATOM      7  C1' I4B d   1      -4.128   0.399  -1.179  0.00  0.00     0.060 C 
BRANCH   7   8
ATOM      8  C2' I4B d   1      -3.760   0.448   0.290  0.00  0.00    -0.013 C 
ATOM      9  C4' I4B d   1      -4.575  -0.534   1.090  0.00  0.00     0.013 C 
ATOM     10  C3' I4B d   1      -2.294   0.158   0.410  0.00  0.00     0.013 C 
ENDBRANCH   7   8
ENDBRANCH   1   7
TORSDOF 2
ENDMDL
