MODEL 1
REMARK minimizedAffinity 13.0771837
REMARK minimizedRMSD -1
REMARK  2 active torsions:
REMARK  status: ('A' for Active; 'I' for Inactive)
REMARK    1  A    between atoms: C2'_3  and  C1'_4 
REMARK    2  A    between atoms: C1'_4  and  C1_5 
ROOT
ATOM      1  C1  I4B d   1       4.792   0.821   0.691  0.00  0.00    -0.075 A 
ATOM      2  C2  I4B d   1       5.902   1.500   0.255  0.00  0.00     0.003 A 
ATOM      3  C3  I4B d   1       5.961   1.991  -1.072  0.00  0.00     0.002 A 
ATOM      4  C4  I4B d   1       4.917   1.738  -1.938  0.00  0.00    -0.004 A 
ATOM      5  C5  I4B d   1       3.782   1.070  -1.487  0.00  0.00     0.002 A 
ATOM      6  C6  I4B d   1       3.714   0.619  -0.161  0.00  0.00     0.003 A 
ENDROOT
BRANCH   1   7
ATOM      7  C1' I4B d   1       4.776   0.288   2.088  0.00  0.00     0.060 C 
BRANCH   7   8
ATOM      8  C2' I4B d   1       5.980   0.852   2.816  0.00  0.00    -0.013 C 
ATOM      9  C4' I4B d   1       5.938   2.356   2.855  0.00  0.00     0.013 C 
ATOM     10  C3' I4B d   1       5.996   0.274   4.200  0.00  0.00     0.013 C 
ENDBRANCH   7   8
ENDBRANCH   1   7
TORSDOF 2
ENDMDL
