MODEL 1
REMARK minimizedAffinity 12.6386452
REMARK minimizedRMSD -1
REMARK  2 active torsions:
REMARK  status: ('A' for Active; 'I' for Inactive)
REMARK    1  A    between atoms: C2'_3  and  C1'_4 
REMARK    2  A    between atoms: C1'_4  and  C1_5 
ROOT
ATOM      1  C1  I4B d   1      -2.079  -0.433  -1.106  0.00  0.00    -0.075 A 
ATOM      2  C2  I4B d   1      -3.316  -0.364  -1.698  0.00  0.00     0.003 A 
ATOM      3  C3  I4B d   1      -4.434   0.095  -0.961  0.00  0.00     0.002 A 
ATOM      4  C4  I4B d   1      -4.283   0.424   0.370  0.00  0.00    -0.004 A 
ATOM      5  C5  I4B d   1      -3.024   0.375   0.963  0.00  0.00     0.002 A 
ATOM      6  C6  I4B d   1      -1.913  -0.044   0.217  0.00  0.00     0.003 A 
ENDROOT
BRANCH   1   7
ATOM      7  C1' I4B d   1      -0.926  -0.953  -1.904  0.00  0.00     0.060 C 
BRANCH   7   8
ATOM      8  C2' I4B d   1      -1.470  -1.923  -2.933  0.00  0.00    -0.013 C 
ATOM      9  C4' I4B d   1      -0.666  -1.875  -4.205  0.00  0.00     0.013 C 
ATOM     10  C3' I4B d   1      -1.449  -3.296  -2.331  0.00  0.00     0.013 C 
ENDBRANCH   7   8
ENDBRANCH   1   7
TORSDOF 2
ENDMDL
