MODEL 1
REMARK minimizedAffinity 15.7251406
REMARK minimizedRMSD -1
REMARK  2 active torsions:
REMARK  status: ('A' for Active; 'I' for Inactive)
REMARK    1  A    between atoms: C2'_3  and  C1'_4 
REMARK    2  A    between atoms: C1'_4  and  C1_5 
ROOT
ATOM      1  C1  I4B d   1       3.530   1.567   2.404  0.00  0.00    -0.075 A 
ATOM      2  C2  I4B d   1       3.590   0.400   1.684  0.00  0.00     0.003 A 
ATOM      3  C3  I4B d   1       4.840  -0.211   1.421  0.00  0.00     0.002 A 
ATOM      4  C4  I4B d   1       6.000   0.401   1.850  0.00  0.00    -0.004 A 
ATOM      5  C5  I4B d   1       5.936   1.572   2.599  0.00  0.00     0.002 A 
ATOM      6  C6  I4B d   1       4.692   2.153   2.889  0.00  0.00     0.003 A 
ENDROOT
BRANCH   1   7
ATOM      7  C1' I4B d   1       2.196   2.203   2.636  0.00  0.00     0.060 C 
BRANCH   7   8
ATOM      8  C2' I4B d   1       1.152   1.375   1.916  0.00  0.00    -0.013 C 
ATOM      9  C4' I4B d   1       0.054   0.947   2.853  0.00  0.00     0.013 C 
ATOM     10  C3' I4B d   1       0.610   2.195   0.784  0.00  0.00     0.013 C 
ENDBRANCH   7   8
ENDBRANCH   1   7
TORSDOF 2
ENDMDL
