MODEL 1
REMARK minimizedAffinity 8.15268612
REMARK minimizedRMSD -1
REMARK  1 active torsions:
REMARK  status: ('A' for Active; 'I' for Inactive)
REMARK    1  A    between atoms: C1_2  and  C2_3 
ROOT
ATOM      1  C2  UNL d   1       0.930  -1.773   3.332  0.00  0.00    -0.073 A 
ATOM      2  C3  UNL d   1       2.171  -1.278   2.914  0.00  0.00    -0.002 A 
ATOM      3  C4  UNL d   1       2.238  -0.223   2.003  0.00  0.00     0.004 A 
ATOM      4  C5  UNL d   1       1.068   0.352   1.507  0.00  0.00    -0.004 A 
ATOM      5  C6  UNL d   1      -0.181  -0.121   1.922  0.00  0.00    -0.075 A 
ATOM      6  C7  UNL d   1      -1.449   0.485   1.396  0.00  0.00     0.076 C 
ATOM      7  C8  UNL d   1      -0.240  -1.182   2.835  0.00  0.00     0.001 A 
ENDROOT
BRANCH   1   8
ATOM      8  C1  UNL d   1       0.853  -2.908   4.321  0.00  0.00     0.053 C 
ATOM      9  C   UNL d   1       1.774  -2.691   5.511  0.00  0.00     0.018 C 
ENDBRANCH   1   8
TORSDOF 1
ENDMDL
