MODEL 1
REMARK minimizedAffinity 2.57849717
REMARK minimizedRMSD -1
REMARK  1 active torsions:
REMARK  status: ('A' for Active; 'I' for Inactive)
REMARK    1  A    between atoms: C1_2  and  C2_3 
ROOT
ATOM      1  C2  UNL d   1      -0.224  -0.720   2.609  0.00  0.00    -0.073 A 
ATOM      2  C3  UNL d   1      -1.333  -1.571   2.662  0.00  0.00    -0.002 A 
ATOM      3  C4  UNL d   1      -1.307  -2.713   3.464  0.00  0.00     0.004 A 
ATOM      4  C5  UNL d   1      -0.177  -3.012   4.224  0.00  0.00    -0.004 A 
ATOM      5  C6  UNL d   1       0.937  -2.167   4.194  0.00  0.00    -0.075 A 
ATOM      6  C7  UNL d   1       2.162  -2.475   5.005  0.00  0.00     0.076 C 
ATOM      7  C8  UNL d   1       0.905  -1.023   3.385  0.00  0.00     0.001 A 
ENDROOT
BRANCH   1   8
ATOM      8  C1  UNL d   1      -0.249   0.518   1.750  0.00  0.00     0.053 C 
ATOM      9  C   UNL d   1      -1.486   0.574   0.868  0.00  0.00     0.018 C 
ENDBRANCH   1   8
TORSDOF 1
ENDMDL
