MODEL 1
REMARK minimizedAffinity 5.55228519
REMARK minimizedRMSD -1
REMARK  1 active torsions:
REMARK  status: ('A' for Active; 'I' for Inactive)
REMARK    1  A    between atoms: C1_2  and  C2_3 
ROOT
ATOM      1  C2  UNL d   1       1.011  -1.672   3.679  0.00  0.00    -0.073 A 
ATOM      2  C3  UNL d   1       2.192  -0.927   3.579  0.00  0.00    -0.002 A 
ATOM      3  C4  UNL d   1       2.287   0.124   2.667  0.00  0.00     0.004 A 
ATOM      4  C5  UNL d   1       1.202   0.447   1.852  0.00  0.00    -0.004 A 
ATOM      5  C6  UNL d   1       0.010  -0.278   1.945  0.00  0.00    -0.075 A 
ATOM      6  C7  UNL d   1      -1.166   0.055   1.074  0.00  0.00     0.076 C 
ATOM      7  C8  UNL d   1      -0.077  -1.334   2.862  0.00  0.00     0.001 A 
ENDROOT
BRANCH   1   8
ATOM      8  C1  UNL d   1       0.902  -2.804   4.667  0.00  0.00     0.053 C 
ATOM      9  C   UNL d   1       2.210  -3.049   5.401  0.00  0.00     0.018 C 
ENDBRANCH   1   8
TORSDOF 1
ENDMDL
