MODEL 1
REMARK minimizedAffinity 9.71051025
REMARK minimizedRMSD -1
REMARK  1 active torsions:
REMARK  status: ('A' for Active; 'I' for Inactive)
REMARK    1  A    between atoms: C1_2  and  C2_3 
ROOT
ATOM      1  C2  UNL d   1       0.473  -1.097   3.105  0.00  0.00    -0.073 A 
ATOM      2  C3  UNL d   1      -0.677  -1.759   2.659  0.00  0.00    -0.002 A 
ATOM      3  C4  UNL d   1      -1.574  -1.116   1.805  0.00  0.00     0.004 A 
ATOM      4  C5  UNL d   1      -1.328   0.191   1.384  0.00  0.00    -0.004 A 
ATOM      5  C6  UNL d   1      -0.179   0.865   1.809  0.00  0.00    -0.075 A 
ATOM      6  C7  UNL d   1       0.098   2.272   1.367  0.00  0.00     0.076 C 
ATOM      7  C8  UNL d   1       0.716   0.213   2.669  0.00  0.00     0.001 A 
ENDROOT
BRANCH   1   8
ATOM      8  C1  UNL d   1       1.448  -1.789   4.022  0.00  0.00     0.053 C 
ATOM      9  C   UNL d   1       1.396  -1.232   5.436  0.00  0.00     0.018 C 
ENDBRANCH   1   8
TORSDOF 1
ENDMDL
