MODEL 1
REMARK minimizedAffinity -0.140180454
REMARK minimizedRMSD -1
REMARK  1 active torsions:
REMARK  status: ('A' for Active; 'I' for Inactive)
REMARK    1  A    between atoms: C1_2  and  C2_3 
ROOT
ATOM      1  C2  UNL d   1       0.740  -0.863   3.834  0.00  0.00    -0.073 A 
ATOM      2  C3  UNL d   1       1.241  -0.566   2.561  0.00  0.00    -0.002 A 
ATOM      3  C4  UNL d   1       0.376  -0.449   1.473  0.00  0.00     0.004 A 
ATOM      4  C5  UNL d   1      -0.998  -0.621   1.646  0.00  0.00    -0.004 A 
ATOM      5  C6  UNL d   1      -1.518  -0.907   2.912  0.00  0.00    -0.075 A 
ATOM      6  C7  UNL d   1      -2.993  -1.098   3.115  0.00  0.00     0.076 C 
ATOM      7  C8  UNL d   1      -0.643  -1.026   4.000  0.00  0.00     0.001 A 
ENDROOT
BRANCH   1   8
ATOM      8  C1  UNL d   1       1.670  -0.984   5.013  0.00  0.00     0.053 C 
ATOM      9  C   UNL d   1       3.080  -1.366   4.591  0.00  0.00     0.018 C 
ENDBRANCH   1   8
TORSDOF 1
ENDMDL
