MODEL 1
REMARK minimizedAffinity 0.951384306
REMARK minimizedRMSD -1
REMARK  1 active torsions:
REMARK  status: ('A' for Active; 'I' for Inactive)
REMARK    1  A    between atoms: C1_2  and  C2_3 
ROOT
ATOM      1  C2  UNL d   1      -0.406  -0.087   1.866  0.00  0.00    -0.073 A 
ATOM      2  C3  UNL d   1       0.849   0.387   1.466  0.00  0.00    -0.002 A 
ATOM      3  C4  UNL d   1       2.006  -0.051   2.112  0.00  0.00     0.004 A 
ATOM      4  C5  UNL d   1       1.921  -0.970   3.157  0.00  0.00    -0.004 A 
ATOM      5  C6  UNL d   1       0.677  -1.464   3.564  0.00  0.00    -0.075 A 
ATOM      6  C7  UNL d   1       0.569  -2.451   4.688  0.00  0.00     0.076 C 
ATOM      7  C8  UNL d   1      -0.480  -1.017   2.912  0.00  0.00     0.001 A 
ENDROOT
BRANCH   1   8
ATOM      8  C1  UNL d   1      -1.658   0.378   1.167  0.00  0.00     0.053 C 
ATOM      9  C   UNL d   1      -1.716  -0.099  -0.275  0.00  0.00     0.018 C 
ENDBRANCH   1   8
TORSDOF 1
ENDMDL
