MODEL 1
REMARK minimizedAffinity -1.21186376
REMARK minimizedRMSD -1
REMARK  2 active torsions:
REMARK  status: ('A' for Active; 'I' for Inactive)
REMARK    1  A    between atoms: C2'_3  and  C1'_4 
REMARK    2  A    between atoms: C1'_4  and  C1_5 
ROOT
ATOM      1  C1  I4B d   1       1.156   0.720   0.560  0.00  0.00    -0.075 A 
ATOM      2  C2  I4B d   1       2.156   1.298  -0.182  0.00  0.00     0.003 A 
ATOM      3  C3  I4B d   1       2.941   2.340   0.369  0.00  0.00     0.002 A 
ATOM      4  C4  I4B d   1       2.661   2.804   1.638  0.00  0.00    -0.004 A 
ATOM      5  C5  I4B d   1       1.662   2.201   2.397  0.00  0.00     0.002 A 
ATOM      6  C6  I4B d   1       0.913   1.145   1.860  0.00  0.00     0.003 A 
ENDROOT
BRANCH   1   7
ATOM      7  C1' I4B d   1       0.325  -0.355  -0.064  0.00  0.00     0.060 C 
BRANCH   7   8
ATOM      8  C2' I4B d   1      -0.695   0.308  -0.967  0.00  0.00    -0.013 C 
ATOM      9  C4' I4B d   1      -0.101   0.640  -2.310  0.00  0.00     0.013 C 
ATOM     10  C3' I4B d   1      -1.863  -0.622  -1.107  0.00  0.00     0.013 C 
ENDBRANCH   7   8
ENDBRANCH   1   7
TORSDOF 2
ENDMDL
