MODEL 1
REMARK minimizedAffinity -2.62757945
REMARK minimizedRMSD -1
REMARK  2 active torsions:
REMARK  status: ('A' for Active; 'I' for Inactive)
REMARK    1  A    between atoms: C2'_3  and  C1'_4 
REMARK    2  A    between atoms: C1'_4  and  C1_5 
ROOT
ATOM      1  C1  I4B d   1       0.206  -1.214   1.843  0.00  0.00    -0.075 A 
ATOM      2  C2  I4B d   1       0.068  -2.383   2.549  0.00  0.00     0.003 A 
ATOM      3  C3  I4B d   1      -1.118  -2.638   3.280  0.00  0.00     0.002 A 
ATOM      4  C4  I4B d   1      -2.112  -1.682   3.319  0.00  0.00    -0.004 A 
ATOM      5  C5  I4B d   1      -1.980  -0.507   2.583  0.00  0.00     0.002 A 
ATOM      6  C6  I4B d   1      -0.819  -0.277   1.830  0.00  0.00     0.003 A 
ENDROOT
BRANCH   1   7
ATOM      7  C1' I4B d   1       1.484  -0.963   1.108  0.00  0.00     0.060 C 
BRANCH   7   8
ATOM      8  C2' I4B d   1       1.306   0.291   0.276  0.00  0.00    -0.013 C 
ATOM      9  C4' I4B d   1       2.582   1.088   0.211  0.00  0.00     0.013 C 
ATOM     10  C3' I4B d   1       0.854  -0.122  -1.093  0.00  0.00     0.013 C 
ENDBRANCH   7   8
ENDBRANCH   1   7
TORSDOF 2
ENDMDL
