MODEL 1
REMARK minimizedAffinity 3.73771667
REMARK minimizedRMSD -1
REMARK  2 active torsions:
REMARK  status: ('A' for Active; 'I' for Inactive)
REMARK    1  A    between atoms: C2'_3  and  C1'_4 
REMARK    2  A    between atoms: C1'_4  and  C1_5 
ROOT
ATOM      1  C1  I4B d   1       1.555   1.473   1.218  0.00  0.00    -0.075 A 
ATOM      2  C2  I4B d   1       1.938   1.157  -0.062  0.00  0.00     0.003 A 
ATOM      3  C3  I4B d   1       2.847   1.988  -0.760  0.00  0.00     0.002 A 
ATOM      4  C4  I4B d   1       3.307   3.144  -0.163  0.00  0.00    -0.004 A 
ATOM      5  C5  I4B d   1       2.936   3.451   1.143  0.00  0.00     0.002 A 
ATOM      6  C6  I4B d   1       2.064   2.604   1.843  0.00  0.00     0.003 A 
ENDROOT
BRANCH   1   7
ATOM      7  C1' I4B d   1       0.567   0.592   1.913  0.00  0.00     0.060 C 
BRANCH   7   8
ATOM      8  C2' I4B d   1       0.669  -0.793   1.306  0.00  0.00    -0.013 C 
ATOM      9  C4' I4B d   1       1.352  -1.751   2.245  0.00  0.00     0.013 C 
ATOM     10  C3' I4B d   1      -0.719  -1.256   0.975  0.00  0.00     0.013 C 
ENDBRANCH   7   8
ENDBRANCH   1   7
TORSDOF 2
ENDMDL
