MODEL 1
REMARK minimizedAffinity 6.0989871
REMARK minimizedRMSD -1
REMARK  2 active torsions:
REMARK  status: ('A' for Active; 'I' for Inactive)
REMARK    1  A    between atoms: C2'_3  and  C1'_4 
REMARK    2  A    between atoms: C1'_4  and  C1_5 
ROOT
ATOM      1  C1  I4B d   1       1.028   0.624   2.268  0.00  0.00    -0.075 A 
ATOM      2  C2  I4B d   1      -0.184   0.135   2.688  0.00  0.00     0.003 A 
ATOM      3  C3  I4B d   1      -0.594  -1.168   2.317  0.00  0.00     0.002 A 
ATOM      4  C4  I4B d   1       0.211  -1.924   1.490  0.00  0.00    -0.004 A 
ATOM      5  C5  I4B d   1       1.449  -1.436   1.084  0.00  0.00     0.002 A 
ATOM      6  C6  I4B d   1       1.867  -0.159   1.486  0.00  0.00     0.003 A 
ENDROOT
BRANCH   1   7
ATOM      7  C1' I4B d   1       1.416   2.017   2.651  0.00  0.00     0.060 C 
BRANCH   7   8
ATOM      8  C2' I4B d   1       2.843   2.246   2.197  0.00  0.00    -0.013 C 
ATOM      9  C4' I4B d   1       2.990   3.579   1.512  0.00  0.00     0.013 C 
ATOM     10  C3' I4B d   1       3.732   2.156   3.402  0.00  0.00     0.013 C 
ENDBRANCH   7   8
ENDBRANCH   1   7
TORSDOF 2
ENDMDL
