MODEL 1
REMARK minimizedAffinity 3.66137719
REMARK minimizedRMSD -1
REMARK  2 active torsions:
REMARK  status: ('A' for Active; 'I' for Inactive)
REMARK    1  A    between atoms: C2'_3  and  C1'_4 
REMARK    2  A    between atoms: C1'_4  and  C1_5 
ROOT
ATOM      1  C1  I4B d   1       1.126   0.981   2.442  0.00  0.00    -0.075 A 
ATOM      2  C2  I4B d   1      -0.225   0.739   2.454  0.00  0.00     0.003 A 
ATOM      3  C3  I4B d   1      -0.715  -0.580   2.295  0.00  0.00     0.002 A 
ATOM      4  C4  I4B d   1       0.173  -1.613   2.077  0.00  0.00    -0.004 A 
ATOM      5  C5  I4B d   1       1.544  -1.370   2.088  0.00  0.00     0.002 A 
ATOM      6  C6  I4B d   1       2.024  -0.067   2.284  0.00  0.00     0.003 A 
ENDROOT
BRANCH   1   7
ATOM      7  C1' I4B d   1       1.608   2.390   2.580  0.00  0.00     0.060 C 
BRANCH   7   8
ATOM      8  C2' I4B d   1       3.043   2.442   2.097  0.00  0.00    -0.013 C 
ATOM      9  C4' I4B d   1       3.123   2.944   0.680  0.00  0.00     0.013 C 
ATOM     10  C3' I4B d   1       3.813   3.329   3.030  0.00  0.00     0.013 C 
ENDBRANCH   7   8
ENDBRANCH   1   7
TORSDOF 2
ENDMDL
