MODEL 1
REMARK minimizedAffinity 3.52939892
REMARK minimizedRMSD -1
REMARK  2 active torsions:
REMARK  status: ('A' for Active; 'I' for Inactive)
REMARK    1  A    between atoms: C2'_3  and  C1'_4 
REMARK    2  A    between atoms: C1'_4  and  C1_5 
ROOT
ATOM      1  C1  I4B d   1      -0.715  -1.093   0.421  0.00  0.00    -0.075 A 
ATOM      2  C2  I4B d   1      -2.037  -1.067   0.055  0.00  0.00     0.003 A 
ATOM      3  C3  I4B d   1      -2.404  -0.715  -1.266  0.00  0.00     0.002 A 
ATOM      4  C4  I4B d   1      -1.427  -0.349  -2.169  0.00  0.00    -0.004 A 
ATOM      5  C5  I4B d   1      -0.085  -0.398  -1.803  0.00  0.00     0.002 A 
ATOM      6  C6  I4B d   1       0.275  -0.784  -0.503  0.00  0.00     0.003 A 
ENDROOT
BRANCH   1   7
ATOM      7  C1' I4B d   1      -0.364  -1.437   1.834  0.00  0.00     0.060 C 
BRANCH   7   8
ATOM      8  C2' I4B d   1       1.142  -1.576   1.921  0.00  0.00    -0.013 C 
ATOM      9  C4' I4B d   1       1.795  -0.251   2.215  0.00  0.00     0.013 C 
ATOM     10  C3' I4B d   1       1.453  -2.582   2.989  0.00  0.00     0.013 C 
ENDBRANCH   7   8
ENDBRANCH   1   7
TORSDOF 2
ENDMDL
