MODEL 1
REMARK minimizedAffinity 4.02037001
REMARK minimizedRMSD -1
REMARK  2 active torsions:
REMARK  status: ('A' for Active; 'I' for Inactive)
REMARK    1  A    between atoms: C2'_3  and  C1'_4 
REMARK    2  A    between atoms: C1'_4  and  C1_5 
ROOT
ATOM      1  C1  I4B d   1       3.241   2.743   0.877  0.00  0.00    -0.075 A 
ATOM      2  C2  I4B d   1       4.404   2.498   1.563  0.00  0.00     0.003 A 
ATOM      3  C3  I4B d   1       5.569   2.091   0.868  0.00  0.00     0.002 A 
ATOM      4  C4  I4B d   1       5.513   1.896  -0.497  0.00  0.00    -0.004 A 
ATOM      5  C5  I4B d   1       4.338   2.167  -1.194  0.00  0.00     0.002 A 
ATOM      6  C6  I4B d   1       3.198   2.606  -0.504  0.00  0.00     0.003 A 
ENDROOT
BRANCH   1   7
ATOM      7  C1' I4B d   1       2.020   3.139   1.647  0.00  0.00     0.060 C 
BRANCH   7   8
ATOM      8  C2' I4B d   1       1.378   1.876   2.184  0.00  0.00    -0.013 C 
ATOM      9  C4' I4B d   1       1.755   1.643   3.623  0.00  0.00     0.013 C 
ATOM     10  C3' I4B d   1      -0.107   2.010   2.029  0.00  0.00     0.013 C 
ENDBRANCH   7   8
ENDBRANCH   1   7
TORSDOF 2
ENDMDL
