MODEL 1
REMARK minimizedAffinity 8.38314056
REMARK minimizedRMSD -1
REMARK  2 active torsions:
REMARK  status: ('A' for Active; 'I' for Inactive)
REMARK    1  A    between atoms: C2'_3  and  C1'_4 
REMARK    2  A    between atoms: C1'_4  and  C1_5 
ROOT
ATOM      1  C1  I4B d   1       2.262   0.791   0.220  0.00  0.00    -0.075 A 
ATOM      2  C2  I4B d   1       2.721   1.299  -0.970  0.00  0.00     0.003 A 
ATOM      3  C3  I4B d   1       3.091   2.663  -1.067  0.00  0.00     0.002 A 
ATOM      4  C4  I4B d   1       2.939   3.488   0.029  0.00  0.00    -0.004 A 
ATOM      5  C5  I4B d   1       2.495   2.965   1.241  0.00  0.00     0.002 A 
ATOM      6  C6  I4B d   1       2.166   1.606   1.340  0.00  0.00     0.003 A 
ENDROOT
BRANCH   1   7
ATOM      7  C1' I4B d   1       1.848  -0.646   0.278  0.00  0.00     0.060 C 
BRANCH   7   8
ATOM      8  C2' I4B d   1       0.584  -0.734   1.108  0.00  0.00    -0.013 C 
ATOM      9  C4' I4B d   1      -0.599  -1.123   0.260  0.00  0.00     0.013 C 
ATOM     10  C3' I4B d   1       0.817  -1.733   2.202  0.00  0.00     0.013 C 
ENDBRANCH   7   8
ENDBRANCH   1   7
TORSDOF 2
ENDMDL
