MODEL 1
REMARK minimizedAffinity 5.29222155
REMARK minimizedRMSD -1
REMARK  2 active torsions:
REMARK  status: ('A' for Active; 'I' for Inactive)
REMARK    1  A    between atoms: C2'_3  and  C1'_4 
REMARK    2  A    between atoms: C1'_4  and  C1_5 
ROOT
ATOM      1  C1  I4B d   1      -1.260  -1.035  -0.029  0.00  0.00    -0.075 A 
ATOM      2  C2  I4B d   1      -2.529  -0.697  -0.426  0.00  0.00     0.003 A 
ATOM      3  C3  I4B d   1      -2.737  -0.024  -1.654  0.00  0.00     0.002 A 
ATOM      4  C4  I4B d   1      -1.650   0.335  -2.425  0.00  0.00    -0.004 A 
ATOM      5  C5  I4B d   1      -0.365  -0.029  -2.032  0.00  0.00     0.002 A 
ATOM      6  C6  I4B d   1      -0.169  -0.729  -0.833  0.00  0.00     0.003 A 
ENDROOT
BRANCH   1   7
ATOM      7  C1' I4B d   1      -1.074  -1.717   1.289  0.00  0.00     0.060 C 
BRANCH   7   8
ATOM      8  C2' I4B d   1       0.289  -1.330   1.827  0.00  0.00    -0.013 C 
ATOM      9  C4' I4B d   1       0.212  -0.072   2.652  0.00  0.00     0.013 C 
ATOM     10  C3' I4B d   1       0.810  -2.478   2.638  0.00  0.00     0.013 C 
ENDBRANCH   7   8
ENDBRANCH   1   7
TORSDOF 2
ENDMDL
