MODEL 1
REMARK minimizedAffinity 8.73658752
REMARK minimizedRMSD -1
REMARK  2 active torsions:
REMARK  status: ('A' for Active; 'I' for Inactive)
REMARK    1  A    between atoms: C2'_3  and  C1'_4 
REMARK    2  A    between atoms: C1'_4  and  C1_5 
ROOT
ATOM      1  C1  I4B d   1      -3.179   0.687  -0.880  0.00  0.00    -0.075 A 
ATOM      2  C2  I4B d   1      -2.374   1.294  -1.812  0.00  0.00     0.003 A 
ATOM      3  C3  I4B d   1      -1.350   0.558  -2.456  0.00  0.00     0.002 A 
ATOM      4  C4  I4B d   1      -1.134  -0.758  -2.103  0.00  0.00    -0.004 A 
ATOM      5  C5  I4B d   1      -1.965  -1.377  -1.173  0.00  0.00     0.002 A 
ATOM      6  C6  I4B d   1      -3.002  -0.654  -0.567  0.00  0.00     0.003 A 
ENDROOT
BRANCH   1   7
ATOM      7  C1' I4B d   1      -4.230   1.503  -0.195  0.00  0.00     0.060 C 
BRANCH   7   8
ATOM      8  C2' I4B d   1      -3.554   2.709   0.425  0.00  0.00    -0.013 C 
ATOM      9  C4' I4B d   1      -4.537   3.828   0.652  0.00  0.00     0.013 C 
ATOM     10  C3' I4B d   1      -2.922   2.274   1.714  0.00  0.00     0.013 C 
ENDBRANCH   7   8
ENDBRANCH   1   7
TORSDOF 2
ENDMDL
