MODEL 1
REMARK minimizedAffinity 3.49840522
REMARK minimizedRMSD -1
REMARK  2 active torsions:
REMARK  status: ('A' for Active; 'I' for Inactive)
REMARK    1  A    between atoms: C2'_3  and  C1'_4 
REMARK    2  A    between atoms: C1'_4  and  C1_5 
ROOT
ATOM      1  C1  I4B d   1      -0.647   1.310  -3.200  0.00  0.00    -0.075 A 
ATOM      2  C2  I4B d   1      -0.426   0.089  -2.612  0.00  0.00     0.003 A 
ATOM      3  C3  I4B d   1      -1.477  -0.577  -1.936  0.00  0.00     0.002 A 
ATOM      4  C4  I4B d   1      -2.710   0.033  -1.829  0.00  0.00    -0.004 A 
ATOM      5  C5  I4B d   1      -2.939   1.260  -2.445  0.00  0.00     0.002 A 
ATOM      6  C6  I4B d   1      -1.904   1.897  -3.145  0.00  0.00     0.003 A 
ENDROOT
BRANCH   1   7
ATOM      7  C1' I4B d   1       0.494   2.000  -3.877  0.00  0.00     0.060 C 
BRANCH   7   8
ATOM      8  C2' I4B d   1       0.328   1.819  -5.372  0.00  0.00    -0.013 C 
ATOM      9  C4' I4B d   1      -0.321   3.025  -5.999  0.00  0.00     0.013 C 
ATOM     10  C3' I4B d   1       1.684   1.566  -5.961  0.00  0.00     0.013 C 
ENDBRANCH   7   8
ENDBRANCH   1   7
TORSDOF 2
ENDMDL
