MODEL 1
REMARK minimizedAffinity 8.76136971
REMARK minimizedRMSD -1
REMARK  2 active torsions:
REMARK  status: ('A' for Active; 'I' for Inactive)
REMARK    1  A    between atoms: C2'_3  and  C1'_4 
REMARK    2  A    between atoms: C1'_4  and  C1_5 
ROOT
ATOM      1  C1  I4B d   1      -2.337  -1.034  -1.601  0.00  0.00    -0.075 A 
ATOM      2  C2  I4B d   1      -1.303  -0.197  -1.936  0.00  0.00     0.003 A 
ATOM      3  C3  I4B d   1      -0.438  -0.526  -3.008  0.00  0.00     0.002 A 
ATOM      4  C4  I4B d   1      -0.612  -1.718  -3.680  0.00  0.00    -0.004 A 
ATOM      5  C5  I4B d   1      -1.675  -2.555  -3.354  0.00  0.00     0.002 A 
ATOM      6  C6  I4B d   1      -2.551  -2.205  -2.316  0.00  0.00     0.003 A 
ENDROOT
BRANCH   1   7
ATOM      7  C1' I4B d   1      -3.212  -0.672  -0.443  0.00  0.00     0.060 C 
BRANCH   7   8
ATOM      8  C2' I4B d   1      -2.434   0.272   0.452  0.00  0.00    -0.013 C 
ATOM      9  C4' I4B d   1      -3.275   1.452   0.861  0.00  0.00     0.013 C 
ATOM     10  C3' I4B d   1      -1.969  -0.503   1.648  0.00  0.00     0.013 C 
ENDBRANCH   7   8
ENDBRANCH   1   7
TORSDOF 2
ENDMDL
