MODEL 1
REMARK minimizedAffinity -2.40444422
REMARK minimizedRMSD -1
REMARK  0 active torsions:
REMARK  status: ('A' for Active; 'I' for Inactive)
ROOT
ATOM      1  C   UNL d   1       4.022   2.450  -0.797  0.00  0.00     0.020 A 
ATOM      2  C1  UNL d   1       4.654   1.964  -1.941  0.00  0.00     0.020 A 
ATOM      3  C2  UNL d   1       4.231   0.764  -2.516  0.00  0.00     0.034 A 
ATOM      4  C3  UNL d   1       3.173   0.045  -1.947  0.00  0.00     0.017 A 
ATOM      5  C4  UNL d   1       2.539   0.534  -0.799  0.00  0.00     0.017 A 
ATOM      6  C5  UNL d   1       2.967   1.736  -0.228  0.00  0.00     0.034 A 
ATOM      7 Cl   UNL d   1       1.227  -0.297  -0.040  0.00  0.00    -0.070 Cl
ATOM      8 Cl1  UNL d   1       2.702  -1.432  -2.711  0.00  0.00    -0.070 Cl
ENDROOT
TORSDOF 0
ENDMDL
