MODEL 1
REMARK minimizedAffinity 4.96856022
REMARK minimizedRMSD -1
REMARK  0 active torsions:
REMARK  status: ('A' for Active; 'I' for Inactive)
ROOT
ATOM      1  C   UNL d   1      -5.237   3.121   1.019  0.00  0.00     0.020 A 
ATOM      2  C1  UNL d   1      -6.000   2.057   1.498  0.00  0.00     0.020 A 
ATOM      3  C2  UNL d   1      -5.999   0.836   0.821  0.00  0.00     0.034 A 
ATOM      4  C3  UNL d   1      -5.233   0.675  -0.339  0.00  0.00     0.017 A 
ATOM      5  C4  UNL d   1      -4.467   1.743  -0.820  0.00  0.00     0.017 A 
ATOM      6  C5  UNL d   1      -4.472   2.964  -0.138  0.00  0.00     0.034 A 
ATOM      7 Cl   UNL d   1      -3.497   1.621  -2.245  0.00  0.00    -0.070 Cl
ATOM      8 Cl1  UNL d   1      -5.278  -0.863  -1.125  0.00  0.00    -0.070 Cl
ENDROOT
TORSDOF 0
ENDMDL
