MODEL 1
REMARK minimizedAffinity 3.01460218
REMARK minimizedRMSD -1
REMARK  0 active torsions:
REMARK  status: ('A' for Active; 'I' for Inactive)
ROOT
ATOM      1  C   UNL d   1       6.000   1.979  -1.126  0.00  0.00     0.020 A 
ATOM      2  C1  UNL d   1       5.369   2.984  -0.394  0.00  0.00     0.020 A 
ATOM      3  C2  UNL d   1       4.103   2.761   0.150  0.00  0.00     0.034 A 
ATOM      4  C3  UNL d   1       3.462   1.531  -0.038  0.00  0.00     0.017 A 
ATOM      5  C4  UNL d   1       4.096   0.523  -0.773  0.00  0.00     0.017 A 
ATOM      6  C5  UNL d   1       5.365   0.751  -1.315  0.00  0.00     0.034 A 
ATOM      7 Cl   UNL d   1       3.369  -1.021  -1.046  0.00  0.00    -0.070 Cl
ATOM      8 Cl1  UNL d   1       1.897   1.325   0.664  0.00  0.00    -0.070 Cl
ENDROOT
TORSDOF 0
ENDMDL
