MODEL 1
REMARK minimizedAffinity -0.983969271
REMARK minimizedRMSD -1
REMARK  0 active torsions:
REMARK  status: ('A' for Active; 'I' for Inactive)
ROOT
ATOM      1  C   UNL d   1      -4.094   3.375  -2.831  0.00  0.00     0.020 A 
ATOM      2  C1  UNL d   1      -5.471   3.294  -3.040  0.00  0.00     0.020 A 
ATOM      3  C2  UNL d   1      -6.000   2.254  -3.807  0.00  0.00     0.034 A 
ATOM      4  C3  UNL d   1      -5.153   1.292  -4.369  0.00  0.00     0.017 A 
ATOM      5  C4  UNL d   1      -3.772   1.374  -4.158  0.00  0.00     0.017 A 
ATOM      6  C5  UNL d   1      -3.247   2.417  -3.389  0.00  0.00     0.034 A 
ATOM      7 Cl   UNL d   1      -2.663   0.224  -4.819  0.00  0.00    -0.070 Cl
ATOM      8 Cl1  UNL d   1      -5.876   0.033  -5.306  0.00  0.00    -0.070 Cl
ENDROOT
TORSDOF 0
ENDMDL
