MODEL 1
REMARK minimizedAffinity -0.839259207
REMARK minimizedRMSD -1
REMARK  0 active torsions:
REMARK  status: ('A' for Active; 'I' for Inactive)
ROOT
ATOM      1  C   UNL d   1       1.654   1.696   1.614  0.00  0.00     0.020 A 
ATOM      2  C1  UNL d   1       2.427   2.333   2.584  0.00  0.00     0.020 A 
ATOM      3  C2  UNL d   1       3.766   2.631   2.325  0.00  0.00     0.034 A 
ATOM      4  C3  UNL d   1       4.337   2.293   1.093  0.00  0.00     0.017 A 
ATOM      5  C4  UNL d   1       3.561   1.654   0.120  0.00  0.00     0.017 A 
ATOM      6  C5  UNL d   1       2.220   1.357   0.384  0.00  0.00     0.034 A 
ATOM      7 Cl   UNL d   1       4.195   1.206  -1.425  0.00  0.00    -0.070 Cl
ATOM      8 Cl1  UNL d   1       5.999   2.693   0.841  0.00  0.00    -0.070 Cl
ENDROOT
TORSDOF 0
ENDMDL
