MODEL 1
REMARK minimizedAffinity -0.607157886
REMARK minimizedRMSD -1
REMARK  0 active torsions:
REMARK  status: ('A' for Active; 'I' for Inactive)
ROOT
ATOM      1  C   UNL d   1      -5.999   1.557  -3.868  0.00  0.00     0.020 A 
ATOM      2  C1  UNL d   1      -5.536   0.249  -3.738  0.00  0.00     0.020 A 
ATOM      3  C2  UNL d   1      -4.180   0.008  -3.508  0.00  0.00     0.034 A 
ATOM      4  C3  UNL d   1      -3.282   1.077  -3.408  0.00  0.00     0.017 A 
ATOM      5  C4  UNL d   1      -3.748   2.390  -3.539  0.00  0.00     0.017 A 
ATOM      6  C5  UNL d   1      -5.107   2.626  -3.768  0.00  0.00     0.034 A 
ATOM      7 Cl   UNL d   1      -2.701   3.760  -3.427  0.00  0.00    -0.070 Cl
ATOM      8 Cl1  UNL d   1      -1.619   0.705  -3.124  0.00  0.00    -0.070 Cl
ENDROOT
TORSDOF 0
ENDMDL
