MODEL 1
REMARK minimizedAffinity 4.98557615
REMARK minimizedRMSD -1
REMARK  0 active torsions:
REMARK  status: ('A' for Active; 'I' for Inactive)
ROOT
ATOM      1  C   UNL d   1      -4.007  -0.009  -4.507  0.00  0.00     0.020 A 
ATOM      2  C1  UNL d   1      -5.369  -0.052  -4.212  0.00  0.00     0.020 A 
ATOM      3  C2  UNL d   1      -5.964   0.997  -3.508  0.00  0.00     0.034 A 
ATOM      4  C3  UNL d   1      -5.197   2.094  -3.097  0.00  0.00     0.017 A 
ATOM      5  C4  UNL d   1      -3.830   2.136  -3.394  0.00  0.00     0.017 A 
ATOM      6  C5  UNL d   1      -3.239   1.083  -4.099  0.00  0.00     0.034 A 
ATOM      7 Cl   UNL d   1      -2.819   3.455  -2.920  0.00  0.00    -0.070 Cl
ATOM      8 Cl1  UNL d   1      -5.999   3.356  -2.231  0.00  0.00    -0.070 Cl
ENDROOT
TORSDOF 0
ENDMDL
