MODEL 1
REMARK minimizedAffinity 10.4991941
REMARK minimizedRMSD -1
REMARK  0 active torsions:
REMARK  status: ('A' for Active; 'I' for Inactive)
ROOT
ATOM      1  C   UNL d   1       2.746  -0.350  -0.590  0.00  0.00     0.020 A 
ATOM      2  C1  UNL d   1       2.826   1.042  -0.576  0.00  0.00     0.020 A 
ATOM      3  C2  UNL d   1       2.178   1.768   0.426  0.00  0.00     0.034 A 
ATOM      4  C3  UNL d   1       1.448   1.102   1.417  0.00  0.00     0.017 A 
ATOM      5  C4  UNL d   1       1.369  -0.295   1.402  0.00  0.00     0.017 A 
ATOM      6  C5  UNL d   1       2.019  -1.017   0.397  0.00  0.00     0.034 A 
ATOM      7 Cl   UNL d   1       0.487  -1.186   2.592  0.00  0.00    -0.070 Cl
ATOM      8 Cl1  UNL d   1       0.673   2.064   2.626  0.00  0.00    -0.070 Cl
ENDROOT
TORSDOF 0
ENDMDL
