MODEL 1
REMARK minimizedAffinity 5.57643843
REMARK minimizedRMSD -1
REMARK  0 active torsions:
REMARK  status: ('A' for Active; 'I' for Inactive)
ROOT
ATOM      1  C   UNL d   1      -3.978   3.907  -3.505  0.00  0.00     0.020 A 
ATOM      2  C1  UNL d   1      -5.311   3.599  -3.236  0.00  0.00     0.020 A 
ATOM      3  C2  UNL d   1      -5.722   2.265  -3.182  0.00  0.00     0.034 A 
ATOM      4  C3  UNL d   1      -4.800   1.235  -3.398  0.00  0.00     0.017 A 
ATOM      5  C4  UNL d   1      -3.462   1.545  -3.668  0.00  0.00     0.017 A 
ATOM      6  C5  UNL d   1      -3.056   2.882  -3.721  0.00  0.00     0.034 A 
ATOM      7 Cl   UNL d   1      -2.266   0.329  -3.945  0.00  0.00    -0.070 Cl
ATOM      8 Cl1  UNL d   1      -5.378  -0.391  -3.316  0.00  0.00    -0.070 Cl
ENDROOT
TORSDOF 0
ENDMDL
