MODEL 1
REMARK minimizedAffinity -1.14595664
REMARK minimizedRMSD -1
REMARK  0 active torsions:
REMARK  status: ('A' for Active; 'I' for Inactive)
ROOT
ATOM      1  C   UNL d   1       4.294   0.940  -1.092  0.00  0.00     0.020 A 
ATOM      2  C1  UNL d   1       3.797   0.322  -2.238  0.00  0.00     0.020 A 
ATOM      3  C2  UNL d   1       2.976  -0.802  -2.125  0.00  0.00     0.034 A 
ATOM      4  C3  UNL d   1       2.650  -1.312  -0.863  0.00  0.00     0.017 A 
ATOM      5  C4  UNL d   1       3.149  -0.690   0.287  0.00  0.00     0.017 A 
ATOM      6  C5  UNL d   1       3.971   0.435   0.168  0.00  0.00     0.034 A 
ATOM      7 Cl   UNL d   1       2.791  -1.261   1.879  0.00  0.00    -0.070 Cl
ATOM      8 Cl1  UNL d   1       1.630  -2.705  -0.798  0.00  0.00    -0.070 Cl
ENDROOT
TORSDOF 0
ENDMDL
