MODEL 1
REMARK minimizedAffinity 8.20633698
REMARK minimizedRMSD -1
REMARK  0 active torsions:
REMARK  status: ('A' for Active; 'I' for Inactive)
ROOT
ATOM      1  C   UNL d   1      -3.767   1.598  -4.903  0.00  0.00     0.020 A 
ATOM      2  C1  UNL d   1      -3.812   2.412  -3.772  0.00  0.00     0.020 A 
ATOM      3  C2  UNL d   1      -4.506   1.989  -2.635  0.00  0.00     0.034 A 
ATOM      4  C3  UNL d   1      -5.156   0.750  -2.628  0.00  0.00     0.017 A 
ATOM      5  C4  UNL d   1      -5.110  -0.066  -3.765  0.00  0.00     0.017 A 
ATOM      6  C5  UNL d   1      -4.415   0.362  -4.899  0.00  0.00     0.034 A 
ATOM      7 Cl   UNL d   1      -5.889  -1.608  -3.831  0.00  0.00    -0.070 Cl
ATOM      8 Cl1  UNL d   1      -5.995   0.291  -1.189  0.00  0.00    -0.070 Cl
ENDROOT
TORSDOF 0
ENDMDL
