MODEL 1
REMARK minimizedAffinity 11.0297728
REMARK minimizedRMSD -1
REMARK  0 active torsions:
REMARK  status: ('A' for Active; 'I' for Inactive)
ROOT
ATOM      1  C   UNL d   1      -4.786  -5.996  -4.507  0.00  0.00     0.020 A 
ATOM      2  C1  UNL d   1      -4.358  -5.151  -5.531  0.00  0.00     0.020 A 
ATOM      3  C2  UNL d   1      -3.262  -4.310  -5.329  0.00  0.00     0.034 A 
ATOM      4  C3  UNL d   1      -2.589  -4.311  -4.102  0.00  0.00     0.017 A 
ATOM      5  C4  UNL d   1      -3.019  -5.160  -3.075  0.00  0.00     0.017 A 
ATOM      6  C5  UNL d   1      -4.117  -6.000  -3.282  0.00  0.00     0.034 A 
ATOM      7 Cl   UNL d   1      -2.240  -5.218  -1.533  0.00  0.00    -0.070 Cl
ATOM      8 Cl1  UNL d   1      -1.241  -3.245  -3.923  0.00  0.00    -0.070 Cl
ENDROOT
TORSDOF 0
ENDMDL
