MODEL 1
REMARK minimizedAffinity 1.76886797
REMARK minimizedRMSD -1
REMARK  0 active torsions:
REMARK  status: ('A' for Active; 'I' for Inactive)
ROOT
ATOM      1  C   UNL d   1      -5.185  -0.768  -0.988  0.00  0.00     0.020 A 
ATOM      2  C1  UNL d   1      -5.757   0.354  -0.390  0.00  0.00     0.020 A 
ATOM      3  C2  UNL d   1      -5.999   1.501  -1.148  0.00  0.00     0.034 A 
ATOM      4  C3  UNL d   1      -5.670   1.529  -2.508  0.00  0.00     0.017 A 
ATOM      5  C4  UNL d   1      -5.096   0.402  -3.107  0.00  0.00     0.017 A 
ATOM      6  C5  UNL d   1      -4.855  -0.744  -2.344  0.00  0.00     0.034 A 
ATOM      7 Cl   UNL d   1      -4.662   0.361  -4.780  0.00  0.00    -0.070 Cl
ATOM      8 Cl1  UNL d   1      -5.998   2.982  -3.384  0.00  0.00    -0.070 Cl
ENDROOT
TORSDOF 0
ENDMDL
