MODEL 1
REMARK minimizedAffinity 2.94346714
REMARK minimizedRMSD -1
REMARK  0 active torsions:
REMARK  status: ('A' for Active; 'I' for Inactive)
ROOT
ATOM      1  C   UNL d   1       1.039  -2.863  -0.631  0.00  0.00     0.020 A 
ATOM      2  C1  UNL d   1      -0.183  -3.003  -1.288  0.00  0.00     0.020 A 
ATOM      3  C2  UNL d   1      -0.926  -1.870  -1.628  0.00  0.00     0.034 A 
ATOM      4  C3  UNL d   1      -0.448  -0.594  -1.312  0.00  0.00     0.017 A 
ATOM      5  C4  UNL d   1       0.778  -0.455  -0.652  0.00  0.00     0.017 A 
ATOM      6  C5  UNL d   1       1.518  -1.592  -0.313  0.00  0.00     0.034 A 
ATOM      7 Cl   UNL d   1       1.433   1.088  -0.228  0.00  0.00    -0.070 Cl
ATOM      8 Cl1  UNL d   1      -1.419   0.762  -1.763  0.00  0.00    -0.070 Cl
ENDROOT
TORSDOF 0
ENDMDL
