MODEL 1
REMARK minimizedAffinity -0.483647257
REMARK minimizedRMSD -1
REMARK  1 active torsions:
REMARK  status: ('A' for Active; 'I' for Inactive)
REMARK    1  A    between atoms: C1_2  and  C2_3 
ROOT
ATOM      1  C2  UNL d   1       1.721  -1.155  -0.122  0.00  0.00    -0.081 A 
ATOM      2  C3  UNL d   1       3.001  -1.277   0.433  0.00  0.00     0.006 A 
ATOM      3  C4  UNL d   1       3.427  -0.397   1.431  0.00  0.00     0.002 A 
ATOM      4  C5  UNL d   1       2.578   0.613   1.896  0.00  0.00    -0.080 A 
ATOM      5  C6  UNL d   1       3.012   1.544   2.989  0.00  0.00     0.076 C 
ATOM      6  C7  UNL d   1       1.306   0.745   1.330  0.00  0.00     0.002 A 
ATOM      7  C8  UNL d   1       0.880  -0.133   0.331  0.00  0.00     0.006 A 
ENDROOT
BRANCH   1   8
ATOM      8  C1  UNL d   1       1.235  -2.142  -1.153  0.00  0.00     0.054 C 
ATOM      9  C   UNL d   1       0.430  -3.262  -0.510  0.00  0.00     0.018 C 
ENDBRANCH   1   8
TORSDOF 1
ENDMDL
