MODEL 1
REMARK minimizedAffinity -5.78794861
REMARK minimizedRMSD -1
REMARK  1 active torsions:
REMARK  status: ('A' for Active; 'I' for Inactive)
REMARK    1  A    between atoms: C1_2  and  C2_3 
ROOT
ATOM      1  C2  UNL d   1      -1.198  -0.134   0.158  0.00  0.00    -0.081 A 
ATOM      2  C3  UNL d   1      -0.445   1.041   0.049  0.00  0.00     0.006 A 
ATOM      3  C4  UNL d   1       0.923   1.035   0.332  0.00  0.00     0.002 A 
ATOM      4  C5  UNL d   1       1.562  -0.147   0.720  0.00  0.00    -0.080 A 
ATOM      5  C6  UNL d   1       3.036  -0.175   0.997  0.00  0.00     0.076 C 
ATOM      6  C7  UNL d   1       0.806  -1.318   0.847  0.00  0.00     0.002 A 
ATOM      7  C8  UNL d   1      -0.561  -1.312   0.565  0.00  0.00     0.006 A 
ENDROOT
BRANCH   1   8
ATOM      8  C1  UNL d   1      -2.660  -0.145  -0.208  0.00  0.00     0.054 C 
ATOM      9  C   UNL d   1      -2.865   0.206  -1.675  0.00  0.00     0.018 C 
ENDBRANCH   1   8
TORSDOF 1
ENDMDL
