MODEL 1
REMARK minimizedAffinity -2.67566037
REMARK minimizedRMSD -1
REMARK  1 active torsions:
REMARK  status: ('A' for Active; 'I' for Inactive)
REMARK    1  A    between atoms: C1_2  and  C2_3 
ROOT
ATOM      1  C2  UNL d   1      -0.200  -0.001  -0.965  0.00  0.00    -0.081 A 
ATOM      2  C3  UNL d   1      -0.131  -0.391  -2.308  0.00  0.00     0.006 A 
ATOM      3  C4  UNL d   1      -1.276  -0.380  -3.109  0.00  0.00     0.002 A 
ATOM      4  C5  UNL d   1      -2.507   0.028  -2.582  0.00  0.00    -0.080 A 
ATOM      5  C6  UNL d   1      -3.737   0.073  -3.438  0.00  0.00     0.076 C 
ATOM      6  C7  UNL d   1      -2.579   0.401  -1.236  0.00  0.00     0.002 A 
ATOM      7  C8  UNL d   1      -1.435   0.390  -0.435  0.00  0.00     0.006 A 
ENDROOT
BRANCH   1   8
ATOM      8  C1  UNL d   1       1.045   0.051  -0.117  0.00  0.00     0.054 C 
ATOM      9  C   UNL d   1       1.466  -1.341   0.332  0.00  0.00     0.018 C 
ENDBRANCH   1   8
TORSDOF 1
ENDMDL
