MODEL 1
REMARK minimizedAffinity -5.61640215
REMARK minimizedRMSD -1
REMARK  1 active torsions:
REMARK  status: ('A' for Active; 'I' for Inactive)
REMARK    1  A    between atoms: C1_2  and  C2_3 
ROOT
ATOM      1  C2  UNL d   1      -0.511   0.194  -0.089  0.00  0.00    -0.081 A 
ATOM      2  C3  UNL d   1       0.486   1.167  -0.232  0.00  0.00     0.006 A 
ATOM      3  C4  UNL d   1       1.788   0.916   0.208  0.00  0.00     0.002 A 
ATOM      4  C5  UNL d   1       2.116  -0.313   0.791  0.00  0.00    -0.080 A 
ATOM      5  C6  UNL d   1       3.517  -0.606   1.240  0.00  0.00     0.076 C 
ATOM      6  C7  UNL d   1       1.116  -1.278   0.949  0.00  0.00     0.002 A 
ATOM      7  C8  UNL d   1      -0.186  -1.028   0.510  0.00  0.00     0.006 A 
ENDROOT
BRANCH   1   8
ATOM      8  C1  UNL d   1      -1.900   0.436  -0.622  0.00  0.00     0.054 C 
ATOM      9  C   UNL d   1      -2.161  -0.379  -1.880  0.00  0.00     0.018 C 
ENDBRANCH   1   8
TORSDOF 1
ENDMDL
