MODEL 1
REMARK minimizedAffinity -4.3553071
REMARK minimizedRMSD -1
REMARK  1 active torsions:
REMARK  status: ('A' for Active; 'I' for Inactive)
REMARK    1  A    between atoms: C1_2  and  C2_3 
ROOT
ATOM      1  C2  UNL d   1      -0.265  -0.185   0.389  0.00  0.00    -0.081 A 
ATOM      2  C3  UNL d   1       0.734   0.755   0.105  0.00  0.00     0.006 A 
ATOM      3  C4  UNL d   1       2.072   0.476   0.395  0.00  0.00     0.002 A 
ATOM      4  C5  UNL d   1       2.434  -0.749   0.966  0.00  0.00    -0.080 A 
ATOM      5  C6  UNL d   1       3.869  -1.073   1.254  0.00  0.00     0.076 C 
ATOM      6  C7  UNL d   1       1.434  -1.680   1.266  0.00  0.00     0.002 A 
ATOM      7  C8  UNL d   1       0.096  -1.402   0.977  0.00  0.00     0.006 A 
ENDROOT
BRANCH   1   8
ATOM      8  C1  UNL d   1      -1.700   0.087   0.018  0.00  0.00     0.054 C 
ATOM      9  C   UNL d   1      -1.979  -0.291  -1.430  0.00  0.00     0.018 C 
ENDBRANCH   1   8
TORSDOF 1
ENDMDL
