MODEL 1
REMARK minimizedAffinity -3.79109097
REMARK minimizedRMSD -1
REMARK  2 active torsions:
REMARK  status: ('A' for Active; 'I' for Inactive)
REMARK    1  A    between atoms: C2'_3  and  C1'_4 
REMARK    2  A    between atoms: C1'_4  and  C1_5 
ROOT
ATOM      1  C1  I4B d   1      -0.192  -0.753   0.117  0.00  0.00    -0.075 A 
ATOM      2  C2  I4B d   1       0.855   0.079  -0.192  0.00  0.00     0.003 A 
ATOM      3  C3  I4B d   1       0.757   1.470   0.056  0.00  0.00     0.002 A 
ATOM      4  C4  I4B d   1      -0.417   1.989   0.564  0.00  0.00    -0.004 A 
ATOM      5  C5  I4B d   1      -1.468   1.140   0.898  0.00  0.00     0.002 A 
ATOM      6  C6  I4B d   1      -1.351  -0.241   0.685  0.00  0.00     0.003 A 
ENDROOT
BRANCH   1   7
ATOM      7  C1' I4B d   1      -0.067  -2.212  -0.189  0.00  0.00     0.060 C 
BRANCH   7   8
ATOM      8  C2' I4B d   1      -0.599  -2.443  -1.589  0.00  0.00    -0.013 C 
ATOM      9  C4' I4B d   1       0.524  -2.642  -2.573  0.00  0.00     0.013 C 
ATOM     10  C3' I4B d   1      -1.503  -3.638  -1.549  0.00  0.00     0.013 C 
ENDBRANCH   7   8
ENDBRANCH   1   7
TORSDOF 2
ENDMDL
