MODEL 1
REMARK minimizedAffinity -4.35396433
REMARK minimizedRMSD -1
REMARK  2 active torsions:
REMARK  status: ('A' for Active; 'I' for Inactive)
REMARK    1  A    between atoms: C2'_3  and  C1'_4 
REMARK    2  A    between atoms: C1'_4  and  C1_5 
ROOT
ATOM      1  C1  I4B d   1      -0.075  -0.106   0.182  0.00  0.00    -0.075 A 
ATOM      2  C2  I4B d   1       0.794   0.902   0.519  0.00  0.00     0.003 A 
ATOM      3  C3  I4B d   1       0.331   2.235   0.634  0.00  0.00     0.002 A 
ATOM      4  C4  I4B d   1      -0.991   2.521   0.356  0.00  0.00    -0.004 A 
ATOM      5  C5  I4B d   1      -1.875   1.494   0.038  0.00  0.00     0.002 A 
ATOM      6  C6  I4B d   1      -1.418   0.171  -0.038  0.00  0.00     0.003 A 
ENDROOT
BRANCH   1   7
ATOM      7  C1' I4B d   1       0.456  -1.497   0.038  0.00  0.00     0.060 C 
BRANCH   7   8
ATOM      8  C2' I4B d   1      -0.549  -2.299  -0.764  0.00  0.00    -0.013 C 
ATOM      9  C4' I4B d   1       0.104  -2.965  -1.946  0.00  0.00     0.013 C 
ATOM     10  C3' I4B d   1      -1.172  -3.310   0.152  0.00  0.00     0.013 C 
ENDBRANCH   7   8
ENDBRANCH   1   7
TORSDOF 2
ENDMDL
