MODEL 1
REMARK minimizedAffinity -2.43516111
REMARK minimizedRMSD -1
REMARK  2 active torsions:
REMARK  status: ('A' for Active; 'I' for Inactive)
REMARK    1  A    between atoms: C2'_3  and  C1'_4 
REMARK    2  A    between atoms: C1'_4  and  C1_5 
ROOT
ATOM      1  C1  I4B d   1       0.698  -0.833  -0.079  0.00  0.00    -0.075 A 
ATOM      2  C2  I4B d   1       1.883  -0.144  -0.005  0.00  0.00     0.003 A 
ATOM      3  C3  I4B d   1       1.881   1.269   0.080  0.00  0.00     0.002 A 
ATOM      4  C4  I4B d   1       0.682   1.951   0.039  0.00  0.00    -0.004 A 
ATOM      5  C5  I4B d   1      -0.519   1.250  -0.012  0.00  0.00     0.002 A 
ATOM      6  C6  I4B d   1      -0.512  -0.152  -0.059  0.00  0.00     0.003 A 
ENDROOT
BRANCH   1   7
ATOM      7  C1' I4B d   1       0.738  -2.324  -0.201  0.00  0.00     0.060 C 
BRANCH   7   8
ATOM      8  C2' I4B d   1      -0.313  -2.737  -1.212  0.00  0.00    -0.013 C 
ATOM      9  C4' I4B d   1       0.291  -2.929  -2.578  0.00  0.00     0.013 C 
ATOM     10  C3' I4B d   1      -0.955  -4.000  -0.722  0.00  0.00     0.013 C 
ENDBRANCH   7   8
ENDBRANCH   1   7
TORSDOF 2
ENDMDL
