MODEL 1
REMARK minimizedAffinity -2.53613138
REMARK minimizedRMSD -1
REMARK  2 active torsions:
REMARK  status: ('A' for Active; 'I' for Inactive)
REMARK    1  A    between atoms: C2'_3  and  C1'_4 
REMARK    2  A    between atoms: C1'_4  and  C1_5 
ROOT
ATOM      1  C1  I4B d   1      -0.142  -2.115  -0.791  0.00  0.00    -0.075 A 
ATOM      2  C2  I4B d   1      -1.123  -3.073  -0.719  0.00  0.00     0.003 A 
ATOM      3  C3  I4B d   1      -1.299  -3.994  -1.781  0.00  0.00     0.002 A 
ATOM      4  C4  I4B d   1      -0.510  -3.890  -2.908  0.00  0.00    -0.004 A 
ATOM      5  C5  I4B d   1       0.499  -2.933  -2.969  0.00  0.00     0.002 A 
ATOM      6  C6  I4B d   1       0.693  -2.048  -1.899  0.00  0.00     0.003 A 
ENDROOT
BRANCH   1   7
ATOM      7  C1' I4B d   1      -0.006  -1.138   0.333  0.00  0.00     0.060 C 
BRANCH   7   8
ATOM      8  C2' I4B d   1       1.101  -0.167  -0.023  0.00  0.00    -0.013 C 
ATOM      9  C4' I4B d   1       0.693   1.254   0.261  0.00  0.00     0.013 C 
ATOM     10  C3' I4B d   1       2.321  -0.548   0.762  0.00  0.00     0.013 C 
ENDBRANCH   7   8
ENDBRANCH   1   7
TORSDOF 2
ENDMDL
