MODEL 1
REMARK minimizedAffinity -4.03237629
REMARK minimizedRMSD -1
REMARK  2 active torsions:
REMARK  status: ('A' for Active; 'I' for Inactive)
REMARK    1  A    between atoms: C2'_3  and  C1'_4 
REMARK    2  A    between atoms: C1'_4  and  C1_5 
ROOT
ATOM      1  C1  I4B d   1       0.589   0.071  -0.076  0.00  0.00    -0.075 A 
ATOM      2  C2  I4B d   1       1.845   0.624  -0.104  0.00  0.00     0.003 A 
ATOM      3  C3  I4B d   1       2.948  -0.084   0.432  0.00  0.00     0.002 A 
ATOM      4  C4  I4B d   1       2.743  -1.312   1.028  0.00  0.00    -0.004 A 
ATOM      5  C5  I4B d   1       1.472  -1.881   1.035  0.00  0.00     0.002 A 
ATOM      6  C6  I4B d   1       0.391  -1.191   0.469  0.00  0.00     0.003 A 
ENDROOT
BRANCH   1   7
ATOM      7  C1' I4B d   1      -0.559   0.860  -0.621  0.00  0.00     0.060 C 
BRANCH   7   8
ATOM      8  C2' I4B d   1      -0.707   2.111   0.221  0.00  0.00    -0.013 C 
ATOM      9  C4' I4B d   1      -0.348   3.344  -0.566  0.00  0.00     0.013 C 
ATOM     10  C3' I4B d   1      -2.123   2.174   0.711  0.00  0.00     0.013 C 
ENDBRANCH   7   8
ENDBRANCH   1   7
TORSDOF 2
ENDMDL
