MODEL 1
REMARK minimizedAffinity -5.86621237
REMARK minimizedRMSD -1
REMARK  2 active torsions:
REMARK  status: ('A' for Active; 'I' for Inactive)
REMARK    1  A    between atoms: C2'_3  and  C1'_4 
REMARK    2  A    between atoms: C1'_4  and  C1_5 
ROOT
ATOM      1  C1  I4B d   1       0.013  -0.266  -0.029  0.00  0.00    -0.075 A 
ATOM      2  C2  I4B d   1      -1.224   0.071   0.460  0.00  0.00     0.003 A 
ATOM      3  C3  I4B d   1      -1.597   1.431   0.582  0.00  0.00     0.002 A 
ATOM      4  C4  I4B d   1      -0.689   2.417   0.252  0.00  0.00    -0.004 A 
ATOM      5  C5  I4B d   1       0.556   2.074  -0.266  0.00  0.00     0.002 A 
ATOM      6  C6  I4B d   1       0.906   0.724  -0.419  0.00  0.00     0.003 A 
ENDROOT
BRANCH   1   7
ATOM      7  C1' I4B d   1       0.386  -1.712  -0.113  0.00  0.00     0.060 C 
BRANCH   7   8
ATOM      8  C2' I4B d   1      -0.545  -2.377  -1.106  0.00  0.00    -0.013 C 
ATOM      9  C4' I4B d   1       0.169  -2.698  -2.393  0.00  0.00     0.013 C 
ATOM     10  C3' I4B d   1      -1.092  -3.618  -0.467  0.00  0.00     0.013 C 
ENDBRANCH   7   8
ENDBRANCH   1   7
TORSDOF 2
ENDMDL
