MODEL 1
REMARK minimizedAffinity -6.1475091
REMARK minimizedRMSD -1
REMARK  2 active torsions:
REMARK  status: ('A' for Active; 'I' for Inactive)
REMARK    1  A    between atoms: C2'_3  and  C1'_4 
REMARK    2  A    between atoms: C1'_4  and  C1_5 
ROOT
ATOM      1  C1  I4B d   1      -0.047  -0.152  -0.212  0.00  0.00    -0.075 A 
ATOM      2  C2  I4B d   1       0.947   0.757  -0.479  0.00  0.00     0.003 A 
ATOM      3  C3  I4B d   1       0.692   2.145  -0.368  0.00  0.00     0.002 A 
ATOM      4  C4  I4B d   1      -0.575   2.579  -0.038  0.00  0.00    -0.004 A 
ATOM      5  C5  I4B d   1      -1.575   1.657   0.254  0.00  0.00     0.002 A 
ATOM      6  C6  I4B d   1      -1.307   0.282   0.179  0.00  0.00     0.003 A 
ENDROOT
BRANCH   1   7
ATOM      7  C1' I4B d   1       0.247  -1.610  -0.371  0.00  0.00     0.060 C 
BRANCH   7   8
ATOM      8  C2' I4B d   1      -0.450  -2.092  -1.627  0.00  0.00    -0.013 C 
ATOM      9  C4' I4B d   1       0.529  -2.286  -2.754  0.00  0.00     0.013 C 
ATOM     10  C3' I4B d   1      -1.159  -3.373  -1.300  0.00  0.00     0.013 C 
ENDBRANCH   7   8
ENDBRANCH   1   7
TORSDOF 2
ENDMDL
