MODEL 1
REMARK minimizedAffinity -3.76198483
REMARK minimizedRMSD -1
REMARK  2 active torsions:
REMARK  status: ('A' for Active; 'I' for Inactive)
REMARK    1  A    between atoms: C2'_3  and  C1'_4 
REMARK    2  A    between atoms: C1'_4  and  C1_5 
ROOT
ATOM      1  C1  I4B d   1      -0.057  -0.517  -0.013  0.00  0.00    -0.075 A 
ATOM      2  C2  I4B d   1       1.153   0.122   0.098  0.00  0.00     0.003 A 
ATOM      3  C3  I4B d   1       1.203   1.511   0.367  0.00  0.00     0.002 A 
ATOM      4  C4  I4B d   1       0.028   2.228   0.466  0.00  0.00    -0.004 A 
ATOM      5  C5  I4B d   1      -1.198   1.574   0.375  0.00  0.00     0.002 A 
ATOM      6  C6  I4B d   1      -1.241   0.191   0.146  0.00  0.00     0.003 A 
ENDROOT
BRANCH   1   7
ATOM      7  C1' I4B d   1      -0.074  -1.978  -0.330  0.00  0.00     0.060 C 
BRANCH   7   8
ATOM      8  C2' I4B d   1      -0.440  -2.135  -1.792  0.00  0.00    -0.013 C 
ATOM      9  C4' I4B d   1       0.718  -2.672  -2.590  0.00  0.00     0.013 C 
ATOM     10  C3' I4B d   1      -1.626  -3.049  -1.877  0.00  0.00     0.013 C 
ENDBRANCH   7   8
ENDBRANCH   1   7
TORSDOF 2
ENDMDL
