MODEL 1
REMARK minimizedAffinity -5.49733257
REMARK minimizedRMSD -1
REMARK  2 active torsions:
REMARK  status: ('A' for Active; 'I' for Inactive)
REMARK    1  A    between atoms: C2'_3  and  C1'_4 
REMARK    2  A    between atoms: C1'_4  and  C1_5 
ROOT
ATOM      1  C1  I4B d   1       0.403  -0.389   0.210  0.00  0.00    -0.075 A 
ATOM      2  C2  I4B d   1       1.373   0.534  -0.090  0.00  0.00     0.003 A 
ATOM      3  C3  I4B d   1       1.060   1.915  -0.113  0.00  0.00     0.002 A 
ATOM      4  C4  I4B d   1      -0.238   2.322   0.119  0.00  0.00    -0.004 A 
ATOM      5  C5  I4B d   1      -1.215   1.386   0.446  0.00  0.00     0.002 A 
ATOM      6  C6  I4B d   1      -0.891   0.023   0.504  0.00  0.00     0.003 A 
ENDROOT
BRANCH   1   7
ATOM      7  C1' I4B d   1       0.760  -1.842   0.194  0.00  0.00     0.060 C 
BRANCH   7   8
ATOM      8  C2' I4B d   1       0.013  -2.493  -0.953  0.00  0.00    -0.013 C 
ATOM      9  C4' I4B d   1       0.964  -3.128  -1.932  0.00  0.00     0.013 C 
ATOM     10  C3' I4B d   1      -0.928  -3.508  -0.375  0.00  0.00     0.013 C 
ENDBRANCH   7   8
ENDBRANCH   1   7
TORSDOF 2
ENDMDL
