MODEL 1
REMARK minimizedAffinity -1.78521252
REMARK minimizedRMSD -1
REMARK  2 active torsions:
REMARK  status: ('A' for Active; 'I' for Inactive)
REMARK    1  A    between atoms: C2'_3  and  C1'_4 
REMARK    2  A    between atoms: C1'_4  and  C1_5 
ROOT
ATOM      1  C1  I4B d   1      -0.559  -0.498  -0.176  0.00  0.00    -0.075 A 
ATOM      2  C2  I4B d   1       0.705   0.033  -0.123  0.00  0.00     0.003 A 
ATOM      3  C3  I4B d   1       0.890   1.405   0.173  0.00  0.00     0.002 A 
ATOM      4  C4  I4B d   1      -0.211   2.215   0.360  0.00  0.00    -0.004 A 
ATOM      5  C5  I4B d   1      -1.492   1.670   0.329  0.00  0.00     0.002 A 
ATOM      6  C6  I4B d   1      -1.667   0.303   0.072  0.00  0.00     0.003 A 
ENDROOT
BRANCH   1   7
ATOM      7  C1' I4B d   1      -0.720  -1.944  -0.524  0.00  0.00     0.060 C 
BRANCH   7   8
ATOM      8  C2' I4B d   1      -0.737  -2.061  -2.034  0.00  0.00    -0.013 C 
ATOM      9  C4' I4B d   1       0.658  -2.175  -2.588  0.00  0.00     0.013 C 
ATOM     10  C3' I4B d   1      -1.563  -3.259  -2.397  0.00  0.00     0.013 C 
ENDBRANCH   7   8
ENDBRANCH   1   7
TORSDOF 2
ENDMDL
