MODEL 1
REMARK minimizedAffinity -3.61076117
REMARK minimizedRMSD -1
REMARK  2 active torsions:
REMARK  status: ('A' for Active; 'I' for Inactive)
REMARK    1  A    between atoms: C2'_3  and  C1'_4 
REMARK    2  A    between atoms: C1'_4  and  C1_5 
ROOT
ATOM      1  C1  I4B d   1      -0.187  -1.197  -0.588  0.00  0.00    -0.075 A 
ATOM      2  C2  I4B d   1      -0.925  -2.172   0.035  0.00  0.00     0.003 A 
ATOM      3  C3  I4B d   1      -1.237  -3.374  -0.646  0.00  0.00     0.002 A 
ATOM      4  C4  I4B d   1      -0.836  -3.536  -1.956  0.00  0.00    -0.004 A 
ATOM      5  C5  I4B d   1      -0.068  -2.556  -2.579  0.00  0.00     0.002 A 
ATOM      6  C6  I4B d   1       0.269  -1.384  -1.886  0.00  0.00     0.003 A 
ENDROOT
BRANCH   1   7
ATOM      7  C1' I4B d   1       0.096   0.074   0.149  0.00  0.00     0.060 C 
BRANCH   7   8
ATOM      8  C2' I4B d   1       1.323   0.710  -0.472  0.00  0.00    -0.013 C 
ATOM      9  C4' I4B d   1       1.215   2.212  -0.478  0.00  0.00     0.013 C 
ATOM     10  C3' I4B d   1       2.523   0.258   0.306  0.00  0.00     0.013 C 
ENDBRANCH   7   8
ENDBRANCH   1   7
TORSDOF 2
ENDMDL
