MODEL 1
REMARK minimizedAffinity -5.17238235
REMARK minimizedRMSD -1
REMARK  2 active torsions:
REMARK  status: ('A' for Active; 'I' for Inactive)
REMARK    1  A    between atoms: C2'_3  and  C1'_4 
REMARK    2  A    between atoms: C1'_4  and  C1_5 
ROOT
ATOM      1  C1  I4B d   1       0.003  -0.375   0.266  0.00  0.00    -0.075 A 
ATOM      2  C2  I4B d   1      -1.301   0.039   0.374  0.00  0.00     0.003 A 
ATOM      3  C3  I4B d   1      -1.600   1.412   0.552  0.00  0.00     0.002 A 
ATOM      4  C4  I4B d   1      -0.570   2.323   0.666  0.00  0.00    -0.004 A 
ATOM      5  C5  I4B d   1       0.751   1.904   0.534  0.00  0.00     0.002 A 
ATOM      6  C6  I4B d   1       1.039   0.548   0.320  0.00  0.00     0.003 A 
ENDROOT
BRANCH   1   7
ATOM      7  C1' I4B d   1       0.285  -1.836   0.112  0.00  0.00     0.060 C 
BRANCH   7   8
ATOM      8  C2' I4B d   1      -0.429  -2.320  -1.134  0.00  0.00    -0.013 C 
ATOM      9  C4' I4B d   1       0.549  -2.639  -2.234  0.00  0.00     0.013 C 
ATOM     10  C3' I4B d   1      -1.240  -3.526  -0.764  0.00  0.00     0.013 C 
ENDBRANCH   7   8
ENDBRANCH   1   7
TORSDOF 2
ENDMDL
