MODEL 1
REMARK minimizedAffinity 1.13711953
REMARK minimizedRMSD -1
REMARK  0 active torsions:
REMARK  status: ('A' for Active; 'I' for Inactive)
ROOT
ATOM      1  C   UNL d   1       0.157   1.302   1.186  0.00  0.00     0.020 A 
ATOM      2  C1  UNL d   1      -0.403   2.578   1.212  0.00  0.00     0.020 A 
ATOM      3  C2  UNL d   1      -1.641   2.786   1.823  0.00  0.00     0.034 A 
ATOM      4  C3  UNL d   1      -2.323   1.715   2.412  0.00  0.00     0.017 A 
ATOM      5  C4  UNL d   1      -1.760   0.434   2.386  0.00  0.00     0.017 A 
ATOM      6  C5  UNL d   1      -0.520   0.232   1.772  0.00  0.00     0.034 A 
ATOM      7 Cl   UNL d   1      -2.543  -0.937   3.091  0.00  0.00    -0.070 Cl
ATOM      8 Cl1  UNL d   1      -3.850   2.044   3.151  0.00  0.00    -0.070 Cl
ENDROOT
TORSDOF 0
ENDMDL
