MODEL 1
REMARK minimizedAffinity 5.99374914
REMARK minimizedRMSD -1
REMARK  0 active torsions:
REMARK  status: ('A' for Active; 'I' for Inactive)
ROOT
ATOM      1  C   UNL d   1       2.805   4.613  -5.613  0.00  0.00     0.020 A 
ATOM      2  C1  UNL d   1       1.634   5.073  -5.012  0.00  0.00     0.020 A 
ATOM      3  C2  UNL d   1       1.014   4.312  -4.018  0.00  0.00     0.034 A 
ATOM      4  C3  UNL d   1       1.566   3.088  -3.622  0.00  0.00     0.017 A 
ATOM      5  C4  UNL d   1       2.741   2.628  -4.226  0.00  0.00     0.017 A 
ATOM      6  C5  UNL d   1       3.357   3.393  -5.221  0.00  0.00     0.034 A 
ATOM      7 Cl   UNL d   1       3.481   1.128  -3.790  0.00  0.00    -0.070 Cl
ATOM      8 Cl1  UNL d   1       0.747   2.201  -2.386  0.00  0.00    -0.070 Cl
ENDROOT
TORSDOF 0
ENDMDL
