MODEL 1
REMARK minimizedAffinity 10.2470589
REMARK minimizedRMSD -1
REMARK  0 active torsions:
REMARK  status: ('A' for Active; 'I' for Inactive)
ROOT
ATOM      1  C   UNL d   1       2.479  -2.626  -1.515  0.00  0.00     0.020 A 
ATOM      2  C1  UNL d   1       1.838  -3.577  -2.308  0.00  0.00     0.020 A 
ATOM      3  C2  UNL d   1       0.715  -4.250  -1.822  0.00  0.00     0.034 A 
ATOM      4  C3  UNL d   1       0.230  -3.973  -0.538  0.00  0.00     0.017 A 
ATOM      5  C4  UNL d   1       0.874  -3.018   0.257  0.00  0.00     0.017 A 
ATOM      6  C5  UNL d   1       1.998  -2.348  -0.235  0.00  0.00     0.034 A 
ATOM      7 Cl   UNL d   1       0.334  -2.623   1.850  0.00  0.00    -0.070 Cl
ATOM      8 Cl1  UNL d   1      -1.163  -4.843  -0.001  0.00  0.00    -0.070 Cl
ENDROOT
TORSDOF 0
ENDMDL
