MODEL 1
REMARK minimizedAffinity -2.47610521
REMARK minimizedRMSD -1
REMARK  0 active torsions:
REMARK  status: ('A' for Active; 'I' for Inactive)
ROOT
ATOM      1  C   UNL d   1       0.552   0.087   0.690  0.00  0.00     0.020 A 
ATOM      2  C1  UNL d   1       0.559   1.478   0.584  0.00  0.00     0.020 A 
ATOM      3  C2  UNL d   1      -0.487   2.225   1.130  0.00  0.00     0.034 A 
ATOM      4  C3  UNL d   1      -1.545   1.582   1.784  0.00  0.00     0.017 A 
ATOM      5  C4  UNL d   1      -1.551   0.187   1.890  0.00  0.00     0.017 A 
ATOM      6  C5  UNL d   1      -0.501  -0.557   1.342  0.00  0.00     0.034 A 
ATOM      7 Cl   UNL d   1      -2.821  -0.677   2.682  0.00  0.00    -0.070 Cl
ATOM      8 Cl1  UNL d   1      -2.805   2.569   2.436  0.00  0.00    -0.070 Cl
ENDROOT
TORSDOF 0
ENDMDL
