MODEL 1
REMARK minimizedAffinity 0.610588491
REMARK minimizedRMSD -1
REMARK  0 active torsions:
REMARK  status: ('A' for Active; 'I' for Inactive)
ROOT
ATOM      1  C   UNL d   1      -0.624   2.374   1.071  0.00  0.00     0.020 A 
ATOM      2  C1  UNL d   1      -1.582   1.636   1.765  0.00  0.00     0.020 A 
ATOM      3  C2  UNL d   1      -1.340   0.296   2.076  0.00  0.00     0.034 A 
ATOM      4  C3  UNL d   1      -0.139  -0.310   1.691  0.00  0.00     0.017 A 
ATOM      5  C4  UNL d   1       0.822   0.432   0.994  0.00  0.00     0.017 A 
ATOM      6  C5  UNL d   1       0.575   1.773   0.686  0.00  0.00     0.034 A 
ATOM      7 Cl   UNL d   1       2.328  -0.247   0.486  0.00  0.00    -0.070 Cl
ATOM      8 Cl1  UNL d   1       0.093  -1.970   2.109  0.00  0.00    -0.070 Cl
ENDROOT
TORSDOF 0
ENDMDL
