MODEL 1
REMARK minimizedAffinity 1.8646245
REMARK minimizedRMSD -1
REMARK  0 active torsions:
REMARK  status: ('A' for Active; 'I' for Inactive)
ROOT
ATOM      1  C   UNL d   1      -4.900  -6.000   0.365  0.00  0.00     0.020 A 
ATOM      2  C1  UNL d   1      -5.885  -5.082   0.002  0.00  0.00     0.020 A 
ATOM      3  C2  UNL d   1      -5.545  -3.951  -0.743  0.00  0.00     0.034 A 
ATOM      4  C3  UNL d   1      -4.217  -3.735  -1.128  0.00  0.00     0.017 A 
ATOM      5  C4  UNL d   1      -3.229  -4.657  -0.763  0.00  0.00     0.017 A 
ATOM      6  C5  UNL d   1      -3.575  -5.788  -0.017  0.00  0.00     0.034 A 
ATOM      7 Cl   UNL d   1      -1.569  -4.459  -1.201  0.00  0.00    -0.070 Cl
ATOM      8 Cl1  UNL d   1      -3.868  -2.315  -2.049  0.00  0.00    -0.070 Cl
ENDROOT
TORSDOF 0
ENDMDL
