MODEL 1
REMARK minimizedAffinity 10.8800097
REMARK minimizedRMSD -1
REMARK  0 active torsions:
REMARK  status: ('A' for Active; 'I' for Inactive)
ROOT
ATOM      1  C   UNL d   1       3.077   0.015  -2.782  0.00  0.00     0.020 A 
ATOM      2  C1  UNL d   1       4.404   0.293  -2.459  0.00  0.00     0.020 A 
ATOM      3  C2  UNL d   1       4.899   1.591  -2.597  0.00  0.00     0.034 A 
ATOM      4  C3  UNL d   1       4.066   2.617  -3.059  0.00  0.00     0.017 A 
ATOM      5  C4  UNL d   1       2.733   2.337  -3.383  0.00  0.00     0.017 A 
ATOM      6  C5  UNL d   1       2.243   1.035  -3.243  0.00  0.00     0.034 A 
ATOM      7 Cl   UNL d   1       1.645   3.549  -3.959  0.00  0.00    -0.070 Cl
ATOM      8 Cl1  UNL d   1       4.744   4.199  -3.204  0.00  0.00    -0.070 Cl
ENDROOT
TORSDOF 0
ENDMDL
