MODEL 1
REMARK minimizedAffinity 2.94037628
REMARK minimizedRMSD -1
REMARK  0 active torsions:
REMARK  status: ('A' for Active; 'I' for Inactive)
ROOT
ATOM      1  C   UNL d   1       2.506   1.147  -0.396  0.00  0.00     0.020 A 
ATOM      2  C1  UNL d   1       2.886  -0.066   0.175  0.00  0.00     0.020 A 
ATOM      3  C2  UNL d   1       2.044  -0.701   1.091  0.00  0.00     0.034 A 
ATOM      4  C3  UNL d   1       0.817  -0.122   1.437  0.00  0.00     0.017 A 
ATOM      5  C4  UNL d   1       0.437   1.096   0.863  0.00  0.00     0.017 A 
ATOM      6  C5  UNL d   1       1.284   1.727  -0.053  0.00  0.00     0.034 A 
ATOM      7 Cl   UNL d   1      -1.061   1.871   1.241  0.00  0.00    -0.070 Cl
ATOM      8 Cl1  UNL d   1      -0.174  -0.963   2.576  0.00  0.00    -0.070 Cl
ENDROOT
TORSDOF 0
ENDMDL
