MODEL 1
REMARK minimizedAffinity 0.238461941
REMARK minimizedRMSD -1
REMARK  0 active torsions:
REMARK  status: ('A' for Active; 'I' for Inactive)
ROOT
ATOM      1  C   UNL d   1       2.131   1.868   0.523  0.00  0.00     0.020 A 
ATOM      2  C1  UNL d   1       2.314   0.493   0.669  0.00  0.00     0.020 A 
ATOM      3  C2  UNL d   1       1.292  -0.294   1.204  0.00  0.00     0.034 A 
ATOM      4  C3  UNL d   1       0.082   0.292   1.594  0.00  0.00     0.017 A 
ATOM      5  C4  UNL d   1      -0.100   1.672   1.446  0.00  0.00     0.017 A 
ATOM      6  C5  UNL d   1       0.926   2.456   0.911  0.00  0.00     0.034 A 
ATOM      7 Cl   UNL d   1      -1.565   2.467   1.905  0.00  0.00    -0.070 Cl
ATOM      8 Cl1  UNL d   1      -1.138  -0.742   2.247  0.00  0.00    -0.070 Cl
ENDROOT
TORSDOF 0
ENDMDL
