MODEL 1
REMARK minimizedAffinity -0.559979081
REMARK minimizedRMSD -1
REMARK  0 active torsions:
REMARK  status: ('A' for Active; 'I' for Inactive)
ROOT
ATOM      1  C   UNL d   1      -0.255   2.470   1.318  0.00  0.00     0.020 A 
ATOM      2  C1  UNL d   1      -1.489   1.950   1.710  0.00  0.00     0.020 A 
ATOM      3  C2  UNL d   1      -1.710   0.572   1.670  0.00  0.00     0.034 A 
ATOM      4  C3  UNL d   1      -0.697  -0.291   1.237  0.00  0.00     0.017 A 
ATOM      5  C4  UNL d   1       0.541   0.232   0.844  0.00  0.00     0.017 A 
ATOM      6  C5  UNL d   1       0.757   1.612   0.886  0.00  0.00     0.034 A 
ATOM      7 Cl   UNL d   1       1.839  -0.770   0.298  0.00  0.00    -0.070 Cl
ATOM      8 Cl1  UNL d   1      -1.040  -1.984   1.212  0.00  0.00    -0.070 Cl
ENDROOT
TORSDOF 0
ENDMDL
