MODEL 1
REMARK minimizedAffinity 2.53822017
REMARK minimizedRMSD -1
REMARK  0 active torsions:
REMARK  status: ('A' for Active; 'I' for Inactive)
ROOT
ATOM      1  C   UNL d   1       2.539   1.197   0.354  0.00  0.00     0.020 A 
ATOM      2  C1  UNL d   1       2.415  -0.192   0.397  0.00  0.00     0.020 A 
ATOM      3  C2  UNL d   1       1.204  -0.773   0.779  0.00  0.00     0.034 A 
ATOM      4  C3  UNL d   1       0.113   0.034   1.119  0.00  0.00     0.017 A 
ATOM      5  C4  UNL d   1       0.238   1.427   1.075  0.00  0.00     0.017 A 
ATOM      6  C5  UNL d   1       1.453   2.004   0.692  0.00  0.00     0.034 A 
ATOM      7 Cl   UNL d   1      -1.065   2.488   1.481  0.00  0.00    -0.070 Cl
ATOM      8 Cl1  UNL d   1      -1.355  -0.753   1.581  0.00  0.00    -0.070 Cl
ENDROOT
TORSDOF 0
ENDMDL
