MODEL 1
REMARK minimizedAffinity 0.631645799
REMARK minimizedRMSD -1
REMARK  0 active torsions:
REMARK  status: ('A' for Active; 'I' for Inactive)
ROOT
ATOM      1  C   UNL d   1      -2.700   2.644   1.490  0.00  0.00     0.020 A 
ATOM      2  C1  UNL d   1      -3.046   1.489   2.189  0.00  0.00     0.020 A 
ATOM      3  C2  UNL d   1      -2.180   0.393   2.200  0.00  0.00     0.034 A 
ATOM      4  C3  UNL d   1      -0.963   0.451   1.511  0.00  0.00     0.017 A 
ATOM      5  C4  UNL d   1      -0.616   1.612   0.810  0.00  0.00     0.017 A 
ATOM      6  C5  UNL d   1      -1.487   2.706   0.802  0.00  0.00     0.034 A 
ATOM      7 Cl   UNL d   1       0.868   1.758  -0.063  0.00  0.00    -0.070 Cl
ATOM      8 Cl1  UNL d   1       0.059  -0.941   1.568  0.00  0.00    -0.070 Cl
ENDROOT
TORSDOF 0
ENDMDL
