MODEL 1
REMARK minimizedAffinity 7.14223671
REMARK minimizedRMSD -1
REMARK  0 active torsions:
REMARK  status: ('A' for Active; 'I' for Inactive)
ROOT
ATOM      1  C   UNL d   1       0.002   2.334   0.636  0.00  0.00     0.020 A 
ATOM      2  C1  UNL d   1      -1.095   1.937   1.400  0.00  0.00     0.020 A 
ATOM      3  C2  UNL d   1      -1.091   0.692   2.033  0.00  0.00     0.034 A 
ATOM      4  C3  UNL d   1       0.012  -0.160   1.902  0.00  0.00     0.017 A 
ATOM      5  C4  UNL d   1       1.112   0.239   1.135  0.00  0.00     0.017 A 
ATOM      6  C5  UNL d   1       1.103   1.487   0.504  0.00  0.00     0.034 A 
ATOM      7 Cl   UNL d   1       2.508  -0.758   0.928  0.00  0.00    -0.070 Cl
ATOM      8 Cl1  UNL d   1      -0.052  -1.685   2.713  0.00  0.00    -0.070 Cl
ENDROOT
TORSDOF 0
ENDMDL
