MODEL 1
REMARK minimizedAffinity 0.0752438903
REMARK minimizedRMSD -1
REMARK  0 active torsions:
REMARK  status: ('A' for Active; 'I' for Inactive)
ROOT
ATOM      1  C   UNL d   1      -0.045   0.297   1.044  0.00  0.00     0.020 A 
ATOM      2  C1  UNL d   1      -0.107   1.689   1.073  0.00  0.00     0.020 A 
ATOM      3  C2  UNL d   1      -1.175   2.328   1.706  0.00  0.00     0.034 A 
ATOM      4  C3  UNL d   1      -2.187   1.573   2.312  0.00  0.00     0.017 A 
ATOM      5  C4  UNL d   1      -2.124   0.175   2.282  0.00  0.00     0.017 A 
ATOM      6  C5  UNL d   1      -1.051  -0.458   1.647  0.00  0.00     0.034 A 
ATOM      7 Cl   UNL d   1      -3.334  -0.823   3.008  0.00  0.00    -0.070 Cl
ATOM      8 Cl1  UNL d   1      -3.479   2.428   3.077  0.00  0.00    -0.070 Cl
ENDROOT
TORSDOF 0
ENDMDL
