MODEL 1
REMARK minimizedAffinity 1.25467575
REMARK minimizedRMSD -1
REMARK  0 active torsions:
REMARK  status: ('A' for Active; 'I' for Inactive)
ROOT
ATOM      1  C   UNL d   1      -0.931  -0.991   1.535  0.00  0.00     0.020 A 
ATOM      2  C1  UNL d   1       0.397  -1.055   1.115  0.00  0.00     0.020 A 
ATOM      3  C2  UNL d   1       1.094   0.119   0.820  0.00  0.00     0.034 A 
ATOM      4  C3  UNL d   1       0.463   1.362   0.945  0.00  0.00     0.017 A 
ATOM      5  C4  UNL d   1      -0.870   1.425   1.367  0.00  0.00     0.017 A 
ATOM      6  C5  UNL d   1      -1.563   0.247   1.661  0.00  0.00     0.034 A 
ATOM      7 Cl   UNL d   1      -1.716   2.922   1.544  0.00  0.00    -0.070 Cl
ATOM      8 Cl1  UNL d   1       1.384   2.773   0.564  0.00  0.00    -0.070 Cl
ENDROOT
TORSDOF 0
ENDMDL
