MODEL 1
REMARK minimizedAffinity 7.54822445
REMARK minimizedRMSD -1
REMARK  0 active torsions:
REMARK  status: ('A' for Active; 'I' for Inactive)
ROOT
ATOM      1  C   UNL d   1      -5.992   4.469   5.540  0.00  0.00     0.020 A 
ATOM      2  C1  UNL d   1      -5.348   4.795   4.347  0.00  0.00     0.020 A 
ATOM      3  C2  UNL d   1      -4.698   3.803   3.611  0.00  0.00     0.034 A 
ATOM      4  C3  UNL d   1      -4.690   2.479   4.066  0.00  0.00     0.017 A 
ATOM      5  C4  UNL d   1      -5.337   2.153   5.263  0.00  0.00     0.017 A 
ATOM      6  C5  UNL d   1      -5.987   3.150   5.997  0.00  0.00     0.034 A 
ATOM      7 Cl   UNL d   1      -5.370   0.542   5.889  0.00  0.00    -0.070 Cl
ATOM      8 Cl1  UNL d   1      -3.866   1.304   3.104  0.00  0.00    -0.070 Cl
ENDROOT
TORSDOF 0
ENDMDL
