MODEL 1
REMARK minimizedAffinity 1.77986014
REMARK minimizedRMSD -1
REMARK  0 active torsions:
REMARK  status: ('A' for Active; 'I' for Inactive)
ROOT
ATOM      1  C   UNL d   1       0.008   0.115   0.981  0.00  0.00     0.020 A 
ATOM      2  C1  UNL d   1      -0.242   1.486   0.992  0.00  0.00     0.020 A 
ATOM      3  C2  UNL d   1      -1.402   1.979   1.594  0.00  0.00     0.034 A 
ATOM      4  C3  UNL d   1      -2.315   1.100   2.187  0.00  0.00     0.017 A 
ATOM      5  C4  UNL d   1      -2.063  -0.277   2.175  0.00  0.00     0.017 A 
ATOM      6  C5  UNL d   1      -0.900  -0.765   1.571  0.00  0.00     0.034 A 
ATOM      7 Cl   UNL d   1      -3.143  -1.424   2.886  0.00  0.00    -0.070 Cl
ATOM      8 Cl1  UNL d   1      -3.728   1.779   2.914  0.00  0.00    -0.070 Cl
ENDROOT
TORSDOF 0
ENDMDL
