MODEL 1
REMARK minimizedAffinity 0.517038107
REMARK minimizedRMSD -1
REMARK  0 active torsions:
REMARK  status: ('A' for Active; 'I' for Inactive)
ROOT
ATOM      1  C   UNL d   1       0.803   1.876   1.749  0.00  0.00     0.020 A 
ATOM      2  C1  UNL d   1       0.022   2.718   2.539  0.00  0.00     0.020 A 
ATOM      3  C2  UNL d   1      -1.236   2.297   2.976  0.00  0.00     0.034 A 
ATOM      4  C3  UNL d   1      -1.716   1.030   2.624  0.00  0.00     0.017 A 
ATOM      5  C4  UNL d   1      -0.930   0.185   1.831  0.00  0.00     0.017 A 
ATOM      6  C5  UNL d   1       0.328   0.612   1.396  0.00  0.00     0.034 A 
ATOM      7 Cl   UNL d   1      -1.455  -1.391   1.356  0.00  0.00    -0.070 Cl
ATOM      8 Cl1  UNL d   1      -3.279   0.575   3.200  0.00  0.00    -0.070 Cl
ENDROOT
TORSDOF 0
ENDMDL
