MODEL 1
REMARK minimizedAffinity 8.81786251
REMARK minimizedRMSD -1
REMARK  0 active torsions:
REMARK  status: ('A' for Active; 'I' for Inactive)
ROOT
ATOM      1  C   UNL d   1      -0.572   1.732   1.243  0.00  0.00     0.020 A 
ATOM      2  C1  UNL d   1       0.222   1.566   0.109  0.00  0.00     0.020 A 
ATOM      3  C2  UNL d   1       1.439   0.887   0.202  0.00  0.00     0.034 A 
ATOM      4  C3  UNL d   1       1.865   0.373   1.432  0.00  0.00     0.017 A 
ATOM      5  C4  UNL d   1       1.068   0.540   2.570  0.00  0.00     0.017 A 
ATOM      6  C5  UNL d   1      -0.150   1.220   2.471  0.00  0.00     0.034 A 
ATOM      7 Cl   UNL d   1       1.527  -0.067   4.121  0.00  0.00    -0.070 Cl
ATOM      8 Cl1  UNL d   1       3.381  -0.456   1.474  0.00  0.00    -0.070 Cl
ENDROOT
TORSDOF 0
ENDMDL
