MODEL 1
REMARK minimizedAffinity 1.2047621
REMARK minimizedRMSD -1
REMARK  1 active torsions:
REMARK  status: ('A' for Active; 'I' for Inactive)
REMARK    1  A    between atoms: C1_2  and  C2_3 
ROOT
ATOM      1  C2  UNL d   1       3.599  -5.275   1.862  0.00  0.00    -0.081 A 
ATOM      2  C3  UNL d   1       2.994  -5.895   2.961  0.00  0.00     0.006 A 
ATOM      3  C4  UNL d   1       1.668  -5.607   3.294  0.00  0.00     0.002 A 
ATOM      4  C5  UNL d   1       0.924  -4.703   2.529  0.00  0.00    -0.080 A 
ATOM      5  C6  UNL d   1      -0.510  -4.409   2.858  0.00  0.00     0.076 C 
ATOM      6  C7  UNL d   1       1.534  -4.070   1.441  0.00  0.00     0.002 A 
ATOM      7  C8  UNL d   1       2.860  -4.356   1.108  0.00  0.00     0.006 A 
ENDROOT
BRANCH   1   8
ATOM      8  C1  UNL d   1       5.009  -5.631   1.462  0.00  0.00     0.054 C 
ATOM      9  C   UNL d   1       5.089  -5.998  -0.013  0.00  0.00     0.018 C 
ENDBRANCH   1   8
TORSDOF 1
ENDMDL
