MODEL 1
REMARK minimizedAffinity -3.44832134
REMARK minimizedRMSD -1
REMARK  1 active torsions:
REMARK  status: ('A' for Active; 'I' for Inactive)
REMARK    1  A    between atoms: C1_2  and  C2_3 
ROOT
ATOM      1  C2  UNL d   1      -1.391  -0.875   1.671  0.00  0.00    -0.081 A 
ATOM      2  C3  UNL d   1      -0.347  -0.979   0.745  0.00  0.00     0.006 A 
ATOM      3  C4  UNL d   1       0.664  -1.928   0.920  0.00  0.00     0.002 A 
ATOM      4  C5  UNL d   1       0.642  -2.793   2.019  0.00  0.00    -0.080 A 
ATOM      5  C6  UNL d   1       1.704  -3.836   2.203  0.00  0.00     0.076 C 
ATOM      6  C7  UNL d   1      -0.392  -2.678   2.954  0.00  0.00     0.002 A 
ATOM      7  C8  UNL d   1      -1.402  -1.729   2.780  0.00  0.00     0.006 A 
ENDROOT
BRANCH   1   8
ATOM      8  C1  UNL d   1      -2.517   0.103   1.451  0.00  0.00     0.054 C 
ATOM      9  C   UNL d   1      -3.673  -0.543   0.700  0.00  0.00     0.018 C 
ENDBRANCH   1   8
TORSDOF 1
ENDMDL
