MODEL 1
REMARK minimizedAffinity -2.26673698
REMARK minimizedRMSD -1
REMARK  1 active torsions:
REMARK  status: ('A' for Active; 'I' for Inactive)
REMARK    1  A    between atoms: C1_2  and  C2_3 
ROOT
ATOM      1  C2  UNL d   1      -0.556  -1.045   1.887  0.00  0.00    -0.081 A 
ATOM      2  C3  UNL d   1       0.426  -1.500   0.999  0.00  0.00     0.006 A 
ATOM      3  C4  UNL d   1       1.221  -2.601   1.325  0.00  0.00     0.002 A 
ATOM      4  C5  UNL d   1       1.042  -3.270   2.540  0.00  0.00    -0.080 A 
ATOM      5  C6  UNL d   1       1.868  -4.473   2.890  0.00  0.00     0.076 C 
ATOM      6  C7  UNL d   1       0.073  -2.805   3.436  0.00  0.00     0.002 A 
ATOM      7  C8  UNL d   1      -0.722  -1.703   3.110  0.00  0.00     0.006 A 
ENDROOT
BRANCH   1   8
ATOM      8  C1  UNL d   1      -1.458   0.103   1.511  0.00  0.00     0.054 C 
ATOM      9  C   UNL d   1      -2.712  -0.389   0.802  0.00  0.00     0.018 C 
ENDBRANCH   1   8
TORSDOF 1
ENDMDL
