MODEL 1
REMARK minimizedAffinity -0.542269826
REMARK minimizedRMSD -1
REMARK  1 active torsions:
REMARK  status: ('A' for Active; 'I' for Inactive)
REMARK    1  A    between atoms: C1_2  and  C2_3 
ROOT
ATOM      1  C2  UNL d   1       0.943  -2.571   1.273  0.00  0.00    -0.081 A 
ATOM      2  C3  UNL d   1       0.287  -2.433   2.502  0.00  0.00     0.006 A 
ATOM      3  C4  UNL d   1      -0.744  -1.502   2.653  0.00  0.00     0.002 A 
ATOM      4  C5  UNL d   1      -1.140  -0.701   1.577  0.00  0.00    -0.080 A 
ATOM      5  C6  UNL d   1      -2.265   0.281   1.717  0.00  0.00     0.076 C 
ATOM      6  C7  UNL d   1      -0.472  -0.827   0.354  0.00  0.00     0.002 A 
ATOM      7  C8  UNL d   1       0.559  -1.757   0.202  0.00  0.00     0.006 A 
ENDROOT
BRANCH   1   8
ATOM      8  C1  UNL d   1       2.011  -3.619   1.089  0.00  0.00     0.054 C 
ATOM      9  C   UNL d   1       1.589  -4.952   1.691  0.00  0.00     0.018 C 
ENDBRANCH   1   8
TORSDOF 1
ENDMDL
