MODEL 1
REMARK minimizedAffinity -2.12837791
REMARK minimizedRMSD -1
REMARK  1 active torsions:
REMARK  status: ('A' for Active; 'I' for Inactive)
REMARK    1  A    between atoms: C1_2  and  C2_3 
ROOT
ATOM      1  C2  UNL d   1      -0.968   1.224  -1.486  0.00  0.00    -0.081 A 
ATOM      2  C3  UNL d   1       0.012   1.451  -0.511  0.00  0.00     0.006 A 
ATOM      3  C4  UNL d   1       0.129   0.597   0.588  0.00  0.00     0.002 A 
ATOM      4  C5  UNL d   1      -0.725  -0.502   0.727  0.00  0.00    -0.080 A 
ATOM      5  C6  UNL d   1      -0.590  -1.444   1.887  0.00  0.00     0.076 C 
ATOM      6  C7  UNL d   1      -1.715  -0.719  -0.237  0.00  0.00     0.002 A 
ATOM      7  C8  UNL d   1      -1.834   0.135  -1.336  0.00  0.00     0.006 A 
ENDROOT
BRANCH   1   8
ATOM      8  C1  UNL d   1      -1.055   2.105  -2.705  0.00  0.00     0.054 C 
ATOM      9  C   UNL d   1      -1.504   3.513  -2.340  0.00  0.00     0.018 C 
ENDBRANCH   1   8
TORSDOF 1
ENDMDL
