MODEL 1
REMARK minimizedAffinity 13.1228056
REMARK minimizedRMSD -1
REMARK  0 active torsions:
REMARK  status: ('A' for Active; 'I' for Inactive)
ROOT
ATOM      1  C4' PXY d   1       0.052  -0.657  -0.656  0.00  0.00     0.077 C 
ATOM      2  C1' PXY d   1       3.004  -3.946   3.069  0.00  0.00     0.077 C 
ATOM      3  C1  PXY d   1       2.219  -3.085   2.099  0.00  0.00    -0.082 A 
ATOM      4  C2  PXY d   1       2.659  -2.927   0.862  0.00  0.00     0.003 A 
ATOM      5  C3  PXY d   1       1.979  -2.126  -0.019  0.00  0.00     0.003 A 
ATOM      6  C4  PXY d   1       0.807  -1.524   0.354  0.00  0.00    -0.082 A 
ATOM      7  C5  PXY d   1       0.346  -1.690   1.612  0.00  0.00     0.003 A 
ATOM      8  C6  PXY d   1       1.073  -2.473   2.504  0.00  0.00     0.003 A 
ENDROOT
TORSDOF 0
ENDMDL
