MODEL 1
REMARK minimizedAffinity 2.73965335
REMARK minimizedRMSD -1
REMARK  0 active torsions:
REMARK  status: ('A' for Active; 'I' for Inactive)
ROOT
ATOM      1  C4' PXY d   1       6.000   0.309   0.420  0.00  0.00     0.077 C 
ATOM      2  C1' PXY d   1       1.819   3.322   3.040  0.00  0.00     0.077 C 
ATOM      3  C1  PXY d   1       2.923   2.542   2.353  0.00  0.00    -0.082 A 
ATOM      4  C2  PXY d   1       2.619   1.480   1.625  0.00  0.00     0.003 A 
ATOM      5  C3  PXY d   1       3.607   0.745   1.023  0.00  0.00     0.003 A 
ATOM      6  C4  PXY d   1       4.917   1.132   1.124  0.00  0.00    -0.082 A 
ATOM      7  C5  PXY d   1       5.235   2.221   1.856  0.00  0.00     0.003 A 
ATOM      8  C6  PXY d   1       4.220   2.929   2.493  0.00  0.00     0.003 A 
ENDROOT
TORSDOF 0
ENDMDL
