MODEL 1
REMARK minimizedAffinity 7.40673399
REMARK minimizedRMSD -1
REMARK  0 active torsions:
REMARK  status: ('A' for Active; 'I' for Inactive)
ROOT
ATOM      1  C4' PXY d   1       5.949  -0.483  -2.023  0.00  0.00     0.077 C 
ATOM      2  C1' PXY d   1       6.000   2.547   2.899  0.00  0.00     0.077 C 
ATOM      3  C1  PXY d   1       5.992   1.742   1.615  0.00  0.00    -0.082 A 
ATOM      4  C2  PXY d   1       5.971   2.370   0.450  0.00  0.00     0.003 A 
ATOM      5  C3  PXY d   1       5.931   1.657  -0.721  0.00  0.00     0.003 A 
ATOM      6  C4  PXY d   1       5.967   0.289  -0.701  0.00  0.00    -0.082 A 
ATOM      7  C5  PXY d   1       6.000  -0.359   0.483  0.00  0.00     0.003 A 
ATOM      8  C6  PXY d   1       5.998   0.382   1.661  0.00  0.00     0.003 A 
ENDROOT
TORSDOF 0
ENDMDL
