MODEL 1
REMARK minimizedAffinity 6.73565531
REMARK minimizedRMSD -1
REMARK  0 active torsions:
REMARK  status: ('A' for Active; 'I' for Inactive)
ROOT
ATOM      1  C4' PXY d   1      -4.469   1.062   0.313  0.00  0.00     0.077 C 
ATOM      2  C1' PXY d   1      -0.266  -1.861   2.997  0.00  0.00     0.077 C 
ATOM      3  C1  PXY d   1      -1.363  -1.097   2.282  0.00  0.00    -0.082 A 
ATOM      4  C2  PXY d   1      -2.004  -0.128   2.914  0.00  0.00     0.003 A 
ATOM      5  C3  PXY d   1      -3.021   0.551   2.293  0.00  0.00     0.003 A 
ATOM      6  C4  PXY d   1      -3.348   0.271   0.993  0.00  0.00    -0.082 A 
ATOM      7  C5  PXY d   1      -2.691  -0.710   0.338  0.00  0.00     0.003 A 
ATOM      8  C6  PXY d   1      -1.691  -1.415   1.000  0.00  0.00     0.003 A 
ENDROOT
TORSDOF 0
ENDMDL
