MODEL 1
REMARK minimizedAffinity 6.30584288
REMARK minimizedRMSD -1
REMARK  0 active torsions:
REMARK  status: ('A' for Active; 'I' for Inactive)
ROOT
ATOM      1  C4' PXY d   1      -0.545  -1.098  -1.418  0.00  0.00     0.077 C 
ATOM      2  C1' PXY d   1      -2.690   3.959  -3.218  0.00  0.00     0.077 C 
ATOM      3  C1  PXY d   1      -2.139   2.631  -2.739  0.00  0.00    -0.082 A 
ATOM      4  C2  PXY d   1      -0.830   2.437  -2.712  0.00  0.00     0.003 A 
ATOM      5  C3  PXY d   1      -0.315   1.231  -2.312  0.00  0.00     0.003 A 
ATOM      6  C4  PXY d   1      -1.146   0.231  -1.885  0.00  0.00    -0.082 A 
ATOM      7  C5  PXY d   1      -2.482   0.424  -1.899  0.00  0.00     0.003 A 
ATOM      8  C6  PXY d   1      -2.987   1.641  -2.348  0.00  0.00     0.003 A 
ENDROOT
TORSDOF 0
ENDMDL
