MODEL 1
REMARK minimizedAffinity 6.85223484
REMARK minimizedRMSD -1
REMARK  0 active torsions:
REMARK  status: ('A' for Active; 'I' for Inactive)
ROOT
ATOM      1  C4' PXY d   1       4.498  -6.000   6.000  0.00  0.00     0.077 C 
ATOM      2  C1' PXY d   1       2.047  -3.253   1.544  0.00  0.00     0.077 C 
ATOM      3  C1  PXY d   1       2.684  -3.984   2.708  0.00  0.00    -0.082 A 
ATOM      4  C2  PXY d   1       3.026  -3.312   3.795  0.00  0.00     0.003 A 
ATOM      5  C3  PXY d   1       3.633  -3.952   4.845  0.00  0.00     0.003 A 
ATOM      6  C4  PXY d   1       3.843  -5.304   4.803  0.00  0.00    -0.082 A 
ATOM      7  C5  PXY d   1       3.488  -5.999   3.702  0.00  0.00     0.003 A 
ATOM      8  C6  PXY d   1       2.911  -5.324   2.631  0.00  0.00     0.003 A 
ENDROOT
TORSDOF 0
ENDMDL
