MODEL 1
REMARK minimizedAffinity 1.78918433
REMARK minimizedRMSD -1
REMARK  0 active torsions:
REMARK  status: ('A' for Active; 'I' for Inactive)
ROOT
ATOM      1  C4' PXY d   1       5.998   1.572   0.799  0.00  0.00     0.077 C 
ATOM      2  C1' PXY d   1       1.088   3.261   3.339  0.00  0.00     0.077 C 
ATOM      3  C1  PXY d   1       2.383   2.824   2.682  0.00  0.00    -0.082 A 
ATOM      4  C2  PXY d   1       2.393   2.523   1.394  0.00  0.00     0.003 A 
ATOM      5  C3  PXY d   1       3.548   2.095   0.791  0.00  0.00     0.003 A 
ATOM      6  C4  PXY d   1       4.716   2.026   1.502  0.00  0.00    -0.082 A 
ATOM      7  C5  PXY d   1       4.716   2.342   2.815  0.00  0.00     0.003 A 
ATOM      8  C6  PXY d   1       3.524   2.734   3.417  0.00  0.00     0.003 A 
ENDROOT
TORSDOF 0
ENDMDL
