MODEL 1
REMARK minimizedAffinity 7.54601383
REMARK minimizedRMSD -1
REMARK  0 active torsions:
REMARK  status: ('A' for Active; 'I' for Inactive)
ROOT
ATOM      1  C4' PXY d   1       3.263  -4.354   0.595  0.00  0.00     0.077 C 
ATOM      2  C1' PXY d   1       0.878  -0.142   3.754  0.00  0.00     0.077 C 
ATOM      3  C1  PXY d   1       1.492  -1.248   2.919  0.00  0.00    -0.082 A 
ATOM      4  C2  PXY d   1       2.538  -1.913   3.382  0.00  0.00     0.003 A 
ATOM      5  C3  PXY d   1       3.126  -2.895   2.626  0.00  0.00     0.003 A 
ATOM      6  C4  PXY d   1       2.605  -3.236   1.407  0.00  0.00    -0.082 A 
ATOM      7  C5  PXY d   1       1.531  -2.569   0.932  0.00  0.00     0.003 A 
ATOM      8  C6  PXY d   1       0.975  -1.548   1.697  0.00  0.00     0.003 A 
ENDROOT
TORSDOF 0
ENDMDL
