MODEL 1
REMARK minimizedAffinity 5.05165768
REMARK minimizedRMSD -1
REMARK  0 active torsions:
REMARK  status: ('A' for Active; 'I' for Inactive)
ROOT
ATOM      1  C4' PXY d   1      -0.761  -0.627   3.258  0.00  0.00     0.077 C 
ATOM      2  C1' PXY d   1       2.611  -4.671   0.872  0.00  0.00     0.077 C 
ATOM      3  C1  PXY d   1       1.736  -3.601   1.496  0.00  0.00    -0.082 A 
ATOM      4  C2  PXY d   1       0.796  -3.947   2.360  0.00  0.00     0.003 A 
ATOM      5  C3  PXY d   1      -0.026  -2.996   2.908  0.00  0.00     0.003 A 
ATOM      6  C4  PXY d   1       0.152  -1.672   2.611  0.00  0.00    -0.082 A 
ATOM      7  C5  PXY d   1       1.117  -1.310   1.739  0.00  0.00     0.003 A 
ATOM      8  C6  PXY d   1       1.913  -2.294   1.161  0.00  0.00     0.003 A 
ENDROOT
TORSDOF 0
ENDMDL
