MODEL 1
REMARK minimizedAffinity 3.8810432
REMARK minimizedRMSD -1
REMARK  0 active torsions:
REMARK  status: ('A' for Active; 'I' for Inactive)
ROOT
ATOM      1  O1  BZF d   1      -0.807   1.060  -0.382  0.00  0.00    -0.204 OA
ATOM      2  C2  BZF d   1      -0.935   1.836  -1.517  0.00  0.00     0.174 A 
ATOM      3  C3  BZF d   1      -1.413   3.059  -1.209  0.00  0.00    -0.012 A 
ATOM      4  C3A BZF d   1      -1.509   3.077   0.219  0.00  0.00    -0.107 A 
ATOM      5  C4  BZF d   1      -1.904   4.022   1.121  0.00  0.00     0.055 A 
ATOM      6  C5  BZF d   1      -1.949   3.698   2.440  0.00  0.00    -0.016 A 
ATOM      7  C6  BZF d   1      -1.611   2.438   2.890  0.00  0.00     0.022 A 
ATOM      8  C7  BZF d   1      -1.208   1.469   2.033  0.00  0.00     0.029 A 
ATOM      9  C7A BZF d   1      -1.130   1.804   0.703  0.00  0.00     0.058 A 
ENDROOT
TORSDOF 0
ENDMDL
