MODEL 1
REMARK minimizedAffinity -2.40411353
REMARK minimizedRMSD -1
REMARK  0 active torsions:
REMARK  status: ('A' for Active; 'I' for Inactive)
ROOT
ATOM      1  O1  BZF d   1       0.539   0.318   0.240  0.00  0.00    -0.204 OA
ATOM      2  C2  BZF d   1       0.387   0.873  -1.016  0.00  0.00     0.174 A 
ATOM      3  C3  BZF d   1      -0.429   1.946  -0.970  0.00  0.00    -0.012 A 
ATOM      4  C3A BZF d   1      -0.737   2.125   0.415  0.00  0.00    -0.107 A 
ATOM      5  C4  BZF d   1      -1.490   3.036   1.099  0.00  0.00     0.055 A 
ATOM      6  C5  BZF d   1      -1.647   2.889   2.441  0.00  0.00    -0.016 A 
ATOM      7  C6  BZF d   1      -1.069   1.842   3.129  0.00  0.00     0.022 A 
ATOM      8  C7  BZF d   1      -0.309   0.917   2.495  0.00  0.00     0.029 A 
ATOM      9  C7A BZF d   1      -0.122   1.081   1.144  0.00  0.00     0.058 A 
ENDROOT
TORSDOF 0
ENDMDL
