MODEL 1
REMARK minimizedAffinity 6.01562071
REMARK minimizedRMSD -1
REMARK  0 active torsions:
REMARK  status: ('A' for Active; 'I' for Inactive)
ROOT
ATOM      1  O1  BZF d   1       0.147   2.701  -1.501  0.00  0.00    -0.204 OA
ATOM      2  C2  BZF d   1      -0.544   3.390  -0.523  0.00  0.00     0.174 A 
ATOM      3  C3  BZF d   1      -1.719   2.786  -0.252  0.00  0.00    -0.012 A 
ATOM      4  C3A BZF d   1      -1.725   1.598  -1.049  0.00  0.00    -0.107 A 
ATOM      5  C4  BZF d   1      -2.616   0.576  -1.204  0.00  0.00     0.055 A 
ATOM      6  C5  BZF d   1      -2.354  -0.397  -2.116  0.00  0.00    -0.016 A 
ATOM      7  C6  BZF d   1      -1.215  -0.376  -2.893  0.00  0.00     0.022 A 
ATOM      8  C7  BZF d   1      -0.298   0.615  -2.771  0.00  0.00     0.029 A 
ATOM      9  C7A BZF d   1      -0.544   1.582  -1.827  0.00  0.00     0.058 A 
ENDROOT
TORSDOF 0
ENDMDL
