MODEL 1
REMARK minimizedAffinity 3.77616453
REMARK minimizedRMSD -1
REMARK  0 active torsions:
REMARK  status: ('A' for Active; 'I' for Inactive)
ROOT
ATOM      1  O1  BZF d   1       0.342  -1.121   2.332  0.00  0.00    -0.204 OA
ATOM      2  C2  BZF d   1       0.045  -1.336   3.664  0.00  0.00     0.174 A 
ATOM      3  C3  BZF d   1      -0.222  -0.171   4.289  0.00  0.00    -0.012 A 
ATOM      4  C3A BZF d   1      -0.174   0.826   3.264  0.00  0.00    -0.107 A 
ATOM      5  C4  BZF d   1      -0.369   2.177   3.258  0.00  0.00     0.055 A 
ATOM      6  C5  BZF d   1      -0.175   2.868   2.104  0.00  0.00    -0.016 A 
ATOM      7  C6  BZF d   1       0.219   2.241   0.940  0.00  0.00     0.022 A 
ATOM      8  C7  BZF d   1       0.420   0.902   0.895  0.00  0.00     0.029 A 
ATOM      9  C7A BZF d   1       0.193   0.196   2.051  0.00  0.00     0.058 A 
ENDROOT
TORSDOF 0
ENDMDL
