MODEL 1
REMARK minimizedAffinity 8.69651318
REMARK minimizedRMSD -1
REMARK  0 active torsions:
REMARK  status: ('A' for Active; 'I' for Inactive)
ROOT
ATOM      1  O1  BZF d   1      -2.286   1.974   3.011  0.00  0.00    -0.204 OA
ATOM      2  C2  BZF d   1      -2.522   2.932   2.044  0.00  0.00     0.174 A 
ATOM      3  C3  BZF d   1      -1.416   3.146   1.303  0.00  0.00    -0.012 A 
ATOM      4  C3A BZF d   1      -0.454   2.200   1.780  0.00  0.00    -0.107 A 
ATOM      5  C4  BZF d   1       0.833   1.911   1.428  0.00  0.00     0.055 A 
ATOM      6  C5  BZF d   1       1.520   0.980   2.142  0.00  0.00    -0.016 A 
ATOM      7  C6  BZF d   1       0.952   0.324   3.214  0.00  0.00     0.022 A 
ATOM      8  C7  BZF d   1      -0.323   0.573   3.597  0.00  0.00     0.029 A 
ATOM      9  C7A BZF d   1      -1.031   1.489   2.858  0.00  0.00     0.058 A 
ENDROOT
TORSDOF 0
ENDMDL
