MODEL 1
REMARK minimizedAffinity 9.9631052
REMARK minimizedRMSD -1
REMARK  0 active torsions:
REMARK  status: ('A' for Active; 'I' for Inactive)
ROOT
ATOM      1  O1  BZF d   1       0.129   0.595  -0.566  0.00  0.00    -0.204 OA
ATOM      2  C2  BZF d   1      -0.910   0.136  -1.352  0.00  0.00     0.174 A 
ATOM      3  C3  BZF d   1      -2.067   0.742  -1.017  0.00  0.00    -0.012 A 
ATOM      4  C3A BZF d   1      -1.714   1.702  -0.018  0.00  0.00    -0.107 A 
ATOM      5  C4  BZF d   1      -2.428   2.623   0.694  0.00  0.00     0.055 A 
ATOM      6  C5  BZF d   1      -1.796   3.356   1.647  0.00  0.00    -0.016 A 
ATOM      7  C6  BZF d   1      -0.453   3.192   1.918  0.00  0.00     0.022 A 
ATOM      8  C7  BZF d   1       0.299   2.295   1.234  0.00  0.00     0.029 A 
ATOM      9  C7A BZF d   1      -0.331   1.575   0.248  0.00  0.00     0.058 A 
ENDROOT
TORSDOF 0
ENDMDL
