MODEL 1
REMARK minimizedAffinity -1.390082
REMARK minimizedRMSD -1
REMARK  0 active torsions:
REMARK  status: ('A' for Active; 'I' for Inactive)
ROOT
ATOM      1  O1  BZF d   1      -5.492   3.009  -3.190  0.00  0.00    -0.204 OA
ATOM      2  C2  BZF d   1      -4.781   4.153  -3.496  0.00  0.00     0.174 A 
ATOM      3  C3  BZF d   1      -3.472   3.994  -3.213  0.00  0.00    -0.012 A 
ATOM      4  C3A BZF d   1      -3.343   2.635  -2.784  0.00  0.00    -0.107 A 
ATOM      5  C4  BZF d   1      -2.282   1.874  -2.382  0.00  0.00     0.055 A 
ATOM      6  C5  BZF d   1      -2.505   0.602  -1.959  0.00  0.00    -0.016 A 
ATOM      7  C6  BZF d   1      -3.773   0.061  -1.919  0.00  0.00     0.022 A 
ATOM      8  C7  BZF d   1      -4.856   0.776  -2.313  0.00  0.00     0.029 A 
ATOM      9  C7A BZF d   1      -4.630   2.050  -2.772  0.00  0.00     0.058 A 
ENDROOT
TORSDOF 0
ENDMDL
