MODEL 1
REMARK minimizedAffinity 5.53609753
REMARK minimizedRMSD -1
REMARK  0 active torsions:
REMARK  status: ('A' for Active; 'I' for Inactive)
ROOT
ATOM      1  O1  BZF d   1       2.503  -0.902  -0.854  0.00  0.00    -0.204 OA
ATOM      2  C2  BZF d   1       2.830  -2.230  -0.658  0.00  0.00     0.174 A 
ATOM      3  C3  BZF d   1       1.748  -3.019  -0.822  0.00  0.00    -0.012 A 
ATOM      4  C3A BZF d   1       0.698  -2.137  -1.230  0.00  0.00    -0.107 A 
ATOM      5  C4  BZF d   1      -0.613  -2.328  -1.560  0.00  0.00     0.055 A 
ATOM      6  C5  BZF d   1      -1.387  -1.247  -1.843  0.00  0.00    -0.016 A 
ATOM      7  C6  BZF d   1      -0.885   0.037  -1.801  0.00  0.00     0.022 A 
ATOM      8  C7  BZF d   1       0.411   0.276  -1.484  0.00  0.00     0.029 A 
ATOM      9  C7A BZF d   1       1.204  -0.816  -1.230  0.00  0.00     0.058 A 
ENDROOT
TORSDOF 0
ENDMDL
