MODEL 1
REMARK minimizedAffinity -1.18653715
REMARK minimizedRMSD -1
REMARK  0 active torsions:
REMARK  status: ('A' for Active; 'I' for Inactive)
ROOT
ATOM      1  O1  BZF d   1       1.546   4.696  -0.119  0.00  0.00    -0.204 OA
ATOM      2  C2  BZF d   1       2.467   4.454   0.883  0.00  0.00     0.174 A 
ATOM      3  C3  BZF d   1       1.912   3.734   1.879  0.00  0.00    -0.012 A 
ATOM      4  C3A BZF d   1       0.587   3.432   1.432  0.00  0.00    -0.107 A 
ATOM      5  C4  BZF d   1      -0.450   2.730   1.976  0.00  0.00     0.055 A 
ATOM      6  C5  BZF d   1      -1.637   2.685   1.315  0.00  0.00    -0.016 A 
ATOM      7  C6  BZF d   1      -1.823   3.335   0.113  0.00  0.00     0.022 A 
ATOM      8  C7  BZF d   1      -0.822   4.040  -0.469  0.00  0.00     0.029 A 
ATOM      9  C7A BZF d   1       0.388   4.060   0.180  0.00  0.00     0.058 A 
ENDROOT
TORSDOF 0
ENDMDL
