MODEL 1
REMARK minimizedAffinity 3.98267293
REMARK minimizedRMSD -1
REMARK  0 active torsions:
REMARK  status: ('A' for Active; 'I' for Inactive)
ROOT
ATOM      1  O1  BZF d   1      -2.358  -3.757   5.928  0.00  0.00    -0.204 OA
ATOM      2  C2  BZF d   1      -3.528  -3.022   5.927  0.00  0.00     0.174 A 
ATOM      3  C3  BZF d   1      -3.262  -1.702   6.000  0.00  0.00    -0.012 A 
ATOM      4  C3A BZF d   1      -1.836  -1.601   5.957  0.00  0.00    -0.107 A 
ATOM      5  C4  BZF d   1      -0.968  -0.547   5.978  0.00  0.00     0.055 A 
ATOM      6  C5  BZF d   1       0.369  -0.793   5.996  0.00  0.00    -0.016 A 
ATOM      7  C6  BZF d   1       0.871  -2.077   6.000  0.00  0.00     0.022 A 
ATOM      8  C7  BZF d   1       0.049  -3.155   5.975  0.00  0.00     0.029 A 
ATOM      9  C7A BZF d   1      -1.301  -2.910   5.922  0.00  0.00     0.058 A 
ENDROOT
TORSDOF 0
ENDMDL
