MODEL 1
REMARK minimizedAffinity 2.81648278
REMARK minimizedRMSD -1
REMARK  0 active torsions:
REMARK  status: ('A' for Active; 'I' for Inactive)
ROOT
ATOM      1  O1  BZF d   1       3.404  -3.056  -0.268  0.00  0.00    -0.204 OA
ATOM      2  C2  BZF d   1       4.647  -2.478  -0.091  0.00  0.00     0.174 A 
ATOM      3  C3  BZF d   1       5.590  -3.150  -0.783  0.00  0.00    -0.012 A 
ATOM      4  C3A BZF d   1       4.878  -4.158  -1.507  0.00  0.00    -0.107 A 
ATOM      5  C4  BZF d   1       5.263  -5.131  -2.385  0.00  0.00     0.055 A 
ATOM      6  C5  BZF d   1       4.331  -6.000  -2.858  0.00  0.00    -0.016 A 
ATOM      7  C6  BZF d   1       3.008  -5.928  -2.471  0.00  0.00     0.022 A 
ATOM      8  C7  BZF d   1       2.578  -4.976  -1.607  0.00  0.00     0.029 A 
ATOM      9  C7A BZF d   1       3.512  -4.077  -1.153  0.00  0.00     0.058 A 
ENDROOT
TORSDOF 0
ENDMDL
