MODEL 1
REMARK minimizedAffinity 7.76681709
REMARK minimizedRMSD -1
REMARK  0 active torsions:
REMARK  status: ('A' for Active; 'I' for Inactive)
ROOT
ATOM      1  O1  BZF d   1      -3.590  -1.208  -1.135  0.00  0.00    -0.204 OA
ATOM      2  C2  BZF d   1      -3.887  -0.269  -0.166  0.00  0.00     0.174 A 
ATOM      3  C3  BZF d   1      -2.954   0.704  -0.141  0.00  0.00    -0.012 A 
ATOM      4  C3A BZF d   1      -2.064   0.400  -1.219  0.00  0.00    -0.107 A 
ATOM      5  C4  BZF d   1      -0.945   1.008  -1.713  0.00  0.00     0.055 A 
ATOM      6  C5  BZF d   1      -0.265   0.416  -2.729  0.00  0.00    -0.016 A 
ATOM      7  C6  BZF d   1      -0.673  -0.785  -3.272  0.00  0.00     0.022 A 
ATOM      8  C7  BZF d   1      -1.780  -1.423  -2.819  0.00  0.00     0.029 A 
ATOM      9  C7A BZF d   1      -2.487  -0.811  -1.814  0.00  0.00     0.058 A 
ENDROOT
TORSDOF 0
ENDMDL
