MODEL 1
REMARK minimizedAffinity -4.02783394
REMARK minimizedRMSD -1
REMARK  1 active torsions:
REMARK  status: ('A' for Active; 'I' for Inactive)
REMARK    1  A    between atoms: C1_2  and  C2_3 
ROOT
ATOM      1  C2  UNL d   1       0.299   0.381  -0.391  0.00  0.00    -0.073 A 
ATOM      2  C3  UNL d   1       1.464   0.099   0.332  0.00  0.00    -0.002 A 
ATOM      3  C4  UNL d   1       1.521  -1.015   1.170  0.00  0.00     0.004 A 
ATOM      4  C5  UNL d   1       0.418  -1.861   1.289  0.00  0.00    -0.004 A 
ATOM      5  C6  UNL d   1      -0.751  -1.602   0.566  0.00  0.00    -0.075 A 
ATOM      6  C7  UNL d   1      -1.946  -2.502   0.684  0.00  0.00     0.076 C 
ATOM      7  C8  UNL d   1      -0.801  -0.480  -0.272  0.00  0.00     0.001 A 
ENDROOT
BRANCH   1   8
ATOM      8  C1  UNL d   1       0.235   1.580  -1.302  0.00  0.00     0.053 C 
ATOM      9  C   UNL d   1       1.561   1.836  -2.001  0.00  0.00     0.018 C 
ENDBRANCH   1   8
TORSDOF 1
ENDMDL
