MODEL 1
REMARK minimizedAffinity -4.0037117
REMARK minimizedRMSD -1
REMARK  1 active torsions:
REMARK  status: ('A' for Active; 'I' for Inactive)
REMARK    1  A    between atoms: C1_2  and  C2_3 
ROOT
ATOM      1  C2  UNL d   1      -0.151   0.728  -0.539  0.00  0.00    -0.073 A 
ATOM      2  C3  UNL d   1      -0.964   1.710   0.037  0.00  0.00    -0.002 A 
ATOM      3  C4  UNL d   1      -2.080   1.347   0.793  0.00  0.00     0.004 A 
ATOM      4  C5  UNL d   1      -2.390   0.001   0.985  0.00  0.00    -0.004 A 
ATOM      5  C6  UNL d   1      -1.582  -0.996   0.426  0.00  0.00    -0.075 A 
ATOM      6  C7  UNL d   1      -1.903  -2.448   0.622  0.00  0.00     0.076 C 
ATOM      7  C8  UNL d   1      -0.465  -0.623  -0.333  0.00  0.00     0.001 A 
ENDROOT
BRANCH   1   8
ATOM      8  C1  UNL d   1       1.059   1.115  -1.350  0.00  0.00     0.053 C 
ATOM      9  C   UNL d   1       0.676   1.764  -2.671  0.00  0.00     0.018 C 
ENDBRANCH   1   8
TORSDOF 1
ENDMDL
