MODEL 1
REMARK minimizedAffinity -3.73565483
REMARK minimizedRMSD -1
REMARK  1 active torsions:
REMARK  status: ('A' for Active; 'I' for Inactive)
REMARK    1  A    between atoms: C1_2  and  C2_3 
ROOT
ATOM      1  C2  UNL d   1       0.052   0.266  -0.578  0.00  0.00    -0.073 A 
ATOM      2  C3  UNL d   1       1.262   0.047   0.091  0.00  0.00    -0.002 A 
ATOM      3  C4  UNL d   1       1.463  -1.125   0.821  0.00  0.00     0.004 A 
ATOM      4  C5  UNL d   1       0.460  -2.092   0.884  0.00  0.00    -0.004 A 
ATOM      5  C6  UNL d   1      -0.752  -1.898   0.214  0.00  0.00    -0.075 A 
ATOM      6  C7  UNL d   1      -1.841  -2.928   0.274  0.00  0.00     0.076 C 
ATOM      7  C8  UNL d   1      -0.946  -0.717  -0.515  0.00  0.00     0.001 A 
ENDROOT
BRANCH   1   8
ATOM      8  C1  UNL d   1      -0.166   1.527  -1.372  0.00  0.00     0.053 C 
ATOM      9  C   UNL d   1       0.891   1.713  -2.449  0.00  0.00     0.018 C 
ENDBRANCH   1   8
TORSDOF 1
ENDMDL
