MODEL 1
REMARK minimizedAffinity -2.01762533
REMARK minimizedRMSD -1
REMARK  1 active torsions:
REMARK  status: ('A' for Active; 'I' for Inactive)
REMARK    1  A    between atoms: C1_2  and  C2_3 
ROOT
ATOM      1  C2  UNL d   1       0.389   0.860  -0.364  0.00  0.00    -0.073 A 
ATOM      2  C3  UNL d   1      -0.645   1.562   0.267  0.00  0.00    -0.002 A 
ATOM      3  C4  UNL d   1      -1.617   0.878   0.998  0.00  0.00     0.004 A 
ATOM      4  C5  UNL d   1      -1.562  -0.511   1.111  0.00  0.00    -0.004 A 
ATOM      5  C6  UNL d   1      -0.531  -1.229   0.498  0.00  0.00    -0.075 A 
ATOM      6  C7  UNL d   1      -0.459  -2.724   0.608  0.00  0.00     0.076 C 
ATOM      7  C8  UNL d   1       0.441  -0.535  -0.237  0.00  0.00     0.001 A 
ENDROOT
BRANCH   1   8
ATOM      8  C1  UNL d   1       1.445   1.595  -1.149  0.00  0.00     0.053 C 
ATOM      9  C   UNL d   1       1.041   1.792  -2.602  0.00  0.00     0.018 C 
ENDBRANCH   1   8
TORSDOF 1
ENDMDL
