MODEL 1
REMARK minimizedAffinity -2.57756567
REMARK minimizedRMSD -1
REMARK  1 active torsions:
REMARK  status: ('A' for Active; 'I' for Inactive)
REMARK    1  A    between atoms: C1_2  and  C2_3 
ROOT
ATOM      1  C2  UNL d   1       0.020   0.786  -0.744  0.00  0.00    -0.073 A 
ATOM      2  C3  UNL d   1       1.409   0.656  -0.634  0.00  0.00    -0.002 A 
ATOM      3  C4  UNL d   1       1.963  -0.430   0.046  0.00  0.00     0.004 A 
ATOM      4  C5  UNL d   1       1.136  -1.397   0.616  0.00  0.00    -0.004 A 
ATOM      5  C6  UNL d   1      -0.254  -1.290   0.507  0.00  0.00    -0.075 A 
ATOM      6  C7  UNL d   1      -1.158  -2.322   1.116  0.00  0.00     0.076 C 
ATOM      7  C8  UNL d   1      -0.803  -0.196  -0.176  0.00  0.00     0.001 A 
ENDROOT
BRANCH   1   8
ATOM      8  C1  UNL d   1      -0.583   1.953  -1.483  0.00  0.00     0.053 C 
ATOM      9  C   UNL d   1       0.293   2.409  -2.640  0.00  0.00     0.018 C 
ENDBRANCH   1   8
TORSDOF 1
ENDMDL
