MODEL 1
REMARK minimizedAffinity -2.67537332
REMARK minimizedRMSD -1
REMARK  1 active torsions:
REMARK  status: ('A' for Active; 'I' for Inactive)
REMARK    1  A    between atoms: C1_2  and  C2_3 
ROOT
ATOM      1  C2  UNL d   1      -0.221  -0.722  -0.112  0.00  0.00    -0.073 A 
ATOM      2  C3  UNL d   1      -1.429  -1.199  -0.633  0.00  0.00    -0.002 A 
ATOM      3  C4  UNL d   1      -2.197  -2.112   0.090  0.00  0.00     0.004 A 
ATOM      4  C5  UNL d   1      -1.770  -2.553   1.343  0.00  0.00    -0.004 A 
ATOM      5  C6  UNL d   1      -0.571  -2.078   1.886  0.00  0.00    -0.075 A 
ATOM      6  C7  UNL d   1      -0.097  -2.544   3.231  0.00  0.00     0.076 C 
ATOM      7  C8  UNL d   1       0.196  -1.163   1.153  0.00  0.00     0.001 A 
ENDROOT
BRANCH   1   8
ATOM      8  C1  UNL d   1       0.608   0.270  -0.886  0.00  0.00     0.053 C 
ATOM      9  C   UNL d   1       0.914   1.517  -0.071  0.00  0.00     0.018 C 
ENDBRANCH   1   8
TORSDOF 1
ENDMDL
