MODEL 1
REMARK minimizedAffinity -4.9076128
REMARK minimizedRMSD -1
REMARK  1 active torsions:
REMARK  status: ('A' for Active; 'I' for Inactive)
REMARK    1  A    between atoms: C1_2  and  C2_3 
ROOT
ATOM      1  C2  UNL d   1       0.448  -0.056  -0.265  0.00  0.00    -0.073 A 
ATOM      2  C3  UNL d   1       0.883  -1.383  -0.350  0.00  0.00    -0.002 A 
ATOM      3  C4  UNL d   1       0.119  -2.412   0.201  0.00  0.00     0.004 A 
ATOM      4  C5  UNL d   1      -1.090  -2.126   0.836  0.00  0.00    -0.004 A 
ATOM      5  C6  UNL d   1      -1.547  -0.807   0.922  0.00  0.00    -0.075 A 
ATOM      6  C7  UNL d   1      -2.843  -0.483   1.604  0.00  0.00     0.076 C 
ATOM      7  C8  UNL d   1      -0.772   0.221   0.368  0.00  0.00     0.001 A 
ENDROOT
BRANCH   1   8
ATOM      8  C1  UNL d   1       1.267   1.058  -0.864  0.00  0.00     0.053 C 
ATOM      9  C   UNL d   1       0.749   1.474  -2.232  0.00  0.00     0.018 C 
ENDBRANCH   1   8
TORSDOF 1
ENDMDL
