MODEL 1
REMARK minimizedAffinity -2.54067135
REMARK minimizedRMSD -1
REMARK  1 active torsions:
REMARK  status: ('A' for Active; 'I' for Inactive)
REMARK    1  A    between atoms: C1_2  and  C2_3 
ROOT
ATOM      1  C2  UNL d   1       0.329  -1.554   0.377  0.00  0.00    -0.073 A 
ATOM      2  C3  UNL d   1      -0.417  -2.738   0.381  0.00  0.00    -0.002 A 
ATOM      3  C4  UNL d   1      -1.808  -2.695   0.478  0.00  0.00     0.004 A 
ATOM      4  C5  UNL d   1      -2.468  -1.469   0.563  0.00  0.00    -0.004 A 
ATOM      5  C6  UNL d   1      -1.742  -0.274   0.548  0.00  0.00    -0.075 A 
ATOM      6  C7  UNL d   1      -2.437   1.052   0.642  0.00  0.00     0.076 C 
ATOM      7  C8  UNL d   1      -0.345  -0.326   0.454  0.00  0.00     0.001 A 
ENDROOT
BRANCH   1   8
ATOM      8  C1  UNL d   1       1.831  -1.595   0.267  0.00  0.00     0.053 C 
ATOM      9  C   UNL d   1       2.466  -0.261   0.627  0.00  0.00     0.018 C 
ENDBRANCH   1   8
TORSDOF 1
ENDMDL
