MODEL 1
REMARK minimizedAffinity -4.50846195
REMARK minimizedRMSD -1
REMARK  1 active torsions:
REMARK  status: ('A' for Active; 'I' for Inactive)
REMARK    1  A    between atoms: C1_2  and  C2_3 
ROOT
ATOM      1  C2  UNL d   1      -0.847  -0.545   0.283  0.00  0.00    -0.073 A 
ATOM      2  C3  UNL d   1      -1.665   0.316   1.024  0.00  0.00    -0.002 A 
ATOM      3  C4  UNL d   1      -1.369   1.677   1.100  0.00  0.00     0.004 A 
ATOM      4  C5  UNL d   1      -0.258   2.193   0.433  0.00  0.00    -0.004 A 
ATOM      5  C6  UNL d   1       0.565   1.351  -0.322  0.00  0.00    -0.075 A 
ATOM      6  C7  UNL d   1       1.765   1.889  -1.044  0.00  0.00     0.076 C 
ATOM      7  C8  UNL d   1       0.262  -0.016  -0.392  0.00  0.00     0.001 A 
ENDROOT
BRANCH   1   8
ATOM      8  C1  UNL d   1      -1.167  -2.015   0.192  0.00  0.00     0.053 C 
ATOM      9  C   UNL d   1      -0.845  -2.749   1.484  0.00  0.00     0.018 C 
ENDBRANCH   1   8
TORSDOF 1
ENDMDL
