MODEL 1
REMARK minimizedAffinity -5.81809139
REMARK minimizedRMSD -1
REMARK  1 active torsions:
REMARK  status: ('A' for Active; 'I' for Inactive)
REMARK    1  A    between atoms: C1_2  and  C2_3 
ROOT
ATOM      1  C2  UNL d   1       0.279   0.019  -0.142  0.00  0.00    -0.073 A 
ATOM      2  C3  UNL d   1       0.744  -1.300  -0.202  0.00  0.00    -0.002 A 
ATOM      3  C4  UNL d   1      -0.004  -2.337   0.356  0.00  0.00     0.004 A 
ATOM      4  C5  UNL d   1      -1.226  -2.069   0.972  0.00  0.00    -0.004 A 
ATOM      5  C6  UNL d   1      -1.714  -0.759   1.031  0.00  0.00    -0.075 A 
ATOM      6  C7  UNL d   1      -3.025  -0.453   1.693  0.00  0.00     0.076 C 
ATOM      7  C8  UNL d   1      -0.955   0.278   0.471  0.00  0.00     0.001 A 
ENDROOT
BRANCH   1   8
ATOM      8  C1  UNL d   1       1.081   1.141  -0.749  0.00  0.00     0.053 C 
ATOM      9  C   UNL d   1       0.735   1.362  -2.213  0.00  0.00     0.018 C 
ENDBRANCH   1   8
TORSDOF 1
ENDMDL
