MODEL 1
REMARK minimizedAffinity -3.45872521
REMARK minimizedRMSD -1
REMARK  1 active torsions:
REMARK  status: ('A' for Active; 'I' for Inactive)
REMARK    1  A    between atoms: C1_2  and  C2_3 
ROOT
ATOM      1  C2  UNL d   1       0.479   0.587  -0.635  0.00  0.00    -0.073 A 
ATOM      2  C3  UNL d   1       1.705   0.044  -0.234  0.00  0.00    -0.002 A 
ATOM      3  C4  UNL d   1       1.746  -1.160   0.470  0.00  0.00     0.004 A 
ATOM      4  C5  UNL d   1       0.565  -1.836   0.773  0.00  0.00    -0.004 A 
ATOM      5  C6  UNL d   1      -0.670  -1.316   0.371  0.00  0.00    -0.075 A 
ATOM      6  C7  UNL d   1      -1.950  -2.029   0.692  0.00  0.00     0.076 C 
ATOM      7  C8  UNL d   1      -0.703  -0.104  -0.333  0.00  0.00     0.001 A 
ENDROOT
BRANCH   1   8
ATOM      8  C1  UNL d   1       0.431   1.885  -1.400  0.00  0.00     0.053 C 
ATOM      9  C   UNL d   1       1.567   1.997  -2.404  0.00  0.00     0.018 C 
ENDBRANCH   1   8
TORSDOF 1
ENDMDL
