MODEL 1
REMARK minimizedAffinity -5.49949694
REMARK minimizedRMSD -1
REMARK  1 active torsions:
REMARK  status: ('A' for Active; 'I' for Inactive)
REMARK    1  A    between atoms: C1_2  and  C2_3 
ROOT
ATOM      1  C2  UNL d   1       0.252   0.843   0.163  0.00  0.00    -0.073 A 
ATOM      2  C3  UNL d   1      -0.666   1.778   0.653  0.00  0.00    -0.002 A 
ATOM      3  C4  UNL d   1      -1.834   1.353   1.289  0.00  0.00     0.004 A 
ATOM      4  C5  UNL d   1      -2.091  -0.008   1.447  0.00  0.00    -0.004 A 
ATOM      5  C6  UNL d   1      -1.180  -0.958   0.975  0.00  0.00    -0.075 A 
ATOM      6  C7  UNL d   1      -1.443  -2.427   1.135  0.00  0.00     0.076 C 
ATOM      7  C8  UNL d   1      -0.011  -0.524   0.335  0.00  0.00     0.001 A 
ENDROOT
BRANCH   1   8
ATOM      8  C1  UNL d   1       1.517   1.297  -0.518  0.00  0.00     0.053 C 
ATOM      9  C   UNL d   1       1.250   1.842  -1.912  0.00  0.00     0.018 C 
ENDBRANCH   1   8
TORSDOF 1
ENDMDL
