MODEL 1
REMARK minimizedAffinity 0.870015204
REMARK minimizedRMSD -1
REMARK  1 active torsions:
REMARK  status: ('A' for Active; 'I' for Inactive)
REMARK    1  A    between atoms: C1_2  and  C2_3 
ROOT
ATOM      1  C2  UNL d   1       2.154   4.175  -4.948  0.00  0.00    -0.081 A 
ATOM      2  C3  UNL d   1       2.276   2.991  -5.685  0.00  0.00     0.006 A 
ATOM      3  C4  UNL d   1       3.521   2.375  -5.836  0.00  0.00     0.002 A 
ATOM      4  C5  UNL d   1       4.663   2.929  -5.248  0.00  0.00    -0.080 A 
ATOM      5  C6  UNL d   1       6.000   2.263  -5.377  0.00  0.00     0.076 C 
ATOM      6  C7  UNL d   1       4.544   4.122  -4.527  0.00  0.00     0.002 A 
ATOM      7  C8  UNL d   1       3.300   4.738  -4.376  0.00  0.00     0.006 A 
ENDROOT
BRANCH   1   8
ATOM      8  C1  UNL d   1       0.803   4.806  -4.729  0.00  0.00     0.054 C 
ATOM      9  C   UNL d   1      -0.035   4.774  -5.999  0.00  0.00     0.018 C 
ENDBRANCH   1   8
TORSDOF 1
ENDMDL
