MODEL 1
REMARK minimizedAffinity 1.58604312
REMARK minimizedRMSD -1
REMARK  1 active torsions:
REMARK  status: ('A' for Active; 'I' for Inactive)
REMARK    1  A    between atoms: C1_2  and  C2_3 
ROOT
ATOM      1  C2  UNL d   1       2.133   4.763  -5.142  0.00  0.00    -0.081 A 
ATOM      2  C3  UNL d   1       2.176   3.481  -5.704  0.00  0.00     0.006 A 
ATOM      3  C4  UNL d   1       3.402   2.876  -5.994  0.00  0.00     0.002 A 
ATOM      4  C5  UNL d   1       4.603   3.538  -5.720  0.00  0.00    -0.080 A 
ATOM      5  C6  UNL d   1       5.925   2.888  -5.998  0.00  0.00     0.076 C 
ATOM      6  C7  UNL d   1       4.559   4.826  -5.174  0.00  0.00     0.002 A 
ATOM      7  C8  UNL d   1       3.335   5.431  -4.885  0.00  0.00     0.006 A 
ENDROOT
BRANCH   1   8
ATOM      8  C1  UNL d   1       0.815   5.391  -4.768  0.00  0.00     0.054 C 
ATOM      9  C   UNL d   1       0.097   5.940  -5.993  0.00  0.00     0.018 C 
ENDBRANCH   1   8
TORSDOF 1
ENDMDL
