MODEL 1
REMARK minimizedAffinity -2.2481029
REMARK minimizedRMSD -1
REMARK  1 active torsions:
REMARK  status: ('A' for Active; 'I' for Inactive)
REMARK    1  A    between atoms: C1_2  and  C2_3 
ROOT
ATOM      1  C2  UNL d   1       1.839   4.388  -5.461  0.00  0.00    -0.081 A 
ATOM      2  C3  UNL d   1       2.213   3.056  -5.676  0.00  0.00     0.006 A 
ATOM      3  C4  UNL d   1       3.557   2.715  -5.843  0.00  0.00     0.002 A 
ATOM      4  C5  UNL d   1       4.550   3.699  -5.790  0.00  0.00    -0.080 A 
ATOM      5  C6  UNL d   1       6.000   3.342  -5.938  0.00  0.00     0.076 C 
ATOM      6  C7  UNL d   1       4.176   5.032  -5.593  0.00  0.00     0.002 A 
ATOM      7  C8  UNL d   1       2.832   5.374  -5.426  0.00  0.00     0.006 A 
ENDROOT
BRANCH   1   8
ATOM      8  C1  UNL d   1       0.397   4.750  -5.216  0.00  0.00     0.054 C 
ATOM      9  C   UNL d   1      -0.003   5.993  -5.999  0.00  0.00     0.018 C 
ENDBRANCH   1   8
TORSDOF 1
ENDMDL
