MODEL 1
REMARK minimizedAffinity 5.92788744
REMARK minimizedRMSD -1
REMARK  1 active torsions:
REMARK  status: ('A' for Active; 'I' for Inactive)
REMARK    1  A    between atoms: C1_2  and  C2_3 
ROOT
ATOM      1  C2  UNL d   1       2.190   4.121  -5.619  0.00  0.00    -0.081 A 
ATOM      2  C3  UNL d   1       1.894   2.752  -5.637  0.00  0.00     0.006 A 
ATOM      3  C4  UNL d   1       2.870   1.812  -5.298  0.00  0.00     0.002 A 
ATOM      4  C5  UNL d   1       4.155   2.225  -4.929  0.00  0.00    -0.080 A 
ATOM      5  C6  UNL d   1       5.204   1.228  -4.534  0.00  0.00     0.076 C 
ATOM      6  C7  UNL d   1       4.456   3.591  -4.929  0.00  0.00     0.002 A 
ATOM      7  C8  UNL d   1       3.480   4.531  -5.268  0.00  0.00     0.006 A 
ENDROOT
BRANCH   1   8
ATOM      8  C1  UNL d   1       1.120   5.139  -5.921  0.00  0.00     0.054 C 
ATOM      9  C   UNL d   1      -0.255   4.492  -5.999  0.00  0.00     0.018 C 
ENDBRANCH   1   8
TORSDOF 1
ENDMDL
