MODEL 1
REMARK minimizedAffinity 0.306945264
REMARK minimizedRMSD -1
REMARK  1 active torsions:
REMARK  status: ('A' for Active; 'I' for Inactive)
REMARK    1  A    between atoms: C1_2  and  C2_3 
ROOT
ATOM      1  C2  UNL d   1       3.736   3.363  -5.230  0.00  0.00    -0.081 A 
ATOM      2  C3  UNL d   1       2.506   2.843  -5.650  0.00  0.00     0.006 A 
ATOM      3  C4  UNL d   1       1.423   3.692  -5.889  0.00  0.00     0.002 A 
ATOM      4  C5  UNL d   1       1.553   5.074  -5.718  0.00  0.00    -0.080 A 
ATOM      5  C6  UNL d   1       0.407   6.000  -6.000  0.00  0.00     0.076 C 
ATOM      6  C7  UNL d   1       2.777   5.592  -5.281  0.00  0.00     0.002 A 
ATOM      7  C8  UNL d   1       3.861   4.744  -5.042  0.00  0.00     0.006 A 
ENDROOT
BRANCH   1   8
ATOM      8  C1  UNL d   1       4.925   2.457  -5.035  0.00  0.00     0.054 C 
ATOM      9  C   UNL d   1       4.512   1.126  -4.423  0.00  0.00     0.018 C 
ENDBRANCH   1   8
TORSDOF 1
ENDMDL
