MODEL 1
REMARK minimizedAffinity 1.18391788
REMARK minimizedRMSD -1
REMARK  1 active torsions:
REMARK  status: ('A' for Active; 'I' for Inactive)
REMARK    1  A    between atoms: C1_2  and  C2_3 
ROOT
ATOM      1  C2  UNL d   1       2.080   5.117  -5.768  0.00  0.00    -0.081 A 
ATOM      2  C3  UNL d   1       3.282   5.816  -5.930  0.00  0.00     0.006 A 
ATOM      3  C4  UNL d   1       4.497   5.131  -5.993  0.00  0.00     0.002 A 
ATOM      4  C5  UNL d   1       4.531   3.736  -5.902  0.00  0.00    -0.080 A 
ATOM      5  C6  UNL d   1       5.826   2.986  -5.998  0.00  0.00     0.076 C 
ATOM      6  C7  UNL d   1       3.332   3.038  -5.722  0.00  0.00     0.002 A 
ATOM      7  C8  UNL d   1       2.116   3.722  -5.658  0.00  0.00     0.006 A 
ENDROOT
BRANCH   1   8
ATOM      8  C1  UNL d   1       0.762   5.848  -5.765  0.00  0.00     0.054 C 
ATOM      9  C   UNL d   1      -0.401   4.893  -5.998  0.00  0.00     0.018 C 
ENDBRANCH   1   8
TORSDOF 1
ENDMDL
