MODEL 1
REMARK minimizedAffinity 3.78033328
REMARK minimizedRMSD -1
REMARK  1 active torsions:
REMARK  status: ('A' for Active; 'I' for Inactive)
REMARK    1  A    between atoms: C1_2  and  C2_3 
ROOT
ATOM      1  C2  UNL d   1       1.689   3.606  -5.772  0.00  0.00    -0.081 A 
ATOM      2  C3  UNL d   1       2.566   4.695  -5.685  0.00  0.00     0.006 A 
ATOM      3  C4  UNL d   1       3.947   4.498  -5.746  0.00  0.00     0.002 A 
ATOM      4  C5  UNL d   1       4.475   3.212  -5.902  0.00  0.00    -0.080 A 
ATOM      5  C6  UNL d   1       5.955   2.990  -5.999  0.00  0.00     0.076 C 
ATOM      6  C7  UNL d   1       3.600   2.122  -5.971  0.00  0.00     0.002 A 
ATOM      7  C8  UNL d   1       2.219   2.318  -5.910  0.00  0.00     0.006 A 
ENDROOT
BRANCH   1   8
ATOM      8  C1  UNL d   1       0.197   3.821  -5.772  0.00  0.00     0.054 C 
ATOM      9  C   UNL d   1      -0.149   5.295  -5.932  0.00  0.00     0.018 C 
ENDBRANCH   1   8
TORSDOF 1
ENDMDL
