MODEL 1
REMARK minimizedAffinity 2.58841133
REMARK minimizedRMSD -1
REMARK  1 active torsions:
REMARK  status: ('A' for Active; 'I' for Inactive)
REMARK    1  A    between atoms: C1_2  and  C2_3 
ROOT
ATOM      1  C2  UNL d   1       3.712   0.391   2.730  0.00  0.00    -0.081 A 
ATOM      2  C3  UNL d   1       2.951   1.167   1.847  0.00  0.00     0.006 A 
ATOM      3  C4  UNL d   1       1.714   1.680   2.243  0.00  0.00     0.002 A 
ATOM      4  C5  UNL d   1       1.221   1.435   3.529  0.00  0.00    -0.080 A 
ATOM      5  C6  UNL d   1      -0.092   2.006   3.976  0.00  0.00     0.076 C 
ATOM      6  C7  UNL d   1       1.974   0.646   4.405  0.00  0.00     0.002 A 
ATOM      7  C8  UNL d   1       3.211   0.131   4.010  0.00  0.00     0.006 A 
ENDROOT
BRANCH   1   8
ATOM      8  C1  UNL d   1       5.076  -0.110   2.329  0.00  0.00     0.054 C 
ATOM      9  C   UNL d   1       5.999   1.040   1.951  0.00  0.00     0.018 C 
ENDBRANCH   1   8
TORSDOF 1
ENDMDL
