MODEL 1
REMARK minimizedAffinity 0.375297099
REMARK minimizedRMSD -1
REMARK  1 active torsions:
REMARK  status: ('A' for Active; 'I' for Inactive)
REMARK    1  A    between atoms: C1_2  and  C2_3 
ROOT
ATOM      1  C2  UNL d   1       4.623   3.085  -5.831  0.00  0.00    -0.081 A 
ATOM      2  C3  UNL d   1       4.527   4.481  -5.852  0.00  0.00     0.006 A 
ATOM      3  C4  UNL d   1       3.279   5.105  -5.919  0.00  0.00     0.002 A 
ATOM      4  C5  UNL d   1       2.106   4.343  -5.958  0.00  0.00    -0.080 A 
ATOM      5  C6  UNL d   1       0.758   5.000  -6.000  0.00  0.00     0.076 C 
ATOM      6  C7  UNL d   1       2.202   2.947  -5.955  0.00  0.00     0.002 A 
ATOM      7  C8  UNL d   1       3.450   2.323  -5.889  0.00  0.00     0.006 A 
ENDROOT
BRANCH   1   8
ATOM      8  C1  UNL d   1       5.964   2.410  -5.693  0.00  0.00     0.054 C 
ATOM      9  C   UNL d   1       5.858   1.131  -4.875  0.00  0.00     0.018 C 
ENDBRANCH   1   8
TORSDOF 1
ENDMDL
