MODEL 1
REMARK minimizedAffinity 1.79113555
REMARK minimizedRMSD -1
REMARK  1 active torsions:
REMARK  status: ('A' for Active; 'I' for Inactive)
REMARK    1  A    between atoms: C1_2  and  C2_3 
ROOT
ATOM      1  C2  UNL d   1       4.123   3.329  -5.938  0.00  0.00    -0.081 A 
ATOM      2  C3  UNL d   1       2.820   2.817  -5.919  0.00  0.00     0.006 A 
ATOM      3  C4  UNL d   1       1.721   3.678  -5.926  0.00  0.00     0.002 A 
ATOM      4  C5  UNL d   1       1.905   5.065  -5.961  0.00  0.00    -0.080 A 
ATOM      5  C6  UNL d   1       0.733   6.000  -6.000  0.00  0.00     0.076 C 
ATOM      6  C7  UNL d   1       3.207   5.577  -5.962  0.00  0.00     0.002 A 
ATOM      7  C8  UNL d   1       4.307   4.716  -5.954  0.00  0.00     0.006 A 
ENDROOT
BRANCH   1   8
ATOM      8  C1  UNL d   1       5.311   2.402  -5.995  0.00  0.00     0.054 C 
ATOM      9  C   UNL d   1       4.983   1.046  -5.388  0.00  0.00     0.018 C 
ENDBRANCH   1   8
TORSDOF 1
ENDMDL
