MODEL 1
REMARK minimizedAffinity 3.24004364
REMARK minimizedRMSD -1
REMARK  1 active torsions:
REMARK  status: ('A' for Active; 'I' for Inactive)
REMARK    1  A    between atoms: N_2  and  C1_3 
ROOT
ATOM      1  C1  UNL d   1       4.892   5.144   2.631  0.00  0.00     0.143 A 
ATOM      2  C2  UNL d   1       3.775   5.712   3.254  0.00  0.00    -0.057 A 
ATOM      3  C3  UNL d   1       3.776   5.999   4.624  0.00  0.00     0.033 A 
ATOM      4  C4  UNL d   1       4.887   5.695   5.404  0.00  0.00    -0.042 A 
ATOM      5  C5  UNL d   1       5.999   5.108   4.811  0.00  0.00     0.033 A 
ATOM      6  C6  UNL d   1       5.994   4.830   3.441  0.00  0.00    -0.057 A 
ENDROOT
BRANCH   1   7
ATOM      7  N   UNL d   1       4.916   4.745   1.293  0.00  0.00    -0.732 N 
ATOM      8  C   UNL d   1       5.361   5.656   0.259  0.00  0.00     0.284 C 
ATOM      9  H3  UNL d   1       5.251   3.791   1.178  0.00  0.00     0.395 HD
ENDBRANCH   1   7
TORSDOF 1
ENDMDL
