MODEL 1
REMARK minimizedAffinity 3.0458765
REMARK minimizedRMSD -1
REMARK  1 active torsions:
REMARK  status: ('A' for Active; 'I' for Inactive)
REMARK    1  A    between atoms: N_2  and  C1_3 
ROOT
ATOM      1  C1  UNL d   1       3.646   5.397   0.495  0.00  0.00     0.143 A 
ATOM      2  C2  UNL d   1       4.822   5.985   0.015  0.00  0.00    -0.057 A 
ATOM      3  C3  UNL d   1       5.993   5.998   0.783  0.00  0.00     0.033 A 
ATOM      4  C4  UNL d   1       6.000   5.448   2.061  0.00  0.00    -0.042 A 
ATOM      5  C5  UNL d   1       4.836   4.881   2.568  0.00  0.00     0.033 A 
ATOM      6  C6  UNL d   1       3.672   4.865   1.793  0.00  0.00    -0.057 A 
ENDROOT
BRANCH   1   7
ATOM      7  N   UNL d   1       2.424   5.439  -0.181  0.00  0.00    -0.732 N 
ATOM      8  C   UNL d   1       1.250   6.000   0.453  0.00  0.00     0.284 C 
ATOM      9  H3  UNL d   1       2.530   5.695  -1.160  0.00  0.00     0.395 HD
ENDBRANCH   1   7
TORSDOF 1
ENDMDL
