MODEL 1
REMARK minimizedAffinity -0.708381712
REMARK minimizedRMSD -1
REMARK  1 active torsions:
REMARK  status: ('A' for Active; 'I' for Inactive)
REMARK    1  A    between atoms: N_2  and  C1_3 
ROOT
ATOM      1  C1  UNL d   1       1.090   1.084  -3.453  0.00  0.00     0.143 A 
ATOM      2  C2  UNL d   1       0.761   1.252  -4.802  0.00  0.00    -0.057 A 
ATOM      3  C3  UNL d   1       1.705   1.712  -5.728  0.00  0.00     0.033 A 
ATOM      4  C4  UNL d   1       2.991   2.041  -5.314  0.00  0.00    -0.042 A 
ATOM      5  C5  UNL d   1       3.333   1.906  -3.973  0.00  0.00     0.033 A 
ATOM      6  C6  UNL d   1       2.388   1.440  -3.054  0.00  0.00    -0.057 A 
ENDROOT
BRANCH   1   7
ATOM      7  N   UNL d   1       0.169   0.725  -2.466  0.00  0.00    -0.732 N 
ATOM      8  C   UNL d   1       0.560  -0.137  -1.371  0.00  0.00     0.284 C 
ATOM      9  H3  UNL d   1      -0.429   1.501  -2.191  0.00  0.00     0.395 HD
ENDBRANCH   1   7
TORSDOF 1
ENDMDL
