MODEL 1
REMARK minimizedAffinity -2.31974697
REMARK minimizedRMSD -1
REMARK  1 active torsions:
REMARK  status: ('A' for Active; 'I' for Inactive)
REMARK    1  A    between atoms: N_2  and  C1_3 
ROOT
ATOM      1  C1  UNL d   1       1.462   1.635  -3.277  0.00  0.00     0.143 A 
ATOM      2  C2  UNL d   1       2.847   1.594  -3.469  0.00  0.00    -0.057 A 
ATOM      3  C3  UNL d   1       3.631   0.594  -2.881  0.00  0.00     0.033 A 
ATOM      4  C4  UNL d   1       3.046  -0.368  -2.065  0.00  0.00    -0.042 A 
ATOM      5  C5  UNL d   1       1.674  -0.332  -1.840  0.00  0.00     0.033 A 
ATOM      6  C6  UNL d   1       0.895   0.665  -2.435  0.00  0.00    -0.057 A 
ENDROOT
BRANCH   1   7
ATOM      7  N   UNL d   1       0.641   2.661  -3.754  0.00  0.00    -0.732 N 
ATOM      8  C   UNL d   1       0.064   3.626  -2.844  0.00  0.00     0.284 C 
ATOM      9  H3  UNL d   1       0.987   3.063  -4.622  0.00  0.00     0.395 HD
ENDBRANCH   1   7
TORSDOF 1
ENDMDL
