MODEL 1
REMARK minimizedAffinity 4.21941423
REMARK minimizedRMSD -1
REMARK  1 active torsions:
REMARK  status: ('A' for Active; 'I' for Inactive)
REMARK    1  A    between atoms: N_2  and  C1_3 
ROOT
ATOM      1  C1  UNL d   1       2.528   1.497  -3.325  0.00  0.00     0.143 A 
ATOM      2  C2  UNL d   1       1.135   1.364  -3.311  0.00  0.00    -0.057 A 
ATOM      3  C3  UNL d   1       0.502   0.447  -2.464  0.00  0.00     0.033 A 
ATOM      4  C4  UNL d   1       1.254  -0.376  -1.633  0.00  0.00    -0.042 A 
ATOM      5  C5  UNL d   1       2.641  -0.279  -1.648  0.00  0.00     0.033 A 
ATOM      6  C6  UNL d   1       3.268   0.643  -2.492  0.00  0.00    -0.057 A 
ENDROOT
BRANCH   1   7
ATOM      7  N   UNL d   1       3.222   2.320  -4.216  0.00  0.00    -0.732 N 
ATOM      8  C   UNL d   1       2.974   2.240  -5.639  0.00  0.00     0.284 C 
ATOM      9  H3  UNL d   1       3.328   3.269  -3.865  0.00  0.00     0.395 HD
ENDBRANCH   1   7
TORSDOF 1
ENDMDL
