MODEL 1
REMARK minimizedAffinity -3.63518405
REMARK minimizedRMSD -1
REMARK  1 active torsions:
REMARK  status: ('A' for Active; 'I' for Inactive)
REMARK    1  A    between atoms: N_2  and  C1_3 
ROOT
ATOM      1  C1  UNL d   1       0.888   1.602  -2.794  0.00  0.00     0.143 A 
ATOM      2  C2  UNL d   1       2.285   1.660  -2.746  0.00  0.00    -0.057 A 
ATOM      3  C3  UNL d   1       3.030   0.666  -2.100  0.00  0.00     0.033 A 
ATOM      4  C4  UNL d   1       2.387  -0.391  -1.463  0.00  0.00    -0.042 A 
ATOM      5  C5  UNL d   1       0.999  -0.455  -1.477  0.00  0.00     0.033 A 
ATOM      6  C6  UNL d   1       0.260   0.537  -2.130  0.00  0.00    -0.057 A 
ENDROOT
BRANCH   1   7
ATOM      7  N   UNL d   1       0.087   2.611  -3.336  0.00  0.00    -0.732 N 
ATOM      8  C   UNL d   1      -0.573   3.569  -2.476  0.00  0.00     0.284 C 
ATOM      9  H3  UNL d   1       0.488   3.015  -4.179  0.00  0.00     0.395 HD
ENDBRANCH   1   7
TORSDOF 1
ENDMDL
