MODEL 1
REMARK minimizedAffinity 4.30797672
REMARK minimizedRMSD -1
REMARK  1 active torsions:
REMARK  status: ('A' for Active; 'I' for Inactive)
REMARK    1  A    between atoms: N_2  and  C1_3 
ROOT
ATOM      1  C1  UNL d   1       2.024   2.171  -4.821  0.00  0.00     0.143 A 
ATOM      2  C2  UNL d   1       1.552   2.039  -3.510  0.00  0.00    -0.057 A 
ATOM      3  C3  UNL d   1       2.428   1.803  -2.443  0.00  0.00     0.033 A 
ATOM      4  C4  UNL d   1       3.793   1.666  -2.673  0.00  0.00    -0.042 A 
ATOM      5  C5  UNL d   1       4.282   1.769  -3.971  0.00  0.00     0.033 A 
ATOM      6  C6  UNL d   1       3.403   2.012  -5.031  0.00  0.00    -0.057 A 
ENDROOT
BRANCH   1   7
ATOM      7  N   UNL d   1       1.195   2.308  -5.936  0.00  0.00    -0.732 N 
ATOM      8  C   UNL d   1      -0.076   1.619  -5.999  0.00  0.00     0.284 C 
ATOM      9  H3  UNL d   1       1.167   3.264  -6.284  0.00  0.00     0.395 HD
ENDBRANCH   1   7
TORSDOF 1
ENDMDL
