MODEL 1
REMARK minimizedAffinity 4.66530228
REMARK minimizedRMSD -1
REMARK  1 active torsions:
REMARK  status: ('A' for Active; 'I' for Inactive)
REMARK    1  A    between atoms: N_2  and  C1_3 
ROOT
ATOM      1  C1  UNL d   1       4.193   5.434   1.800  0.00  0.00     0.143 A 
ATOM      2  C2  UNL d   1       5.152   4.443   1.567  0.00  0.00    -0.057 A 
ATOM      3  C3  UNL d   1       5.998   3.997   2.590  0.00  0.00     0.033 A 
ATOM      4  C4  UNL d   1       5.919   4.558   3.861  0.00  0.00    -0.042 A 
ATOM      5  C5  UNL d   1       4.989   5.562   4.108  0.00  0.00     0.033 A 
ATOM      6  C6  UNL d   1       4.143   5.998   3.084  0.00  0.00    -0.057 A 
ENDROOT
BRANCH   1   7
ATOM      7  N   UNL d   1       3.389   5.989   0.800  0.00  0.00    -0.732 N 
ATOM      8  C   UNL d   1       1.948   5.986   0.927  0.00  0.00     0.284 C 
ATOM      9  H3  UNL d   1       3.773   6.856   0.431  0.00  0.00     0.395 HD
ENDBRANCH   1   7
TORSDOF 1
ENDMDL
