MODEL 1
REMARK minimizedAffinity -0.275621712
REMARK minimizedRMSD -1
REMARK  1 active torsions:
REMARK  status: ('A' for Active; 'I' for Inactive)
REMARK    1  A    between atoms: N_2  and  C1_3 
ROOT
ATOM      1  C1  UNL d   1       5.136   5.464   2.725  0.00  0.00     0.143 A 
ATOM      2  C2  UNL d   1       3.784   5.800   2.592  0.00  0.00    -0.057 A 
ATOM      3  C3  UNL d   1       3.204   5.990   1.332  0.00  0.00     0.033 A 
ATOM      4  C4  UNL d   1       3.975   5.876   0.180  0.00  0.00    -0.042 A 
ATOM      5  C5  UNL d   1       5.326   5.567   0.289  0.00  0.00     0.033 A 
ATOM      6  C6  UNL d   1       5.898   5.372   1.550  0.00  0.00    -0.057 A 
ENDROOT
BRANCH   1   7
ATOM      7  N   UNL d   1       5.794   5.358   3.952  0.00  0.00    -0.732 N 
ATOM      8  C   UNL d   1       5.265   4.513   5.002  0.00  0.00     0.284 C 
ATOM      9  H3  UNL d   1       6.805   5.309   3.848  0.00  0.00     0.395 HD
ENDBRANCH   1   7
TORSDOF 1
ENDMDL
