MODEL 1
REMARK minimizedAffinity -5.44180965
REMARK minimizedRMSD -1
REMARK  1 active torsions:
REMARK  status: ('A' for Active; 'I' for Inactive)
REMARK    1  A    between atoms: N_2  and  C1_3 
ROOT
ATOM      1  C1  UNL d   1       1.733   1.263  -3.221  0.00  0.00     0.143 A 
ATOM      2  C2  UNL d   1       3.021   1.703  -3.548  0.00  0.00    -0.057 A 
ATOM      3  C3  UNL d   1       3.300   2.267  -4.798  0.00  0.00     0.033 A 
ATOM      4  C4  UNL d   1       2.300   2.377  -5.758  0.00  0.00    -0.042 A 
ATOM      5  C5  UNL d   1       1.018   1.924  -5.465  0.00  0.00     0.033 A 
ATOM      6  C6  UNL d   1       0.744   1.367  -4.212  0.00  0.00    -0.057 A 
ENDROOT
BRANCH   1   7
ATOM      7  N   UNL d   1       1.414   0.603  -2.032  0.00  0.00    -0.732 N 
ATOM      8  C   UNL d   1       1.784  -0.782  -1.836  0.00  0.00     0.284 C 
ATOM      9  H3  UNL d   1       1.553   1.191  -1.213  0.00  0.00     0.395 HD
ENDBRANCH   1   7
TORSDOF 1
ENDMDL
