MODEL 1
REMARK minimizedAffinity -4.82427216
REMARK minimizedRMSD -1
REMARK  1 active torsions:
REMARK  status: ('A' for Active; 'I' for Inactive)
REMARK    1  A    between atoms: N_2  and  C1_3 
ROOT
ATOM      1  C1  UNL d   1       0.067   0.728  -0.108  0.00  0.00     0.143 A 
ATOM      2  C2  UNL d   1      -0.673  -0.406   0.246  0.00  0.00    -0.057 A 
ATOM      3  C3  UNL d   1      -0.161  -1.695   0.055  0.00  0.00     0.033 A 
ATOM      4  C4  UNL d   1       1.091  -1.874  -0.523  0.00  0.00    -0.042 A 
ATOM      5  C5  UNL d   1       1.833  -0.763  -0.905  0.00  0.00     0.033 A 
ATOM      6  C6  UNL d   1       1.320   0.522  -0.705  0.00  0.00    -0.057 A 
ENDROOT
BRANCH   1   7
ATOM      7  N   UNL d   1      -0.426   2.033  -0.034  0.00  0.00    -0.732 N 
ATOM      8  C   UNL d   1       0.131   3.080  -0.863  0.00  0.00     0.284 C 
ATOM      9  H3  UNL d   1      -1.440   2.061   0.045  0.00  0.00     0.395 HD
ENDBRANCH   1   7
TORSDOF 1
ENDMDL
