MODEL 1
REMARK minimizedAffinity 1.4645915
REMARK minimizedRMSD -1
REMARK  1 active torsions:
REMARK  status: ('A' for Active; 'I' for Inactive)
REMARK    1  A    between atoms: N_2  and  C1_3 
ROOT
ATOM      1  C1  UNL d   1       5.189   3.204   4.995  0.00  0.00     0.143 A 
ATOM      2  C2  UNL d   1       4.704   3.898   3.882  0.00  0.00    -0.057 A 
ATOM      3  C3  UNL d   1       4.885   5.281   3.753  0.00  0.00     0.033 A 
ATOM      4  C4  UNL d   1       5.531   6.000   4.753  0.00  0.00    -0.042 A 
ATOM      5  C5  UNL d   1       6.000   5.334   5.880  0.00  0.00     0.033 A 
ATOM      6  C6  UNL d   1       5.822   3.953   6.000  0.00  0.00    -0.057 A 
ENDROOT
BRANCH   1   7
ATOM      7  N   UNL d   1       4.955   1.846   5.228  0.00  0.00    -0.732 N 
ATOM      8  C   UNL d   1       4.057   1.097   4.375  0.00  0.00     0.284 C 
ATOM      9  H3  UNL d   1       5.802   1.344   5.483  0.00  0.00     0.395 HD
ENDBRANCH   1   7
TORSDOF 1
ENDMDL
