MODEL 1
REMARK minimizedAffinity 4.77789164
REMARK minimizedRMSD -1
REMARK  1 active torsions:
REMARK  status: ('A' for Active; 'I' for Inactive)
REMARK    1  A    between atoms: N_2  and  C1_3 
ROOT
ATOM      1  C1  UNL d   1      -4.461   3.755   3.465  0.00  0.00     0.143 A 
ATOM      2  C2  UNL d   1      -5.125   3.791   4.696  0.00  0.00    -0.057 A 
ATOM      3  C3  UNL d   1      -5.899   4.896   5.070  0.00  0.00     0.033 A 
ATOM      4  C4  UNL d   1      -6.000   6.000   4.230  0.00  0.00    -0.042 A 
ATOM      5  C5  UNL d   1      -5.328   5.996   3.012  0.00  0.00     0.033 A 
ATOM      6  C6  UNL d   1      -4.562   4.887   2.641  0.00  0.00    -0.057 A 
ENDROOT
BRANCH   1   7
ATOM      7  N   UNL d   1      -3.597   2.728   3.078  0.00  0.00    -0.732 N 
ATOM      8  C   UNL d   1      -2.952   1.893   4.069  0.00  0.00     0.284 C 
ATOM      9  H3  UNL d   1      -3.937   2.219   2.265  0.00  0.00     0.395 HD
ENDBRANCH   1   7
TORSDOF 1
ENDMDL
