MODEL 1
REMARK minimizedAffinity 7.44990826
REMARK minimizedRMSD -1
REMARK  1 active torsions:
REMARK  status: ('A' for Active; 'I' for Inactive)
REMARK    1  A    between atoms: N_2  and  C1_3 
ROOT
ATOM      1  C1  UNL d   1      -1.299  -1.152  -0.505  0.00  0.00     0.143 A 
ATOM      2  C2  UNL d   1      -0.765  -2.092   0.383  0.00  0.00    -0.057 A 
ATOM      3  C3  UNL d   1      -1.316  -2.283   1.656  0.00  0.00     0.033 A 
ATOM      4  C4  UNL d   1      -2.396  -1.514   2.076  0.00  0.00    -0.042 A 
ATOM      5  C5  UNL d   1      -2.928  -0.556   1.219  0.00  0.00     0.033 A 
ATOM      6  C6  UNL d   1      -2.377  -0.375  -0.053  0.00  0.00    -0.057 A 
ENDROOT
BRANCH   1   7
ATOM      7  N   UNL d   1      -0.735  -0.846  -1.746  0.00  0.00    -0.732 N 
ATOM      8  C   UNL d   1       0.353   0.103  -1.847  0.00  0.00     0.284 C 
ATOM      9  H3  UNL d   1      -0.627  -1.667  -2.336  0.00  0.00     0.395 HD
ENDBRANCH   1   7
TORSDOF 1
ENDMDL
