MODEL 1
REMARK minimizedAffinity 9.71970844
REMARK minimizedRMSD -1
REMARK  1 active torsions:
REMARK  status: ('A' for Active; 'I' for Inactive)
REMARK    1  A    between atoms: N_2  and  C1_3 
ROOT
ATOM      1  C1  UNL d   1      -4.715   3.433   2.957  0.00  0.00     0.143 A 
ATOM      2  C2  UNL d   1      -4.656   4.273   1.840  0.00  0.00    -0.057 A 
ATOM      3  C3  UNL d   1      -5.232   5.548   1.858  0.00  0.00     0.033 A 
ATOM      4  C4  UNL d   1      -5.907   5.997   2.989  0.00  0.00    -0.042 A 
ATOM      5  C5  UNL d   1      -6.000   5.170   4.103  0.00  0.00     0.033 A 
ATOM      6  C6  UNL d   1      -5.416   3.899   4.080  0.00  0.00    -0.057 A 
ENDROOT
BRANCH   1   7
ATOM      7  N   UNL d   1      -4.247   2.117   2.967  0.00  0.00    -0.732 N 
ATOM      8  C   UNL d   1      -2.900   1.817   3.401  0.00  0.00     0.284 C 
ATOM      9  H3  UNL d   1      -4.948   1.458   3.300  0.00  0.00     0.395 HD
ENDBRANCH   1   7
TORSDOF 1
ENDMDL
