MODEL 1
REMARK minimizedAffinity -2.08090115
REMARK minimizedRMSD -1
REMARK  1 active torsions:
REMARK  status: ('A' for Active; 'I' for Inactive)
REMARK    1  A    between atoms: N_2  and  C1_3 
ROOT
ATOM      1  C1  UNL d   1      -3.444   2.684   5.597  0.00  0.00     0.143 A 
ATOM      2  C2  UNL d   1      -3.608   4.068   5.723  0.00  0.00    -0.057 A 
ATOM      3  C3  UNL d   1      -4.871   4.633   5.937  0.00  0.00     0.033 A 
ATOM      4  C4  UNL d   1      -6.000   3.823   6.000  0.00  0.00    -0.042 A 
ATOM      5  C5  UNL d   1      -5.864   2.447   5.852  0.00  0.00     0.033 A 
ATOM      6  C6  UNL d   1      -4.599   1.888   5.645  0.00  0.00    -0.057 A 
ENDROOT
BRANCH   1   7
ATOM      7  N   UNL d   1      -2.228   2.070   5.284  0.00  0.00    -0.732 N 
ATOM      8  C   UNL d   1      -2.187   0.683   4.874  0.00  0.00     0.284 C 
ATOM      9  H3  UNL d   1      -1.611   2.679   4.753  0.00  0.00     0.395 HD
ENDBRANCH   1   7
TORSDOF 1
ENDMDL
