MODEL 1
REMARK minimizedAffinity -3.67553902
REMARK minimizedRMSD -1
REMARK  1 active torsions:
REMARK  status: ('A' for Active; 'I' for Inactive)
REMARK    1  A    between atoms: N_2  and  C1_3 
ROOT
ATOM      1  C1  UNL d   1       0.142   0.523   1.788  0.00  0.00     0.143 A 
ATOM      2  C2  UNL d   1       0.035   0.770   3.161  0.00  0.00    -0.057 A 
ATOM      3  C3  UNL d   1       1.173   0.927   3.962  0.00  0.00     0.033 A 
ATOM      4  C4  UNL d   1       2.443   0.810   3.406  0.00  0.00    -0.042 A 
ATOM      5  C5  UNL d   1       2.574   0.539   2.049  0.00  0.00     0.033 A 
ATOM      6  C6  UNL d   1       1.433   0.390   1.253  0.00  0.00    -0.057 A 
ENDROOT
BRANCH   1   7
ATOM      7  N   UNL d   1      -0.950   0.260   0.958  0.00  0.00    -0.732 N 
ATOM      8  C   UNL d   1      -0.877  -0.776  -0.050  0.00  0.00     0.284 C 
ATOM      9  H3  UNL d   1      -1.835   0.291   1.459  0.00  0.00     0.395 HD
ENDBRANCH   1   7
TORSDOF 1
ENDMDL
