MODEL 1
REMARK minimizedAffinity 0.820849955
REMARK minimizedRMSD -1
REMARK  1 active torsions:
REMARK  status: ('A' for Active; 'I' for Inactive)
REMARK    1  A    between atoms: N_2  and  C1_3 
ROOT
ATOM      1  C1  UNL d   1      -4.423   4.213   4.773  0.00  0.00     0.143 A 
ATOM      2  C2  UNL d   1      -3.055   4.281   4.489  0.00  0.00    -0.057 A 
ATOM      3  C3  UNL d   1      -2.533   3.753   3.302  0.00  0.00     0.033 A 
ATOM      4  C4  UNL d   1      -3.368   3.119   2.389  0.00  0.00    -0.042 A 
ATOM      5  C5  UNL d   1      -4.728   3.017   2.662  0.00  0.00     0.033 A 
ATOM      6  C6  UNL d   1      -5.245   3.553   3.845  0.00  0.00    -0.057 A 
ENDROOT
BRANCH   1   7
ATOM      7  N   UNL d   1      -4.989   4.632   5.980  0.00  0.00    -0.732 N 
ATOM      8  C   UNL d   1      -5.999   5.668   6.000  0.00  0.00     0.284 C 
ATOM      9  H3  UNL d   1      -5.177   3.856   6.611  0.00  0.00     0.395 HD
ENDBRANCH   1   7
TORSDOF 1
ENDMDL
