MODEL 1
REMARK minimizedAffinity 10.7767992
REMARK minimizedRMSD -1
REMARK  1 active torsions:
REMARK  status: ('A' for Active; 'I' for Inactive)
REMARK    1  A    between atoms: N_2  and  C1_3 
ROOT
ATOM      1  C1  UNL d   1      -1.009  -3.101   1.550  0.00  0.00     0.143 A 
ATOM      2  C2  UNL d   1      -0.736  -1.887   2.190  0.00  0.00    -0.057 A 
ATOM      3  C3  UNL d   1      -0.796  -0.672   1.497  0.00  0.00     0.033 A 
ATOM      4  C4  UNL d   1      -1.104  -0.652   0.140  0.00  0.00    -0.042 A 
ATOM      5  C5  UNL d   1      -1.355  -1.849  -0.522  0.00  0.00     0.033 A 
ATOM      6  C6  UNL d   1      -1.299  -3.059   0.177  0.00  0.00    -0.057 A 
ENDROOT
BRANCH   1   7
ATOM      7  N   UNL d   1      -0.870  -4.350   2.160  0.00  0.00    -0.732 N 
ATOM      8  C   UNL d   1      -2.027  -5.058   2.663  0.00  0.00     0.284 C 
ATOM      9  H3  UNL d   1      -0.196  -4.943   1.681  0.00  0.00     0.395 HD
ENDBRANCH   1   7
TORSDOF 1
ENDMDL
