MODEL 1
REMARK minimizedAffinity -1.42177737
REMARK minimizedRMSD -1
REMARK  1 active torsions:
REMARK  status: ('A' for Active; 'I' for Inactive)
REMARK    1  A    between atoms: N_2  and  C1_3 
ROOT
ATOM      1  C1  UNL d   1      -3.601   5.159  -5.243  0.00  0.00     0.143 A 
ATOM      2  C2  UNL d   1      -3.617   5.299  -3.852  0.00  0.00    -0.057 A 
ATOM      3  C3  UNL d   1      -4.775   5.701  -3.175  0.00  0.00     0.033 A 
ATOM      4  C4  UNL d   1      -5.934   6.000  -3.885  0.00  0.00    -0.042 A 
ATOM      5  C5  UNL d   1      -5.934   5.891  -5.271  0.00  0.00     0.033 A 
ATOM      6  C6  UNL d   1      -4.776   5.482  -5.940  0.00  0.00    -0.057 A 
ENDROOT
BRANCH   1   7
ATOM      7  N   UNL d   1      -2.454   4.858  -5.982  0.00  0.00    -0.732 N 
ATOM      8  C   UNL d   1      -1.769   3.596  -5.798  0.00  0.00     0.284 C 
ATOM      9  H3  UNL d   1      -2.529   5.153  -6.953  0.00  0.00     0.395 HD
ENDBRANCH   1   7
TORSDOF 1
ENDMDL
