MODEL 1
REMARK minimizedAffinity 4.62885427
REMARK minimizedRMSD -1
REMARK  1 active torsions:
REMARK  status: ('A' for Active; 'I' for Inactive)
REMARK    1  A    between atoms: N_2  and  C1_3 
ROOT
ATOM      1  C1  UNL d   1      -0.283   1.711  -4.013  0.00  0.00     0.143 A 
ATOM      2  C2  UNL d   1      -1.434   0.916  -3.987  0.00  0.00    -0.057 A 
ATOM      3  C3  UNL d   1      -1.580  -0.121  -3.058  0.00  0.00     0.033 A 
ATOM      4  C4  UNL d   1      -0.561  -0.401  -2.154  0.00  0.00    -0.042 A 
ATOM      5  C5  UNL d   1       0.602   0.360  -2.177  0.00  0.00     0.033 A 
ATOM      6  C6  UNL d   1       0.739   1.399  -3.103  0.00  0.00    -0.057 A 
ENDROOT
BRANCH   1   7
ATOM      7  N   UNL d   1      -0.037   2.693  -4.976  0.00  0.00    -0.732 N 
ATOM      8  C   UNL d   1      -1.020   2.988  -5.996  0.00  0.00     0.284 C 
ATOM      9  H3  UNL d   1       0.416   3.516  -4.584  0.00  0.00     0.395 HD
ENDBRANCH   1   7
TORSDOF 1
ENDMDL
