MODEL 1
REMARK minimizedAffinity 7.27544355
REMARK minimizedRMSD -1
REMARK  1 active torsions:
REMARK  status: ('A' for Active; 'I' for Inactive)
REMARK    1  A    between atoms: N_2  and  C1_3 
ROOT
ATOM      1  C1  UNL d   1       4.921   3.198  -1.082  0.00  0.00     0.143 A 
ATOM      2  C2  UNL d   1       3.762   3.704  -1.680  0.00  0.00    -0.057 A 
ATOM      3  C3  UNL d   1       2.749   4.296  -0.915  0.00  0.00     0.033 A 
ATOM      4  C4  UNL d   1       2.865   4.365   0.469  0.00  0.00    -0.042 A 
ATOM      5  C5  UNL d   1       3.997   3.845   1.087  0.00  0.00     0.033 A 
ATOM      6  C6  UNL d   1       5.008   3.262   0.317  0.00  0.00    -0.057 A 
ENDROOT
BRANCH   1   7
ATOM      7  N   UNL d   1       5.918   2.510  -1.778  0.00  0.00    -0.732 N 
ATOM      8  C   UNL d   1       5.992   1.065  -1.724  0.00  0.00     0.284 C 
ATOM      9  H3  UNL d   1       6.087   2.901  -2.702  0.00  0.00     0.395 HD
ENDBRANCH   1   7
TORSDOF 1
ENDMDL
