MODEL 1
REMARK minimizedAffinity 3.71656156
REMARK minimizedRMSD -1
REMARK  1 active torsions:
REMARK  status: ('A' for Active; 'I' for Inactive)
REMARK    1  A    between atoms: N_2  and  C1_3 
ROOT
ATOM      1  C1  UNL d   1      -2.533  -3.231   4.513  0.00  0.00     0.143 A 
ATOM      2  C2  UNL d   1      -2.007  -2.196   3.733  0.00  0.00    -0.057 A 
ATOM      3  C3  UNL d   1      -1.348  -2.459   2.526  0.00  0.00     0.033 A 
ATOM      4  C4  UNL d   1      -1.176  -3.770   2.092  0.00  0.00    -0.042 A 
ATOM      5  C5  UNL d   1      -1.668  -4.816   2.864  0.00  0.00     0.033 A 
ATOM      6  C6  UNL d   1      -2.332  -4.546   4.065  0.00  0.00    -0.057 A 
ENDROOT
BRANCH   1   7
ATOM      7  N   UNL d   1      -3.112  -3.040   5.770  0.00  0.00    -0.732 N 
ATOM      8  C   UNL d   1      -4.505  -3.360   5.996  0.00  0.00     0.284 C 
ATOM      9  H3  UNL d   1      -2.493  -3.318   6.529  0.00  0.00     0.395 HD
ENDBRANCH   1   7
TORSDOF 1
ENDMDL
