MODEL 1
REMARK minimizedAffinity 3.49159884
REMARK minimizedRMSD -1
REMARK  2 active torsions:
REMARK  status: ('A' for Active; 'I' for Inactive)
REMARK    1  A    between atoms: C1_2  and  C2_3 
REMARK    2  A    between atoms: C2_3  and  C3_4 
ROOT
ATOM      1  C3  UNL d   1       2.743  -1.436  -2.274  0.00  0.00    -0.075 A 
ATOM      2  C4  UNL d   1       1.596  -0.766  -1.823  0.00  0.00     0.002 A 
ATOM      3  C5  UNL d   1       1.690   0.210  -0.830  0.00  0.00     0.002 A 
ATOM      4  C6  UNL d   1       2.927   0.521  -0.270  0.00  0.00    -0.004 A 
ATOM      5  C7  UNL d   1       4.070  -0.149  -0.698  0.00  0.00     0.002 A 
ATOM      6  C8  UNL d   1       3.980  -1.123  -1.694  0.00  0.00     0.002 A 
ENDROOT
BRANCH   1   7
ATOM      7  C2  UNL d   1       2.653  -2.472  -3.368  0.00  0.00     0.056 C 
BRANCH   7   8
ATOM      8  C1  UNL d   1       1.407  -2.341  -4.250  0.00  0.00     0.007 C 
ATOM      9  C   UNL d   1       1.500  -1.201  -5.255  0.00  0.00     0.009 C 
ENDBRANCH   7   8
ENDBRANCH   1   7
TORSDOF 2
ENDMDL
