MODEL 1
REMARK minimizedAffinity -3.93347812
REMARK minimizedRMSD -1
REMARK  2 active torsions:
REMARK  status: ('A' for Active; 'I' for Inactive)
REMARK    1  A    between atoms: C1_2  and  C2_3 
REMARK    2  A    between atoms: C2_3  and  C3_4 
ROOT
ATOM      1  C3  UNL d   1      -0.263   0.475   1.173  0.00  0.00    -0.075 A 
ATOM      2  C4  UNL d   1       0.293  -0.813   1.166  0.00  0.00     0.002 A 
ATOM      3  C5  UNL d   1       0.831  -1.346  -0.005  0.00  0.00     0.002 A 
ATOM      4  C6  UNL d   1       0.812  -0.604  -1.184  0.00  0.00    -0.004 A 
ATOM      5  C7  UNL d   1       0.248   0.670  -1.193  0.00  0.00     0.002 A 
ATOM      6  C8  UNL d   1      -0.288   1.207  -0.021  0.00  0.00     0.002 A 
ENDROOT
BRANCH   1   7
ATOM      7  C2  UNL d   1      -0.820   1.069   2.445  0.00  0.00     0.056 C 
BRANCH   7   8
ATOM      8  C1  UNL d   1      -2.283   0.701   2.716  0.00  0.00     0.007 C 
ATOM      9  C   UNL d   1      -2.566   0.409   4.184  0.00  0.00     0.009 C 
ENDBRANCH   7   8
ENDBRANCH   1   7
TORSDOF 2
ENDMDL
