MODEL 1
REMARK minimizedAffinity 5.75397491
REMARK minimizedRMSD -1
REMARK  2 active torsions:
REMARK  status: ('A' for Active; 'I' for Inactive)
REMARK    1  A    between atoms: C1_2  and  C2_3 
REMARK    2  A    between atoms: C2_3  and  C3_4 
ROOT
ATOM      1  C3  UNL d   1       2.042   0.379  -1.919  0.00  0.00    -0.075 A 
ATOM      2  C4  UNL d   1       1.075   1.163  -1.272  0.00  0.00     0.002 A 
ATOM      3  C5  UNL d   1       0.807   2.461  -1.710  0.00  0.00     0.002 A 
ATOM      4  C6  UNL d   1       1.507   2.993  -2.790  0.00  0.00    -0.004 A 
ATOM      5  C7  UNL d   1       2.481   2.229  -3.430  0.00  0.00     0.002 A 
ATOM      6  C8  UNL d   1       2.748   0.929  -2.996  0.00  0.00     0.002 A 
ENDROOT
BRANCH   1   7
ATOM      7  C2  UNL d   1       2.316  -1.036  -1.468  0.00  0.00     0.056 C 
BRANCH   7   8
ATOM      8  C1  UNL d   1       3.098  -1.132  -0.154  0.00  0.00     0.007 C 
ATOM      9  C   UNL d   1       4.126  -0.021   0.015  0.00  0.00     0.009 C 
ENDBRANCH   7   8
ENDBRANCH   1   7
TORSDOF 2
ENDMDL
