MODEL 1
REMARK minimizedAffinity -1.63979602
REMARK minimizedRMSD -1
REMARK  2 active torsions:
REMARK  status: ('A' for Active; 'I' for Inactive)
REMARK    1  A    between atoms: C1_2  and  C2_3 
REMARK    2  A    between atoms: C2_3  and  C3_4 
ROOT
ATOM      1  C3  UNL d   1       0.202  -1.410  -1.276  0.00  0.00    -0.075 A 
ATOM      2  C4  UNL d   1       0.044  -0.031  -1.477  0.00  0.00     0.002 A 
ATOM      3  C5  UNL d   1       1.151   0.818  -1.461  0.00  0.00     0.002 A 
ATOM      4  C6  UNL d   1       2.425   0.302  -1.235  0.00  0.00    -0.004 A 
ATOM      5  C7  UNL d   1       2.591  -1.064  -1.017  0.00  0.00     0.002 A 
ATOM      6  C8  UNL d   1       1.486  -1.916  -1.037  0.00  0.00     0.002 A 
ENDROOT
BRANCH   1   7
ATOM      7  C2  UNL d   1      -0.989  -2.338  -1.321  0.00  0.00     0.056 C 
BRANCH   7   8
ATOM      8  C1  UNL d   1      -2.333  -1.641  -1.089  0.00  0.00     0.007 C 
ATOM      9  C   UNL d   1      -3.530  -2.500  -1.474  0.00  0.00     0.009 C 
ENDBRANCH   7   8
ENDBRANCH   1   7
TORSDOF 2
ENDMDL
