MODEL 1
REMARK minimizedAffinity 4.82633734
REMARK minimizedRMSD -1
REMARK  2 active torsions:
REMARK  status: ('A' for Active; 'I' for Inactive)
REMARK    1  A    between atoms: C1_2  and  C2_3 
REMARK    2  A    between atoms: C2_3  and  C3_4 
ROOT
ATOM      1  C3  UNL d   1       1.405   1.613  -0.333  0.00  0.00    -0.075 A 
ATOM      2  C4  UNL d   1       0.215   1.112  -0.879  0.00  0.00     0.002 A 
ATOM      3  C5  UNL d   1      -0.917   0.949  -0.081  0.00  0.00     0.002 A 
ATOM      4  C6  UNL d   1      -0.872   1.274   1.273  0.00  0.00    -0.004 A 
ATOM      5  C7  UNL d   1       0.310   1.758   1.830  0.00  0.00     0.002 A 
ATOM      6  C8  UNL d   1       1.444   1.926   1.033  0.00  0.00     0.002 A 
ENDROOT
BRANCH   1   7
ATOM      7  C2  UNL d   1       2.626   1.820  -1.198  0.00  0.00     0.056 C 
BRANCH   7   8
ATOM      8  C1  UNL d   1       2.731   0.842  -2.372  0.00  0.00     0.007 C 
ATOM      9  C   UNL d   1       2.240   1.429  -3.689  0.00  0.00     0.009 C 
ENDBRANCH   7   8
ENDBRANCH   1   7
TORSDOF 2
ENDMDL
