MODEL 1
REMARK minimizedAffinity 4.20965099
REMARK minimizedRMSD -1
REMARK  2 active torsions:
REMARK  status: ('A' for Active; 'I' for Inactive)
REMARK    1  A    between atoms: C1_2  and  C2_3 
REMARK    2  A    between atoms: C2_3  and  C3_4 
ROOT
ATOM      1  C3  UNL d   1       0.619   1.728  -1.791  0.00  0.00    -0.075 A 
ATOM      2  C4  UNL d   1       1.216   2.506  -2.793  0.00  0.00     0.002 A 
ATOM      3  C5  UNL d   1       2.407   2.096  -3.393  0.00  0.00     0.002 A 
ATOM      4  C6  UNL d   1       3.020   0.910  -2.992  0.00  0.00    -0.004 A 
ATOM      5  C7  UNL d   1       2.444   0.138  -1.986  0.00  0.00     0.002 A 
ATOM      6  C8  UNL d   1       1.250   0.544  -1.387  0.00  0.00     0.002 A 
ENDROOT
BRANCH   1   7
ATOM      7  C2  UNL d   1      -0.685   2.152  -1.158  0.00  0.00     0.056 C 
BRANCH   7   8
ATOM      8  C1  UNL d   1      -1.107   1.292   0.038  0.00  0.00     0.007 C 
ATOM      9  C   UNL d   1      -1.122   2.059   1.353  0.00  0.00     0.009 C 
ENDBRANCH   7   8
ENDBRANCH   1   7
TORSDOF 2
ENDMDL
