MODEL 1
REMARK minimizedAffinity 1.96004629
REMARK minimizedRMSD -1
REMARK  2 active torsions:
REMARK  status: ('A' for Active; 'I' for Inactive)
REMARK    1  A    between atoms: C1_2  and  C2_3 
REMARK    2  A    between atoms: C2_3  and  C3_4 
ROOT
ATOM      1  C3  UNL d   1       0.810   1.243  -0.700  0.00  0.00    -0.075 A 
ATOM      2  C4  UNL d   1       1.732   0.187  -0.721  0.00  0.00     0.002 A 
ATOM      3  C5  UNL d   1       2.631   0.053  -1.779  0.00  0.00     0.002 A 
ATOM      4  C6  UNL d   1       2.613   0.965  -2.832  0.00  0.00    -0.004 A 
ATOM      5  C7  UNL d   1       1.689   2.008  -2.830  0.00  0.00     0.002 A 
ATOM      6  C8  UNL d   1       0.792   2.147  -1.770  0.00  0.00     0.002 A 
ENDROOT
BRANCH   1   7
ATOM      7  C2  UNL d   1      -0.146   1.410   0.457  0.00  0.00     0.056 C 
BRANCH   7   8
ATOM      8  C1  UNL d   1      -1.486   0.690   0.269  0.00  0.00     0.007 C 
ATOM      9  C   UNL d   1      -1.340  -0.703  -0.328  0.00  0.00     0.009 C 
ENDBRANCH   7   8
ENDBRANCH   1   7
TORSDOF 2
ENDMDL
