MODEL 1
REMARK minimizedAffinity 3.48218298
REMARK minimizedRMSD -1
REMARK  2 active torsions:
REMARK  status: ('A' for Active; 'I' for Inactive)
REMARK    1  A    between atoms: C1_2  and  C2_3 
REMARK    2  A    between atoms: C2_3  and  C3_4 
ROOT
ATOM      1  C3  UNL d   1       0.365  -1.893  -1.033  0.00  0.00    -0.075 A 
ATOM      2  C4  UNL d   1      -0.431  -3.047  -1.082  0.00  0.00     0.002 A 
ATOM      3  C5  UNL d   1      -1.812  -2.962  -0.907  0.00  0.00     0.002 A 
ATOM      4  C6  UNL d   1      -2.413  -1.727  -0.671  0.00  0.00    -0.004 A 
ATOM      5  C7  UNL d   1      -1.630  -0.577  -0.604  0.00  0.00     0.002 A 
ATOM      6  C8  UNL d   1      -0.248  -0.658  -0.783  0.00  0.00     0.002 A 
ENDROOT
BRANCH   1   7
ATOM      7  C2  UNL d   1       1.857  -1.975  -1.251  0.00  0.00     0.056 C 
BRANCH   7   8
ATOM      8  C1  UNL d   1       2.610  -0.686  -0.904  0.00  0.00     0.007 C 
ATOM      9  C   UNL d   1       2.484   0.390  -1.974  0.00  0.00     0.009 C 
ENDBRANCH   7   8
ENDBRANCH   1   7
TORSDOF 2
ENDMDL
