MODEL 1
REMARK minimizedAffinity 8.72032166
REMARK minimizedRMSD -1
REMARK  2 active torsions:
REMARK  status: ('A' for Active; 'I' for Inactive)
REMARK    1  A    between atoms: C1_2  and  C2_3 
REMARK    2  A    between atoms: C2_3  and  C3_4 
ROOT
ATOM      1  C3  UNL d   1      -0.986   0.514  -0.181  0.00  0.00    -0.075 A 
ATOM      2  C4  UNL d   1       0.054   0.394  -1.115  0.00  0.00     0.002 A 
ATOM      3  C5  UNL d   1       1.265   1.058  -0.915  0.00  0.00     0.002 A 
ATOM      4  C6  UNL d   1       1.448   1.857   0.211  0.00  0.00    -0.004 A 
ATOM      5  C7  UNL d   1       0.416   1.997   1.136  0.00  0.00     0.002 A 
ATOM      6  C8  UNL d   1      -0.795   1.330   0.942  0.00  0.00     0.002 A 
ENDROOT
BRANCH   1   7
ATOM      7  C2  UNL d   1      -2.287  -0.226  -0.376  0.00  0.00     0.056 C 
BRANCH   7   8
ATOM      8  C1  UNL d   1      -2.117  -1.714  -0.696  0.00  0.00     0.007 C 
ATOM      9  C   UNL d   1      -3.338  -2.327  -1.370  0.00  0.00     0.009 C 
ENDBRANCH   7   8
ENDBRANCH   1   7
TORSDOF 2
ENDMDL
