MODEL 1
REMARK minimizedAffinity -4.29436684
REMARK minimizedRMSD -1
REMARK  2 active torsions:
REMARK  status: ('A' for Active; 'I' for Inactive)
REMARK    1  A    between atoms: C1_2  and  C2_3 
REMARK    2  A    between atoms: C2_3  and  C3_4 
ROOT
ATOM      1  C3  UNL d   1      -0.168   0.039  -0.041  0.00  0.00    -0.075 A 
ATOM      2  C4  UNL d   1       0.862   0.963   0.186  0.00  0.00     0.002 A 
ATOM      3  C5  UNL d   1       2.169   0.679  -0.210  0.00  0.00     0.002 A 
ATOM      4  C6  UNL d   1       2.464  -0.534  -0.828  0.00  0.00    -0.004 A 
ATOM      5  C7  UNL d   1       1.452  -1.466  -1.045  0.00  0.00     0.002 A 
ATOM      6  C8  UNL d   1       0.142  -1.182  -0.653  0.00  0.00     0.002 A 
ENDROOT
BRANCH   1   7
ATOM      7  C2  UNL d   1      -1.590   0.354   0.359  0.00  0.00     0.056 C 
BRANCH   7   8
ATOM      8  C1  UNL d   1      -1.707   1.257   1.590  0.00  0.00     0.007 C 
ATOM      9  C   UNL d   1      -2.526   0.638   2.714  0.00  0.00     0.009 C 
ENDBRANCH   7   8
ENDBRANCH   1   7
TORSDOF 2
ENDMDL
