MODEL 1
REMARK minimizedAffinity 3.43688083
REMARK minimizedRMSD -1
REMARK  2 active torsions:
REMARK  status: ('A' for Active; 'I' for Inactive)
REMARK    1  A    between atoms: C1_2  and  C2_3 
REMARK    2  A    between atoms: C2_3  and  C3_4 
ROOT
ATOM      1  C3  UNL d   1       2.227   0.475  -2.351  0.00  0.00    -0.075 A 
ATOM      2  C4  UNL d   1       0.987   0.524  -1.697  0.00  0.00     0.002 A 
ATOM      3  C5  UNL d   1       0.607  -0.493  -0.821  0.00  0.00     0.002 A 
ATOM      4  C6  UNL d   1       1.456  -1.574  -0.595  0.00  0.00    -0.004 A 
ATOM      5  C7  UNL d   1       2.683  -1.641  -1.251  0.00  0.00     0.002 A 
ATOM      6  C8  UNL d   1       3.067  -0.623  -2.125  0.00  0.00     0.002 A 
ENDROOT
BRANCH   1   7
ATOM      7  C2  UNL d   1       2.656   1.588  -3.277  0.00  0.00     0.056 C 
BRANCH   7   8
ATOM      8  C1  UNL d   1       1.578   2.015  -4.280  0.00  0.00     0.007 C 
ATOM      9  C   UNL d   1       1.485   1.093  -5.489  0.00  0.00     0.009 C 
ENDBRANCH   7   8
ENDBRANCH   1   7
TORSDOF 2
ENDMDL
