MODEL 1
REMARK minimizedAffinity 3.46099091
REMARK minimizedRMSD -1
REMARK  0 active torsions:
REMARK  status: ('A' for Active; 'I' for Inactive)
ROOT
ATOM      1  C   UNL d   1      -3.084  -0.902  -0.507  0.00  0.00     0.124 A 
ATOM      2  C1  UNL d   1      -1.849  -1.503  -0.708  0.00  0.00     0.062 A 
ATOM      3  C2  UNL d   1      -0.816  -1.303   0.204  0.00  0.00     0.162 A 
ATOM      4  C3  UNL d   1      -1.014  -0.498   1.326  0.00  0.00    -0.034 A 
ATOM      5  C4  UNL d   1      -2.258   0.104   1.521  0.00  0.00     0.162 A 
ATOM      6  C5  UNL d   1      -3.287  -0.099   0.607  0.00  0.00     0.062 A 
ATOM      7  F   UNL d   1      -4.479   0.483   0.803  0.00  0.00    -0.097 F 
ATOM      8  F1  UNL d   1      -2.482   0.884   2.589  0.00  0.00    -0.096 F 
ATOM      9  I   UNL d   1       0.528  -0.197   2.691  0.00  0.00    -0.060 I 
ATOM     10  F2  UNL d   1       0.366  -1.897  -0.016  0.00  0.00    -0.096 F 
ATOM     11  F3  UNL d   1      -1.650  -2.278  -1.783  0.00  0.00    -0.097 F 
ATOM     12  F4  UNL d   1      -4.075  -1.095  -1.386  0.00  0.00    -0.092 F 
ENDROOT
TORSDOF 0
ENDMDL
