MODEL 1
REMARK minimizedAffinity 14.9301138
REMARK minimizedRMSD -1
REMARK  0 active torsions:
REMARK  status: ('A' for Active; 'I' for Inactive)
ROOT
ATOM      1  C   UNL d   1       0.747  -1.481   2.427  0.00  0.00     0.124 A 
ATOM      2  C1  UNL d   1       0.534  -1.913   3.729  0.00  0.00     0.062 A 
ATOM      3  C2  UNL d   1       1.388  -1.505   4.750  0.00  0.00     0.162 A 
ATOM      4  C3  UNL d   1       2.462  -0.659   4.474  0.00  0.00    -0.034 A 
ATOM      5  C4  UNL d   1       2.670  -0.230   3.162  0.00  0.00     0.162 A 
ATOM      6  C5  UNL d   1       1.814  -0.640   2.145  0.00  0.00     0.062 A 
ATOM      7  F   UNL d   1       2.021  -0.222   0.888  0.00  0.00    -0.097 F 
ATOM      8  F1  UNL d   1       3.693   0.584   2.861  0.00  0.00    -0.096 F 
ATOM      9  I   UNL d   1       3.741  -0.047   5.997  0.00  0.00    -0.060 I 
ATOM     10  F2  UNL d   1       1.159  -1.938   5.999  0.00  0.00    -0.096 F 
ATOM     11  F3  UNL d   1      -0.496  -2.726   4.005  0.00  0.00    -0.097 F 
ATOM     12  F4  UNL d   1      -0.076  -1.876   1.447  0.00  0.00    -0.092 F 
ENDROOT
TORSDOF 0
ENDMDL
