MODEL 1
REMARK minimizedAffinity 15.4463081
REMARK minimizedRMSD -1
REMARK  0 active torsions:
REMARK  status: ('A' for Active; 'I' for Inactive)
ROOT
ATOM      1  C   UNL d   1       2.870  -1.522  -2.573  0.00  0.00     0.124 A 
ATOM      2  C1  UNL d   1       1.699  -1.876  -1.918  0.00  0.00     0.062 A 
ATOM      3  C2  UNL d   1       0.474  -1.781  -2.572  0.00  0.00     0.162 A 
ATOM      4  C3  UNL d   1       0.414  -1.331  -3.891  0.00  0.00    -0.034 A 
ATOM      5  C4  UNL d   1       1.596  -0.976  -4.544  0.00  0.00     0.162 A 
ATOM      6  C5  UNL d   1       2.818  -1.072  -3.885  0.00  0.00     0.062 A 
ATOM      7  F   UNL d   1       3.948  -0.730  -4.520  0.00  0.00    -0.097 F 
ATOM      8  F1  UNL d   1       1.575  -0.539  -5.812  0.00  0.00    -0.096 F 
ATOM      9  I   UNL d   1      -1.415  -1.188  -4.874  0.00  0.00    -0.060 I 
ATOM     10  F2  UNL d   1      -0.642  -2.130  -1.915  0.00  0.00    -0.096 F 
ATOM     11  F3  UNL d   1       1.747  -2.309  -0.650  0.00  0.00    -0.097 F 
ATOM     12  F4  UNL d   1       4.047  -1.613  -1.940  0.00  0.00    -0.092 F 
ENDROOT
TORSDOF 0
ENDMDL
