MODEL 1
REMARK minimizedAffinity 12.5746613
REMARK minimizedRMSD -1
REMARK  0 active torsions:
REMARK  status: ('A' for Active; 'I' for Inactive)
ROOT
ATOM      1  C   UNL d   1      -1.909  -0.613   1.873  0.00  0.00     0.124 A 
ATOM      2  C1  UNL d   1      -0.759   0.150   1.720  0.00  0.00     0.062 A 
ATOM      3  C2  UNL d   1       0.442  -0.276   2.279  0.00  0.00     0.162 A 
ATOM      4  C3  UNL d   1       0.501  -1.471   2.995  0.00  0.00    -0.034 A 
ATOM      5  C4  UNL d   1      -0.659  -2.233   3.145  0.00  0.00     0.162 A 
ATOM      6  C5  UNL d   1      -1.858  -1.803   2.585  0.00  0.00     0.062 A 
ATOM      7  F   UNL d   1      -2.967  -2.542   2.733  0.00  0.00    -0.097 F 
ATOM      8  F1  UNL d   1      -0.638  -3.388   3.827  0.00  0.00    -0.096 F 
ATOM      9  I   UNL d   1       2.297  -2.111   3.832  0.00  0.00    -0.060 I 
ATOM     10  F2  UNL d   1       1.537   0.481   2.116  0.00  0.00    -0.096 F 
ATOM     11  F3  UNL d   1      -0.806   1.300   1.034  0.00  0.00    -0.097 F 
ATOM     12  F4  UNL d   1      -3.064  -0.201   1.335  0.00  0.00    -0.092 F 
ENDROOT
TORSDOF 0
ENDMDL
