MODEL 1
REMARK minimizedAffinity 19.5158596
REMARK minimizedRMSD -1
REMARK  0 active torsions:
REMARK  status: ('A' for Active; 'I' for Inactive)
ROOT
ATOM      1  C   UNL d   1      -0.762  -1.512  -4.182  0.00  0.00     0.124 A 
ATOM      2  C1  UNL d   1       0.064  -2.136  -3.258  0.00  0.00     0.062 A 
ATOM      3  C2  UNL d   1       1.431  -1.875  -3.251  0.00  0.00     0.162 A 
ATOM      4  C3  UNL d   1       1.982  -0.984  -4.172  0.00  0.00    -0.034 A 
ATOM      5  C4  UNL d   1       1.145  -0.361  -5.100  0.00  0.00     0.162 A 
ATOM      6  C5  UNL d   1      -0.221  -0.625  -5.102  0.00  0.00     0.062 A 
ATOM      7  F   UNL d   1      -1.017  -0.022  -5.997  0.00  0.00    -0.097 F 
ATOM      8  F1  UNL d   1       1.641   0.501  -6.000  0.00  0.00    -0.096 F 
ATOM      9  I   UNL d   1       4.025  -0.590  -4.166  0.00  0.00    -0.060 I 
ATOM     10  F2  UNL d   1       2.205  -2.492  -2.346  0.00  0.00    -0.096 F 
ATOM     11  F3  UNL d   1      -0.456  -2.994  -2.368  0.00  0.00    -0.097 F 
ATOM     12  F4  UNL d   1      -2.076  -1.767  -4.187  0.00  0.00    -0.092 F 
ENDROOT
TORSDOF 0
ENDMDL
