MODEL 1
REMARK minimizedAffinity 2.69947791
REMARK minimizedRMSD -1
REMARK  0 active torsions:
REMARK  status: ('A' for Active; 'I' for Inactive)
ROOT
ATOM      1  C   UNL d   1      -2.879  -0.081   1.667  0.00  0.00     0.124 A 
ATOM      2  C1  UNL d   1      -1.537  -0.308   1.936  0.00  0.00     0.062 A 
ATOM      3  C2  UNL d   1      -0.722  -0.905   0.979  0.00  0.00     0.162 A 
ATOM      4  C3  UNL d   1      -1.248  -1.280  -0.258  0.00  0.00    -0.034 A 
ATOM      5  C4  UNL d   1      -2.600  -1.049  -0.521  0.00  0.00     0.162 A 
ATOM      6  C5  UNL d   1      -3.409  -0.451   0.440  0.00  0.00     0.062 A 
ATOM      7  F   UNL d   1      -4.706  -0.233   0.178  0.00  0.00    -0.097 F 
ATOM      8  F1  UNL d   1      -3.138  -1.397  -1.699  0.00  0.00    -0.096 F 
ATOM      9  I   UNL d   1      -0.034  -2.174  -1.692  0.00  0.00    -0.060 I 
ATOM     10  F2  UNL d   1       0.571  -1.113   1.266  0.00  0.00    -0.096 F 
ATOM     11  F3  UNL d   1      -1.022   0.049   3.122  0.00  0.00    -0.097 F 
ATOM     12  F4  UNL d   1      -3.661   0.494   2.591  0.00  0.00    -0.092 F 
ENDROOT
TORSDOF 0
ENDMDL
