MODEL 1
REMARK minimizedAffinity -1.380193
REMARK minimizedRMSD -1
REMARK  0 active torsions:
REMARK  status: ('A' for Active; 'I' for Inactive)
ROOT
ATOM      1  C   UNL d   1      -3.389  -0.400   1.999  0.00  0.00     0.124 A 
ATOM      2  C1  UNL d   1      -2.061  -0.666   2.304  0.00  0.00     0.062 A 
ATOM      3  C2  UNL d   1      -1.134  -0.860   1.284  0.00  0.00     0.162 A 
ATOM      4  C3  UNL d   1      -1.531  -0.788  -0.051  0.00  0.00    -0.034 A 
ATOM      5  C4  UNL d   1      -2.868  -0.521  -0.350  0.00  0.00     0.162 A 
ATOM      6  C5  UNL d   1      -3.791  -0.328   0.673  0.00  0.00     0.062 A 
ATOM      7  F   UNL d   1      -5.073  -0.071   0.376  0.00  0.00    -0.097 F 
ATOM      8  F1  UNL d   1      -3.284  -0.444  -1.623  0.00  0.00    -0.096 F 
ATOM      9  I   UNL d   1      -0.147  -1.077  -1.579  0.00  0.00    -0.060 I 
ATOM     10  F2  UNL d   1       0.142  -1.116   1.608  0.00  0.00    -0.096 F 
ATOM     11  F3  UNL d   1      -1.670  -0.738   3.584  0.00  0.00    -0.097 F 
ATOM     12  F4  UNL d   1      -4.279  -0.215   2.982  0.00  0.00    -0.092 F 
ENDROOT
TORSDOF 0
ENDMDL
