MODEL 1
REMARK minimizedAffinity 6.01270199
REMARK minimizedRMSD -1
REMARK  0 active torsions:
REMARK  status: ('A' for Active; 'I' for Inactive)
ROOT
ATOM      1  C1  DEN d   1      -0.024  -1.994   2.821  0.00  0.00     0.130 A 
ATOM      2  C2  DEN d   1       0.621  -0.780   2.328  0.00  0.00    -0.031 A 
ATOM      3  C3  DEN d   1       2.061  -0.867   2.646  0.00  0.00     0.027 A 
ATOM      4  C4  DEN d   1       3.348  -2.754   3.843  0.00  0.00     0.027 A 
ATOM      5  C5  DEN d   1       3.227  -3.982   4.455  0.00  0.00    -0.003 A 
ATOM      6  C6  DEN d   1       2.019  -4.613   4.595  0.00  0.00     0.001 A 
ATOM      7  C7  DEN d   1       0.889  -4.038   4.076  0.00  0.00     0.017 A 
ATOM      8  C8  DEN d   1       1.002  -2.797   3.463  0.00  0.00    -0.094 A 
ATOM      9  C9  DEN d   1       2.234  -2.181   3.321  0.00  0.00    -0.072 A 
ENDROOT
TORSDOF 0
ENDMDL
