MODEL 1
REMARK minimizedAffinity 0.776552379
REMARK minimizedRMSD -1
REMARK  0 active torsions:
REMARK  status: ('A' for Active; 'I' for Inactive)
ROOT
ATOM      1  C1  DEN d   1       2.375  -1.935   4.795  0.00  0.00     0.130 A 
ATOM      2  C2  DEN d   1       1.573  -3.091   5.186  0.00  0.00    -0.031 A 
ATOM      3  C3  DEN d   1       0.507  -3.269   4.180  0.00  0.00     0.027 A 
ATOM      4  C4  DEN d   1       0.025  -1.876   2.064  0.00  0.00     0.027 A 
ATOM      5  C5  DEN d   1       0.427  -0.788   1.320  0.00  0.00    -0.003 A 
ATOM      6  C6  DEN d   1       1.477   0.007   1.697  0.00  0.00     0.001 A 
ATOM      7  C7  DEN d   1       2.189  -0.301   2.826  0.00  0.00     0.017 A 
ATOM      8  C8  DEN d   1       1.785  -1.391   3.585  0.00  0.00    -0.094 A 
ATOM      9  C9  DEN d   1       0.729  -2.190   3.180  0.00  0.00    -0.072 A 
ENDROOT
TORSDOF 0
ENDMDL
