MODEL 1
REMARK minimizedAffinity 6.96429396
REMARK minimizedRMSD -1
REMARK  0 active torsions:
REMARK  status: ('A' for Active; 'I' for Inactive)
ROOT
ATOM      1  C1  DEN d   1       1.007  -0.791   0.147  0.00  0.00     0.130 A 
ATOM      2  C2  DEN d   1       0.472  -2.054  -0.353  0.00  0.00    -0.031 A 
ATOM      3  C3  DEN d   1       0.437  -3.011   0.772  0.00  0.00     0.027 A 
ATOM      4  C4  DEN d   1       1.151  -2.660   3.225  0.00  0.00     0.027 A 
ATOM      5  C5  DEN d   1       1.679  -1.757   4.122  0.00  0.00    -0.003 A 
ATOM      6  C6  DEN d   1       2.048  -0.491   3.752  0.00  0.00     0.001 A 
ATOM      7  C7  DEN d   1       1.852  -0.077   2.461  0.00  0.00     0.017 A 
ATOM      8  C8  DEN d   1       1.328  -0.983   1.549  0.00  0.00    -0.094 A 
ATOM      9  C9  DEN d   1       0.950  -2.255   1.945  0.00  0.00    -0.072 A 
ENDROOT
TORSDOF 0
ENDMDL
