MODEL 1
REMARK minimizedAffinity 4.76709509
REMARK minimizedRMSD -1
REMARK  0 active torsions:
REMARK  status: ('A' for Active; 'I' for Inactive)
ROOT
ATOM      1  C1  DEN d   1      -5.498   1.755  -2.161  0.00  0.00     0.130 A 
ATOM      2  C2  DEN d   1      -4.395   2.311  -2.941  0.00  0.00    -0.031 A 
ATOM      3  C3  DEN d   1      -3.385   2.830  -1.997  0.00  0.00     0.027 A 
ATOM      4  C4  DEN d   1      -3.419   2.823   0.582  0.00  0.00     0.027 A 
ATOM      5  C5  DEN d   1      -4.152   2.470   1.694  0.00  0.00    -0.003 A 
ATOM      6  C6  DEN d   1      -5.389   1.889   1.600  0.00  0.00     0.001 A 
ATOM      7  C7  DEN d   1      -5.912   1.603   0.366  0.00  0.00     0.017 A 
ATOM      8  C8  DEN d   1      -5.183   1.963  -0.759  0.00  0.00    -0.094 A 
ATOM      9  C9  DEN d   1      -3.928   2.538  -0.643  0.00  0.00    -0.072 A 
ENDROOT
TORSDOF 0
ENDMDL
