MODEL 1
REMARK minimizedAffinity 3.18135881
REMARK minimizedRMSD -1
REMARK  0 active torsions:
REMARK  status: ('A' for Active; 'I' for Inactive)
ROOT
ATOM      1  C1  DEN d   1      -3.629   2.512   1.983  0.00  0.00     0.130 A 
ATOM      2  C2  DEN d   1      -3.063   3.712   1.374  0.00  0.00    -0.031 A 
ATOM      3  C3  DEN d   1      -3.601   3.827   0.004  0.00  0.00     0.027 A 
ATOM      4  C4  DEN d   1      -5.253   2.274  -1.226  0.00  0.00     0.027 A 
ATOM      5  C5  DEN d   1      -6.000   1.121  -1.121  0.00  0.00    -0.003 A 
ATOM      6  C6  DEN d   1      -5.983   0.340   0.004  0.00  0.00     0.001 A 
ATOM      7  C7  DEN d   1      -5.238   0.725   1.087  0.00  0.00     0.017 A 
ATOM      8  C8  DEN d   1      -4.476   1.882   0.986  0.00  0.00    -0.094 A 
ATOM      9  C9  DEN d   1      -4.517   2.665  -0.155  0.00  0.00    -0.072 A 
ENDROOT
TORSDOF 0
ENDMDL
