MODEL 1
REMARK minimizedAffinity 3.7058723
REMARK minimizedRMSD -1
REMARK  0 active torsions:
REMARK  status: ('A' for Active; 'I' for Inactive)
ROOT
ATOM      1  C1  DEN d   1      -6.000   3.193  -2.130  0.00  0.00     0.130 A 
ATOM      2  C2  DEN d   1      -5.999   1.897  -2.804  0.00  0.00    -0.031 A 
ATOM      3  C3  DEN d   1      -5.749   0.855  -1.789  0.00  0.00     0.027 A 
ATOM      4  C4  DEN d   1      -5.371   1.118   0.749  0.00  0.00     0.027 A 
ATOM      5  C5  DEN d   1      -5.271   2.026   1.780  0.00  0.00    -0.003 A 
ATOM      6  C6  DEN d   1      -5.372   3.376   1.577  0.00  0.00     0.001 A 
ATOM      7  C7  DEN d   1      -5.625   3.857   0.320  0.00  0.00     0.017 A 
ATOM      8  C8  DEN d   1      -5.720   2.949  -0.727  0.00  0.00    -0.094 A 
ATOM      9  C9  DEN d   1      -5.626   1.586  -0.499  0.00  0.00    -0.072 A 
ENDROOT
TORSDOF 0
ENDMDL
