MODEL 1
REMARK minimizedAffinity 2.3541553
REMARK minimizedRMSD -1
REMARK  0 active torsions:
REMARK  status: ('A' for Active; 'I' for Inactive)
ROOT
ATOM      1  C1  DEN d   1      -4.522   4.216   1.992  0.00  0.00     0.130 A 
ATOM      2  C2  DEN d   1      -3.095   4.047   2.251  0.00  0.00    -0.031 A 
ATOM      3  C3  DEN d   1      -2.493   3.387   1.075  0.00  0.00     0.027 A 
ATOM      4  C4  DEN d   1      -3.625   2.620  -1.112  0.00  0.00     0.027 A 
ATOM      5  C5  DEN d   1      -4.823   2.539  -1.787  0.00  0.00    -0.003 A 
ATOM      6  C6  DEN d   1      -6.000   2.978  -1.242  0.00  0.00     0.001 A 
ATOM      7  C7  DEN d   1      -5.998   3.558  -0.001  0.00  0.00     0.017 A 
ATOM      8  C8  DEN d   1      -4.796   3.636   0.690  0.00  0.00    -0.094 A 
ATOM      9  C9  DEN d   1      -3.614   3.198   0.116  0.00  0.00    -0.072 A 
ENDROOT
TORSDOF 0
ENDMDL
