MODEL 1
REMARK minimizedAffinity 21.5134258
REMARK minimizedRMSD -1
REMARK  2 active torsions:
REMARK  status: ('A' for Active; 'I' for Inactive)
REMARK    1  A    between atoms: C2'_3  and  C1'_4 
REMARK    2  A    between atoms: C1'_4  and  C1_5 
ROOT
ATOM      1  C1  I4B d   1       2.756   3.866  -4.110  0.00  0.00    -0.075 A 
ATOM      2  C2  I4B d   1       1.775   3.869  -5.071  0.00  0.00     0.003 A 
ATOM      3  C3  I4B d   1       1.687   4.938  -5.996  0.00  0.00     0.002 A 
ATOM      4  C4  I4B d   1       2.563   5.999  -5.894  0.00  0.00    -0.004 A 
ATOM      5  C5  I4B d   1       3.571   5.983  -4.934  0.00  0.00     0.002 A 
ATOM      6  C6  I4B d   1       3.676   4.904  -4.044  0.00  0.00     0.003 A 
ENDROOT
BRANCH   1   7
ATOM      7  C1' I4B d   1       2.799   2.738  -3.129  0.00  0.00     0.060 C 
BRANCH   7   8
ATOM      8  C2' I4B d   1       4.207   2.178  -3.122  0.00  0.00    -0.013 C 
ATOM      9  C4' I4B d   1       4.521   1.509  -1.810  0.00  0.00     0.013 C 
ATOM     10  C3' I4B d   1       4.327   1.215  -4.265  0.00  0.00     0.013 C 
ENDBRANCH   7   8
ENDBRANCH   1   7
TORSDOF 2
ENDMDL
