MODEL 1
REMARK minimizedAffinity 6.98590517
REMARK minimizedRMSD -1
REMARK  2 active torsions:
REMARK  status: ('A' for Active; 'I' for Inactive)
REMARK    1  A    between atoms: C2'_3  and  C1'_4 
REMARK    2  A    between atoms: C1'_4  and  C1_5 
ROOT
ATOM      1  C1  I4B d   1       2.199  -0.512   2.787  0.00  0.00    -0.075 A 
ATOM      2  C2  I4B d   1       1.271  -0.952   3.697  0.00  0.00     0.003 A 
ATOM      3  C3  I4B d   1       0.042  -0.266   3.849  0.00  0.00     0.002 A 
ATOM      4  C4  I4B d   1      -0.195   0.877   3.113  0.00  0.00    -0.004 A 
ATOM      5  C5  I4B d   1       0.738   1.308   2.174  0.00  0.00     0.002 A 
ATOM      6  C6  I4B d   1       1.937   0.603   2.001  0.00  0.00     0.003 A 
ENDROOT
BRANCH   1   7
ATOM      7  C1' I4B d   1       3.501  -1.240   2.675  0.00  0.00     0.060 C 
BRANCH   7   8
ATOM      8  C2' I4B d   1       4.148  -0.843   1.364  0.00  0.00    -0.013 C 
ATOM      9  C4' I4B d   1       5.597  -1.252   1.325  0.00  0.00     0.013 C 
ATOM     10  C3' I4B d   1       3.373  -1.485   0.252  0.00  0.00     0.013 C 
ENDBRANCH   7   8
ENDBRANCH   1   7
TORSDOF 2
ENDMDL
