MODEL 1
REMARK minimizedAffinity 16.0920849
REMARK minimizedRMSD -1
REMARK  2 active torsions:
REMARK  status: ('A' for Active; 'I' for Inactive)
REMARK    1  A    between atoms: C2'_3  and  C1'_4 
REMARK    2  A    between atoms: C1'_4  and  C1_5 
ROOT
ATOM      1  C1  I4B d   1       3.048   4.567  -4.037  0.00  0.00    -0.075 A 
ATOM      2  C2  I4B d   1       1.676   4.512  -4.050  0.00  0.00     0.003 A 
ATOM      3  C3  I4B d   1       0.946   5.199  -5.050  0.00  0.00     0.002 A 
ATOM      4  C4  I4B d   1       1.619   5.964  -5.980  0.00  0.00    -0.004 A 
ATOM      5  C5  I4B d   1       3.011   6.000  -5.978  0.00  0.00     0.002 A 
ATOM      6  C6  I4B d   1       3.731   5.287  -5.008  0.00  0.00     0.003 A 
ENDROOT
BRANCH   1   7
ATOM      7  C1' I4B d   1       3.787   3.857  -2.947  0.00  0.00     0.060 C 
BRANCH   7   8
ATOM      8  C2' I4B d   1       3.258   2.439  -2.871  0.00  0.00    -0.013 C 
ATOM      9  C4' I4B d   1       3.944   1.547  -3.872  0.00  0.00     0.013 C 
ATOM     10  C3' I4B d   1       3.464   1.942  -1.472  0.00  0.00     0.013 C 
ENDBRANCH   7   8
ENDBRANCH   1   7
TORSDOF 2
ENDMDL
