MODEL 1
REMARK minimizedAffinity 10.2081757
REMARK minimizedRMSD -1
REMARK  2 active torsions:
REMARK  status: ('A' for Active; 'I' for Inactive)
REMARK    1  A    between atoms: C2'_3  and  C1'_4 
REMARK    2  A    between atoms: C1'_4  and  C1_5 
ROOT
ATOM      1  C1  I4B d   1      -4.096  -5.137  -1.449  0.00  0.00    -0.075 A 
ATOM      2  C2  I4B d   1      -5.265  -5.604  -1.996  0.00  0.00     0.003 A 
ATOM      3  C3  I4B d   1      -6.000  -4.800  -2.900  0.00  0.00     0.002 A 
ATOM      4  C4  I4B d   1      -5.559  -3.525  -3.189  0.00  0.00    -0.004 A 
ATOM      5  C5  I4B d   1      -4.361  -3.062  -2.652  0.00  0.00     0.002 A 
ATOM      6  C6  I4B d   1      -3.618  -3.877  -1.786  0.00  0.00     0.003 A 
ENDROOT
BRANCH   1   7
ATOM      7  C1' I4B d   1      -3.362  -6.000  -0.472  0.00  0.00     0.060 C 
BRANCH   7   8
ATOM      8  C2' I4B d   1      -3.630  -5.462   0.919  0.00  0.00    -0.013 C 
ATOM      9  C4' I4B d   1      -4.924  -5.999   1.471  0.00  0.00     0.013 C 
ATOM     10  C3' I4B d   1      -2.470  -5.838   1.792  0.00  0.00     0.013 C 
ENDBRANCH   7   8
ENDBRANCH   1   7
TORSDOF 2
ENDMDL
