MODEL 1
REMARK minimizedAffinity 12.4248581
REMARK minimizedRMSD -1
REMARK  2 active torsions:
REMARK  status: ('A' for Active; 'I' for Inactive)
REMARK    1  A    between atoms: C2'_3  and  C1'_4 
REMARK    2  A    between atoms: C1'_4  and  C1_5 
ROOT
ATOM      1  C1  I4B d   1      -3.882   4.223   1.577  0.00  0.00    -0.075 A 
ATOM      2  C2  I4B d   1      -2.581   4.304   2.009  0.00  0.00     0.003 A 
ATOM      3  C3  I4B d   1      -1.601   4.932   1.202  0.00  0.00     0.002 A 
ATOM      4  C4  I4B d   1      -1.952   5.415  -0.042  0.00  0.00    -0.004 A 
ATOM      5  C5  I4B d   1      -3.276   5.352  -0.468  0.00  0.00     0.002 A 
ATOM      6  C6  I4B d   1      -4.250   4.763   0.352  0.00  0.00     0.003 A 
ENDROOT
BRANCH   1   7
ATOM      7  C1' I4B d   1      -4.885   3.524   2.440  0.00  0.00     0.060 C 
BRANCH   7   8
ATOM      8  C2' I4B d   1      -4.136   2.839   3.565  0.00  0.00    -0.013 C 
ATOM      9  C4' I4B d   1      -4.439   3.481   4.893  0.00  0.00     0.013 C 
ATOM     10  C3' I4B d   1      -4.523   1.390   3.563  0.00  0.00     0.013 C 
ENDBRANCH   7   8
ENDBRANCH   1   7
TORSDOF 2
ENDMDL
