MODEL 1
REMARK minimizedAffinity 13.2386723
REMARK minimizedRMSD -1
REMARK  2 active torsions:
REMARK  status: ('A' for Active; 'I' for Inactive)
REMARK    1  A    between atoms: C2'_3  and  C1'_4 
REMARK    2  A    between atoms: C1'_4  and  C1_5 
ROOT
ATOM      1  C1  I4B d   1       4.278  -1.318   3.067  0.00  0.00    -0.075 A 
ATOM      2  C2  I4B d   1       4.235  -0.922   1.754  0.00  0.00     0.003 A 
ATOM      3  C3  I4B d   1       2.990  -0.745   1.103  0.00  0.00     0.002 A 
ATOM      4  C4  I4B d   1       1.822  -1.023   1.783  0.00  0.00    -0.004 A 
ATOM      5  C5  I4B d   1       1.867  -1.402   3.121  0.00  0.00     0.002 A 
ATOM      6  C6  I4B d   1       3.102  -1.539   3.772  0.00  0.00     0.003 A 
ENDROOT
BRANCH   1   7
ATOM      7  C1' I4B d   1       5.610  -1.526   3.714  0.00  0.00     0.060 C 
BRANCH   7   8
ATOM      8  C2' I4B d   1       5.394  -1.617   5.211  0.00  0.00    -0.013 C 
ATOM      9  C4' I4B d   1       5.999  -2.876   5.774  0.00  0.00     0.013 C 
ATOM     10  C3' I4B d   1       5.997  -0.397   5.841  0.00  0.00     0.013 C 
ENDBRANCH   7   8
ENDBRANCH   1   7
TORSDOF 2
ENDMDL
