MODEL 1
REMARK minimizedAffinity 8.33391476
REMARK minimizedRMSD -1
REMARK  2 active torsions:
REMARK  status: ('A' for Active; 'I' for Inactive)
REMARK    1  A    between atoms: C2'_3  and  C1'_4 
REMARK    2  A    between atoms: C1'_4  and  C1_5 
ROOT
ATOM      1  C1  I4B d   1       4.505   1.946   0.422  0.00  0.00    -0.075 A 
ATOM      2  C2  I4B d   1       5.495   1.495  -0.416  0.00  0.00     0.003 A 
ATOM      3  C3  I4B d   1       5.998   0.179  -0.280  0.00  0.00     0.002 A 
ATOM      4  C4  I4B d   1       5.523  -0.630   0.732  0.00  0.00    -0.004 A 
ATOM      5  C5  I4B d   1       4.504  -0.179   1.566  0.00  0.00     0.002 A 
ATOM      6  C6  I4B d   1       3.982   1.113   1.402  0.00  0.00     0.003 A 
ENDROOT
BRANCH   1   7
ATOM      7  C1' I4B d   1       4.019   3.353   0.271  0.00  0.00     0.060 C 
BRANCH   7   8
ATOM      8  C2' I4B d   1       3.114   3.662   1.447  0.00  0.00    -0.013 C 
ATOM      9  C4' I4B d   1       3.277   5.089   1.899  0.00  0.00     0.013 C 
ATOM     10  C3' I4B d   1       1.701   3.385   1.028  0.00  0.00     0.013 C 
ENDBRANCH   7   8
ENDBRANCH   1   7
TORSDOF 2
ENDMDL
