MODEL 1
REMARK minimizedAffinity 16.0555534
REMARK minimizedRMSD -1
REMARK  2 active torsions:
REMARK  status: ('A' for Active; 'I' for Inactive)
REMARK    1  A    between atoms: C2'_3  and  C1'_4 
REMARK    2  A    between atoms: C1'_4  and  C1_5 
ROOT
ATOM      1  C1  I4B d   1      -3.394  -4.951  -1.640  0.00  0.00    -0.075 A 
ATOM      2  C2  I4B d   1      -3.772  -3.639  -1.499  0.00  0.00     0.003 A 
ATOM      3  C3  I4B d   1      -3.110  -2.624  -2.233  0.00  0.00     0.002 A 
ATOM      4  C4  I4B d   1      -2.051  -2.958  -3.051  0.00  0.00    -0.004 A 
ATOM      5  C5  I4B d   1      -1.684  -4.291  -3.210  0.00  0.00     0.002 A 
ATOM      6  C6  I4B d   1      -2.367  -5.295  -2.510  0.00  0.00     0.003 A 
ENDROOT
BRANCH   1   7
ATOM      7  C1' I4B d   1      -4.092  -5.993  -0.825  0.00  0.00     0.060 C 
BRANCH   7   8
ATOM      8  C2' I4B d   1      -4.137  -5.511   0.610  0.00  0.00    -0.013 C 
ATOM      9  C4' I4B d   1      -5.378  -5.998   1.310  0.00  0.00     0.013 C 
ATOM     10  C3' I4B d   1      -2.899  -5.998   1.302  0.00  0.00     0.013 C 
ENDBRANCH   7   8
ENDBRANCH   1   7
TORSDOF 2
ENDMDL
