MODEL 1
REMARK minimizedAffinity 16.9277477
REMARK minimizedRMSD -1
REMARK  2 active torsions:
REMARK  status: ('A' for Active; 'I' for Inactive)
REMARK    1  A    between atoms: C2'_3  and  C1'_4 
REMARK    2  A    between atoms: C1'_4  and  C1_5 
ROOT
ATOM      1  C1  I4B d   1      -3.463  -3.662  -2.290  0.00  0.00    -0.075 A 
ATOM      2  C2  I4B d   1      -4.636  -3.189  -2.824  0.00  0.00     0.003 A 
ATOM      3  C3  I4B d   1      -5.802  -3.992  -2.803  0.00  0.00     0.002 A 
ATOM      4  C4  I4B d   1      -5.738  -5.271  -2.289  0.00  0.00    -0.004 A 
ATOM      5  C5  I4B d   1      -4.554  -5.739  -1.728  0.00  0.00     0.002 A 
ATOM      6  C6  I4B d   1      -3.412  -4.925  -1.717  0.00  0.00     0.003 A 
ENDROOT
BRANCH   1   7
ATOM      7  C1' I4B d   1      -2.242  -2.800  -2.359  0.00  0.00     0.060 C 
BRANCH   7   8
ATOM      8  C2' I4B d   1      -2.089  -2.100  -1.023  0.00  0.00    -0.013 C 
ATOM      9  C4' I4B d   1      -3.322  -2.269  -0.175  0.00  0.00     0.013 C 
ATOM     10  C3' I4B d   1      -0.880  -2.666  -0.340  0.00  0.00     0.013 C 
ENDBRANCH   7   8
ENDBRANCH   1   7
TORSDOF 2
ENDMDL
