MODEL 1
REMARK minimizedAffinity 15.3485918
REMARK minimizedRMSD -1
REMARK  2 active torsions:
REMARK  status: ('A' for Active; 'I' for Inactive)
REMARK    1  A    between atoms: C2'_3  and  C1'_4 
REMARK    2  A    between atoms: C1'_4  and  C1_5 
ROOT
ATOM      1  C1  I4B d   1       2.345   3.787  -3.932  0.00  0.00    -0.075 A 
ATOM      2  C2  I4B d   1       1.519   3.550  -5.002  0.00  0.00     0.003 A 
ATOM      3  C3  I4B d   1       1.335   4.544  -5.994  0.00  0.00     0.002 A 
ATOM      4  C4  I4B d   1       1.952   5.770  -5.850  0.00  0.00    -0.004 A 
ATOM      5  C5  I4B d   1       2.807   6.000  -4.776  0.00  0.00     0.002 A 
ATOM      6  C6  I4B d   1       3.014   4.998  -3.817  0.00  0.00     0.003 A 
ENDROOT
BRANCH   1   7
ATOM      7  C1' I4B d   1       2.490   2.727  -2.886  0.00  0.00     0.060 C 
BRANCH   7   8
ATOM      8  C2' I4B d   1       3.904   2.187  -2.963  0.00  0.00    -0.013 C 
ATOM      9  C4' I4B d   1       4.268   1.432  -1.711  0.00  0.00     0.013 C 
ATOM     10  C3' I4B d   1       3.998   1.306  -4.173  0.00  0.00     0.013 C 
ENDBRANCH   7   8
ENDBRANCH   1   7
TORSDOF 2
ENDMDL
