MODEL 1
REMARK minimizedAffinity -3.11667538
REMARK minimizedRMSD -1
REMARK  1 active torsions:
REMARK  status: ('A' for Active; 'I' for Inactive)
REMARK    1  A    between atoms: C1_2  and  C2_3 
ROOT
ATOM      1  C2  UNL d   1       0.517   0.088  -1.646  0.00  0.00    -0.073 A 
ATOM      2  C3  UNL d   1      -0.776   0.591  -1.826  0.00  0.00    -0.002 A 
ATOM      3  C4  UNL d   1      -1.609   0.803  -0.726  0.00  0.00     0.004 A 
ATOM      4  C5  UNL d   1      -1.155   0.522   0.563  0.00  0.00    -0.004 A 
ATOM      5  C6  UNL d   1       0.139   0.031   0.764  0.00  0.00    -0.075 A 
ATOM      6  C7  UNL d   1       0.641  -0.279   2.143  0.00  0.00     0.076 C 
ATOM      7  C8  UNL d   1       0.968  -0.182  -0.346  0.00  0.00     0.001 A 
ENDROOT
BRANCH   1   8
ATOM      8  C1  UNL d   1       1.422  -0.136  -2.830  0.00  0.00     0.053 C 
ATOM      9  C   UNL d   1       0.853  -1.163  -3.796  0.00  0.00     0.018 C 
ENDBRANCH   1   8
TORSDOF 1
ENDMDL
