MODEL 1
REMARK minimizedAffinity -3.15162015
REMARK minimizedRMSD -1
REMARK  1 active torsions:
REMARK  status: ('A' for Active; 'I' for Inactive)
REMARK    1  A    between atoms: C1_2  and  C2_3 
ROOT
ATOM      1  C2  UNL d   1       0.387  -0.587  -1.604  0.00  0.00    -0.073 A 
ATOM      2  C3  UNL d   1       0.219  -1.867  -2.143  0.00  0.00    -0.002 A 
ATOM      3  C4  UNL d   1       0.768  -2.187  -3.385  0.00  0.00     0.004 A 
ATOM      4  C5  UNL d   1       1.494  -1.233  -4.098  0.00  0.00    -0.004 A 
ATOM      5  C6  UNL d   1       1.682   0.049  -3.571  0.00  0.00    -0.075 A 
ATOM      6  C7  UNL d   1       2.459   1.087  -4.326  0.00  0.00     0.076 C 
ATOM      7  C8  UNL d   1       1.126   0.363  -2.324  0.00  0.00     0.001 A 
ENDROOT
BRANCH   1   8
ATOM      8  C1  UNL d   1      -0.198  -0.239  -0.259  0.00  0.00     0.053 C 
ATOM      9  C   UNL d   1       0.880   0.015   0.782  0.00  0.00     0.018 C 
ENDBRANCH   1   8
TORSDOF 1
ENDMDL
