MODEL 1
REMARK minimizedAffinity -2.81811452
REMARK minimizedRMSD -1
REMARK  1 active torsions:
REMARK  status: ('A' for Active; 'I' for Inactive)
REMARK    1  A    between atoms: C1_2  and  C2_3 
ROOT
ATOM      1  C2  UNL d   1       0.335  -0.070   0.520  0.00  0.00    -0.073 A 
ATOM      2  C3  UNL d   1      -0.979   0.388   0.371  0.00  0.00    -0.002 A 
ATOM      3  C4  UNL d   1      -1.485   0.677  -0.897  0.00  0.00     0.004 A 
ATOM      4  C5  UNL d   1      -0.687   0.505  -2.028  0.00  0.00    -0.004 A 
ATOM      5  C6  UNL d   1       0.625   0.037  -1.900  0.00  0.00    -0.075 A 
ATOM      6  C7  UNL d   1       1.498  -0.151  -3.106  0.00  0.00     0.076 C 
ATOM      7  C8  UNL d   1       1.127  -0.249  -0.623  0.00  0.00     0.001 A 
ENDROOT
BRANCH   1   8
ATOM      8  C1  UNL d   1       0.883  -0.390   1.886  0.00  0.00     0.053 C 
ATOM      9  C   UNL d   1       0.027   0.199   2.996  0.00  0.00     0.018 C 
ENDBRANCH   1   8
TORSDOF 1
ENDMDL
