MODEL 1
REMARK minimizedAffinity -1.70328081
REMARK minimizedRMSD -1
REMARK  1 active torsions:
REMARK  status: ('A' for Active; 'I' for Inactive)
REMARK    1  A    between atoms: C1_2  and  C2_3 
ROOT
ATOM      1  C2  UNL d   1       0.016  -0.385  -2.192  0.00  0.00    -0.073 A 
ATOM      2  C3  UNL d   1      -0.761  -1.496  -2.539  0.00  0.00    -0.002 A 
ATOM      3  C4  UNL d   1      -0.271  -2.445  -3.437  0.00  0.00     0.004 A 
ATOM      4  C5  UNL d   1       1.001  -2.298  -3.991  0.00  0.00    -0.004 A 
ATOM      5  C6  UNL d   1       1.797  -1.200  -3.647  0.00  0.00    -0.075 A 
ATOM      6  C7  UNL d   1       3.166  -1.026  -4.235  0.00  0.00     0.076 C 
ATOM      7  C8  UNL d   1       1.297  -0.250  -2.747  0.00  0.00     0.001 A 
ENDROOT
BRANCH   1   8
ATOM      8  C1  UNL d   1      -0.506   0.640  -1.218  0.00  0.00     0.053 C 
ATOM      9  C   UNL d   1      -1.610   0.078  -0.337  0.00  0.00     0.018 C 
ENDBRANCH   1   8
TORSDOF 1
ENDMDL
