MODEL 1
REMARK minimizedAffinity -3.84065866
REMARK minimizedRMSD -1
REMARK  1 active torsions:
REMARK  status: ('A' for Active; 'I' for Inactive)
REMARK    1  A    between atoms: C1_2  and  C2_3 
ROOT
ATOM      1  C2  UNL d   1       0.682  -0.699  -0.400  0.00  0.00    -0.073 A 
ATOM      2  C3  UNL d   1       1.964  -1.115  -0.023  0.00  0.00    -0.002 A 
ATOM      3  C4  UNL d   1       2.355  -1.066   1.316  0.00  0.00     0.004 A 
ATOM      4  C5  UNL d   1       1.469  -0.609   2.291  0.00  0.00    -0.004 A 
ATOM      5  C6  UNL d   1       0.179  -0.200   1.935  0.00  0.00    -0.075 A 
ATOM      6  C7  UNL d   1      -0.786   0.297   2.972  0.00  0.00     0.076 C 
ATOM      7  C8  UNL d   1      -0.206  -0.249   0.589  0.00  0.00     0.001 A 
ENDROOT
BRANCH   1   8
ATOM      8  C1  UNL d   1       0.252  -0.755  -1.843  0.00  0.00     0.053 C 
ATOM      9  C   UNL d   1       1.269  -1.477  -2.712  0.00  0.00     0.018 C 
ENDBRANCH   1   8
TORSDOF 1
ENDMDL
