MODEL 1
REMARK minimizedAffinity -0.697710335
REMARK minimizedRMSD -1
REMARK  0 active torsions:
REMARK  status: ('A' for Active; 'I' for Inactive)
ROOT
ATOM      1  N1  IND d   1      -0.524   2.270  -2.866  0.00  0.00    -0.196 N 
ATOM      2  C2  IND d   1      -0.358   3.611  -2.661  0.00  0.00     0.054 A 
ATOM      3  C3  IND d   1      -0.021   3.852  -1.374  0.00  0.00    -0.031 A 
ATOM      4  C4  IND d   1       0.413   2.189   0.542  0.00  0.00     0.051 A 
ATOM      5  C5  IND d   1       0.351   0.858   0.848  0.00  0.00    -0.031 A 
ATOM      6  C6  IND d   1      -0.011  -0.089  -0.087  0.00  0.00     0.015 A 
ATOM      7  C7  IND d   1      -0.314   0.259  -1.373  0.00  0.00    -0.016 A 
ATOM      8  C8  IND d   1      -0.259   1.610  -1.686  0.00  0.00    -0.047 A 
ATOM      9  C9  IND d   1       0.066   2.580  -0.730  0.00  0.00    -0.096 A 
ATOM     10  HN1 IND d   1      -0.755   1.900  -3.607  0.00  0.00     0.298 HD
ENDROOT
TORSDOF 0
ENDMDL
