MODEL 1
REMARK minimizedAffinity 1.63412309
REMARK minimizedRMSD -1
REMARK  0 active torsions:
REMARK  status: ('A' for Active; 'I' for Inactive)
ROOT
ATOM      1  N1  IND d   1       1.845  -1.539   0.102  0.00  0.00    -0.196 N 
ATOM      2  C2  IND d   1       1.945  -1.081  -1.182  0.00  0.00     0.054 A 
ATOM      3  C3  IND d   1       0.960  -0.192  -1.442  0.00  0.00    -0.031 A 
ATOM      4  C4  IND d   1      -0.862   0.734   0.122  0.00  0.00     0.051 A 
ATOM      5  C5  IND d   1      -1.380   0.588   1.379  0.00  0.00    -0.031 A 
ATOM      6  C6  IND d   1      -0.836  -0.290   2.294  0.00  0.00     0.015 A 
ATOM      7  C7  IND d   1       0.257  -1.050   1.988  0.00  0.00    -0.016 A 
ATOM      8  C8  IND d   1       0.781  -0.910   0.711  0.00  0.00    -0.047 A 
ATOM      9  C9  IND d   1       0.207  -0.051  -0.236  0.00  0.00    -0.096 A 
ATOM     10  HN1 IND d   1       2.360  -2.123   0.468  0.00  0.00     0.298 HD
ENDROOT
TORSDOF 0
ENDMDL
