MODEL 1
REMARK minimizedAffinity 0.199351266
REMARK minimizedRMSD -1
REMARK  0 active torsions:
REMARK  status: ('A' for Active; 'I' for Inactive)
ROOT
ATOM      1  N1  IND d   1      -1.058  -1.287   2.384  0.00  0.00    -0.196 N 
ATOM      2  C2  IND d   1       0.212  -1.509   2.839  0.00  0.00     0.054 A 
ATOM      3  C3  IND d   1       1.118  -1.132   1.908  0.00  0.00    -0.031 A 
ATOM      4  C4  IND d   1       0.741  -0.031  -0.388  0.00  0.00     0.051 A 
ATOM      5  C5  IND d   1      -0.248   0.338  -1.257  0.00  0.00    -0.031 A 
ATOM      6  C6  IND d   1      -1.584   0.183  -0.949  0.00  0.00     0.015 A 
ATOM      7  C7  IND d   1      -1.983  -0.338   0.249  0.00  0.00    -0.016 A 
ATOM      8  C8  IND d   1      -0.982  -0.720   1.131  0.00  0.00    -0.047 A 
ATOM      9  C9  IND d   1       0.376  -0.605   0.807  0.00  0.00    -0.096 A 
ATOM     10  HN1 IND d   1      -1.782  -1.471   2.809  0.00  0.00     0.298 HD
ENDROOT
TORSDOF 0
ENDMDL
