MODEL 1
REMARK minimizedAffinity -1.89866436
REMARK minimizedRMSD -1
REMARK  0 active torsions:
REMARK  status: ('A' for Active; 'I' for Inactive)
ROOT
ATOM      1  N1  IND d   1      -1.421   1.561  -0.073  0.00  0.00    -0.196 N 
ATOM      2  C2  IND d   1      -0.767   1.654  -1.270  0.00  0.00     0.054 A 
ATOM      3  C3  IND d   1       0.307   0.833  -1.284  0.00  0.00    -0.031 A 
ATOM      4  C4  IND d   1       1.118  -0.829   0.507  0.00  0.00     0.051 A 
ATOM      5  C5  IND d   1       0.866  -1.244   1.784  0.00  0.00    -0.031 A 
ATOM      6  C6  IND d   1      -0.184  -0.737   2.522  0.00  0.00     0.015 A 
ATOM      7  C7  IND d   1      -1.032   0.200   2.003  0.00  0.00    -0.016 A 
ATOM      8  C8  IND d   1      -0.775   0.629   0.709  0.00  0.00    -0.047 A 
ATOM      9  C9  IND d   1       0.315   0.149  -0.030  0.00  0.00    -0.096 A 
ATOM     10  HN1 IND d   1      -2.119   2.009   0.153  0.00  0.00     0.298 HD
ENDROOT
TORSDOF 0
ENDMDL
