MODEL 1
REMARK minimizedAffinity -1.92274046
REMARK minimizedRMSD -1
REMARK  0 active torsions:
REMARK  status: ('A' for Active; 'I' for Inactive)
ROOT
ATOM      1  N1  IND d   1      -0.726  -0.235   1.698  0.00  0.00    -0.196 N 
ATOM      2  C2  IND d   1      -0.070  -0.802   2.755  0.00  0.00     0.054 A 
ATOM      3  C3  IND d   1       1.051  -1.428   2.332  0.00  0.00    -0.031 A 
ATOM      4  C4  IND d   1       2.054  -1.564  -0.035  0.00  0.00     0.051 A 
ATOM      5  C5  IND d   1       1.795  -1.232  -1.335  0.00  0.00    -0.031 A 
ATOM      6  C6  IND d   1       0.661  -0.534  -1.698  0.00  0.00     0.015 A 
ATOM      7  C7  IND d   1      -0.254  -0.131  -0.768  0.00  0.00    -0.016 A 
ATOM      8  C8  IND d   1       0.001  -0.472   0.553  0.00  0.00    -0.047 A 
ATOM      9  C9  IND d   1       1.129  -1.218   0.922  0.00  0.00    -0.096 A 
ATOM     10  HN1 IND d   1      -1.468   0.197   1.742  0.00  0.00     0.298 HD
ENDROOT
TORSDOF 0
ENDMDL
