MODEL 1
REMARK minimizedAffinity -3.21850228
REMARK minimizedRMSD -1
REMARK  0 active torsions:
REMARK  status: ('A' for Active; 'I' for Inactive)
ROOT
ATOM      1  N1  IND d   1      -0.999  -0.106  -0.052  0.00  0.00    -0.196 N 
ATOM      2  C2  IND d   1      -1.879  -0.313   0.973  0.00  0.00     0.054 A 
ATOM      3  C3  IND d   1      -1.212  -0.573   2.120  0.00  0.00    -0.031 A 
ATOM      4  C4  IND d   1       1.324  -0.608   2.566  0.00  0.00     0.051 A 
ATOM      5  C5  IND d   1       2.530  -0.514   1.931  0.00  0.00    -0.031 A 
ATOM      6  C6  IND d   1       2.624  -0.271   0.576  0.00  0.00     0.015 A 
ATOM      7  C7  IND d   1       1.510  -0.101  -0.196  0.00  0.00    -0.016 A 
ATOM      8  C8  IND d   1       0.283  -0.203   0.443  0.00  0.00    -0.047 A 
ATOM      9  C9  IND d   1       0.181  -0.492   1.810  0.00  0.00    -0.096 A 
ATOM     10  HN1 IND d   1      -1.210   0.058  -0.869  0.00  0.00     0.298 HD
ENDROOT
TORSDOF 0
ENDMDL
