MODEL 1
REMARK minimizedAffinity -2.98880148
REMARK minimizedRMSD -1
REMARK  0 active torsions:
REMARK  status: ('A' for Active; 'I' for Inactive)
ROOT
ATOM      1  N1  IND d   1      -0.764   1.645  -2.689  0.00  0.00    -0.196 N 
ATOM      2  C2  IND d   1      -0.853   2.983  -2.420  0.00  0.00     0.054 A 
ATOM      3  C3  IND d   1      -0.735   3.205  -1.092  0.00  0.00    -0.031 A 
ATOM      4  C4  IND d   1      -0.289   1.532   0.813  0.00  0.00     0.051 A 
ATOM      5  C5  IND d   1      -0.169   0.194   1.065  0.00  0.00    -0.031 A 
ATOM      6  C6  IND d   1      -0.240  -0.747   0.059  0.00  0.00     0.015 A 
ATOM      7  C7  IND d   1      -0.423  -0.383  -1.245  0.00  0.00    -0.016 A 
ATOM      8  C8  IND d   1      -0.553   0.974  -1.504  0.00  0.00    -0.047 A 
ATOM      9  C9  IND d   1      -0.524   1.931  -0.482  0.00  0.00    -0.096 A 
ATOM     10  HN1 IND d   1      -0.830   1.284  -3.466  0.00  0.00     0.298 HD
ENDROOT
TORSDOF 0
ENDMDL
