MODEL 1
REMARK minimizedAffinity -2.64219999
REMARK minimizedRMSD -1
REMARK  0 active torsions:
REMARK  status: ('A' for Active; 'I' for Inactive)
ROOT
ATOM      1  N1  IND d   1      -2.678   3.044   4.809  0.00  0.00    -0.196 N 
ATOM      2  C2  IND d   1      -2.309   3.131   3.496  0.00  0.00     0.054 A 
ATOM      3  C3  IND d   1      -3.157   2.419   2.720  0.00  0.00    -0.031 A 
ATOM      4  C4  IND d   1      -5.276   1.116   3.383  0.00  0.00     0.051 A 
ATOM      5  C5  IND d   1      -5.999   0.717   4.472  0.00  0.00    -0.031 A 
ATOM      6  C6  IND d   1      -5.646   1.083   5.755  0.00  0.00     0.015 A 
ATOM      7  C7  IND d   1      -4.559   1.875   5.997  0.00  0.00    -0.016 A 
ATOM      8  C8  IND d   1      -3.819   2.276   4.894  0.00  0.00    -0.047 A 
ATOM      9  C9  IND d   1      -4.147   1.872   3.593  0.00  0.00    -0.096 A 
ATOM     10  HN1 IND d   1      -2.267   3.407   5.471  0.00  0.00     0.298 HD
ENDROOT
TORSDOF 0
ENDMDL
