MODEL 1
REMARK minimizedAffinity -1.99636364
REMARK minimizedRMSD -1
REMARK  0 active torsions:
REMARK  status: ('A' for Active; 'I' for Inactive)
ROOT
ATOM      1  C   UNL d   1       1.809   3.115   0.168  0.00  0.00     0.172 C 
ATOM      2  N   UNL d   1       0.917   1.994  -0.016  0.00  0.00    -0.070 N 
ATOM      3  C1  UNL d   1      -0.097   1.923  -0.933  0.00  0.00    -0.004 A 
ATOM      4  C2  UNL d   1      -0.709   0.696  -0.791  0.00  0.00    -0.047 A 
ATOM      5  C3  UNL d   1      -0.039   0.006   0.247  0.00  0.00    -0.047 A 
ATOM      6  C4  UNL d   1       0.963   0.833   0.710  0.00  0.00    -0.004 A 
ENDROOT
TORSDOF 0
ENDMDL
