MODEL 1
REMARK minimizedAffinity 0.440265894
REMARK minimizedRMSD -1
REMARK  0 active torsions:
REMARK  status: ('A' for Active; 'I' for Inactive)
ROOT
ATOM      1  C   UNL d   1       0.104   0.053  -1.677  0.00  0.00     0.172 C 
ATOM      2  N   UNL d   1      -0.573  -0.050  -0.405  0.00  0.00    -0.070 N 
ATOM      3  C1  UNL d   1      -0.617   0.924   0.557  0.00  0.00    -0.004 A 
ATOM      4  C2  UNL d   1      -1.357   0.440   1.614  0.00  0.00    -0.047 A 
ATOM      5  C3  UNL d   1      -1.772  -0.870   1.276  0.00  0.00    -0.047 A 
ATOM      6  C4  UNL d   1      -1.273  -1.148   0.021  0.00  0.00    -0.004 A 
ENDROOT
TORSDOF 0
ENDMDL
