MODEL 1
REMARK minimizedAffinity -3.69018555
REMARK minimizedRMSD -1
REMARK  0 active torsions:
REMARK  status: ('A' for Active; 'I' for Inactive)
ROOT
ATOM      1  C   UNL d   1      -0.069  -0.274  -2.210  0.00  0.00     0.172 C 
ATOM      2  N   UNL d   1       0.239  -1.216  -1.160  0.00  0.00    -0.070 N 
ATOM      3  C1  UNL d   1       0.906  -0.927   0.001  0.00  0.00    -0.004 A 
ATOM      4  C2  UNL d   1       0.998  -2.090   0.735  0.00  0.00    -0.047 A 
ATOM      5  C3  UNL d   1       0.365  -3.113  -0.011  0.00  0.00    -0.047 A 
ATOM      6  C4  UNL d   1      -0.095  -2.544  -1.179  0.00  0.00    -0.004 A 
ENDROOT
TORSDOF 0
ENDMDL
