MODEL 1
REMARK minimizedAffinity -2.65475845
REMARK minimizedRMSD -1
REMARK  0 active torsions:
REMARK  status: ('A' for Active; 'I' for Inactive)
ROOT
ATOM      1  C   UNL d   1       0.486   2.188  -0.007  0.00  0.00     0.172 C 
ATOM      2  N   UNL d   1       0.209   0.849   0.458  0.00  0.00    -0.070 N 
ATOM      3  C1  UNL d   1      -1.012   0.383   0.866  0.00  0.00    -0.004 A 
ATOM      4  C2  UNL d   1      -0.859  -0.937   1.230  0.00  0.00    -0.047 A 
ATOM      5  C3  UNL d   1       0.501  -1.276   1.035  0.00  0.00    -0.047 A 
ATOM      6  C4  UNL d   1       1.139  -0.151   0.556  0.00  0.00    -0.004 A 
ENDROOT
TORSDOF 0
ENDMDL
