MODEL 1
REMARK minimizedAffinity 2.33838081
REMARK minimizedRMSD -1
REMARK  0 active torsions:
REMARK  status: ('A' for Active; 'I' for Inactive)
ROOT
ATOM      1  C   UNL d   1      -1.674  -2.652   0.913  0.00  0.00     0.172 C 
ATOM      2  N   UNL d   1      -1.554  -1.230   1.133  0.00  0.00    -0.070 N 
ATOM      3  C1  UNL d   1      -1.921  -0.564   2.272  0.00  0.00    -0.004 A 
ATOM      4  C2  UNL d   1      -1.647   0.773   2.087  0.00  0.00    -0.047 A 
ATOM      5  C3  UNL d   1      -1.098   0.917   0.791  0.00  0.00    -0.047 A 
ATOM      6  C4  UNL d   1      -1.051  -0.338   0.223  0.00  0.00    -0.004 A 
ENDROOT
TORSDOF 0
ENDMDL
