MODEL 1
REMARK minimizedAffinity -2.26597047
REMARK minimizedRMSD -1
REMARK  0 active torsions:
REMARK  status: ('A' for Active; 'I' for Inactive)
ROOT
ATOM      1  C   UNL d   1       1.085   2.640   0.428  0.00  0.00     0.172 C 
ATOM      2  N   UNL d   1       0.386   1.378   0.486  0.00  0.00    -0.070 N 
ATOM      3  C1  UNL d   1       0.561   0.411   1.439  0.00  0.00    -0.004 A 
ATOM      4  C2  UNL d   1      -0.288  -0.633   1.142  0.00  0.00    -0.047 A 
ATOM      5  C3  UNL d   1      -0.997  -0.282  -0.031  0.00  0.00    -0.047 A 
ATOM      6  C4  UNL d   1      -0.561   0.968  -0.416  0.00  0.00    -0.004 A 
ENDROOT
TORSDOF 0
ENDMDL
