MODEL 1
REMARK minimizedAffinity -1.58859515
REMARK minimizedRMSD -1
REMARK  0 active torsions:
REMARK  status: ('A' for Active; 'I' for Inactive)
ROOT
ATOM      1  C   UNL d   1       0.276   1.639  -0.022  0.00  0.00     0.172 C 
ATOM      2  N   UNL d   1      -0.121   0.337   0.460  0.00  0.00    -0.070 N 
ATOM      3  C1  UNL d   1      -0.189  -0.041   1.774  0.00  0.00    -0.004 A 
ATOM      4  C2  UNL d   1      -0.607  -1.354   1.814  0.00  0.00    -0.047 A 
ATOM      5  C3  UNL d   1      -0.796  -1.779   0.478  0.00  0.00    -0.047 A 
ATOM      6  C4  UNL d   1      -0.488  -0.713  -0.340  0.00  0.00    -0.004 A 
ENDROOT
TORSDOF 0
ENDMDL
