MODEL 1
REMARK minimizedAffinity -0.309904248
REMARK minimizedRMSD -1
REMARK  0 active torsions:
REMARK  status: ('A' for Active; 'I' for Inactive)
ROOT
ATOM      1  C   UNL d   1       0.308  -0.634  -2.483  0.00  0.00     0.172 C 
ATOM      2  N   UNL d   1       0.058  -0.240  -1.116  0.00  0.00    -0.070 N 
ATOM      3  C1  UNL d   1      -1.137  -0.356  -0.458  0.00  0.00    -0.004 A 
ATOM      4  C2  UNL d   1      -0.964   0.127   0.820  0.00  0.00    -0.047 A 
ATOM      5  C3  UNL d   1       0.382   0.550   0.935  0.00  0.00    -0.047 A 
ATOM      6  C4  UNL d   1       0.992   0.311  -0.279  0.00  0.00    -0.004 A 
ENDROOT
TORSDOF 0
ENDMDL
