MODEL 1
REMARK minimizedAffinity -1.65893531
REMARK minimizedRMSD -1
REMARK  0 active torsions:
REMARK  status: ('A' for Active; 'I' for Inactive)
ROOT
ATOM      1  C   UNL d   1       0.782   1.934   0.142  0.00  0.00     0.172 C 
ATOM      2  N   UNL d   1       0.266   0.640   0.518  0.00  0.00    -0.070 N 
ATOM      3  C1  UNL d   1       0.236   0.131   1.789  0.00  0.00    -0.004 A 
ATOM      4  C2  UNL d   1      -0.330  -1.124   1.729  0.00  0.00    -0.047 A 
ATOM      5  C3  UNL d   1      -0.651  -1.379   0.374  0.00  0.00    -0.047 A 
ATOM      6  C4  UNL d   1      -0.272  -0.271  -0.353  0.00  0.00    -0.004 A 
ENDROOT
TORSDOF 0
ENDMDL
