MODEL 1
REMARK minimizedAffinity -2.46531963
REMARK minimizedRMSD -1
REMARK  0 active torsions:
REMARK  status: ('A' for Active; 'I' for Inactive)
ROOT
ATOM      1  C   UNL d   1      -0.574  -1.315   1.246  0.00  0.00     0.172 C 
ATOM      2  N   UNL d   1      -0.203  -0.359   0.229  0.00  0.00    -0.070 N 
ATOM      3  C1  UNL d   1       0.177   0.937   0.452  0.00  0.00    -0.004 A 
ATOM      4  C2  UNL d   1       0.448   1.514  -0.770  0.00  0.00    -0.047 A 
ATOM      5  C3  UNL d   1       0.221   0.530  -1.762  0.00  0.00    -0.047 A 
ATOM      6  C4  UNL d   1      -0.181  -0.620  -1.116  0.00  0.00    -0.004 A 
ENDROOT
TORSDOF 0
ENDMDL
