MODEL 1
REMARK minimizedAffinity -1.915609
REMARK minimizedRMSD -1
REMARK  0 active torsions:
REMARK  status: ('A' for Active; 'I' for Inactive)
ROOT
ATOM      1  C   UNL d   1       0.548   1.370   0.038  0.00  0.00     0.172 C 
ATOM      2  N   UNL d   1      -0.037   0.060   0.208  0.00  0.00    -0.070 N 
ATOM      3  C1  UNL d   1      -0.474  -0.756  -0.802  0.00  0.00    -0.004 A 
ATOM      4  C2  UNL d   1      -0.962  -1.911  -0.229  0.00  0.00    -0.047 A 
ATOM      5  C3  UNL d   1      -0.814  -1.784   1.172  0.00  0.00    -0.047 A 
ATOM      6  C4  UNL d   1      -0.239  -0.555   1.415  0.00  0.00    -0.004 A 
ENDROOT
TORSDOF 0
ENDMDL
