MODEL 1
REMARK minimizedAffinity -1.97096324
REMARK minimizedRMSD -1
REMARK  0 active torsions:
REMARK  status: ('A' for Active; 'I' for Inactive)
ROOT
ATOM      1  C   UNL d   1      -0.990  -2.503   0.959  0.00  0.00     0.172 C 
ATOM      2  N   UNL d   1      -0.659  -1.142   0.606  0.00  0.00    -0.070 N 
ATOM      3  C1  UNL d   1       0.077  -0.756  -0.483  0.00  0.00    -0.004 A 
ATOM      4  C2  UNL d   1       0.167   0.619  -0.466  0.00  0.00    -0.047 A 
ATOM      5  C3  UNL d   1      -0.538   1.075   0.674  0.00  0.00    -0.047 A 
ATOM      6  C4  UNL d   1      -1.039  -0.036   1.319  0.00  0.00    -0.004 A 
ENDROOT
TORSDOF 0
ENDMDL
