MODEL 1
REMARK minimizedAffinity -2.98327279
REMARK minimizedRMSD -1
REMARK  0 active torsions:
REMARK  status: ('A' for Active; 'I' for Inactive)
ROOT
ATOM      1  C   UNL d   1       1.132   3.380   0.773  0.00  0.00     0.172 C 
ATOM      2  N   UNL d   1       0.803   1.984   0.601  0.00  0.00    -0.070 N 
ATOM      3  C1  UNL d   1       0.176   1.441  -0.488  0.00  0.00    -0.004 A 
ATOM      4  C2  UNL d   1       0.045   0.087  -0.268  0.00  0.00    -0.047 A 
ATOM      5  C3  UNL d   1       0.613  -0.193   0.998  0.00  0.00    -0.047 A 
ATOM      6  C4  UNL d   1       1.074   0.999   1.513  0.00  0.00    -0.004 A 
ENDROOT
TORSDOF 0
ENDMDL
