MODEL 1
REMARK minimizedAffinity -2.21538186
REMARK minimizedRMSD -1
REMARK  0 active torsions:
REMARK  status: ('A' for Active; 'I' for Inactive)
ROOT
ATOM      1  C   UNL d   1       0.013   1.421  -0.353  0.00  0.00     0.172 C 
ATOM      2  N   UNL d   1      -0.334   0.063  -0.007  0.00  0.00    -0.070 N 
ATOM      3  C1  UNL d   1      -0.978  -0.330   1.135  0.00  0.00    -0.004 A 
ATOM      4  C2  UNL d   1      -1.122  -1.700   1.089  0.00  0.00    -0.047 A 
ATOM      5  C3  UNL d   1      -0.543  -2.146  -0.123  0.00  0.00    -0.047 A 
ATOM      6  C4  UNL d   1      -0.063  -1.034  -0.782  0.00  0.00    -0.004 A 
ENDROOT
TORSDOF 0
ENDMDL
