MODEL 1
REMARK minimizedAffinity -1.86690652
REMARK minimizedRMSD -1
REMARK  0 active torsions:
REMARK  status: ('A' for Active; 'I' for Inactive)
ROOT
ATOM      1  C   UNL d   1       0.612   1.226   0.131  0.00  0.00     0.172 C 
ATOM      2  N   UNL d   1      -0.108  -0.002   0.372  0.00  0.00    -0.070 N 
ATOM      3  C1  UNL d   1      -0.442  -0.503   1.602  0.00  0.00    -0.004 A 
ATOM      4  C2  UNL d   1      -1.121  -1.686   1.406  0.00  0.00    -0.047 A 
ATOM      5  C3  UNL d   1      -1.195  -1.905   0.010  0.00  0.00    -0.047 A 
ATOM      6  C4  UNL d   1      -0.560  -0.848  -0.606  0.00  0.00    -0.004 A 
ENDROOT
TORSDOF 0
ENDMDL
