MODEL 1
REMARK minimizedAffinity -4.80952644
REMARK minimizedRMSD -1
REMARK  0 active torsions:
REMARK  status: ('A' for Active; 'I' for Inactive)
ROOT
ATOM      1  C   UNL d   1      -0.256   0.086   0.491  0.00  0.00     0.078 C 
ATOM      2  C1  UNL d   1       0.707   1.213   0.714  0.00  0.00    -0.077 A 
ATOM      3  C2  UNL d   1       0.383   2.283   1.557  0.00  0.00    -0.001 A 
ATOM      4  C3  UNL d   1       1.286   3.330   1.749  0.00  0.00     0.003 A 
ATOM      5  C4  UNL d   1       2.519   3.318   1.100  0.00  0.00    -0.005 A 
ATOM      6  C5  UNL d   1       2.850   2.259   0.257  0.00  0.00     0.003 A 
ATOM      7  C6  UNL d   1       1.948   1.211   0.065  0.00  0.00    -0.001 A 
ENDROOT
TORSDOF 0
ENDMDL
