MODEL 1
REMARK minimizedAffinity -2.80246091
REMARK minimizedRMSD -1
REMARK  0 active torsions:
REMARK  status: ('A' for Active; 'I' for Inactive)
ROOT
ATOM      1  C   UNL d   1       2.692   2.904   0.719  0.00  0.00     0.078 C 
ATOM      2  C1  UNL d   1       1.707   1.801   0.470  0.00  0.00    -0.077 A 
ATOM      3  C2  UNL d   1       0.643   1.972  -0.424  0.00  0.00    -0.001 A 
ATOM      4  C3  UNL d   1      -0.271   0.940  -0.639  0.00  0.00     0.003 A 
ATOM      5  C4  UNL d   1      -0.132  -0.270   0.038  0.00  0.00    -0.005 A 
ATOM      6  C5  UNL d   1       0.922  -0.449   0.931  0.00  0.00     0.003 A 
ATOM      7  C6  UNL d   1       1.838   0.582   1.147  0.00  0.00    -0.001 A 
ENDROOT
TORSDOF 0
ENDMDL
