MODEL 1
REMARK minimizedAffinity -5.91275644
REMARK minimizedRMSD -1
REMARK  0 active torsions:
REMARK  status: ('A' for Active; 'I' for Inactive)
ROOT
ATOM      1  C   UNL d   1       0.557   0.057  -0.349  0.00  0.00     0.078 C 
ATOM      2  C1  UNL d   1      -0.917  -0.174  -0.498  0.00  0.00    -0.077 A 
ATOM      3  C2  UNL d   1      -1.660  -0.774   0.526  0.00  0.00    -0.001 A 
ATOM      4  C3  UNL d   1      -3.029  -0.991   0.370  0.00  0.00     0.003 A 
ATOM      5  C4  UNL d   1      -3.668  -0.613  -0.809  0.00  0.00    -0.005 A 
ATOM      6  C5  UNL d   1      -2.937  -0.018  -1.835  0.00  0.00     0.003 A 
ATOM      7  C6  UNL d   1      -1.567   0.201  -1.681  0.00  0.00    -0.001 A 
ENDROOT
TORSDOF 0
ENDMDL
