MODEL 1
REMARK minimizedAffinity -0.802887142
REMARK minimizedRMSD -1
REMARK  0 active torsions:
REMARK  status: ('A' for Active; 'I' for Inactive)
ROOT
ATOM      1  C   UNL d   1       2.583   1.855   0.486  0.00  0.00     0.078 C 
ATOM      2  C1  UNL d   1       1.466   0.855   0.520  0.00  0.00    -0.077 A 
ATOM      3  C2  UNL d   1       0.137   1.252   0.332  0.00  0.00    -0.001 A 
ATOM      4  C3  UNL d   1      -0.894   0.311   0.376  0.00  0.00     0.003 A 
ATOM      5  C4  UNL d   1      -0.605  -1.032   0.608  0.00  0.00    -0.005 A 
ATOM      6  C5  UNL d   1       0.714  -1.436   0.799  0.00  0.00     0.003 A 
ATOM      7  C6  UNL d   1       1.746  -0.497   0.755  0.00  0.00    -0.001 A 
ENDROOT
TORSDOF 0
ENDMDL
