MODEL 1
REMARK minimizedAffinity -4.01135397
REMARK minimizedRMSD -1
REMARK  0 active torsions:
REMARK  status: ('A' for Active; 'I' for Inactive)
ROOT
ATOM      1  C   UNL d   1       0.846   0.964   0.644  0.00  0.00     0.078 C 
ATOM      2  C1  UNL d   1      -0.230   0.162  -0.024  0.00  0.00    -0.077 A 
ATOM      3  C2  UNL d   1      -0.747  -0.993   0.576  0.00  0.00    -0.001 A 
ATOM      4  C3  UNL d   1      -1.742  -1.736  -0.062  0.00  0.00     0.003 A 
ATOM      5  C4  UNL d   1      -2.227  -1.333  -1.305  0.00  0.00    -0.005 A 
ATOM      6  C5  UNL d   1      -1.717  -0.187  -1.911  0.00  0.00     0.003 A 
ATOM      7  C6  UNL d   1      -0.722   0.557  -1.274  0.00  0.00    -0.001 A 
ENDROOT
TORSDOF 0
ENDMDL
