MODEL 1
REMARK minimizedAffinity -4.52074146
REMARK minimizedRMSD -1
REMARK  0 active torsions:
REMARK  status: ('A' for Active; 'I' for Inactive)
ROOT
ATOM      1  C   UNL d   1      -2.307  -1.441  -2.516  0.00  0.00     0.078 C 
ATOM      2  C1  UNL d   1      -1.722  -0.661  -1.376  0.00  0.00    -0.077 A 
ATOM      3  C2  UNL d   1      -0.345  -0.418  -1.300  0.00  0.00    -0.001 A 
ATOM      4  C3  UNL d   1       0.187   0.300  -0.228  0.00  0.00     0.003 A 
ATOM      5  C4  UNL d   1      -0.651   0.781   0.776  0.00  0.00    -0.005 A 
ATOM      6  C5  UNL d   1      -2.022   0.543   0.710  0.00  0.00     0.003 A 
ATOM      7  C6  UNL d   1      -2.556  -0.176  -0.361  0.00  0.00    -0.001 A 
ENDROOT
TORSDOF 0
ENDMDL
