MODEL 1
REMARK minimizedAffinity -4.99037027
REMARK minimizedRMSD -1
REMARK  0 active torsions:
REMARK  status: ('A' for Active; 'I' for Inactive)
ROOT
ATOM      1  C   UNL d   1      -3.294  -0.728  -0.024  0.00  0.00     0.078 C 
ATOM      2  C1  UNL d   1      -1.841  -0.374  -0.139  0.00  0.00    -0.077 A 
ATOM      3  C2  UNL d   1      -0.892  -0.936   0.723  0.00  0.00    -0.001 A 
ATOM      4  C3  UNL d   1       0.456  -0.591   0.611  0.00  0.00     0.003 A 
ATOM      5  C4  UNL d   1       0.866   0.319  -0.362  0.00  0.00    -0.005 A 
ATOM      6  C5  UNL d   1      -0.072   0.885  -1.223  0.00  0.00     0.003 A 
ATOM      7  C6  UNL d   1      -1.420   0.540  -1.112  0.00  0.00    -0.001 A 
ENDROOT
TORSDOF 0
ENDMDL
