MODEL 1
REMARK minimizedAffinity -1.22975838
REMARK minimizedRMSD -1
REMARK  0 active torsions:
REMARK  status: ('A' for Active; 'I' for Inactive)
ROOT
ATOM      1  C   UNL d   1       0.367   0.003  -1.121  0.00  0.00     0.078 C 
ATOM      2  C1  UNL d   1      -0.392  -0.386   0.112  0.00  0.00    -0.077 A 
ATOM      3  C2  UNL d   1       0.192  -1.199   1.092  0.00  0.00    -0.001 A 
ATOM      4  C3  UNL d   1      -0.530  -1.561   2.230  0.00  0.00     0.003 A 
ATOM      5  C4  UNL d   1      -1.840  -1.116   2.400  0.00  0.00    -0.005 A 
ATOM      6  C5  UNL d   1      -2.429  -0.308   1.429  0.00  0.00     0.003 A 
ATOM      7  C6  UNL d   1      -1.709   0.055   0.290  0.00  0.00    -0.001 A 
ENDROOT
TORSDOF 0
ENDMDL
