MODEL 1
REMARK minimizedAffinity -4.80021286
REMARK minimizedRMSD -1
REMARK  0 active torsions:
REMARK  status: ('A' for Active; 'I' for Inactive)
ROOT
ATOM      1  C   UNL d   1      -3.314  -0.587  -0.687  0.00  0.00     0.078 C 
ATOM      2  C1  UNL d   1      -1.980   0.040  -0.414  0.00  0.00    -0.077 A 
ATOM      3  C2  UNL d   1      -0.962  -0.680   0.224  0.00  0.00    -0.001 A 
ATOM      4  C3  UNL d   1       0.272  -0.080   0.480  0.00  0.00     0.003 A 
ATOM      5  C4  UNL d   1       0.499   1.242   0.104  0.00  0.00    -0.005 A 
ATOM      6  C5  UNL d   1      -0.508   1.967  -0.529  0.00  0.00     0.003 A 
ATOM      7  C6  UNL d   1      -1.743   1.369  -0.787  0.00  0.00    -0.001 A 
ENDROOT
TORSDOF 0
ENDMDL
