MODEL 1
REMARK minimizedAffinity -5.22722006
REMARK minimizedRMSD -1
REMARK  0 active torsions:
REMARK  status: ('A' for Active; 'I' for Inactive)
ROOT
ATOM      1  C   UNL d   1       1.065   0.020   0.735  0.00  0.00     0.078 C 
ATOM      2  C1  UNL d   1      -0.144   0.002  -0.152  0.00  0.00    -0.077 A 
ATOM      3  C2  UNL d   1      -1.352  -0.555   0.287  0.00  0.00    -0.001 A 
ATOM      4  C3  UNL d   1      -2.467  -0.573  -0.553  0.00  0.00     0.003 A 
ATOM      5  C4  UNL d   1      -2.385  -0.038  -1.836  0.00  0.00    -0.005 A 
ATOM      6  C5  UNL d   1      -1.187   0.517  -2.282  0.00  0.00     0.003 A 
ATOM      7  C6  UNL d   1      -0.071   0.536  -1.444  0.00  0.00    -0.001 A 
ENDROOT
TORSDOF 0
ENDMDL
