MODEL 1
REMARK minimizedAffinity -4.89249611
REMARK minimizedRMSD -1
REMARK  0 active torsions:
REMARK  status: ('A' for Active; 'I' for Inactive)
ROOT
ATOM      1  C   UNL d   1       1.540   0.438   0.380  0.00  0.00     0.078 C 
ATOM      2  C1  UNL d   1       0.217  -0.005  -0.169  0.00  0.00    -0.077 A 
ATOM      3  C2  UNL d   1      -0.052   0.058  -1.542  0.00  0.00    -0.001 A 
ATOM      4  C3  UNL d   1      -1.292  -0.349  -2.038  0.00  0.00     0.003 A 
ATOM      5  C4  UNL d   1      -2.273  -0.819  -1.168  0.00  0.00    -0.005 A 
ATOM      6  C5  UNL d   1      -2.016  -0.883   0.200  0.00  0.00     0.003 A 
ATOM      7  C6  UNL d   1      -0.777  -0.477   0.698  0.00  0.00    -0.001 A 
ENDROOT
TORSDOF 0
ENDMDL
