MODEL 1
REMARK minimizedAffinity -2.7242806
REMARK minimizedRMSD -1
REMARK  0 active torsions:
REMARK  status: ('A' for Active; 'I' for Inactive)
ROOT
ATOM      1  C   UNL d   1       0.819   1.035   0.389  0.00  0.00     0.078 C 
ATOM      2  C1  UNL d   1      -0.330   0.315  -0.252  0.00  0.00    -0.077 A 
ATOM      3  C2  UNL d   1      -1.141   0.950  -1.199  0.00  0.00    -0.001 A 
ATOM      4  C3  UNL d   1      -2.213   0.271  -1.780  0.00  0.00     0.003 A 
ATOM      5  C4  UNL d   1      -2.484  -1.047  -1.419  0.00  0.00    -0.005 A 
ATOM      6  C5  UNL d   1      -1.684  -1.687  -0.475  0.00  0.00     0.003 A 
ATOM      7  C6  UNL d   1      -0.611  -1.009   0.107  0.00  0.00    -0.001 A 
ENDROOT
TORSDOF 0
ENDMDL
