MODEL 1
REMARK minimizedAffinity -2.3206439
REMARK minimizedRMSD -1
REMARK  0 active torsions:
REMARK  status: ('A' for Active; 'I' for Inactive)
ROOT
ATOM      1  C   UNL d   1       0.537   0.579   0.667  0.00  0.00     0.078 C 
ATOM      2  C1  UNL d   1      -0.572  -0.073  -0.104  0.00  0.00    -0.077 A 
ATOM      3  C2  UNL d   1      -1.186  -1.241   0.365  0.00  0.00    -0.001 A 
ATOM      4  C3  UNL d   1      -2.210  -1.843  -0.368  0.00  0.00     0.003 A 
ATOM      5  C4  UNL d   1      -2.629  -1.285  -1.574  0.00  0.00    -0.005 A 
ATOM      6  C5  UNL d   1      -2.022  -0.124  -2.050  0.00  0.00     0.003 A 
ATOM      7  C6  UNL d   1      -0.998   0.479  -1.318  0.00  0.00    -0.001 A 
ENDROOT
TORSDOF 0
ENDMDL
