MODEL 1
REMARK minimizedAffinity -5.40347385
REMARK minimizedRMSD -1
REMARK  0 active torsions:
REMARK  status: ('A' for Active; 'I' for Inactive)
ROOT
ATOM      1  C   UNL d   1       0.729   1.156   0.400  0.00  0.00     0.078 C 
ATOM      2  C1  UNL d   1      -0.558   0.526  -0.043  0.00  0.00    -0.077 A 
ATOM      3  C2  UNL d   1      -0.679  -0.048  -1.315  0.00  0.00    -0.001 A 
ATOM      4  C3  UNL d   1      -1.886  -0.622  -1.718  0.00  0.00     0.003 A 
ATOM      5  C4  UNL d   1      -2.981  -0.627  -0.856  0.00  0.00    -0.005 A 
ATOM      6  C5  UNL d   1      -2.870  -0.056   0.410  0.00  0.00     0.003 A 
ATOM      7  C6  UNL d   1      -1.664   0.519   0.815  0.00  0.00    -0.001 A 
ENDROOT
TORSDOF 0
ENDMDL
