MODEL 1
REMARK minimizedAffinity -5.1312809
REMARK minimizedRMSD -1
REMARK  0 active torsions:
REMARK  status: ('A' for Active; 'I' for Inactive)
ROOT
ATOM      1  C   UNL d   1       2.423   3.545   1.146  0.00  0.00     0.078 C 
ATOM      2  C1  UNL d   1       1.756   2.216   1.336  0.00  0.00    -0.077 A 
ATOM      3  C2  UNL d   1       0.860   2.002   2.390  0.00  0.00    -0.001 A 
ATOM      4  C3  UNL d   1       0.254   0.756   2.561  0.00  0.00     0.003 A 
ATOM      5  C4  UNL d   1       0.539  -0.286   1.681  0.00  0.00    -0.005 A 
ATOM      6  C5  UNL d   1       1.431  -0.084   0.630  0.00  0.00     0.003 A 
ATOM      7  C6  UNL d   1       2.038   1.161   0.458  0.00  0.00    -0.001 A 
ENDROOT
TORSDOF 0
ENDMDL
