MODEL 1
REMARK minimizedAffinity -2.46784854
REMARK minimizedRMSD -1
REMARK  0 active torsions:
REMARK  status: ('A' for Active; 'I' for Inactive)
ROOT
ATOM      1  C   UNL d   1      -0.213   0.068   0.278  0.00  0.00     0.078 C 
ATOM      2  C1  UNL d   1      -1.153  -0.225  -0.854  0.00  0.00    -0.077 A 
ATOM      3  C2  UNL d   1      -1.451   0.749  -1.814  0.00  0.00    -0.001 A 
ATOM      4  C3  UNL d   1      -2.335   0.465  -2.857  0.00  0.00     0.003 A 
ATOM      5  C4  UNL d   1      -2.929  -0.792  -2.948  0.00  0.00    -0.005 A 
ATOM      6  C5  UNL d   1      -2.640  -1.767  -1.995  0.00  0.00     0.003 A 
ATOM      7  C6  UNL d   1      -1.756  -1.485  -0.952  0.00  0.00    -0.001 A 
ENDROOT
TORSDOF 0
ENDMDL
