MODEL 1
REMARK minimizedAffinity 6.4092145
REMARK minimizedRMSD -1
REMARK  3 active torsions:
REMARK  status: ('A' for Active; 'I' for Inactive)
REMARK    1  A    between atoms: C3'_2  and  C2'_3 
REMARK    2  A    between atoms: C2'_3  and  C1'_4 
REMARK    3  A    between atoms: C1'_4  and  C1_5 
ROOT
ATOM      1  C1  N4B d   1      -0.943   1.649   0.164  0.00  0.00    -0.075 A 
ATOM      2  C2  N4B d   1      -2.191   2.304   0.247  0.00  0.00     0.002 A 
ATOM      3  C3  N4B d   1      -2.741   2.580   1.475  0.00  0.00     0.002 A 
ATOM      4  C4  N4B d   1      -2.074   2.194   2.628  0.00  0.00    -0.004 A 
ATOM      5  C5  N4B d   1      -0.857   1.584   2.539  0.00  0.00     0.002 A 
ATOM      6  C6  N4B d   1      -0.290   1.304   1.312  0.00  0.00     0.002 A 
ENDROOT
BRANCH   1   7
ATOM      7  C1' N4B d   1      -0.342   1.250  -1.156  0.00  0.00     0.057 C 
BRANCH   7   8
ATOM      8  C2' N4B d   1       0.661   0.123  -0.929  0.00  0.00     0.009 C 
BRANCH   8   9
ATOM      9  C3' N4B d   1       0.377  -1.078  -1.815  0.00  0.00     0.004 C 
ATOM     10  C4' N4B d   1      -0.930  -0.967  -2.542  0.00  0.00     0.003 C 
ENDBRANCH   8   9
ENDBRANCH   7   8
ENDBRANCH   1   7
TORSDOF 3
ENDMDL
