MODEL 1
REMARK minimizedAffinity 6.03290176
REMARK minimizedRMSD -1
REMARK  3 active torsions:
REMARK  status: ('A' for Active; 'I' for Inactive)
REMARK    1  A    between atoms: C3'_2  and  C2'_3 
REMARK    2  A    between atoms: C2'_3  and  C1'_4 
REMARK    3  A    between atoms: C1'_4  and  C1_5 
ROOT
ATOM      1  C1  N4B d   1      -0.872   1.866   0.030  0.00  0.00    -0.075 A 
ATOM      2  C2  N4B d   1      -2.127   2.493  -0.131  0.00  0.00     0.002 A 
ATOM      3  C3  N4B d   1      -2.905   2.764   0.968  0.00  0.00     0.002 A 
ATOM      4  C4  N4B d   1      -2.459   2.402   2.230  0.00  0.00    -0.004 A 
ATOM      5  C5  N4B d   1      -1.234   1.820   2.379  0.00  0.00     0.002 A 
ATOM      6  C6  N4B d   1      -0.440   1.545   1.284  0.00  0.00     0.002 A 
ENDROOT
BRANCH   1   7
ATOM      7  C1' N4B d   1      -0.025   1.472  -1.149  0.00  0.00     0.057 C 
BRANCH   7   8
ATOM      8  C2' N4B d   1       0.309  -0.014  -1.051  0.00  0.00     0.009 C 
BRANCH   8   9
ATOM      9  C3' N4B d   1      -0.244  -0.799  -2.228  0.00  0.00     0.004 C 
ATOM     10  C4' N4B d   1      -1.742  -0.774  -2.290  0.00  0.00     0.003 C 
ENDBRANCH   8   9
ENDBRANCH   7   8
ENDBRANCH   1   7
TORSDOF 3
ENDMDL
