MODEL 1
REMARK minimizedAffinity 10.4837255
REMARK minimizedRMSD -1
REMARK  3 active torsions:
REMARK  status: ('A' for Active; 'I' for Inactive)
REMARK    1  A    between atoms: C3'_2  and  C2'_3 
REMARK    2  A    between atoms: C2'_3  and  C1'_4 
REMARK    3  A    between atoms: C1'_4  and  C1_5 
ROOT
ATOM      1  C1  N4B d   1       3.829  -3.851  -4.191  0.00  0.00    -0.075 A 
ATOM      2  C2  N4B d   1       3.337  -4.777  -3.245  0.00  0.00     0.002 A 
ATOM      3  C3  N4B d   1       4.135  -5.185  -2.204  0.00  0.00     0.002 A 
ATOM      4  C4  N4B d   1       5.429  -4.697  -2.100  0.00  0.00    -0.004 A 
ATOM      5  C5  N4B d   1       5.888  -3.783  -3.003  0.00  0.00     0.002 A 
ATOM      6  C6  N4B d   1       5.095  -3.362  -4.052  0.00  0.00     0.002 A 
ENDROOT
BRANCH   1   7
ATOM      7  C1' N4B d   1       3.024  -3.441  -5.394  0.00  0.00     0.057 C 
BRANCH   7   8
ATOM      8  C2' N4B d   1       2.852  -1.925  -5.388  0.00  0.00     0.009 C 
BRANCH   8   9
ATOM      9  C3' N4B d   1       1.389  -1.520  -5.337  0.00  0.00     0.004 C 
ATOM     10  C4' N4B d   1       0.930  -1.175  -3.952  0.00  0.00     0.003 C 
ENDBRANCH   8   9
ENDBRANCH   7   8
ENDBRANCH   1   7
TORSDOF 3
ENDMDL
