MODEL 1
REMARK minimizedAffinity 10.3203783
REMARK minimizedRMSD -1
REMARK  3 active torsions:
REMARK  status: ('A' for Active; 'I' for Inactive)
REMARK    1  A    between atoms: C3'_2  and  C2'_3 
REMARK    2  A    between atoms: C2'_3  and  C1'_4 
REMARK    3  A    between atoms: C1'_4  and  C1_5 
ROOT
ATOM      1  C1  N4B d   1      -1.004   0.520   2.738  0.00  0.00    -0.075 A 
ATOM      2  C2  N4B d   1      -2.210  -0.001   3.257  0.00  0.00     0.002 A 
ATOM      3  C3  N4B d   1      -2.230  -1.253   3.820  0.00  0.00     0.002 A 
ATOM      4  C4  N4B d   1      -1.067  -2.007   3.860  0.00  0.00    -0.004 A 
ATOM      5  C5  N4B d   1       0.099  -1.486   3.380  0.00  0.00     0.002 A 
ATOM      6  C6  N4B d   1       0.136  -0.227   2.814  0.00  0.00     0.002 A 
ENDROOT
BRANCH   1   7
ATOM      7  C1' N4B d   1      -0.950   1.849   2.035  0.00  0.00     0.057 C 
BRANCH   7   8
ATOM      8  C2' N4B d   1       0.238   1.861   1.078  0.00  0.00     0.009 C 
BRANCH   8   9
ATOM      9  C3' N4B d   1      -0.171   1.499  -0.340  0.00  0.00     0.004 C 
ATOM     10  C4' N4B d   1       0.924   0.816  -1.103  0.00  0.00     0.003 C 
ENDBRANCH   8   9
ENDBRANCH   7   8
ENDBRANCH   1   7
TORSDOF 3
ENDMDL
