MODEL 1
REMARK minimizedAffinity 5.44981861
REMARK minimizedRMSD -1
REMARK  3 active torsions:
REMARK  status: ('A' for Active; 'I' for Inactive)
REMARK    1  A    between atoms: C3'_2  and  C2'_3 
REMARK    2  A    between atoms: C2'_3  and  C1'_4 
REMARK    3  A    between atoms: C1'_4  and  C1_5 
ROOT
ATOM      1  C1  N4B d   1      -0.942   1.983   2.224  0.00  0.00    -0.075 A 
ATOM      2  C2  N4B d   1      -0.840   0.587   2.413  0.00  0.00     0.002 A 
ATOM      3  C3  N4B d   1      -0.067   0.087   3.432  0.00  0.00     0.002 A 
ATOM      4  C4  N4B d   1       0.625   0.958   4.259  0.00  0.00    -0.004 A 
ATOM      5  C5  N4B d   1       0.501   2.306   4.086  0.00  0.00     0.002 A 
ATOM      6  C6  N4B d   1      -0.276   2.823   3.068  0.00  0.00     0.002 A 
ENDROOT
BRANCH   1   7
ATOM      7  C1' N4B d   1      -1.706   2.574   1.071  0.00  0.00     0.057 C 
BRANCH   7   8
ATOM      8  C2' N4B d   1      -1.397   1.780  -0.195  0.00  0.00     0.009 C 
BRANCH   8   9
ATOM      9  C3' N4B d   1      -0.348   2.465  -1.054  0.00  0.00     0.004 C 
ATOM     10  C4' N4B d   1       0.427   1.501  -1.902  0.00  0.00     0.003 C 
ENDBRANCH   8   9
ENDBRANCH   7   8
ENDBRANCH   1   7
TORSDOF 3
ENDMDL
