MODEL 1
REMARK minimizedAffinity 8.36390495
REMARK minimizedRMSD -1
REMARK  3 active torsions:
REMARK  status: ('A' for Active; 'I' for Inactive)
REMARK    1  A    between atoms: C3'_2  and  C2'_3 
REMARK    2  A    between atoms: C2'_3  and  C1'_4 
REMARK    3  A    between atoms: C1'_4  and  C1_5 
ROOT
ATOM      1  C1  N4B d   1      -1.791   0.861   2.377  0.00  0.00    -0.075 A 
ATOM      2  C2  N4B d   1      -0.531   1.399   2.034  0.00  0.00     0.002 A 
ATOM      3  C3  N4B d   1      -0.436   2.347   1.044  0.00  0.00     0.002 A 
ATOM      4  C4  N4B d   1      -1.579   2.757   0.375  0.00  0.00    -0.004 A 
ATOM      5  C5  N4B d   1      -2.795   2.251   0.731  0.00  0.00     0.002 A 
ATOM      6  C6  N4B d   1      -2.906   1.301   1.726  0.00  0.00     0.002 A 
ENDROOT
BRANCH   1   7
ATOM      7  C1' N4B d   1      -1.934  -0.240   3.393  0.00  0.00     0.057 C 
BRANCH   7   8
ATOM      8  C2' N4B d   1      -0.949  -1.357   3.062  0.00  0.00     0.009 C 
BRANCH   8   9
ATOM      9  C3' N4B d   1      -1.266  -2.636   3.819  0.00  0.00     0.004 C 
ATOM     10  C4' N4B d   1      -2.559  -2.559   4.573  0.00  0.00     0.003 C 
ENDBRANCH   8   9
ENDBRANCH   7   8
ENDBRANCH   1   7
TORSDOF 3
ENDMDL
