MODEL 1
REMARK minimizedAffinity 2.18848777
REMARK minimizedRMSD -1
REMARK  3 active torsions:
REMARK  status: ('A' for Active; 'I' for Inactive)
REMARK    1  A    between atoms: C3'_2  and  C2'_3 
REMARK    2  A    between atoms: C2'_3  and  C1'_4 
REMARK    3  A    between atoms: C1'_4  and  C1_5 
ROOT
ATOM      1  C1  N4B d   1       5.002  -2.748  -1.224  0.00  0.00    -0.075 A 
ATOM      2  C2  N4B d   1       3.872  -1.985  -0.857  0.00  0.00     0.002 A 
ATOM      3  C3  N4B d   1       3.779  -1.460   0.409  0.00  0.00     0.002 A 
ATOM      4  C4  N4B d   1       4.791  -1.699   1.326  0.00  0.00    -0.004 A 
ATOM      5  C5  N4B d   1       5.891  -2.415   0.956  0.00  0.00     0.002 A 
ATOM      6  C6  N4B d   1       6.000  -2.946  -0.314  0.00  0.00     0.002 A 
ENDROOT
BRANCH   1   7
ATOM      7  C1' N4B d   1       5.109  -3.414  -2.568  0.00  0.00     0.057 C 
BRANCH   7   8
ATOM      8  C2' N4B d   1       3.708  -3.624  -3.135  0.00  0.00     0.009 C 
BRANCH   8   9
ATOM      9  C3' N4B d   1       3.556  -4.990  -3.782  0.00  0.00     0.004 C 
ATOM     10  C4' N4B d   1       2.922  -5.998  -2.870  0.00  0.00     0.003 C 
ENDBRANCH   8   9
ENDBRANCH   7   8
ENDBRANCH   1   7
TORSDOF 3
ENDMDL
