MODEL 1
REMARK minimizedAffinity 6.70223618
REMARK minimizedRMSD -1
REMARK  3 active torsions:
REMARK  status: ('A' for Active; 'I' for Inactive)
REMARK    1  A    between atoms: C3'_2  and  C2'_3 
REMARK    2  A    between atoms: C2'_3  and  C1'_4 
REMARK    3  A    between atoms: C1'_4  and  C1_5 
ROOT
ATOM      1  C1  N4B d   1       3.064  -1.306  -0.351  0.00  0.00    -0.075 A 
ATOM      2  C2  N4B d   1       3.051  -2.498  -1.109  0.00  0.00     0.002 A 
ATOM      3  C3  N4B d   1       4.233  -3.062  -1.521  0.00  0.00     0.002 A 
ATOM      4  C4  N4B d   1       5.434  -2.445  -1.205  0.00  0.00    -0.004 A 
ATOM      5  C5  N4B d   1       5.439  -1.308  -0.451  0.00  0.00     0.002 A 
ATOM      6  C6  N4B d   1       4.259  -0.732  -0.026  0.00  0.00     0.002 A 
ENDROOT
BRANCH   1   7
ATOM      7  C1' N4B d   1       1.794  -0.606   0.050  0.00  0.00     0.057 C 
BRANCH   7   8
ATOM      8  C2' N4B d   1       1.589   0.611  -0.848  0.00  0.00     0.009 C 
BRANCH   8   9
ATOM      9  C3' N4B d   1       0.473   1.509  -0.341  0.00  0.00     0.004 C 
ATOM     10  C4' N4B d   1      -0.588   1.754  -1.372  0.00  0.00     0.003 C 
ENDBRANCH   8   9
ENDBRANCH   7   8
ENDBRANCH   1   7
TORSDOF 3
ENDMDL
