MODEL 1
REMARK minimizedAffinity 4.44406223
REMARK minimizedRMSD -1
REMARK  3 active torsions:
REMARK  status: ('A' for Active; 'I' for Inactive)
REMARK    1  A    between atoms: C3'_2  and  C2'_3 
REMARK    2  A    between atoms: C2'_3  and  C1'_4 
REMARK    3  A    between atoms: C1'_4  and  C1_5 
ROOT
ATOM      1  C1  N4B d   1       0.094   1.420  -1.914  0.00  0.00    -0.075 A 
ATOM      2  C2  N4B d   1      -0.739   0.285  -2.017  0.00  0.00     0.002 A 
ATOM      3  C3  N4B d   1      -0.615  -0.563  -3.090  0.00  0.00     0.002 A 
ATOM      4  C4  N4B d   1       0.319  -0.287  -4.078  0.00  0.00    -0.004 A 
ATOM      5  C5  N4B d   1       1.137   0.798  -3.959  0.00  0.00     0.002 A 
ATOM      6  C6  N4B d   1       1.026   1.657  -2.883  0.00  0.00     0.002 A 
ENDROOT
BRANCH   1   7
ATOM      7  C1' N4B d   1      -0.063   2.423  -0.804  0.00  0.00     0.057 C 
BRANCH   7   8
ATOM      8  C2' N4B d   1      -0.189   1.683   0.525  0.00  0.00     0.009 C 
BRANCH   8   9
ATOM      9  C3' N4B d   1      -1.045   2.446   1.521  0.00  0.00     0.004 C 
ATOM     10  C4' N4B d   1      -1.479   1.600   2.681  0.00  0.00     0.003 C 
ENDBRANCH   8   9
ENDBRANCH   7   8
ENDBRANCH   1   7
TORSDOF 3
ENDMDL
