MODEL 1
REMARK minimizedAffinity 9.60681343
REMARK minimizedRMSD -1
REMARK  3 active torsions:
REMARK  status: ('A' for Active; 'I' for Inactive)
REMARK    1  A    between atoms: C3'_2  and  C2'_3 
REMARK    2  A    between atoms: C2'_3  and  C1'_4 
REMARK    3  A    between atoms: C1'_4  and  C1_5 
ROOT
ATOM      1  C1  N4B d   1      -0.903   3.370  -1.665  0.00  0.00    -0.075 A 
ATOM      2  C2  N4B d   1      -1.607   2.504  -0.799  0.00  0.00     0.002 A 
ATOM      3  C3  N4B d   1      -1.127   2.256   0.463  0.00  0.00     0.002 A 
ATOM      4  C4  N4B d   1       0.060   2.845   0.874  0.00  0.00    -0.004 A 
ATOM      5  C5  N4B d   1       0.720   3.700   0.041  0.00  0.00     0.002 A 
ATOM      6  C6  N4B d   1       0.247   3.961  -1.229  0.00  0.00     0.002 A 
ENDROOT
BRANCH   1   7
ATOM      7  C1' N4B d   1      -1.343   3.604  -3.084  0.00  0.00     0.057 C 
BRANCH   7   8
ATOM      8  C2' N4B d   1      -2.145   4.901  -3.152  0.00  0.00     0.009 C 
BRANCH   8   9
ATOM      9  C3' N4B d   1      -2.060   5.550  -4.523  0.00  0.00     0.004 C 
ATOM     10  C4' N4B d   1      -3.395   5.999  -5.037  0.00  0.00     0.003 C 
ENDBRANCH   8   9
ENDBRANCH   7   8
ENDBRANCH   1   7
TORSDOF 3
ENDMDL
