MODEL 1
REMARK minimizedAffinity -4.31426716
REMARK minimizedRMSD -1
REMARK  0 active torsions:
REMARK  status: ('A' for Active; 'I' for Inactive)
ROOT
ATOM      1  C   UNL d   1      -2.249   0.724  -0.863  0.00  0.00     0.077 C 
ATOM      2  C1  UNL d   1      -1.232  -0.032  -0.060  0.00  0.00    -0.074 A 
ATOM      3  C2  UNL d   1      -1.576  -1.212   0.608  0.00  0.00    -0.005 A 
ATOM      4  C3  UNL d   1      -0.617  -1.909   1.343  0.00  0.00     0.006 A 
ATOM      5  C4  UNL d   1       0.693  -1.434   1.418  0.00  0.00    -0.005 A 
ATOM      6  C5  UNL d   1       1.055  -0.256   0.756  0.00  0.00    -0.074 A 
ATOM      7  C6  UNL d   1       2.461   0.263   0.818  0.00  0.00     0.077 C 
ATOM      8  C7  UNL d   1       0.088   0.435   0.014  0.00  0.00    -0.001 A 
ENDROOT
TORSDOF 0
ENDMDL
