MODEL 1
REMARK minimizedAffinity -1.46527362
REMARK minimizedRMSD -1
REMARK  0 active torsions:
REMARK  status: ('A' for Active; 'I' for Inactive)
ROOT
ATOM      1  C   UNL d   1      -1.828  -0.045  -4.439  0.00  0.00     0.077 C 
ATOM      2  C1  UNL d   1      -1.667   0.005  -2.949  0.00  0.00    -0.074 A 
ATOM      3  C2  UNL d   1      -2.762   0.262  -2.116  0.00  0.00    -0.005 A 
ATOM      4  C3  UNL d   1      -2.599   0.296  -0.731  0.00  0.00     0.006 A 
ATOM      5  C4  UNL d   1      -1.343   0.075  -0.166  0.00  0.00    -0.005 A 
ATOM      6  C5  UNL d   1      -0.237  -0.183  -0.982  0.00  0.00    -0.074 A 
ATOM      7  C6  UNL d   1       1.118  -0.433  -0.390  0.00  0.00     0.077 C 
ATOM      8  C7  UNL d   1      -0.410  -0.223  -2.373  0.00  0.00    -0.001 A 
ENDROOT
TORSDOF 0
ENDMDL
