MODEL 1
REMARK minimizedAffinity -3.86043549
REMARK minimizedRMSD -1
REMARK  0 active torsions:
REMARK  status: ('A' for Active; 'I' for Inactive)
ROOT
ATOM      1  C   UNL d   1       3.164  -0.658   0.451  0.00  0.00     0.077 C 
ATOM      2  C1  UNL d   1       1.787  -0.103   0.238  0.00  0.00    -0.074 A 
ATOM      3  C2  UNL d   1       1.535   1.266   0.370  0.00  0.00    -0.005 A 
ATOM      4  C3  UNL d   1       0.251   1.769   0.159  0.00  0.00     0.006 A 
ATOM      5  C4  UNL d   1      -0.792   0.909  -0.186  0.00  0.00    -0.005 A 
ATOM      6  C5  UNL d   1      -0.559  -0.463  -0.323  0.00  0.00    -0.074 A 
ATOM      7  C6  UNL d   1      -1.667  -1.400  -0.703  0.00  0.00     0.077 C 
ATOM      8  C7  UNL d   1       0.735  -0.960  -0.117  0.00  0.00    -0.001 A 
ENDROOT
TORSDOF 0
ENDMDL
