MODEL 1
REMARK minimizedAffinity -4.1410718
REMARK minimizedRMSD -1
REMARK  0 active torsions:
REMARK  status: ('A' for Active; 'I' for Inactive)
ROOT
ATOM      1  C   UNL d   1       1.112   1.116   0.537  0.00  0.00     0.077 C 
ATOM      2  C1  UNL d   1      -0.064   0.275   0.137  0.00  0.00    -0.074 A 
ATOM      3  C2  UNL d   1      -0.441  -0.839   0.895  0.00  0.00    -0.005 A 
ATOM      4  C3  UNL d   1      -1.543  -1.606   0.517  0.00  0.00     0.006 A 
ATOM      5  C4  UNL d   1      -2.277  -1.269  -0.621  0.00  0.00    -0.005 A 
ATOM      6  C5  UNL d   1      -1.915  -0.158  -1.390  0.00  0.00    -0.074 A 
ATOM      7  C6  UNL d   1      -2.699   0.224  -2.611  0.00  0.00     0.077 C 
ATOM      8  C7  UNL d   1      -0.811   0.612  -1.000  0.00  0.00    -0.001 A 
ENDROOT
TORSDOF 0
ENDMDL
