MODEL 1
REMARK minimizedAffinity -1.68635237
REMARK minimizedRMSD -1
REMARK  0 active torsions:
REMARK  status: ('A' for Active; 'I' for Inactive)
ROOT
ATOM      1  C   UNL d   1       3.322  -0.511   1.218  0.00  0.00     0.077 C 
ATOM      2  C1  UNL d   1       2.128   0.206   0.661  0.00  0.00    -0.074 A 
ATOM      3  C2  UNL d   1       2.190   1.567   0.345  0.00  0.00    -0.005 A 
ATOM      4  C3  UNL d   1       1.074   2.219  -0.180  0.00  0.00     0.006 A 
ATOM      5  C4  UNL d   1      -0.113   1.517  -0.394  0.00  0.00    -0.005 A 
ATOM      6  C5  UNL d   1      -0.194   0.156  -0.085  0.00  0.00    -0.074 A 
ATOM      7  C6  UNL d   1      -1.459  -0.615  -0.319  0.00  0.00     0.077 C 
ATOM      8  C7  UNL d   1       0.934  -0.494   0.436  0.00  0.00    -0.001 A 
ENDROOT
TORSDOF 0
ENDMDL
