MODEL 1
REMARK minimizedAffinity -4.65172625
REMARK minimizedRMSD -1
REMARK  0 active torsions:
REMARK  status: ('A' for Active; 'I' for Inactive)
ROOT
ATOM      1  C   UNL d   1      -1.479   0.142  -0.370  0.00  0.00     0.077 C 
ATOM      2  C1  UNL d   1      -0.078  -0.048   0.129  0.00  0.00    -0.074 A 
ATOM      3  C2  UNL d   1       0.881   0.959  -0.021  0.00  0.00    -0.005 A 
ATOM      4  C3  UNL d   1       2.178   0.772   0.456  0.00  0.00     0.006 A 
ATOM      5  C4  UNL d   1       2.529  -0.422   1.087  0.00  0.00    -0.005 A 
ATOM      6  C5  UNL d   1       1.584  -1.440   1.247  0.00  0.00    -0.074 A 
ATOM      7  C6  UNL d   1       1.941  -2.726   1.932  0.00  0.00     0.077 C 
ATOM      8  C7  UNL d   1       0.280  -1.242   0.771  0.00  0.00    -0.001 A 
ENDROOT
TORSDOF 0
ENDMDL
