MODEL 1
REMARK minimizedAffinity -5.7647953
REMARK minimizedRMSD -1
REMARK  0 active torsions:
REMARK  status: ('A' for Active; 'I' for Inactive)
ROOT
ATOM      1  C   UNL d   1       1.587  -2.027   2.798  0.00  0.00     0.077 C 
ATOM      2  C1  UNL d   1       1.391  -0.985   1.738  0.00  0.00    -0.074 A 
ATOM      3  C2  UNL d   1       2.465  -0.214   1.281  0.00  0.00    -0.005 A 
ATOM      4  C3  UNL d   1       2.270   0.746   0.288  0.00  0.00     0.006 A 
ATOM      5  C4  UNL d   1       1.001   0.943  -0.259  0.00  0.00    -0.005 A 
ATOM      6  C5  UNL d   1      -0.084   0.181   0.184  0.00  0.00    -0.074 A 
ATOM      7  C6  UNL d   1      -1.452   0.374  -0.399  0.00  0.00     0.077 C 
ATOM      8  C7  UNL d   1       0.121  -0.786   1.178  0.00  0.00    -0.001 A 
ENDROOT
TORSDOF 0
ENDMDL
