MODEL 1
REMARK minimizedAffinity -4.79885006
REMARK minimizedRMSD -1
REMARK  0 active torsions:
REMARK  status: ('A' for Active; 'I' for Inactive)
ROOT
ATOM      1  C   UNL d   1       3.349  -0.379   0.718  0.00  0.00     0.077 C 
ATOM      2  C1  UNL d   1       1.873  -0.121   0.652  0.00  0.00    -0.074 A 
ATOM      3  C2  UNL d   1       1.377   1.113   0.219  0.00  0.00    -0.005 A 
ATOM      4  C3  UNL d   1       0.002   1.335   0.154  0.00  0.00     0.006 A 
ATOM      5  C4  UNL d   1      -0.891   0.328   0.521  0.00  0.00    -0.005 A 
ATOM      6  C5  UNL d   1      -0.414  -0.913   0.956  0.00  0.00    -0.074 A 
ATOM      7  C6  UNL d   1      -1.360  -2.010   1.345  0.00  0.00     0.077 C 
ATOM      8  C7  UNL d   1       0.969  -1.131   1.012  0.00  0.00    -0.001 A 
ENDROOT
TORSDOF 0
ENDMDL
