MODEL 1
REMARK minimizedAffinity 8.86718082
REMARK minimizedRMSD -1
REMARK  1 active torsions:
REMARK  status: ('A' for Active; 'I' for Inactive)
REMARK    1  A    between atoms: C1_2  and  C2_3 
ROOT
ATOM      1  C2  UNL d   1      -4.816   0.280  -3.988  0.00  0.00    -0.076 A 
ATOM      2  C3  UNL d   1      -4.045   1.387  -3.592  0.00  0.00     0.004 A 
ATOM      3  C4  UNL d   1      -2.959   1.233  -2.732  0.00  0.00    -0.003 A 
ATOM      4  C5  UNL d   1      -2.626  -0.030  -2.255  0.00  0.00     0.000 A 
ATOM      5  C6  UNL d   1      -3.369  -1.141  -2.652  0.00  0.00     0.000 A 
ATOM      6  C7  UNL d   1      -4.457  -1.006  -3.531  0.00  0.00    -0.073 A 
ATOM      7  C8  UNL d   1      -5.227  -2.237  -3.922  0.00  0.00     0.078 C 
ENDROOT
BRANCH   1   8
ATOM      8  C1  UNL d   1      -5.999   0.511  -4.901  0.00  0.00     0.053 C 
ATOM      9  C   UNL d   1      -5.999   1.903  -5.514  0.00  0.00     0.018 C 
ENDBRANCH   1   8
TORSDOF 1
ENDMDL
