MODEL 1
REMARK minimizedAffinity 5.49279737
REMARK minimizedRMSD -1
REMARK  1 active torsions:
REMARK  status: ('A' for Active; 'I' for Inactive)
REMARK    1  A    between atoms: C1_2  and  C2_3 
ROOT
ATOM      1  C2  UNL d   1       3.698   5.980   3.859  0.00  0.00    -0.076 A 
ATOM      2  C3  UNL d   1       3.247   5.957   5.190  0.00  0.00     0.004 A 
ATOM      3  C4  UNL d   1       1.885   5.963   5.486  0.00  0.00    -0.003 A 
ATOM      4  C5  UNL d   1       0.952   5.990   4.456  0.00  0.00     0.000 A 
ATOM      5  C6  UNL d   1       1.381   5.995   3.129  0.00  0.00     0.000 A 
ATOM      6  C7  UNL d   1       2.750   5.973   2.813  0.00  0.00    -0.073 A 
ATOM      7  C8  UNL d   1       3.157   5.986   1.365  0.00  0.00     0.078 C 
ENDROOT
BRANCH   1   8
ATOM      8  C1  UNL d   1       5.187   6.000   3.599  0.00  0.00     0.053 C 
ATOM      9  C   UNL d   1       5.522   5.916   2.117  0.00  0.00     0.018 C 
ENDBRANCH   1   8
TORSDOF 1
ENDMDL
