MODEL 1
REMARK minimizedAffinity -1.04646957
REMARK minimizedRMSD -1
REMARK  1 active torsions:
REMARK  status: ('A' for Active; 'I' for Inactive)
REMARK    1  A    between atoms: C1_2  and  C2_3 
ROOT
ATOM      1  C2  UNL d   1       0.245  -0.736   0.606  0.00  0.00    -0.076 A 
ATOM      2  C3  UNL d   1      -0.700  -0.594  -0.424  0.00  0.00     0.004 A 
ATOM      3  C4  UNL d   1      -2.051  -0.401  -0.137  0.00  0.00    -0.003 A 
ATOM      4  C5  UNL d   1      -2.477  -0.346   1.186  0.00  0.00     0.000 A 
ATOM      5  C6  UNL d   1      -1.550  -0.467   2.221  0.00  0.00     0.000 A 
ATOM      6  C7  UNL d   1      -0.183  -0.645   1.948  0.00  0.00    -0.073 A 
ATOM      7  C8  UNL d   1       0.772  -0.776   3.103  0.00  0.00     0.078 C 
ENDROOT
BRANCH   1   8
ATOM      8  C1  UNL d   1       1.692  -0.970   0.234  0.00  0.00     0.053 C 
ATOM      9  C   UNL d   1       2.176  -2.358   0.624  0.00  0.00     0.018 C 
ENDBRANCH   1   8
TORSDOF 1
ENDMDL
