MODEL 1
REMARK minimizedAffinity 6.39693546
REMARK minimizedRMSD -1
REMARK  1 active torsions:
REMARK  status: ('A' for Active; 'I' for Inactive)
REMARK    1  A    between atoms: C1_2  and  C2_3 
ROOT
ATOM      1  C2  UNL d   1       1.820  -1.719   0.321  0.00  0.00    -0.076 A 
ATOM      2  C3  UNL d   1       0.983  -2.376   1.240  0.00  0.00     0.004 A 
ATOM      3  C4  UNL d   1      -0.232  -1.816   1.630  0.00  0.00    -0.003 A 
ATOM      4  C5  UNL d   1      -0.631  -0.591   1.107  0.00  0.00     0.000 A 
ATOM      5  C6  UNL d   1       0.179   0.066   0.181  0.00  0.00     0.000 A 
ATOM      6  C7  UNL d   1       1.400  -0.492  -0.235  0.00  0.00    -0.073 A 
ATOM      7  C8  UNL d   1       2.236   0.263  -1.232  0.00  0.00     0.078 C 
ENDROOT
BRANCH   1   8
ATOM      8  C1  UNL d   1       3.140  -2.361  -0.044  0.00  0.00     0.053 C 
ATOM      9  C   UNL d   1       3.200  -3.830   0.344  0.00  0.00     0.018 C 
ENDBRANCH   1   8
TORSDOF 1
ENDMDL
