MODEL 1
REMARK minimizedAffinity 11.8191338
REMARK minimizedRMSD -1
REMARK  1 active torsions:
REMARK  status: ('A' for Active; 'I' for Inactive)
REMARK    1  A    between atoms: C1_2  and  C2_3 
ROOT
ATOM      1  C2  UNL d   1       0.991  -0.650  -0.342  0.00  0.00    -0.076 A 
ATOM      2  C3  UNL d   1      -0.301  -0.106  -0.243  0.00  0.00     0.004 A 
ATOM      3  C4  UNL d   1      -1.105  -0.362   0.867  0.00  0.00    -0.003 A 
ATOM      4  C5  UNL d   1      -0.628  -1.165   1.897  0.00  0.00     0.000 A 
ATOM      5  C6  UNL d   1       0.658  -1.699   1.823  0.00  0.00     0.000 A 
ATOM      6  C7  UNL d   1       1.487  -1.438   0.719  0.00  0.00    -0.073 A 
ATOM      7  C8  UNL d   1       2.863  -2.044   0.689  0.00  0.00     0.078 C 
ENDROOT
BRANCH   1   8
ATOM      8  C1  UNL d   1       1.806  -0.361  -1.583  0.00  0.00     0.053 C 
ATOM      9  C   UNL d   1       2.726   0.837  -1.408  0.00  0.00     0.018 C 
ENDBRANCH   1   8
TORSDOF 1
ENDMDL
