MODEL 1
REMARK minimizedAffinity 7.33775997
REMARK minimizedRMSD -1
REMARK  1 active torsions:
REMARK  status: ('A' for Active; 'I' for Inactive)
REMARK    1  A    between atoms: C1_2  and  C2_3 
ROOT
ATOM      1  C2  UNL d   1      -0.428  -1.403   1.924  0.00  0.00    -0.076 A 
ATOM      2  C3  UNL d   1       0.954  -1.620   2.061  0.00  0.00     0.004 A 
ATOM      3  C4  UNL d   1       1.854  -1.130   1.116  0.00  0.00    -0.003 A 
ATOM      4  C5  UNL d   1       1.387  -0.415   0.019  0.00  0.00     0.000 A 
ATOM      5  C6  UNL d   1       0.021  -0.175  -0.124  0.00  0.00     0.000 A 
ATOM      6  C7  UNL d   1      -0.899  -0.648   0.828  0.00  0.00    -0.073 A 
ATOM      7  C8  UNL d   1      -2.361  -0.365   0.622  0.00  0.00     0.078 C 
ENDROOT
BRANCH   1   8
ATOM      8  C1  UNL d   1      -1.358  -1.981   2.966  0.00  0.00     0.053 C 
ATOM      9  C   UNL d   1      -1.341  -3.502   2.983  0.00  0.00     0.018 C 
ENDBRANCH   1   8
TORSDOF 1
ENDMDL
