MODEL 1
REMARK minimizedAffinity -2.36756802
REMARK minimizedRMSD -1
REMARK  1 active torsions:
REMARK  status: ('A' for Active; 'I' for Inactive)
REMARK    1  A    between atoms: C1_2  and  C2_3 
ROOT
ATOM      1  C2  UNL d   1      -1.075   0.609  -2.507  0.00  0.00    -0.076 A 
ATOM      2  C3  UNL d   1      -2.435   0.953  -2.606  0.00  0.00     0.004 A 
ATOM      3  C4  UNL d   1      -2.824   2.216  -3.048  0.00  0.00    -0.003 A 
ATOM      4  C5  UNL d   1      -1.861   3.155  -3.400  0.00  0.00     0.000 A 
ATOM      5  C6  UNL d   1      -0.508   2.825  -3.324  0.00  0.00     0.000 A 
ATOM      6  C7  UNL d   1      -0.099   1.551  -2.896  0.00  0.00    -0.073 A 
ATOM      7  C8  UNL d   1       1.374   1.251  -2.828  0.00  0.00     0.078 C 
ENDROOT
BRANCH   1   8
ATOM      8  C1  UNL d   1      -0.712  -0.767  -1.995  0.00  0.00     0.053 C 
ATOM      9  C   UNL d   1      -0.620  -0.818  -0.477  0.00  0.00     0.018 C 
ENDBRANCH   1   8
TORSDOF 1
ENDMDL
