MODEL 1
REMARK minimizedAffinity -3.52042913
REMARK minimizedRMSD -1
REMARK  0 active torsions:
REMARK  status: ('A' for Active; 'I' for Inactive)
ROOT
ATOM      1  C   UNL d   1      -0.322   3.418  -4.203  0.00  0.00     0.020 A 
ATOM      2  C1  UNL d   1      -1.648   3.260  -4.603  0.00  0.00     0.020 A 
ATOM      3  C2  UNL d   1      -2.547   2.571  -3.786  0.00  0.00     0.034 A 
ATOM      4  C3  UNL d   1      -2.121   2.038  -2.564  0.00  0.00     0.017 A 
ATOM      5  C4  UNL d   1      -0.789   2.197  -2.163  0.00  0.00     0.017 A 
ATOM      6  C5  UNL d   1       0.106   2.888  -2.985  0.00  0.00     0.034 A 
ATOM      7 Cl   UNL d   1      -0.190   1.567  -0.669  0.00  0.00    -0.070 Cl
ATOM      8 Cl1  UNL d   1      -3.286   1.198  -1.604  0.00  0.00    -0.070 Cl
ENDROOT
TORSDOF 0
ENDMDL
