MODEL 1
REMARK minimizedAffinity 0.421943426
REMARK minimizedRMSD -1
REMARK  0 active torsions:
REMARK  status: ('A' for Active; 'I' for Inactive)
ROOT
ATOM      1  C   UNL d   1       2.059  -1.439   0.633  0.00  0.00     0.020 A 
ATOM      2  C1  UNL d   1       2.278  -0.586  -0.448  0.00  0.00     0.020 A 
ATOM      3  C2  UNL d   1       1.296   0.333  -0.822  0.00  0.00     0.034 A 
ATOM      4  C3  UNL d   1       0.090   0.402  -0.115  0.00  0.00     0.017 A 
ATOM      5  C4  UNL d   1      -0.128  -0.454   0.971  0.00  0.00     0.017 A 
ATOM      6  C5  UNL d   1       0.859  -1.372   1.341  0.00  0.00     0.034 A 
ATOM      7 Cl   UNL d   1      -1.590  -0.428   1.892  0.00  0.00    -0.070 Cl
ATOM      8 Cl1  UNL d   1      -1.080   1.563  -0.633  0.00  0.00    -0.070 Cl
ENDROOT
TORSDOF 0
ENDMDL
