MODEL 1
REMARK minimizedAffinity -4.73317337
REMARK minimizedRMSD -1
REMARK  0 active torsions:
REMARK  status: ('A' for Active; 'I' for Inactive)
ROOT
ATOM      1  C   UNL d   1       1.932  -1.928   1.001  0.00  0.00     0.020 A 
ATOM      2  C1  UNL d   1       1.406  -2.344   2.223  0.00  0.00     0.020 A 
ATOM      3  C2  UNL d   1       0.281  -1.708   2.752  0.00  0.00     0.034 A 
ATOM      4  C3  UNL d   1      -0.322  -0.652   2.059  0.00  0.00     0.017 A 
ATOM      5  C4  UNL d   1       0.207  -0.235   0.832  0.00  0.00     0.017 A 
ATOM      6  C5  UNL d   1       1.333  -0.875   0.307  0.00  0.00     0.034 A 
ATOM      7 Cl   UNL d   1      -0.482   1.061  -0.081  0.00  0.00    -0.070 Cl
ATOM      8 Cl1  UNL d   1      -1.710   0.088   2.772  0.00  0.00    -0.070 Cl
ENDROOT
TORSDOF 0
ENDMDL
