MODEL 1
REMARK minimizedAffinity -5.36208344
REMARK minimizedRMSD -1
REMARK  0 active torsions:
REMARK  status: ('A' for Active; 'I' for Inactive)
ROOT
ATOM      1  C   UNL d   1      -0.112   1.149  -0.225  0.00  0.00     0.020 A 
ATOM      2  C1  UNL d   1       1.081   0.540  -0.613  0.00  0.00     0.020 A 
ATOM      3  C2  UNL d   1       1.439  -0.699  -0.078  0.00  0.00     0.034 A 
ATOM      4  C3  UNL d   1       0.604  -1.333   0.849  0.00  0.00     0.017 A 
ATOM      5  C4  UNL d   1      -0.593  -0.721   1.239  0.00  0.00     0.017 A 
ATOM      6  C5  UNL d   1      -0.947   0.520   0.699  0.00  0.00     0.034 A 
ATOM      7 Cl   UNL d   1      -1.675  -1.442   2.378  0.00  0.00    -0.070 Cl
ATOM      8 Cl1  UNL d   1       1.109  -2.864   1.471  0.00  0.00    -0.070 Cl
ENDROOT
TORSDOF 0
ENDMDL
