MODEL 1
REMARK minimizedAffinity -3.93737626
REMARK minimizedRMSD -1
REMARK  0 active torsions:
REMARK  status: ('A' for Active; 'I' for Inactive)
ROOT
ATOM      1  C   UNL d   1       0.042  -2.282   2.427  0.00  0.00     0.020 A 
ATOM      2  C1  UNL d   1       1.271  -2.435   1.786  0.00  0.00     0.020 A 
ATOM      3  C2  UNL d   1       1.743  -1.436   0.933  0.00  0.00     0.034 A 
ATOM      4  C3  UNL d   1       0.986  -0.278   0.718  0.00  0.00     0.017 A 
ATOM      5  C4  UNL d   1      -0.248  -0.126   1.361  0.00  0.00     0.017 A 
ATOM      6  C5  UNL d   1      -0.716  -1.130   2.214  0.00  0.00     0.034 A 
ATOM      7 Cl   UNL d   1      -1.239   1.274   1.145  0.00  0.00    -0.070 Cl
ATOM      8 Cl1  UNL d   1       1.631   0.917  -0.349  0.00  0.00    -0.070 Cl
ENDROOT
TORSDOF 0
ENDMDL
