MODEL 1
REMARK minimizedAffinity -6.07923698
REMARK minimizedRMSD -1
REMARK  0 active torsions:
REMARK  status: ('A' for Active; 'I' for Inactive)
ROOT
ATOM      1  C   UNL d   1       1.200  -2.625   1.536  0.00  0.00     0.020 A 
ATOM      2  C1  UNL d   1       0.060  -2.239   2.241  0.00  0.00     0.020 A 
ATOM      3  C2  UNL d   1      -0.569  -1.028   1.942  0.00  0.00     0.034 A 
ATOM      4  C3  UNL d   1      -0.058  -0.199   0.937  0.00  0.00     0.017 A 
ATOM      5  C4  UNL d   1       1.086  -0.587   0.231  0.00  0.00     0.017 A 
ATOM      6  C5  UNL d   1       1.712  -1.800   0.533  0.00  0.00     0.034 A 
ATOM      7 Cl   UNL d   1       1.775   0.383  -1.023  0.00  0.00    -0.070 Cl
ATOM      8 Cl1  UNL d   1      -0.886   1.284   0.621  0.00  0.00    -0.070 Cl
ENDROOT
TORSDOF 0
ENDMDL
