MODEL 1
REMARK minimizedAffinity -2.91175079
REMARK minimizedRMSD -1
REMARK  0 active torsions:
REMARK  status: ('A' for Active; 'I' for Inactive)
ROOT
ATOM      1  C   UNL d   1      -0.274  -2.053   1.797  0.00  0.00     0.020 A 
ATOM      2  C1  UNL d   1       0.949  -2.636   1.466  0.00  0.00     0.020 A 
ATOM      3  C2  UNL d   1       1.745  -2.071   0.468  0.00  0.00     0.034 A 
ATOM      4  C3  UNL d   1       1.320  -0.919  -0.204  0.00  0.00     0.017 A 
ATOM      5  C4  UNL d   1       0.093  -0.334   0.129  0.00  0.00     0.017 A 
ATOM      6  C5  UNL d   1      -0.701  -0.904   1.129  0.00  0.00     0.034 A 
ATOM      7 Cl   UNL d   1      -0.499   1.088  -0.656  0.00  0.00    -0.070 Cl
ATOM      8 Cl1  UNL d   1       2.356  -0.274  -1.427  0.00  0.00    -0.070 Cl
ENDROOT
TORSDOF 0
ENDMDL
