MODEL 1
REMARK minimizedAffinity -4.47956371
REMARK minimizedRMSD -1
REMARK  0 active torsions:
REMARK  status: ('A' for Active; 'I' for Inactive)
ROOT
ATOM      1  C   UNL d   1      -0.359  -2.124   2.431  0.00  0.00     0.020 A 
ATOM      2  C1  UNL d   1       0.838  -2.796   2.187  0.00  0.00     0.020 A 
ATOM      3  C2  UNL d   1       1.696  -2.350   1.180  0.00  0.00     0.034 A 
ATOM      4  C3  UNL d   1       1.359  -1.229   0.413  0.00  0.00     0.017 A 
ATOM      5  C4  UNL d   1       0.157  -0.555   0.658  0.00  0.00     0.017 A 
ATOM      6  C5  UNL d   1      -0.699  -1.006   1.668  0.00  0.00     0.034 A 
ATOM      7 Cl   UNL d   1      -0.327   0.836  -0.247  0.00  0.00    -0.070 Cl
ATOM      8 Cl1  UNL d   1       2.468  -0.733  -0.816  0.00  0.00    -0.070 Cl
ENDROOT
TORSDOF 0
ENDMDL
