MODEL 1
REMARK minimizedAffinity -3.56972146
REMARK minimizedRMSD -1
REMARK  0 active torsions:
REMARK  status: ('A' for Active; 'I' for Inactive)
ROOT
ATOM      1  C   UNL d   1       1.642  -2.682   1.558  0.00  0.00     0.020 A 
ATOM      2  C1  UNL d   1       2.006  -1.994   0.400  0.00  0.00     0.020 A 
ATOM      3  C2  UNL d   1       1.193  -0.968  -0.086  0.00  0.00     0.034 A 
ATOM      4  C3  UNL d   1       0.014  -0.626   0.586  0.00  0.00     0.017 A 
ATOM      5  C4  UNL d   1      -0.350  -1.317   1.747  0.00  0.00     0.017 A 
ATOM      6  C5  UNL d   1       0.467  -2.344   2.229  0.00  0.00     0.034 A 
ATOM      7 Cl   UNL d   1      -1.791  -0.952   2.630  0.00  0.00    -0.070 Cl
ATOM      8 Cl1  UNL d   1      -0.943   0.654  -0.072  0.00  0.00    -0.070 Cl
ENDROOT
TORSDOF 0
ENDMDL
