MODEL 1
REMARK minimizedAffinity -4.70692492
REMARK minimizedRMSD -1
REMARK  0 active torsions:
REMARK  status: ('A' for Active; 'I' for Inactive)
ROOT
ATOM      1  C   UNL d   1       2.367  -1.924   1.376  0.00  0.00     0.020 A 
ATOM      2  C1  UNL d   1       2.560  -0.967   0.381  0.00  0.00     0.020 A 
ATOM      3  C2  UNL d   1       1.503  -0.139  -0.006  0.00  0.00     0.034 A 
ATOM      4  C3  UNL d   1       0.249  -0.268   0.603  0.00  0.00     0.017 A 
ATOM      5  C4  UNL d   1       0.057  -1.230   1.602  0.00  0.00     0.017 A 
ATOM      6  C5  UNL d   1       1.119  -2.056   1.985  0.00  0.00     0.034 A 
ATOM      7 Cl   UNL d   1      -1.460  -1.448   2.399  0.00  0.00    -0.070 Cl
ATOM      8 Cl1  UNL d   1      -1.012   0.788   0.077  0.00  0.00    -0.070 Cl
ENDROOT
TORSDOF 0
ENDMDL
