MODEL 1
REMARK minimizedAffinity -4.83512354
REMARK minimizedRMSD -1
REMARK  0 active torsions:
REMARK  status: ('A' for Active; 'I' for Inactive)
ROOT
ATOM      1  C   UNL d   1       0.035  -2.166   0.968  0.00  0.00     0.020 A 
ATOM      2  C1  UNL d   1       1.400  -2.420   0.840  0.00  0.00     0.020 A 
ATOM      3  C2  UNL d   1       2.236  -1.464   0.259  0.00  0.00     0.034 A 
ATOM      4  C3  UNL d   1       1.708  -0.251  -0.197  0.00  0.00     0.017 A 
ATOM      5  C4  UNL d   1       0.338   0.003  -0.068  0.00  0.00     0.017 A 
ATOM      6  C5  UNL d   1      -0.495  -0.957   0.515  0.00  0.00     0.034 A 
ATOM      7 Cl   UNL d   1      -0.387   1.477  -0.607  0.00  0.00    -0.070 Cl
ATOM      8 Cl1  UNL d   1       2.800   0.885  -0.905  0.00  0.00    -0.070 Cl
ENDROOT
TORSDOF 0
ENDMDL
