MODEL 1
REMARK minimizedAffinity -3.48626113
REMARK minimizedRMSD -1
REMARK  0 active torsions:
REMARK  status: ('A' for Active; 'I' for Inactive)
ROOT
ATOM      1  C   UNL d   1       1.661  -2.193   0.658  0.00  0.00     0.020 A 
ATOM      2  C1  UNL d   1       1.180  -2.699   1.864  0.00  0.00     0.020 A 
ATOM      3  C2  UNL d   1       0.010  -2.178   2.422  0.00  0.00     0.034 A 
ATOM      4  C3  UNL d   1      -0.682  -1.149   1.774  0.00  0.00     0.017 A 
ATOM      5  C4  UNL d   1      -0.198  -0.642   0.563  0.00  0.00     0.017 A 
ATOM      6  C5  UNL d   1       0.974  -1.167   0.008  0.00  0.00     0.034 A 
ATOM      7 Cl   UNL d   1      -0.997   0.627  -0.296  0.00  0.00    -0.070 Cl
ATOM      8 Cl1  UNL d   1      -2.122  -0.554   2.521  0.00  0.00    -0.070 Cl
ENDROOT
TORSDOF 0
ENDMDL
