MODEL 1
REMARK minimizedAffinity -2.76553154
REMARK minimizedRMSD -1
REMARK  0 active torsions:
REMARK  status: ('A' for Active; 'I' for Inactive)
ROOT
ATOM      1  C   UNL d   1      -0.739   1.539  -0.031  0.00  0.00     0.020 A 
ATOM      2  C1  UNL d   1       0.408   0.978  -0.592  0.00  0.00     0.020 A 
ATOM      3  C2  UNL d   1       0.773  -0.332  -0.273  0.00  0.00     0.034 A 
ATOM      4  C3  UNL d   1      -0.010  -1.085   0.610  0.00  0.00     0.017 A 
ATOM      5  C4  UNL d   1      -1.161  -0.521   1.172  0.00  0.00     0.017 A 
ATOM      6  C5  UNL d   1      -1.521   0.790   0.849  0.00  0.00     0.034 A 
ATOM      7 Cl   UNL d   1      -2.177  -1.389   2.269  0.00  0.00    -0.070 Cl
ATOM      8 Cl1  UNL d   1       0.500  -2.698   0.959  0.00  0.00    -0.070 Cl
ENDROOT
TORSDOF 0
ENDMDL
