MODEL 1
REMARK minimizedAffinity -5.92781019
REMARK minimizedRMSD -1
REMARK  0 active torsions:
REMARK  status: ('A' for Active; 'I' for Inactive)
ROOT
ATOM      1  C   UNL d   1       1.760  -2.212   0.614  0.00  0.00     0.020 A 
ATOM      2  C1  UNL d   1       1.438  -2.976   1.735  0.00  0.00     0.020 A 
ATOM      3  C2  UNL d   1       0.271  -2.705   2.453  0.00  0.00     0.034 A 
ATOM      4  C3  UNL d   1      -0.578  -1.667   2.051  0.00  0.00     0.017 A 
ATOM      5  C4  UNL d   1      -0.254  -0.901   0.926  0.00  0.00     0.017 A 
ATOM      6  C5  UNL d   1       0.916  -1.176   0.211  0.00  0.00     0.034 A 
ATOM      7 Cl   UNL d   1      -1.252   0.396   0.369  0.00  0.00    -0.070 Cl
ATOM      8 Cl1  UNL d   1      -2.004  -1.388   2.986  0.00  0.00    -0.070 Cl
ENDROOT
TORSDOF 0
ENDMDL
