MODEL 1
REMARK minimizedAffinity -5.54422712
REMARK minimizedRMSD -1
REMARK  0 active torsions:
REMARK  status: ('A' for Active; 'I' for Inactive)
ROOT
ATOM      1  C   UNL d   1       1.202  -3.005   1.968  0.00  0.00     0.020 A 
ATOM      2  C1  UNL d   1       0.103  -2.649   2.750  0.00  0.00     0.020 A 
ATOM      3  C2  UNL d   1      -0.652  -1.522   2.420  0.00  0.00     0.034 A 
ATOM      4  C3  UNL d   1      -0.310  -0.746   1.307  0.00  0.00     0.017 A 
ATOM      5  C4  UNL d   1       0.793  -1.104   0.523  0.00  0.00     0.017 A 
ATOM      6  C5  UNL d   1       1.546  -2.234   0.857  0.00  0.00     0.034 A 
ATOM      7 Cl   UNL d   1       1.276  -0.196  -0.866  0.00  0.00    -0.070 Cl
ATOM      8 Cl1  UNL d   1      -1.289   0.634   0.958  0.00  0.00    -0.070 Cl
ENDROOT
TORSDOF 0
ENDMDL
