MODEL 1
REMARK minimizedAffinity -3.00757074
REMARK minimizedRMSD -1
REMARK  0 active torsions:
REMARK  status: ('A' for Active; 'I' for Inactive)
ROOT
ATOM      1  C   UNL d   1       1.839  -1.805   0.163  0.00  0.00     0.020 A 
ATOM      2  C1  UNL d   1       2.009  -0.713  -0.686  0.00  0.00     0.020 A 
ATOM      3  C2  UNL d   1       1.066   0.318  -0.695  0.00  0.00     0.034 A 
ATOM      4  C3  UNL d   1      -0.051   0.258   0.146  0.00  0.00     0.017 A 
ATOM      5  C4  UNL d   1      -0.220  -0.840   0.998  0.00  0.00     0.017 A 
ATOM      6  C5  UNL d   1       0.726  -1.868   1.004  0.00  0.00     0.034 A 
ATOM      7 Cl   UNL d   1      -1.573  -0.984   2.065  0.00  0.00    -0.070 Cl
ATOM      8 Cl1  UNL d   1      -1.176   1.567   0.083  0.00  0.00    -0.070 Cl
ENDROOT
TORSDOF 0
ENDMDL
