MODEL 1
REMARK minimizedAffinity 0.085397467
REMARK minimizedRMSD -1
REMARK  0 active torsions:
REMARK  status: ('A' for Active; 'I' for Inactive)
ROOT
ATOM      1  C   UNL d   1       2.370  -0.517  -3.236  0.00  0.00    -0.002 A 
ATOM      2  C1  UNL d   1       3.238   0.099  -2.345  0.00  0.00     0.010 A 
ATOM      3  C2  UNL d   1       2.786   0.532  -1.097  0.00  0.00     0.041 A 
ATOM      4  C3  UNL d   1       1.434   0.332  -0.755  0.00  0.00    -0.075 A 
ATOM      5  S   UNL d   1       0.658   0.779   0.718  0.00  0.00     0.015 SA
ATOM      6  C4  UNL d   1      -0.844   0.163   0.200  0.00  0.00     0.022 A 
ATOM      7  C5  UNL d   1      -0.774  -0.374  -1.063  0.00  0.00     0.026 A 
ATOM      8  C6  UNL d   1       0.541  -0.286  -1.635  0.00  0.00    -0.082 A 
ATOM      9  C7  UNL d   1       1.029  -0.713  -2.893  0.00  0.00     0.045 A 
ENDROOT
TORSDOF 0
ENDMDL
