MODEL 1
REMARK minimizedAffinity -2.6543541
REMARK minimizedRMSD -1
REMARK  0 active torsions:
REMARK  status: ('A' for Active; 'I' for Inactive)
ROOT
ATOM      1  C   UNL d   1      -2.691   2.951   2.996  0.00  0.00    -0.002 A 
ATOM      2  C1  UNL d   1      -3.843   2.315   2.555  0.00  0.00     0.010 A 
ATOM      3  C2  UNL d   1      -3.762   1.153   1.785  0.00  0.00     0.041 A 
ATOM      4  C3  UNL d   1      -2.491   0.634   1.465  0.00  0.00    -0.075 A 
ATOM      5  S   UNL d   1      -2.148  -0.777   0.536  0.00  0.00     0.015 SA
ATOM      6  C4  UNL d   1      -0.465  -0.569   0.704  0.00  0.00     0.022 A 
ATOM      7  C5  UNL d   1      -0.155   0.545   1.448  0.00  0.00     0.026 A 
ATOM      8  C6  UNL d   1      -1.317   1.256   1.899  0.00  0.00    -0.082 A 
ATOM      9  C7  UNL d   1      -1.433   2.434   2.677  0.00  0.00     0.045 A 
ENDROOT
TORSDOF 0
ENDMDL
