MODEL 1
REMARK minimizedAffinity -3.29030991
REMARK minimizedRMSD -1
REMARK  0 active torsions:
REMARK  status: ('A' for Active; 'I' for Inactive)
ROOT
ATOM      1  C   UNL d   1       1.579   0.440  -2.088  0.00  0.00    -0.002 A 
ATOM      2  C1  UNL d   1       0.300   0.414  -2.626  0.00  0.00     0.010 A 
ATOM      3  C2  UNL d   1      -0.818   0.323  -1.796  0.00  0.00     0.041 A 
ATOM      4  C3  UNL d   1      -0.628   0.262  -0.401  0.00  0.00    -0.075 A 
ATOM      5  S   UNL d   1      -1.849   0.148   0.811  0.00  0.00     0.015 SA
ATOM      6  C4  UNL d   1      -0.702   0.134   2.071  0.00  0.00     0.022 A 
ATOM      7  C5  UNL d   1       0.586   0.213   1.597  0.00  0.00     0.026 A 
ATOM      8  C6  UNL d   1       0.650   0.288   0.165  0.00  0.00    -0.082 A 
ATOM      9  C7  UNL d   1       1.764   0.379  -0.704  0.00  0.00     0.045 A 
ENDROOT
TORSDOF 0
ENDMDL
