MODEL 1
REMARK minimizedAffinity -2.47138119
REMARK minimizedRMSD -1
REMARK  0 active torsions:
REMARK  status: ('A' for Active; 'I' for Inactive)
ROOT
ATOM      1  C   UNL d   1      -0.124  -1.254   1.027  0.00  0.00    -0.002 A 
ATOM      2  C1  UNL d   1       0.187   0.080   1.251  0.00  0.00     0.010 A 
ATOM      3  C2  UNL d   1       0.872   0.821   0.287  0.00  0.00     0.041 A 
ATOM      4  C3  UNL d   1       1.242   0.194  -0.919  0.00  0.00    -0.075 A 
ATOM      5  S   UNL d   1       2.086   0.905  -2.244  0.00  0.00     0.015 SA
ATOM      6  C4  UNL d   1       2.052  -0.545  -3.140  0.00  0.00     0.022 A 
ATOM      7  C5  UNL d   1       1.417  -1.557  -2.460  0.00  0.00     0.026 A 
ATOM      8  C6  UNL d   1       0.939  -1.147  -1.169  0.00  0.00    -0.082 A 
ATOM      9  C7  UNL d   1       0.244  -1.872  -0.171  0.00  0.00     0.045 A 
ENDROOT
TORSDOF 0
ENDMDL
