MODEL 1
REMARK minimizedAffinity -2.98315573
REMARK minimizedRMSD -1
REMARK  0 active torsions:
REMARK  status: ('A' for Active; 'I' for Inactive)
ROOT
ATOM      1  C   UNL d   1       2.694   0.192  -2.093  0.00  0.00    -0.002 A 
ATOM      2  C1  UNL d   1       2.848  -1.187  -2.136  0.00  0.00     0.010 A 
ATOM      3  C2  UNL d   1       2.109  -2.011  -1.285  0.00  0.00     0.041 A 
ATOM      4  C3  UNL d   1       1.201  -1.421  -0.384  0.00  0.00    -0.075 A 
ATOM      5  S   UNL d   1       0.188  -2.232   0.752  0.00  0.00     0.015 SA
ATOM      6  C4  UNL d   1      -0.474  -0.768   1.319  0.00  0.00     0.022 A 
ATOM      7  C5  UNL d   1       0.054   0.323   0.670  0.00  0.00     0.026 A 
ATOM      8  C6  UNL d   1       1.028  -0.035  -0.322  0.00  0.00    -0.082 A 
ATOM      9  C7  UNL d   1       1.793   0.773  -1.197  0.00  0.00     0.045 A 
ENDROOT
TORSDOF 0
ENDMDL
