MODEL 1
REMARK minimizedAffinity -1.63210571
REMARK minimizedRMSD -1
REMARK  0 active torsions:
REMARK  status: ('A' for Active; 'I' for Inactive)
ROOT
ATOM      1  C   UNL d   1       1.110   0.515  -2.728  0.00  0.00    -0.002 A 
ATOM      2  C1  UNL d   1       2.094   0.731  -1.774  0.00  0.00     0.010 A 
ATOM      3  C2  UNL d   1       1.799   0.628  -0.413  0.00  0.00     0.041 A 
ATOM      4  C3  UNL d   1       0.486   0.300  -0.024  0.00  0.00    -0.075 A 
ATOM      5  S   UNL d   1      -0.106   0.118   1.585  0.00  0.00     0.015 SA
ATOM      6  C4  UNL d   1      -1.680  -0.251   1.044  0.00  0.00     0.022 A 
ATOM      7  C5  UNL d   1      -1.769  -0.241  -0.328  0.00  0.00     0.026 A 
ATOM      8  C6  UNL d   1      -0.522   0.076  -0.966  0.00  0.00    -0.082 A 
ATOM      9  C7  UNL d   1      -0.192   0.189  -2.338  0.00  0.00     0.045 A 
ENDROOT
TORSDOF 0
ENDMDL
