MODEL 1
REMARK minimizedAffinity -2.48179197
REMARK minimizedRMSD -1
REMARK  0 active torsions:
REMARK  status: ('A' for Active; 'I' for Inactive)
ROOT
ATOM      1  C   UNL d   1       1.750  -0.143  -2.751  0.00  0.00    -0.002 A 
ATOM      2  C1  UNL d   1       1.733   0.967  -1.918  0.00  0.00     0.010 A 
ATOM      3  C2  UNL d   1       1.165   0.891  -0.645  0.00  0.00     0.041 A 
ATOM      4  C3  UNL d   1       0.610  -0.332  -0.218  0.00  0.00    -0.075 A 
ATOM      5  S   UNL d   1      -0.139  -0.661   1.299  0.00  0.00     0.015 SA
ATOM      6  C4  UNL d   1      -0.453  -2.282   0.878  0.00  0.00     0.022 A 
ATOM      7  C5  UNL d   1      -0.005  -2.582  -0.386  0.00  0.00     0.026 A 
ATOM      8  C6  UNL d   1       0.616  -1.464  -1.039  0.00  0.00    -0.082 A 
ATOM      9  C7  UNL d   1       1.199  -1.354  -2.325  0.00  0.00     0.045 A 
ENDROOT
TORSDOF 0
ENDMDL
