MODEL 1
REMARK minimizedAffinity -3.74947834
REMARK minimizedRMSD -1
REMARK  0 active torsions:
REMARK  status: ('A' for Active; 'I' for Inactive)
ROOT
ATOM      1  C   UNL d   1       1.908  -1.209  -2.425  0.00  0.00    -0.002 A 
ATOM      2  C1  UNL d   1       1.500  -2.416  -1.875  0.00  0.00     0.010 A 
ATOM      3  C2  UNL d   1       0.653  -2.440  -0.765  0.00  0.00     0.041 A 
ATOM      4  C3  UNL d   1       0.218  -1.219  -0.213  0.00  0.00    -0.075 A 
ATOM      5  S   UNL d   1      -0.822  -1.005   1.145  0.00  0.00     0.015 SA
ATOM      6  C4  UNL d   1      -0.750   0.694   1.026  0.00  0.00     0.022 A 
ATOM      7  C5  UNL d   1       0.044   1.105  -0.018  0.00  0.00     0.026 A 
ATOM      8  C6  UNL d   1       0.615   0.009  -0.750  0.00  0.00    -0.082 A 
ATOM      9  C7  UNL d   1       1.474  -0.000  -1.875  0.00  0.00     0.045 A 
ENDROOT
TORSDOF 0
ENDMDL
