MODEL 1
REMARK minimizedAffinity 12.6248465
REMARK minimizedRMSD -1
REMARK  2 active torsions:
REMARK  status: ('A' for Active; 'I' for Inactive)
REMARK    1  A    between atoms: C2'_3  and  C1'_4 
REMARK    2  A    between atoms: C1'_4  and  C1_5 
ROOT
ATOM      1  C1  I4B d   1      -4.562   2.181  -3.837  0.00  0.00    -0.075 A 
ATOM      2  C2  I4B d   1      -5.759   2.802  -4.088  0.00  0.00     0.003 A 
ATOM      3  C3  I4B d   1      -5.798   4.191  -4.363  0.00  0.00     0.002 A 
ATOM      4  C4  I4B d   1      -4.629   4.924  -4.326  0.00  0.00    -0.004 A 
ATOM      5  C5  I4B d   1      -3.413   4.288  -4.094  0.00  0.00     0.002 A 
ATOM      6  C6  I4B d   1      -3.377   2.905  -3.860  0.00  0.00     0.003 A 
ENDROOT
BRANCH   1   7
ATOM      7  C1' I4B d   1      -4.561   0.719  -3.519  0.00  0.00     0.060 C 
BRANCH   7   8
ATOM      8  C2' I4B d   1      -3.678   0.506  -2.305  0.00  0.00    -0.013 C 
ATOM      9  C4' I4B d   1      -4.318   1.063  -1.061  0.00  0.00     0.013 C 
ATOM     10  C3' I4B d   1      -3.424  -0.965  -2.171  0.00  0.00     0.013 C 
ENDBRANCH   7   8
ENDBRANCH   1   7
TORSDOF 2
ENDMDL
