MODEL 1
REMARK minimizedAffinity 13.8342848
REMARK minimizedRMSD -1
REMARK  2 active torsions:
REMARK  status: ('A' for Active; 'I' for Inactive)
REMARK    1  A    between atoms: C2'_3  and  C1'_4 
REMARK    2  A    between atoms: C1'_4  and  C1_5 
ROOT
ATOM      1  C1  I4B d   1       1.014   2.972   3.544  0.00  0.00    -0.075 A 
ATOM      2  C2  I4B d   1       1.691   2.767   2.368  0.00  0.00     0.003 A 
ATOM      3  C3  I4B d   1       1.982   1.451   1.933  0.00  0.00     0.002 A 
ATOM      4  C4  I4B d   1       1.624   0.379   2.725  0.00  0.00    -0.004 A 
ATOM      5  C5  I4B d   1       0.918   0.588   3.906  0.00  0.00     0.002 A 
ATOM      6  C6  I4B d   1       0.600   1.892   4.313  0.00  0.00     0.003 A 
ENDROOT
BRANCH   1   7
ATOM      7  C1' I4B d   1       0.753   4.376   3.990  0.00  0.00     0.060 C 
BRANCH   7   8
ATOM      8  C2' I4B d   1       1.373   4.554   5.360  0.00  0.00    -0.013 C 
ATOM      9  C4' I4B d   1       2.870   4.691   5.267  0.00  0.00     0.013 C 
ATOM     10  C3' I4B d   1       0.757   5.766   5.994  0.00  0.00     0.013 C 
ENDBRANCH   7   8
ENDBRANCH   1   7
TORSDOF 2
ENDMDL
