MODEL 1
REMARK minimizedAffinity 4.28687763
REMARK minimizedRMSD -1
REMARK  2 active torsions:
REMARK  status: ('A' for Active; 'I' for Inactive)
REMARK    1  A    between atoms: C2'_3  and  C1'_4 
REMARK    2  A    between atoms: C1'_4  and  C1_5 
ROOT
ATOM      1  C1  I4B d   1      -1.447  -0.909   3.305  0.00  0.00    -0.075 A 
ATOM      2  C2  I4B d   1      -2.781  -0.961   2.987  0.00  0.00     0.003 A 
ATOM      3  C3  I4B d   1      -3.556   0.224   2.965  0.00  0.00     0.002 A 
ATOM      4  C4  I4B d   1      -2.972   1.424   3.315  0.00  0.00    -0.004 A 
ATOM      5  C5  I4B d   1      -1.614   1.479   3.615  0.00  0.00     0.002 A 
ATOM      6  C6  I4B d   1      -0.843   0.307   3.598  0.00  0.00     0.003 A 
ENDROOT
BRANCH   1   7
ATOM      7  C1' I4B d   1      -0.666  -2.184   3.350  0.00  0.00     0.060 C 
BRANCH   7   8
ATOM      8  C2' I4B d   1       0.754  -1.877   2.920  0.00  0.00    -0.013 C 
ATOM      9  C4' I4B d   1       1.752  -2.635   3.755  0.00  0.00     0.013 C 
ATOM     10  C3' I4B d   1       0.885  -2.228   1.468  0.00  0.00     0.013 C 
ENDBRANCH   7   8
ENDBRANCH   1   7
TORSDOF 2
ENDMDL
