MODEL 1
REMARK minimizedAffinity 16.2053871
REMARK minimizedRMSD -1
REMARK  2 active torsions:
REMARK  status: ('A' for Active; 'I' for Inactive)
REMARK    1  A    between atoms: C2'_3  and  C1'_4 
REMARK    2  A    between atoms: C1'_4  and  C1_5 
ROOT
ATOM      1  C1  I4B d   1      -3.451  -0.597  -1.985  0.00  0.00    -0.075 A 
ATOM      2  C2  I4B d   1      -3.637  -1.950  -2.127  0.00  0.00     0.003 A 
ATOM      3  C3  I4B d   1      -4.483  -2.450  -3.146  0.00  0.00     0.002 A 
ATOM      4  C4  I4B d   1      -5.159  -1.566  -3.962  0.00  0.00    -0.004 A 
ATOM      5  C5  I4B d   1      -4.952  -0.196  -3.831  0.00  0.00     0.002 A 
ATOM      6  C6  I4B d   1      -4.083   0.292  -2.845  0.00  0.00     0.003 A 
ENDROOT
BRANCH   1   7
ATOM      7  C1' I4B d   1      -2.576  -0.103  -0.877  0.00  0.00     0.060 C 
BRANCH   7   8
ATOM      8  C2' I4B d   1      -1.152  -0.519  -1.186  0.00  0.00    -0.013 C 
ATOM      9  C4' I4B d   1      -0.310   0.667  -1.577  0.00  0.00     0.013 C 
ATOM     10  C3' I4B d   1      -0.595  -1.200   0.029  0.00  0.00     0.013 C 
ENDBRANCH   7   8
ENDBRANCH   1   7
TORSDOF 2
ENDMDL
