MODEL 1
REMARK minimizedAffinity 6.46271992
REMARK minimizedRMSD -1
REMARK  2 active torsions:
REMARK  status: ('A' for Active; 'I' for Inactive)
REMARK    1  A    between atoms: C2'_3  and  C1'_4 
REMARK    2  A    between atoms: C1'_4  and  C1_5 
ROOT
ATOM      1  C1  I4B d   1       0.705  -3.133   1.878  0.00  0.00    -0.075 A 
ATOM      2  C2  I4B d   1       0.189  -4.405   1.907  0.00  0.00     0.003 A 
ATOM      3  C3  I4B d   1      -0.986  -4.680   2.647  0.00  0.00     0.002 A 
ATOM      4  C4  I4B d   1      -1.580  -3.673   3.379  0.00  0.00    -0.004 A 
ATOM      5  C5  I4B d   1      -1.069  -2.379   3.330  0.00  0.00     0.002 A 
ATOM      6  C6  I4B d   1       0.074  -2.104   2.565  0.00  0.00     0.003 A 
ENDROOT
BRANCH   1   7
ATOM      7  C1' I4B d   1       1.966  -2.885   1.113  0.00  0.00     0.060 C 
BRANCH   7   8
ATOM      8  C2' I4B d   1       3.105  -3.545   1.864  0.00  0.00    -0.013 C 
ATOM      9  C4' I4B d   1       4.431  -3.248   1.213  0.00  0.00     0.013 C 
ATOM     10  C3' I4B d   1       3.074  -3.051   3.279  0.00  0.00     0.013 C 
ENDBRANCH   7   8
ENDBRANCH   1   7
TORSDOF 2
ENDMDL
