MODEL 1
REMARK minimizedAffinity 3.1614027
REMARK minimizedRMSD -1
REMARK  2 active torsions:
REMARK  status: ('A' for Active; 'I' for Inactive)
REMARK    1  A    between atoms: C2'_3  and  C1'_4 
REMARK    2  A    between atoms: C1'_4  and  C1_5 
ROOT
ATOM      1  C1  I4B d   1       2.671  -2.902   3.910  0.00  0.00    -0.075 A 
ATOM      2  C2  I4B d   1       1.734  -2.006   3.458  0.00  0.00     0.003 A 
ATOM      3  C3  I4B d   1       1.085  -2.220   2.217  0.00  0.00     0.002 A 
ATOM      4  C4  I4B d   1       1.438  -3.307   1.444  0.00  0.00    -0.004 A 
ATOM      5  C5  I4B d   1       2.371  -4.225   1.915  0.00  0.00     0.002 A 
ATOM      6  C6  I4B d   1       2.983  -4.029   3.161  0.00  0.00     0.003 A 
ENDROOT
BRANCH   1   7
ATOM      7  C1' I4B d   1       3.360  -2.628   5.209  0.00  0.00     0.060 C 
BRANCH   7   8
ATOM      8  C2' I4B d   1       4.577  -3.528   5.290  0.00  0.00    -0.013 C 
ATOM      9  C4' I4B d   1       5.715  -2.843   6.000  0.00  0.00     0.013 C 
ATOM     10  C3' I4B d   1       4.175  -4.787   6.000  0.00  0.00     0.013 C 
ENDBRANCH   7   8
ENDBRANCH   1   7
TORSDOF 2
ENDMDL
