MODEL 1
REMARK minimizedAffinity -2.09273028
REMARK minimizedRMSD -1
REMARK  0 active torsions:
REMARK  status: ('A' for Active; 'I' for Inactive)
ROOT
ATOM      1  C2' OXE d   1       0.322   1.515  -0.322  0.00  0.00     0.078 C 
ATOM      2  C1' OXE d   1       0.313  -0.530  -2.245  0.00  0.00     0.078 C 
ATOM      3  C1  OXE d   1      -0.172  -0.868  -0.857  0.00  0.00    -0.078 A 
ATOM      4  C2  OXE d   1      -0.120   0.127   0.090  0.00  0.00    -0.078 A 
ATOM      5  C3  OXE d   1      -0.607  -0.115   1.371  0.00  0.00     0.003 A 
ATOM      6  C4  OXE d   1      -1.005  -1.404   1.746  0.00  0.00    -0.002 A 
ATOM      7  C5  OXE d   1      -1.028  -2.442   0.808  0.00  0.00    -0.002 A 
ATOM      8  C6  OXE d   1      -0.655  -2.180  -0.506  0.00  0.00     0.003 A 
ENDROOT
TORSDOF 0
ENDMDL
