MODEL 1
REMARK minimizedAffinity -4.67181969
REMARK minimizedRMSD -1
REMARK  0 active torsions:
REMARK  status: ('A' for Active; 'I' for Inactive)
ROOT
ATOM      1  C2' OXE d   1      -0.229   1.156  -0.394  0.00  0.00     0.078 C 
ATOM      2  C1' OXE d   1       0.802  -0.954  -1.931  0.00  0.00     0.078 C 
ATOM      3  C1  OXE d   1       0.244  -1.283  -0.569  0.00  0.00    -0.078 A 
ATOM      4  C2  OXE d   1      -0.216  -0.238   0.195  0.00  0.00    -0.078 A 
ATOM      5  C3  OXE d   1      -0.791  -0.493   1.437  0.00  0.00     0.003 A 
ATOM      6  C4  OXE d   1      -0.766  -1.784   1.978  0.00  0.00    -0.002 A 
ATOM      7  C5  OXE d   1      -0.266  -2.857   1.232  0.00  0.00    -0.002 A 
ATOM      8  C6  OXE d   1       0.202  -2.631  -0.057  0.00  0.00     0.003 A 
ENDROOT
TORSDOF 0
ENDMDL
