MODEL 1
REMARK minimizedAffinity -3.50336885
REMARK minimizedRMSD -1
REMARK  0 active torsions:
REMARK  status: ('A' for Active; 'I' for Inactive)
ROOT
ATOM      1  C2' OXE d   1       0.640  -3.396   0.557  0.00  0.00     0.078 C 
ATOM      2  C1' OXE d   1       0.858  -1.517  -1.516  0.00  0.00     0.078 C 
ATOM      3  C1  OXE d   1      -0.087  -1.207  -0.383  0.00  0.00    -0.078 A 
ATOM      4  C2  OXE d   1      -0.223  -2.153   0.604  0.00  0.00    -0.078 A 
ATOM      5  C3  OXE d   1      -1.040  -1.894   1.700  0.00  0.00     0.003 A 
ATOM      6  C4  OXE d   1      -1.842  -0.747   1.731  0.00  0.00    -0.002 A 
ATOM      7  C5  OXE d   1      -1.749   0.212   0.717  0.00  0.00    -0.002 A 
ATOM      8  C6  OXE d   1      -0.847   0.018  -0.324  0.00  0.00     0.003 A 
ENDROOT
TORSDOF 0
ENDMDL
