MODEL 1
REMARK minimizedAffinity -3.28186131
REMARK minimizedRMSD -1
REMARK  0 active torsions:
REMARK  status: ('A' for Active; 'I' for Inactive)
ROOT
ATOM      1  C2' OXE d   1       2.136  -0.997  -0.934  0.00  0.00     0.078 C 
ATOM      2  C1' OXE d   1      -0.140   0.121   0.270  0.00  0.00     0.078 C 
ATOM      3  C1  OXE d   1      -0.146  -1.362  -0.002  0.00  0.00    -0.078 A 
ATOM      4  C2  OXE d   1       0.953  -1.893  -0.634  0.00  0.00    -0.078 A 
ATOM      5  C3  OXE d   1       1.023  -3.265  -0.859  0.00  0.00     0.003 A 
ATOM      6  C4  OXE d   1      -0.079  -4.085  -0.588  0.00  0.00    -0.002 A 
ATOM      7  C5  OXE d   1      -1.224  -3.558   0.019  0.00  0.00    -0.002 A 
ATOM      8  C6  OXE d   1      -1.256  -2.209   0.357  0.00  0.00     0.003 A 
ENDROOT
TORSDOF 0
ENDMDL
