MODEL 1
REMARK minimizedAffinity -0.873556376
REMARK minimizedRMSD -1
REMARK  0 active torsions:
REMARK  status: ('A' for Active; 'I' for Inactive)
ROOT
ATOM      1  C2' OXE d   1       1.172  -2.067  -2.562  0.00  0.00     0.078 C 
ATOM      2  C1' OXE d   1       1.172  -2.483   0.214  0.00  0.00     0.078 C 
ATOM      3  C1  OXE d   1       0.655  -1.162  -0.299  0.00  0.00    -0.078 A 
ATOM      4  C2  OXE d   1       0.703  -0.949  -1.656  0.00  0.00    -0.078 A 
ATOM      5  C3  OXE d   1       0.188   0.231  -2.187  0.00  0.00     0.003 A 
ATOM      6  C4  OXE d   1      -0.234   1.263  -1.341  0.00  0.00    -0.002 A 
ATOM      7  C5  OXE d   1      -0.254   1.083   0.046  0.00  0.00    -0.002 A 
ATOM      8  C6  OXE d   1       0.147  -0.137   0.579  0.00  0.00     0.003 A 
ENDROOT
TORSDOF 0
ENDMDL
