MODEL 1
REMARK minimizedAffinity -4.11997366
REMARK minimizedRMSD -1
REMARK  0 active torsions:
REMARK  status: ('A' for Active; 'I' for Inactive)
ROOT
ATOM      1  C2' OXE d   1       1.355  -1.715  -1.822  0.00  0.00     0.078 C 
ATOM      2  C1' OXE d   1       0.391  -3.299   0.284  0.00  0.00     0.078 C 
ATOM      3  C1  OXE d   1       0.036  -1.833   0.287  0.00  0.00    -0.078 A 
ATOM      4  C2  OXE d   1       0.551  -1.056  -0.722  0.00  0.00    -0.078 A 
ATOM      5  C3  OXE d   1       0.210   0.291  -0.798  0.00  0.00     0.003 A 
ATOM      6  C4  OXE d   1      -0.526   0.895   0.229  0.00  0.00    -0.002 A 
ATOM      7  C5  OXE d   1      -1.027   0.129   1.287  0.00  0.00    -0.002 A 
ATOM      8  C6  OXE d   1      -0.792  -1.241   1.309  0.00  0.00     0.003 A 
ENDROOT
TORSDOF 0
ENDMDL
