MODEL 1
REMARK minimizedAffinity -4.3122797
REMARK minimizedRMSD -1
REMARK  0 active torsions:
REMARK  status: ('A' for Active; 'I' for Inactive)
ROOT
ATOM      1  C2' OXE d   1      -1.443  -2.248   1.030  0.00  0.00     0.078 C 
ATOM      2  C1' OXE d   1      -1.768   0.015   2.658  0.00  0.00     0.078 C 
ATOM      3  C1  OXE d   1      -1.030   0.187   1.354  0.00  0.00    -0.078 A 
ATOM      4  C2  OXE d   1      -0.835  -0.935   0.585  0.00  0.00    -0.078 A 
ATOM      5  C3  OXE d   1      -0.208  -0.823  -0.652  0.00  0.00     0.003 A 
ATOM      6  C4  OXE d   1       0.360   0.393  -1.051  0.00  0.00    -0.002 A 
ATOM      7  C5  OXE d   1       0.207   1.540  -0.265  0.00  0.00    -0.002 A 
ATOM      8  C6  OXE d   1      -0.520   1.463   0.918  0.00  0.00     0.003 A 
ENDROOT
TORSDOF 0
ENDMDL
