MODEL 1
REMARK minimizedAffinity -1.63720477
REMARK minimizedRMSD -1
REMARK  0 active torsions:
REMARK  status: ('A' for Active; 'I' for Inactive)
ROOT
ATOM      1  C2' OXE d   1       0.428   1.333   0.018  0.00  0.00     0.078 C 
ATOM      2  C1' OXE d   1       1.098  -0.669  -1.832  0.00  0.00     0.078 C 
ATOM      3  C1  OXE d   1       0.470  -1.097  -0.529  0.00  0.00    -0.078 A 
ATOM      4  C2  OXE d   1       0.188  -0.115   0.389  0.00  0.00    -0.078 A 
ATOM      5  C3  OXE d   1      -0.442  -0.450   1.585  0.00  0.00     0.003 A 
ATOM      6  C4  OXE d   1      -0.651  -1.792   1.925  0.00  0.00    -0.002 A 
ATOM      7  C5  OXE d   1      -0.334  -2.811   1.020  0.00  0.00    -0.002 A 
ATOM      8  C6  OXE d   1       0.186  -2.478  -0.226  0.00  0.00     0.003 A 
ENDROOT
TORSDOF 0
ENDMDL
