MODEL 1
REMARK minimizedAffinity -1.70053017
REMARK minimizedRMSD -1
REMARK  0 active torsions:
REMARK  status: ('A' for Active; 'I' for Inactive)
ROOT
ATOM      1  C2' OXE d   1      -3.177  -2.439   0.073  0.00  0.00     0.078 C 
ATOM      2  C1' OXE d   1      -2.321  -0.147   1.450  0.00  0.00     0.078 C 
ATOM      3  C1  OXE d   1      -1.275  -1.153   1.040  0.00  0.00    -0.078 A 
ATOM      4  C2  OXE d   1      -1.708  -2.294   0.408  0.00  0.00    -0.078 A 
ATOM      5  C3  OXE d   1      -0.779  -3.228  -0.040  0.00  0.00     0.003 A 
ATOM      6  C4  OXE d   1       0.577  -3.091   0.282  0.00  0.00    -0.002 A 
ATOM      7  C5  OXE d   1       1.034  -1.956   0.960  0.00  0.00    -0.002 A 
ATOM      8  C6  OXE d   1       0.129  -0.959   1.307  0.00  0.00     0.003 A 
ENDROOT
TORSDOF 0
ENDMDL
