MODEL 1
REMARK minimizedAffinity -4.42068768
REMARK minimizedRMSD -1
REMARK  0 active torsions:
REMARK  status: ('A' for Active; 'I' for Inactive)
ROOT
ATOM      1  C2' OXE d   1      -0.834  -0.761   1.711  0.00  0.00     0.078 C 
ATOM      2  C1' OXE d   1       0.486  -2.911   0.480  0.00  0.00     0.078 C 
ATOM      3  C1  OXE d   1       0.204  -1.688  -0.356  0.00  0.00    -0.078 A 
ATOM      4  C2  OXE d   1      -0.484  -0.659   0.242  0.00  0.00    -0.078 A 
ATOM      5  C3  OXE d   1      -0.722   0.515  -0.468  0.00  0.00     0.003 A 
ATOM      6  C4  OXE d   1      -0.403   0.597  -1.829  0.00  0.00    -0.002 A 
ATOM      7  C5  OXE d   1       0.262  -0.455  -2.467  0.00  0.00    -0.002 A 
ATOM      8  C6  OXE d   1       0.610  -1.585  -1.736  0.00  0.00     0.003 A 
ENDROOT
TORSDOF 0
ENDMDL
