MODEL 1
REMARK minimizedAffinity -4.0788846
REMARK minimizedRMSD -1
REMARK  0 active torsions:
REMARK  status: ('A' for Active; 'I' for Inactive)
ROOT
ATOM      1  C2' OXE d   1       1.556  -1.667  -1.345  0.00  0.00     0.078 C 
ATOM      2  C1' OXE d   1       0.527  -3.347   0.655  0.00  0.00     0.078 C 
ATOM      3  C1  OXE d   1       0.009  -1.932   0.590  0.00  0.00    -0.078 A 
ATOM      4  C2  OXE d   1       0.552  -1.103  -0.362  0.00  0.00    -0.078 A 
ATOM      5  C3  OXE d   1       0.071   0.196  -0.501  0.00  0.00     0.003 A 
ATOM      6  C4  OXE d   1      -0.851   0.712   0.418  0.00  0.00    -0.002 A 
ATOM      7  C5  OXE d   1      -1.387  -0.103   1.420  0.00  0.00    -0.002 A 
ATOM      8  C6  OXE d   1      -1.000  -1.437   1.493  0.00  0.00     0.003 A 
ENDROOT
TORSDOF 0
ENDMDL
