MODEL 1
REMARK minimizedAffinity -5.54772806
REMARK minimizedRMSD -1
REMARK  0 active torsions:
REMARK  status: ('A' for Active; 'I' for Inactive)
ROOT
ATOM      1  C2' OXE d   1       0.108   1.214  -0.859  0.00  0.00     0.078 C 
ATOM      2  C1' OXE d   1       0.732  -1.082  -2.348  0.00  0.00     0.078 C 
ATOM      3  C1  OXE d   1       0.210  -1.273  -0.947  0.00  0.00    -0.078 A 
ATOM      4  C2  OXE d   1      -0.049  -0.143  -0.209  0.00  0.00    -0.078 A 
ATOM      5  C3  OXE d   1      -0.585  -0.263   1.070  0.00  0.00     0.003 A 
ATOM      6  C4  OXE d   1      -0.718  -1.522   1.668  0.00  0.00    -0.002 A 
ATOM      7  C5  OXE d   1      -0.423  -2.685   0.948  0.00  0.00    -0.002 A 
ATOM      8  C6  OXE d   1       0.001  -2.579  -0.372  0.00  0.00     0.003 A 
ENDROOT
TORSDOF 0
ENDMDL
