MODEL 1
REMARK minimizedAffinity -3.33210564
REMARK minimizedRMSD -1
REMARK  0 active torsions:
REMARK  status: ('A' for Active; 'I' for Inactive)
ROOT
ATOM      1  C2' OXE d   1       0.651  -1.892  -2.176  0.00  0.00     0.078 C 
ATOM      2  C1' OXE d   1      -0.224  -3.043   0.230  0.00  0.00     0.078 C 
ATOM      3  C1  OXE d   1      -0.149  -1.539   0.157  0.00  0.00    -0.078 A 
ATOM      4  C2  OXE d   1       0.325  -0.985  -1.009  0.00  0.00    -0.078 A 
ATOM      5  C3  OXE d   1       0.363   0.399  -1.149  0.00  0.00     0.003 A 
ATOM      6  C4  OXE d   1       0.069   1.230  -0.061  0.00  0.00    -0.002 A 
ATOM      7  C5  OXE d   1      -0.378   0.685   1.148  0.00  0.00    -0.002 A 
ATOM      8  C6  OXE d   1      -0.532  -0.692   1.259  0.00  0.00     0.003 A 
ENDROOT
TORSDOF 0
ENDMDL
