MODEL 1
REMARK minimizedAffinity -2.272048
REMARK minimizedRMSD -1
REMARK  0 active torsions:
REMARK  status: ('A' for Active; 'I' for Inactive)
ROOT
ATOM      1  C2' OXE d   1       2.260   2.884   1.880  0.00  0.00     0.078 C 
ATOM      2  C1' OXE d   1       0.783   3.833  -0.310  0.00  0.00     0.078 C 
ATOM      3  C1  OXE d   1       0.568   2.403   0.116  0.00  0.00    -0.078 A 
ATOM      4  C2  OXE d   1       1.329   1.933   1.160  0.00  0.00    -0.078 A 
ATOM      5  C3  OXE d   1       1.131   0.637   1.629  0.00  0.00     0.003 A 
ATOM      6  C4  OXE d   1       0.276  -0.239   0.950  0.00  0.00    -0.002 A 
ATOM      7  C5  OXE d   1      -0.479   0.207  -0.139  0.00  0.00    -0.002 A 
ATOM      8  C6  OXE d   1      -0.377   1.535  -0.542  0.00  0.00     0.003 A 
ENDROOT
TORSDOF 0
ENDMDL
