MODEL 1
REMARK minimizedAffinity -4.02606249
REMARK minimizedRMSD -1
REMARK  0 active torsions:
REMARK  status: ('A' for Active; 'I' for Inactive)
ROOT
ATOM      1  C2' OXE d   1      -1.767   0.045   1.520  0.00  0.00     0.078 C 
ATOM      2  C1' OXE d   1       0.372   1.111   0.048  0.00  0.00     0.078 C 
ATOM      3  C1  OXE d   1       0.263  -0.390   0.143  0.00  0.00    -0.078 A 
ATOM      4  C2  OXE d   1      -0.760  -0.903   0.904  0.00  0.00    -0.078 A 
ATOM      5  C3  OXE d   1      -0.939  -2.281   0.980  0.00  0.00     0.003 A 
ATOM      6  C4  OXE d   1       0.003  -3.150   0.416  0.00  0.00    -0.002 A 
ATOM      7  C5  OXE d   1       1.074  -2.649  -0.330  0.00  0.00    -0.002 A 
ATOM      8  C6  OXE d   1       1.195  -1.275  -0.512  0.00  0.00     0.003 A 
ENDROOT
TORSDOF 0
ENDMDL
