MODEL 1
REMARK minimizedAffinity -1.64516866
REMARK minimizedRMSD -1
REMARK  0 active torsions:
REMARK  status: ('A' for Active; 'I' for Inactive)
ROOT
ATOM      1  C2' OXE d   1       1.035  -1.927  -2.013  0.00  0.00     0.078 C 
ATOM      2  C1' OXE d   1      -0.000  -3.227   0.249  0.00  0.00     0.078 C 
ATOM      3  C1  OXE d   1      -0.145  -1.728   0.172  0.00  0.00    -0.078 A 
ATOM      4  C2  OXE d   1       0.406  -1.095  -0.916  0.00  0.00    -0.078 A 
ATOM      5  C3  OXE d   1       0.253   0.281  -1.063  0.00  0.00     0.003 A 
ATOM      6  C4  OXE d   1      -0.321   1.044  -0.039  0.00  0.00    -0.002 A 
ATOM      7  C5  OXE d   1      -0.853   0.423   1.096  0.00  0.00    -0.002 A 
ATOM      8  C6  OXE d   1      -0.811  -0.963   1.197  0.00  0.00     0.003 A 
ENDROOT
TORSDOF 0
ENDMDL
