MODEL 1
REMARK minimizedAffinity -4.11514091
REMARK minimizedRMSD -1
REMARK  0 active torsions:
REMARK  status: ('A' for Active; 'I' for Inactive)
ROOT
ATOM      1  C2' OXE d   1      -1.027  -1.446   1.826  0.00  0.00     0.078 C 
ATOM      2  C1' OXE d   1       0.462  -3.357   0.408  0.00  0.00     0.078 C 
ATOM      3  C1  OXE d   1       0.277  -2.000  -0.223  0.00  0.00    -0.078 A 
ATOM      4  C2  OXE d   1      -0.493  -1.087   0.457  0.00  0.00    -0.078 A 
ATOM      5  C3  OXE d   1      -0.651   0.198  -0.055  0.00  0.00     0.003 A 
ATOM      6  C4  OXE d   1      -0.162   0.520  -1.327  0.00  0.00    -0.002 A 
ATOM      7  C5  OXE d   1       0.591  -0.409  -2.054  0.00  0.00    -0.002 A 
ATOM      8  C6  OXE d   1       0.855  -1.656  -1.498  0.00  0.00     0.003 A 
ENDROOT
TORSDOF 0
ENDMDL
