MODEL 1
REMARK minimizedAffinity -2.8784852
REMARK minimizedRMSD -1
REMARK  0 active torsions:
REMARK  status: ('A' for Active; 'I' for Inactive)
ROOT
ATOM      1  C2' OXE d   1       0.152   1.373  -0.333  0.00  0.00     0.078 C 
ATOM      2  C1' OXE d   1      -1.601   0.672   1.745  0.00  0.00     0.078 C 
ATOM      3  C1  OXE d   1      -0.849  -0.438   1.054  0.00  0.00    -0.078 A 
ATOM      4  C2  OXE d   1      -0.029  -0.091   0.007  0.00  0.00    -0.078 A 
ATOM      5  C3  OXE d   1       0.729  -1.069  -0.629  0.00  0.00     0.003 A 
ATOM      6  C4  OXE d   1       0.548  -2.422  -0.315  0.00  0.00    -0.002 A 
ATOM      7  C5  OXE d   1      -0.312  -2.801   0.721  0.00  0.00    -0.002 A 
ATOM      8  C6  OXE d   1      -0.984  -1.820   1.442  0.00  0.00     0.003 A 
ENDROOT
TORSDOF 0
ENDMDL
