MODEL 1
REMARK minimizedAffinity -3.69194436
REMARK minimizedRMSD -1
REMARK  0 active torsions:
REMARK  status: ('A' for Active; 'I' for Inactive)
ROOT
ATOM      1  C2' OXE d   1       0.134  -2.264   0.329  0.00  0.00     0.078 C 
ATOM      2  C1' OXE d   1       0.387  -2.572  -2.449  0.00  0.00     0.078 C 
ATOM      3  C1  OXE d   1      -0.935  -2.934  -1.819  0.00  0.00    -0.078 A 
ATOM      4  C2  OXE d   1      -1.034  -2.825  -0.453  0.00  0.00    -0.078 A 
ATOM      5  C3  OXE d   1      -2.248  -3.095   0.174  0.00  0.00     0.003 A 
ATOM      6  C4  OXE d   1      -3.320  -3.622  -0.555  0.00  0.00    -0.002 A 
ATOM      7  C5  OXE d   1      -3.226  -3.779  -1.942  0.00  0.00    -0.002 A 
ATOM      8  C6  OXE d   1      -2.058  -3.401  -2.594  0.00  0.00     0.003 A 
ENDROOT
TORSDOF 0
ENDMDL
