MODEL 1
REMARK minimizedAffinity -4.1527276
REMARK minimizedRMSD -1
REMARK  0 active torsions:
REMARK  status: ('A' for Active; 'I' for Inactive)
ROOT
ATOM      1  C2' OXE d   1      -1.795   0.475   1.252  0.00  0.00     0.078 C 
ATOM      2  C1' OXE d   1       0.161   1.475  -0.496  0.00  0.00     0.078 C 
ATOM      3  C1  OXE d   1       0.126  -0.014  -0.257  0.00  0.00    -0.078 A 
ATOM      4  C2  OXE d   1      -0.804  -0.489   0.636  0.00  0.00    -0.078 A 
ATOM      5  C3  OXE d   1      -0.915  -1.860   0.852  0.00  0.00     0.003 A 
ATOM      6  C4  OXE d   1       0.012  -2.744   0.286  0.00  0.00    -0.002 A 
ATOM      7  C5  OXE d   1       0.992  -2.276  -0.595  0.00  0.00    -0.002 A 
ATOM      8  C6  OXE d   1       1.036  -0.922  -0.910  0.00  0.00     0.003 A 
ENDROOT
TORSDOF 0
ENDMDL
