MODEL 1
REMARK minimizedAffinity 5.26052999
REMARK minimizedRMSD -1
REMARK  0 active torsions:
REMARK  status: ('A' for Active; 'I' for Inactive)
ROOT
ATOM      1  C1  DEN d   1       5.538   4.866   5.999  0.00  0.00     0.130 A 
ATOM      2  C2  DEN d   1       5.999   5.776   4.955  0.00  0.00    -0.031 A 
ATOM      3  C3  DEN d   1       5.227   5.493   3.729  0.00  0.00     0.027 A 
ATOM      4  C4  DEN d   1       3.367   3.745   3.350  0.00  0.00     0.027 A 
ATOM      5  C5  DEN d   1       2.640   2.735   3.939  0.00  0.00    -0.003 A 
ATOM      6  C6  DEN d   1       2.849   2.344   5.235  0.00  0.00     0.001 A 
ATOM      7  C7  DEN d   1       3.779   2.999   6.000  0.00  0.00     0.017 A 
ATOM      8  C8  DEN d   1       4.521   4.014   5.411  0.00  0.00    -0.094 A 
ATOM      9  C9  DEN d   1       4.286   4.402   4.103  0.00  0.00    -0.072 A 
ENDROOT
TORSDOF 0
ENDMDL
