MODEL 1
REMARK minimizedAffinity 10.9024343
REMARK minimizedRMSD -1
REMARK  0 active torsions:
REMARK  status: ('A' for Active; 'I' for Inactive)
ROOT
ATOM      1  C1  DEN d   1       0.347  -0.381  -0.455  0.00  0.00     0.130 A 
ATOM      2  C2  DEN d   1      -0.047  -1.095  -1.666  0.00  0.00    -0.031 A 
ATOM      3  C3  DEN d   1       1.122  -1.143  -2.568  0.00  0.00     0.027 A 
ATOM      4  C4  DEN d   1       3.491  -0.191  -2.205  0.00  0.00     0.027 A 
ATOM      5  C5  DEN d   1       4.299   0.507  -1.335  0.00  0.00    -0.003 A 
ATOM      6  C6  DEN d   1       3.841   0.984  -0.135  0.00  0.00     0.001 A 
ATOM      7  C7  DEN d   1       2.550   0.729   0.248  0.00  0.00     0.017 A 
ATOM      8  C8  DEN d   1       1.728   0.032  -0.627  0.00  0.00    -0.094 A 
ATOM      9  C9  DEN d   1       2.213  -0.452  -1.830  0.00  0.00    -0.072 A 
ENDROOT
TORSDOF 0
ENDMDL
