MODEL 1
REMARK minimizedAffinity -4.08484888
REMARK minimizedRMSD -1
REMARK  0 active torsions:
REMARK  status: ('A' for Active; 'I' for Inactive)
ROOT
ATOM      1  C1  DEN d   1       1.636   3.089   3.649  0.00  0.00     0.130 A 
ATOM      2  C2  DEN d   1       0.855   2.854   4.860  0.00  0.00    -0.031 A 
ATOM      3  C3  DEN d   1       1.584   3.451   5.997  0.00  0.00     0.027 A 
ATOM      4  C4  DEN d   1       3.833   4.714   6.000  0.00  0.00     0.027 A 
ATOM      5  C5  DEN d   1       4.875   5.153   5.212  0.00  0.00    -0.003 A 
ATOM      6  C6  DEN d   1       4.926   4.907   3.866  0.00  0.00     0.001 A 
ATOM      7  C7  DEN d   1       3.895   4.242   3.257  0.00  0.00     0.017 A 
ATOM      8  C8  DEN d   1       2.845   3.790   4.045  0.00  0.00    -0.094 A 
ATOM      9  C9  DEN d   1       2.805   4.059   5.403  0.00  0.00    -0.072 A 
ENDROOT
TORSDOF 0
ENDMDL
