MODEL 1
REMARK minimizedAffinity 8.42155933
REMARK minimizedRMSD -1
REMARK  0 active torsions:
REMARK  status: ('A' for Active; 'I' for Inactive)
ROOT
ATOM      1  C1  DEN d   1       4.683   3.881   3.770  0.00  0.00     0.130 A 
ATOM      2  C2  DEN d   1       5.046   4.216   5.145  0.00  0.00    -0.031 A 
ATOM      3  C3  DEN d   1       3.862   3.988   5.998  0.00  0.00     0.027 A 
ATOM      4  C4  DEN d   1       1.517   3.149   5.328  0.00  0.00     0.027 A 
ATOM      5  C5  DEN d   1       0.728   2.745   4.274  0.00  0.00    -0.003 A 
ATOM      6  C6  DEN d   1       1.188   2.723   2.984  0.00  0.00     0.001 A 
ATOM      7  C7  DEN d   1       2.486   3.071   2.721  0.00  0.00     0.017 A 
ATOM      8  C8  DEN d   1       3.286   3.486   3.777  0.00  0.00    -0.094 A 
ATOM      9  C9  DEN d   1       2.806   3.489   5.076  0.00  0.00    -0.072 A 
ENDROOT
TORSDOF 0
ENDMDL
