MODEL 1
REMARK minimizedAffinity 10.4485683
REMARK minimizedRMSD -1
REMARK  1 active torsions:
REMARK  status: ('A' for Active; 'I' for Inactive)
REMARK    1  A    between atoms: N_2  and  C1_3 
ROOT
ATOM      1  C1  UNL d   1       3.652  -3.874   0.005  0.00  0.00     0.143 A 
ATOM      2  C2  UNL d   1       3.374  -5.244  -0.060  0.00  0.00    -0.057 A 
ATOM      3  C3  UNL d   1       2.056  -5.716  -0.098  0.00  0.00     0.033 A 
ATOM      4  C4  UNL d   1       0.989  -4.825  -0.042  0.00  0.00    -0.042 A 
ATOM      5  C5  UNL d   1       1.242  -3.460   0.049  0.00  0.00     0.033 A 
ATOM      6  C6  UNL d   1       2.560  -2.995   0.079  0.00  0.00    -0.057 A 
ENDROOT
BRANCH   1   7
ATOM      7  N   UNL d   1       4.938  -3.347   0.145  0.00  0.00    -0.732 N 
ATOM      8  C   UNL d   1       6.000  -3.747  -0.754  0.00  0.00     0.284 C 
ATOM      9  H3  UNL d   1       4.930  -2.353   0.362  0.00  0.00     0.395 HD
ENDBRANCH   1   7
TORSDOF 1
ENDMDL
