MODEL 1
REMARK minimizedAffinity 13.196125
REMARK minimizedRMSD -1
REMARK  1 active torsions:
REMARK  status: ('A' for Active; 'I' for Inactive)
REMARK    1  A    between atoms: N_2  and  C1_3 
ROOT
ATOM      1  C1  UNL d   1      -5.181  -1.728  -3.241  0.00  0.00     0.143 A 
ATOM      2  C2  UNL d   1      -5.813  -0.562  -3.686  0.00  0.00    -0.057 A 
ATOM      3  C3  UNL d   1      -5.999  -0.313  -5.052  0.00  0.00     0.033 A 
ATOM      4  C4  UNL d   1      -5.528  -1.216  -6.000  0.00  0.00    -0.042 A 
ATOM      5  C5  UNL d   1      -4.875  -2.369  -5.581  0.00  0.00     0.033 A 
ATOM      6  C6  UNL d   1      -4.698  -2.615  -4.216  0.00  0.00    -0.057 A 
ENDROOT
BRANCH   1   7
ATOM      7  N   UNL d   1      -4.878  -1.985  -1.902  0.00  0.00    -0.732 N 
ATOM      8  C   UNL d   1      -3.820  -1.259  -1.232  0.00  0.00     0.284 C 
ATOM      9  H3  UNL d   1      -5.711  -2.123  -1.335  0.00  0.00     0.395 HD
ENDBRANCH   1   7
TORSDOF 1
ENDMDL
