MODEL 1
REMARK minimizedAffinity 12.6243868
REMARK minimizedRMSD -1
REMARK  1 active torsions:
REMARK  status: ('A' for Active; 'I' for Inactive)
REMARK    1  A    between atoms: N_2  and  C1_3 
ROOT
ATOM      1  C1  UNL d   1       2.215  -3.172   0.686  0.00  0.00     0.143 A 
ATOM      2  C2  UNL d   1       3.237  -2.404   0.118  0.00  0.00    -0.057 A 
ATOM      3  C3  UNL d   1       3.110  -1.017  -0.024  0.00  0.00     0.033 A 
ATOM      4  C4  UNL d   1       1.942  -0.376   0.375  0.00  0.00    -0.042 A 
ATOM      5  C5  UNL d   1       0.903  -1.122   0.919  0.00  0.00     0.033 A 
ATOM      6  C6  UNL d   1       1.039  -2.506   1.065  0.00  0.00    -0.057 A 
ENDROOT
BRANCH   1   7
ATOM      7  N   UNL d   1       2.242  -4.567   0.765  0.00  0.00    -0.732 N 
ATOM      8  C   UNL d   1       3.382  -5.311   0.275  0.00  0.00     0.284 C 
ATOM      9  H3  UNL d   1       1.865  -4.914   1.644  0.00  0.00     0.395 HD
ENDBRANCH   1   7
TORSDOF 1
ENDMDL
