MODEL 1
REMARK minimizedAffinity 10.2581596
REMARK minimizedRMSD -1
REMARK  1 active torsions:
REMARK  status: ('A' for Active; 'I' for Inactive)
REMARK    1  A    between atoms: N_2  and  C1_3 
ROOT
ATOM      1  C1  UNL d   1      -4.146   3.189   5.868  0.00  0.00     0.143 A 
ATOM      2  C2  UNL d   1      -5.415   3.770   5.956  0.00  0.00    -0.057 A 
ATOM      3  C3  UNL d   1      -5.576   5.160   5.998  0.00  0.00     0.033 A 
ATOM      4  C4  UNL d   1      -4.464   5.996   5.982  0.00  0.00    -0.042 A 
ATOM      5  C5  UNL d   1      -3.192   5.440   5.920  0.00  0.00     0.033 A 
ATOM      6  C6  UNL d   1      -3.038   4.051   5.872  0.00  0.00    -0.057 A 
ENDROOT
BRANCH   1   7
ATOM      7  N   UNL d   1      -3.915   1.812   5.922  0.00  0.00    -0.732 N 
ATOM      8  C   UNL d   1      -3.393   1.107   4.772  0.00  0.00     0.284 C 
ATOM      9  H3  UNL d   1      -3.508   1.521   6.808  0.00  0.00     0.395 HD
ENDBRANCH   1   7
TORSDOF 1
ENDMDL
