MODEL 1
REMARK minimizedAffinity 6.77135849
REMARK minimizedRMSD -1
REMARK  1 active torsions:
REMARK  status: ('A' for Active; 'I' for Inactive)
REMARK    1  A    between atoms: N_2  and  C1_3 
ROOT
ATOM      1  C1  UNL d   1       1.414  -1.882   1.215  0.00  0.00     0.143 A 
ATOM      2  C2  UNL d   1       0.075  -2.144   0.905  0.00  0.00    -0.057 A 
ATOM      3  C3  UNL d   1      -0.963  -1.686   1.725  0.00  0.00     0.033 A 
ATOM      4  C4  UNL d   1      -0.679  -0.981   2.890  0.00  0.00    -0.042 A 
ATOM      5  C5  UNL d   1       0.646  -0.731   3.231  0.00  0.00     0.033 A 
ATOM      6  C6  UNL d   1       1.678  -1.185   2.404  0.00  0.00    -0.057 A 
ENDROOT
BRANCH   1   7
ATOM      7  N   UNL d   1       2.494  -2.394   0.493  0.00  0.00    -0.732 N 
ATOM      8  C   UNL d   1       2.481  -3.761   0.017  0.00  0.00     0.284 C 
ATOM      9  H3  UNL d   1       2.866  -1.725  -0.177  0.00  0.00     0.395 HD
ENDBRANCH   1   7
TORSDOF 1
ENDMDL
