MODEL 1
REMARK minimizedAffinity 14.0100298
REMARK minimizedRMSD -1
REMARK  1 active torsions:
REMARK  status: ('A' for Active; 'I' for Inactive)
REMARK    1  A    between atoms: N_2  and  C1_3 
ROOT
ATOM      1  C1  UNL d   1      -3.069  -0.061   2.147  0.00  0.00     0.143 A 
ATOM      2  C2  UNL d   1      -3.427  -0.485   0.863  0.00  0.00    -0.057 A 
ATOM      3  C3  UNL d   1      -2.734  -1.518   0.219  0.00  0.00     0.033 A 
ATOM      4  C4  UNL d   1      -1.648  -2.127   0.840  0.00  0.00    -0.042 A 
ATOM      5  C5  UNL d   1      -1.259  -1.705   2.106  0.00  0.00     0.033 A 
ATOM      6  C6  UNL d   1      -1.959  -0.678   2.746  0.00  0.00    -0.057 A 
ENDROOT
BRANCH   1   7
ATOM      7  N   UNL d   1      -3.656   1.026   2.799  0.00  0.00    -0.732 N 
ATOM      8  C   UNL d   1      -4.872   1.622   2.290  0.00  0.00     0.284 C 
ATOM      9  H3  UNL d   1      -3.632   0.930   3.812  0.00  0.00     0.395 HD
ENDBRANCH   1   7
TORSDOF 1
ENDMDL
