MODEL 1
REMARK minimizedAffinity 15.7415524
REMARK minimizedRMSD -1
REMARK  0 active torsions:
REMARK  status: ('A' for Active; 'I' for Inactive)
ROOT
ATOM      1  C   UNL d   1      -3.920   5.614  -3.004  0.00  0.00    -0.002 A 
ATOM      2  C1  UNL d   1      -5.245   6.000  -2.858  0.00  0.00     0.010 A 
ATOM      3  C2  UNL d   1      -5.963   5.657  -1.710  0.00  0.00     0.041 A 
ATOM      4  C3  UNL d   1      -5.320   4.914  -0.701  0.00  0.00    -0.075 A 
ATOM      5  S   UNL d   1      -6.000   4.382   0.791  0.00  0.00     0.015 SA
ATOM      6  C4  UNL d   1      -4.548   3.630   1.271  0.00  0.00     0.022 A 
ATOM      7  C5  UNL d   1      -3.558   3.772   0.328  0.00  0.00     0.026 A 
ATOM      8  C6  UNL d   1      -3.986   4.515  -0.824  0.00  0.00    -0.082 A 
ATOM      9  C7  UNL d   1      -3.286   4.877  -2.000  0.00  0.00     0.045 A 
ENDROOT
TORSDOF 0
ENDMDL
