MODEL 1
REMARK minimizedAffinity 7.93108892
REMARK minimizedRMSD -1
REMARK  0 active torsions:
REMARK  status: ('A' for Active; 'I' for Inactive)
ROOT
ATOM      1  C   UNL d   1      -5.565  -4.807   0.627  0.00  0.00    -0.002 A 
ATOM      2  C1  UNL d   1      -4.860  -5.990   0.456  0.00  0.00     0.010 A 
ATOM      3  C2  UNL d   1      -3.466  -5.979   0.367  0.00  0.00     0.041 A 
ATOM      4  C3  UNL d   1      -2.787  -4.748   0.455  0.00  0.00    -0.075 A 
ATOM      5  S   UNL d   1      -1.084  -4.493   0.372  0.00  0.00     0.015 SA
ATOM      6  C4  UNL d   1      -1.252  -2.807   0.563  0.00  0.00     0.022 A 
ATOM      7  C5  UNL d   1      -2.569  -2.432   0.688  0.00  0.00     0.026 A 
ATOM      8  C6  UNL d   1      -3.475  -3.544   0.628  0.00  0.00    -0.082 A 
ATOM      9  C7  UNL d   1      -4.888  -3.588   0.714  0.00  0.00     0.045 A 
ENDROOT
TORSDOF 0
ENDMDL
