MODEL 1
REMARK minimizedAffinity 12.8000278
REMARK minimizedRMSD -1
REMARK  0 active torsions:
REMARK  status: ('A' for Active; 'I' for Inactive)
ROOT
ATOM      1  C   UNL d   1       2.987   2.175  -0.008  0.00  0.00    -0.002 A 
ATOM      2  C1  UNL d   1       3.927   3.184  -0.166  0.00  0.00     0.010 A 
ATOM      3  C2  UNL d   1       4.660   3.649   0.928  0.00  0.00     0.041 A 
ATOM      4  C3  UNL d   1       4.432   3.076   2.195  0.00  0.00    -0.075 A 
ATOM      5  S   UNL d   1       5.213   3.485   3.676  0.00  0.00     0.015 SA
ATOM      6  C4  UNL d   1       4.319   2.330   4.553  0.00  0.00     0.022 A 
ATOM      7  C5  UNL d   1       3.441   1.640   3.751  0.00  0.00     0.026 A 
ATOM      8  C6  UNL d   1       3.492   2.058   2.378  0.00  0.00    -0.082 A 
ATOM      9  C7  UNL d   1       2.764   1.609   1.250  0.00  0.00     0.045 A 
ENDROOT
TORSDOF 0
ENDMDL
