MODEL 1
REMARK minimizedAffinity 18.471035
REMARK minimizedRMSD -1
REMARK  0 active torsions:
REMARK  status: ('A' for Active; 'I' for Inactive)
ROOT
ATOM      1  C   UNL d   1       5.989  -0.175  -4.129  0.00  0.00    -0.002 A 
ATOM      2  C1  UNL d   1       6.000   1.212  -4.076  0.00  0.00     0.010 A 
ATOM      3  C2  UNL d   1       5.008   1.903  -3.377  0.00  0.00     0.041 A 
ATOM      4  C3  UNL d   1       3.998   1.171  -2.724  0.00  0.00    -0.075 A 
ATOM      5  S   UNL d   1       2.682   1.804  -1.807  0.00  0.00     0.015 SA
ATOM      6  C4  UNL d   1       2.075   0.248  -1.464  0.00  0.00     0.022 A 
ATOM      7  C5  UNL d   1       2.845  -0.741  -2.027  0.00  0.00     0.026 A 
ATOM      8  C6  UNL d   1       3.966  -0.226  -2.762  0.00  0.00    -0.082 A 
ATOM      9  C7  UNL d   1       4.985  -0.898  -3.480  0.00  0.00     0.045 A 
ENDROOT
TORSDOF 0
ENDMDL
