MODEL 1
REMARK minimizedAffinity 15.5908165
REMARK minimizedRMSD -1
REMARK  0 active torsions:
REMARK  status: ('A' for Active; 'I' for Inactive)
ROOT
ATOM      1  C   UNL d   1      -1.921  -1.885  -1.179  0.00  0.00    -0.002 A 
ATOM      2  C1  UNL d   1      -1.412  -3.176  -1.148  0.00  0.00     0.010 A 
ATOM      3  C2  UNL d   1      -1.161  -3.811   0.070  0.00  0.00     0.041 A 
ATOM      4  C3  UNL d   1      -1.433  -3.122   1.267  0.00  0.00    -0.075 A 
ATOM      5  S   UNL d   1      -1.205  -3.700   2.875  0.00  0.00     0.015 SA
ATOM      6  C4  UNL d   1      -1.778  -2.248   3.559  0.00  0.00     0.022 A 
ATOM      7  C5  UNL d   1      -2.139  -1.333   2.599  0.00  0.00     0.026 A 
ATOM      8  C6  UNL d   1      -1.947  -1.821   1.262  0.00  0.00    -0.082 A 
ATOM      9  C7  UNL d   1      -2.190  -1.204   0.011  0.00  0.00     0.045 A 
ENDROOT
TORSDOF 0
ENDMDL
