MODEL 1
REMARK minimizedAffinity 12.8915873
REMARK minimizedRMSD -1
REMARK  0 active torsions:
REMARK  status: ('A' for Active; 'I' for Inactive)
ROOT
ATOM      1  C   UNL d   1       6.000  -0.807  -3.624  0.00  0.00    -0.002 A 
ATOM      2  C1  UNL d   1       5.925   0.519  -4.025  0.00  0.00     0.010 A 
ATOM      3  C2  UNL d   1       4.872   1.332  -3.600  0.00  0.00     0.041 A 
ATOM      4  C3  UNL d   1       3.887   0.783  -2.755  0.00  0.00    -0.075 A 
ATOM      5  S   UNL d   1       2.506   1.589  -2.109  0.00  0.00     0.015 SA
ATOM      6  C4  UNL d   1       1.984   0.192  -1.285  0.00  0.00     0.022 A 
ATOM      7  C5  UNL d   1       2.830  -0.873  -1.487  0.00  0.00     0.026 A 
ATOM      8  C6  UNL d   1       3.941  -0.549  -2.338  0.00  0.00    -0.082 A 
ATOM      9  C7  UNL d   1       5.020  -1.347  -2.787  0.00  0.00     0.045 A 
ENDROOT
TORSDOF 0
ENDMDL
