MODEL 1
REMARK minimizedAffinity 22.1062927
REMARK minimizedRMSD -1
REMARK  0 active torsions:
REMARK  status: ('A' for Active; 'I' for Inactive)
ROOT
ATOM      1  C   UNL d   1       1.355   0.739  -1.888  0.00  0.00    -0.002 A 
ATOM      2  C1  UNL d   1       1.957  -0.396  -1.362  0.00  0.00     0.010 A 
ATOM      3  C2  UNL d   1       2.898  -0.290  -0.336  0.00  0.00     0.041 A 
ATOM      4  C3  UNL d   1       3.225   0.987   0.160  0.00  0.00    -0.075 A 
ATOM      5  S   UNL d   1       4.348   1.360   1.414  0.00  0.00     0.015 SA
ATOM      6  C4  UNL d   1       4.054   3.033   1.283  0.00  0.00     0.022 A 
ATOM      7  C5  UNL d   1       3.125   3.319   0.311  0.00  0.00     0.026 A 
ATOM      8  C6  UNL d   1       2.631   2.144  -0.352  0.00  0.00    -0.082 A 
ATOM      9  C7  UNL d   1       1.682   2.004  -1.393  0.00  0.00     0.045 A 
ENDROOT
TORSDOF 0
ENDMDL
