MODEL 1
REMARK minimizedAffinity 14.3335638
REMARK minimizedRMSD -1
REMARK  0 active torsions:
REMARK  status: ('A' for Active; 'I' for Inactive)
ROOT
ATOM      1  C   UNL d   1      -1.517  -2.173  -0.974  0.00  0.00    -0.002 A 
ATOM      2  C1  UNL d   1      -0.703  -3.240  -0.621  0.00  0.00     0.010 A 
ATOM      3  C2  UNL d   1      -0.696  -3.725   0.688  0.00  0.00     0.041 A 
ATOM      4  C3  UNL d   1      -1.529  -3.115   1.646  0.00  0.00    -0.075 A 
ATOM      5  S   UNL d   1      -1.687  -3.541   3.309  0.00  0.00     0.015 SA
ATOM      6  C4  UNL d   1      -2.839  -2.317   3.591  0.00  0.00     0.022 A 
ATOM      7  C5  UNL d   1      -3.108  -1.591   2.455  0.00  0.00     0.026 A 
ATOM      8  C6  UNL d   1      -2.358  -2.040   1.315  0.00  0.00    -0.082 A 
ATOM      9  C7  UNL d   1      -2.343  -1.570  -0.021  0.00  0.00     0.045 A 
ENDROOT
TORSDOF 0
ENDMDL
