MODEL 1
REMARK minimizedAffinity 22.5803223
REMARK minimizedRMSD -1
REMARK  0 active torsions:
REMARK  status: ('A' for Active; 'I' for Inactive)
ROOT
ATOM      1  C   UNL d   1      -2.066   3.237  -4.015  0.00  0.00    -0.002 A 
ATOM      2  C1  UNL d   1      -2.676   2.353  -4.893  0.00  0.00     0.010 A 
ATOM      3  C2  UNL d   1      -3.898   2.673  -5.489  0.00  0.00     0.041 A 
ATOM      4  C3  UNL d   1      -4.500   3.910  -5.186  0.00  0.00    -0.075 A 
ATOM      5  S   UNL d   1      -5.994   4.516  -5.797  0.00  0.00     0.015 SA
ATOM      6  C4  UNL d   1      -5.857   5.963  -4.907  0.00  0.00     0.022 A 
ATOM      7  C5  UNL d   1      -4.706   6.000  -4.157  0.00  0.00     0.026 A 
ATOM      8  C6  UNL d   1      -3.905   4.817  -4.305  0.00  0.00    -0.082 A 
ATOM      9  C7  UNL d   1      -2.667   4.463  -3.716  0.00  0.00     0.045 A 
ENDROOT
TORSDOF 0
ENDMDL
