MODEL 1
REMARK minimizedAffinity 18.3491135
REMARK minimizedRMSD -1
REMARK  0 active torsions:
REMARK  status: ('A' for Active; 'I' for Inactive)
ROOT
ATOM      1  C   UNL d   1      -1.976  -1.806   1.286  0.00  0.00    -0.002 A 
ATOM      2  C1  UNL d   1      -2.080  -1.470  -0.057  0.00  0.00     0.010 A 
ATOM      3  C2  UNL d   1      -1.664  -2.363  -1.046  0.00  0.00     0.041 A 
ATOM      4  C3  UNL d   1      -1.138  -3.612  -0.661  0.00  0.00    -0.075 A 
ATOM      5  S   UNL d   1      -0.566  -4.864  -1.698  0.00  0.00     0.015 SA
ATOM      6  C4  UNL d   1      -0.172  -5.875  -0.384  0.00  0.00     0.022 A 
ATOM      7  C5  UNL d   1      -0.463  -5.287   0.824  0.00  0.00     0.026 A 
ATOM      8  C6  UNL d   1      -1.025  -3.973   0.685  0.00  0.00    -0.082 A 
ATOM      9  C7  UNL d   1      -1.455  -3.046   1.665  0.00  0.00     0.045 A 
ENDROOT
TORSDOF 0
ENDMDL
