MODEL 1
REMARK minimizedAffinity 28.3979244
REMARK minimizedRMSD -1
REMARK  0 active torsions:
REMARK  status: ('A' for Active; 'I' for Inactive)
ROOT
ATOM      1  C   UNL d   1      -2.203  -2.018  -0.428  0.00  0.00    -0.002 A 
ATOM      2  C1  UNL d   1      -3.011  -1.843   0.686  0.00  0.00     0.010 A 
ATOM      3  C2  UNL d   1      -2.788  -2.584   1.848  0.00  0.00     0.041 A 
ATOM      4  C3  UNL d   1      -1.728  -3.512   1.872  0.00  0.00    -0.075 A 
ATOM      5  S   UNL d   1      -1.266  -4.530   3.185  0.00  0.00     0.015 SA
ATOM      6  C4  UNL d   1       0.015  -5.220   2.298  0.00  0.00     0.022 A 
ATOM      7  C5  UNL d   1       0.103  -4.698   1.029  0.00  0.00     0.026 A 
ATOM      8  C6  UNL d   1      -0.900  -3.705   0.763  0.00  0.00    -0.082 A 
ATOM      9  C7  UNL d   1      -1.152  -2.939  -0.401  0.00  0.00     0.045 A 
ENDROOT
TORSDOF 0
ENDMDL
