MODEL 1
REMARK minimizedAffinity -1.78478777
REMARK minimizedRMSD -1
REMARK  0 active torsions:
REMARK  status: ('A' for Active; 'I' for Inactive)
ROOT
ATOM      1  O1  BZF d   1       0.914  -0.618   0.023  0.00  0.00    -0.204 OA
ATOM      2  C2  BZF d   1       0.422  -0.430  -1.254  0.00  0.00     0.174 A 
ATOM      3  C3  BZF d   1      -0.790   0.161  -1.218  0.00  0.00    -0.012 A 
ATOM      4  C3A BZF d   1      -1.031   0.439   0.165  0.00  0.00    -0.107 A 
ATOM      5  C4  BZF d   1      -2.061   1.033   0.837  0.00  0.00     0.055 A 
ATOM      6  C5  BZF d   1      -2.021   1.083   2.195  0.00  0.00    -0.016 A 
ATOM      7  C6  BZF d   1      -0.972   0.545   2.911  0.00  0.00     0.022 A 
ATOM      8  C7  BZF d   1       0.074  -0.050   2.288  0.00  0.00     0.029 A 
ATOM      9  C7A BZF d   1       0.053  -0.072   0.915  0.00  0.00     0.058 A 
ENDROOT
TORSDOF 0
ENDMDL
