MODEL 1
REMARK minimizedAffinity -2.64484072
REMARK minimizedRMSD -1
REMARK  0 active torsions:
REMARK  status: ('A' for Active; 'I' for Inactive)
ROOT
ATOM      1  O1  BZF d   1       1.107  -0.758   1.270  0.00  0.00    -0.204 OA
ATOM      2  C2  BZF d   1       1.346  -1.227  -0.007  0.00  0.00     0.174 A 
ATOM      3  C3  BZF d   1       0.340  -0.888  -0.839  0.00  0.00    -0.012 A 
ATOM      4  C3A BZF d   1      -0.542  -0.082  -0.052  0.00  0.00    -0.107 A 
ATOM      5  C4  BZF d   1      -1.714   0.565  -0.322  0.00  0.00     0.055 A 
ATOM      6  C5  BZF d   1      -2.363   1.205   0.687  0.00  0.00    -0.016 A 
ATOM      7  C6  BZF d   1      -1.872   1.213   1.976  0.00  0.00     0.022 A 
ATOM      8  C7  BZF d   1      -0.710   0.589   2.291  0.00  0.00     0.029 A 
ATOM      9  C7A BZF d   1      -0.036  -0.030   1.267  0.00  0.00     0.058 A 
ENDROOT
TORSDOF 0
ENDMDL
