MODEL 1
REMARK minimizedAffinity -3.80393457
REMARK minimizedRMSD -1
REMARK  0 active torsions:
REMARK  status: ('A' for Active; 'I' for Inactive)
ROOT
ATOM      1  O1  BZF d   1       1.087  -1.467   0.278  0.00  0.00    -0.204 OA
ATOM      2  C2  BZF d   1       0.831  -1.235  -1.059  0.00  0.00     0.174 A 
ATOM      3  C3  BZF d   1      -0.140  -0.312  -1.208  0.00  0.00    -0.012 A 
ATOM      4  C3A BZF d   1      -0.451   0.125   0.119  0.00  0.00    -0.107 A 
ATOM      5  C4  BZF d   1      -1.326   1.043   0.624  0.00  0.00     0.055 A 
ATOM      6  C5  BZF d   1      -1.437   1.177   1.972  0.00  0.00    -0.016 A 
ATOM      7  C6  BZF d   1      -0.693   0.407   2.842  0.00  0.00     0.022 A 
ATOM      8  C7  BZF d   1       0.191  -0.513   2.388  0.00  0.00     0.029 A 
ATOM      9  C7A BZF d   1       0.330  -0.628   1.026  0.00  0.00     0.058 A 
ENDROOT
TORSDOF 0
ENDMDL
