MODEL 1
REMARK minimizedAffinity -4.37994671
REMARK minimizedRMSD -1
REMARK  0 active torsions:
REMARK  status: ('A' for Active; 'I' for Inactive)
ROOT
ATOM      1  O1  BZF d   1      -0.815   1.904  -0.998  0.00  0.00    -0.204 OA
ATOM      2  C2  BZF d   1      -1.432   1.212   0.027  0.00  0.00     0.174 A 
ATOM      3  C3  BZF d   1      -1.148  -0.104  -0.046  0.00  0.00    -0.012 A 
ATOM      4  C3A BZF d   1      -0.227  -0.231  -1.134  0.00  0.00    -0.107 A 
ATOM      5  C4  BZF d   1       0.431  -1.291  -1.689  0.00  0.00     0.055 A 
ATOM      6  C5  BZF d   1       1.202  -1.088  -2.789  0.00  0.00    -0.016 A 
ATOM      7  C6  BZF d   1       1.334   0.160  -3.363  0.00  0.00     0.022 A 
ATOM      8  C7  BZF d   1       0.705   1.243  -2.845  0.00  0.00     0.029 A 
ATOM      9  C7A BZF d   1      -0.049   1.047  -1.714  0.00  0.00     0.058 A 
ENDROOT
TORSDOF 0
ENDMDL
