MODEL 1
REMARK minimizedAffinity 1.36382818
REMARK minimizedRMSD -1
REMARK  0 active torsions:
REMARK  status: ('A' for Active; 'I' for Inactive)
ROOT
ATOM      1  O1  BZF d   1       1.102  -0.821  -0.213  0.00  0.00    -0.204 OA
ATOM      2  C2  BZF d   1       0.483  -0.580  -1.425  0.00  0.00     0.174 A 
ATOM      3  C3  BZF d   1      -0.712   0.017  -1.242  0.00  0.00    -0.012 A 
ATOM      4  C3A BZF d   1      -0.808   0.243   0.168  0.00  0.00    -0.107 A 
ATOM      5  C4  BZF d   1      -1.757   0.816   0.964  0.00  0.00     0.055 A 
ATOM      6  C5  BZF d   1      -1.579   0.813   2.312  0.00  0.00    -0.016 A 
ATOM      7  C6  BZF d   1      -0.468   0.241   2.896  0.00  0.00     0.022 A 
ATOM      8  C7  BZF d   1       0.503  -0.336   2.146  0.00  0.00     0.029 A 
ATOM      9  C7A BZF d   1       0.342  -0.305   0.783  0.00  0.00     0.058 A 
ENDROOT
TORSDOF 0
ENDMDL
