MODEL 1
REMARK minimizedAffinity -3.36647868
REMARK minimizedRMSD -1
REMARK  0 active torsions:
REMARK  status: ('A' for Active; 'I' for Inactive)
ROOT
ATOM      1  O1  BZF d   1      -0.359  -0.662  -0.438  0.00  0.00    -0.204 OA
ATOM      2  C2  BZF d   1      -1.698  -0.445  -0.697  0.00  0.00     0.174 A 
ATOM      3  C3  BZF d   1      -2.240   0.367   0.234  0.00  0.00    -0.012 A 
ATOM      4  C3A BZF d   1      -1.151   0.751   1.078  0.00  0.00    -0.107 A 
ATOM      5  C4  BZF d   1      -1.052   1.562   2.173  0.00  0.00     0.055 A 
ATOM      6  C5  BZF d   1       0.143   1.668   2.810  0.00  0.00    -0.016 A 
ATOM      7  C6  BZF d   1       1.258   0.976   2.383  0.00  0.00     0.022 A 
ATOM      8  C7  BZF d   1       1.210   0.164   1.299  0.00  0.00     0.029 A 
ATOM      9  C7A BZF d   1       0.012   0.080   0.633  0.00  0.00     0.058 A 
ENDROOT
TORSDOF 0
ENDMDL
