MODEL 1
REMARK minimizedAffinity -4.88754272
REMARK minimizedRMSD -1
REMARK  0 active torsions:
REMARK  status: ('A' for Active; 'I' for Inactive)
ROOT
ATOM      1  O1  BZF d   1      -1.799   0.651   0.666  0.00  0.00    -0.204 OA
ATOM      2  C2  BZF d   1      -1.733   1.189   1.936  0.00  0.00     0.174 A 
ATOM      3  C3  BZF d   1      -0.623   0.769   2.576  0.00  0.00    -0.012 A 
ATOM      4  C3A BZF d   1       0.094  -0.012   1.614  0.00  0.00    -0.107 A 
ATOM      5  C4  BZF d   1       1.281  -0.684   1.648  0.00  0.00     0.055 A 
ATOM      6  C5  BZF d   1       1.661  -1.409   0.562  0.00  0.00    -0.016 A 
ATOM      7  C6  BZF d   1       0.877  -1.486  -0.570  0.00  0.00     0.022 A 
ATOM      8  C7  BZF d   1      -0.307  -0.832  -0.652  0.00  0.00     0.029 A 
ATOM      9  C7A BZF d   1      -0.678  -0.072   0.431  0.00  0.00     0.058 A 
ENDROOT
TORSDOF 0
ENDMDL
