MODEL 1
REMARK minimizedAffinity 5.90318251
REMARK minimizedRMSD -1
REMARK  0 active torsions:
REMARK  status: ('A' for Active; 'I' for Inactive)
ROOT
ATOM      1  O1  BZF d   1       1.822  -5.715  -5.615  0.00  0.00    -0.204 OA
ATOM      2  C2  BZF d   1       2.999  -5.101  -5.996  0.00  0.00     0.174 A 
ATOM      3  C3  BZF d   1       2.859  -3.759  -6.000  0.00  0.00    -0.012 A 
ATOM      4  C3A BZF d   1       1.537  -3.518  -5.508  0.00  0.00    -0.107 A 
ATOM      5  C4  BZF d   1       0.818  -2.382  -5.267  0.00  0.00     0.055 A 
ATOM      6  C5  BZF d   1      -0.473  -2.492  -4.857  0.00  0.00    -0.016 A 
ATOM      7  C6  BZF d   1      -1.077  -3.720  -4.682  0.00  0.00     0.022 A 
ATOM      8  C7  BZF d   1      -0.402  -4.875  -4.903  0.00  0.00     0.029 A 
ATOM      9  C7A BZF d   1       0.913  -4.767  -5.286  0.00  0.00     0.058 A 
ENDROOT
TORSDOF 0
ENDMDL
