MODEL 1
REMARK minimizedAffinity 0.65602088
REMARK minimizedRMSD -1
REMARK  0 active torsions:
REMARK  status: ('A' for Active; 'I' for Inactive)
ROOT
ATOM      1  O1  BZF d   1      -2.180   1.695   2.205  0.00  0.00    -0.204 OA
ATOM      2  C2  BZF d   1      -1.119   0.953   2.686  0.00  0.00     0.174 A 
ATOM      3  C3  BZF d   1      -0.889  -0.118   1.899  0.00  0.00    -0.012 A 
ATOM      4  C3A BZF d   1      -1.808   0.010   0.810  0.00  0.00    -0.107 A 
ATOM      5  C4  BZF d   1      -2.052  -0.738  -0.305  0.00  0.00     0.055 A 
ATOM      6  C5  BZF d   1      -3.068  -0.379  -1.133  0.00  0.00    -0.016 A 
ATOM      7  C6  BZF d   1      -3.863   0.719  -0.872  0.00  0.00     0.022 A 
ATOM      8  C7  BZF d   1      -3.656   1.495   0.220  0.00  0.00     0.029 A 
ATOM      9  C7A BZF d   1      -2.608   1.153   1.040  0.00  0.00     0.058 A 
ENDROOT
TORSDOF 0
ENDMDL
