MODEL 1
REMARK minimizedAffinity 5.13530111
REMARK minimizedRMSD -1
REMARK  0 active torsions:
REMARK  status: ('A' for Active; 'I' for Inactive)
ROOT
ATOM      1  N1  IND d   1      -1.660   2.371  -0.767  0.00  0.00    -0.196 N 
ATOM      2  C2  IND d   1      -1.900   1.034  -0.616  0.00  0.00     0.054 A 
ATOM      3  C3  IND d   1      -0.980   0.479   0.204  0.00  0.00    -0.031 A 
ATOM      4  C4  IND d   1       0.950   1.598   1.490  0.00  0.00     0.051 A 
ATOM      5  C5  IND d   1       1.591   2.795   1.643  0.00  0.00    -0.031 A 
ATOM      6  C6  IND d   1       1.171   3.936   0.990  0.00  0.00     0.015 A 
ATOM      7  C7  IND d   1       0.083   3.924   0.164  0.00  0.00    -0.016 A 
ATOM      8  C8  IND d   1      -0.566   2.708   0.001  0.00  0.00    -0.047 A 
ATOM      9  C9  IND d   1      -0.120   1.538   0.628  0.00  0.00    -0.096 A 
ATOM     10  HN1 IND d   1      -2.114   2.910  -1.258  0.00  0.00     0.298 HD
ENDROOT
TORSDOF 0
ENDMDL
