MODEL 1
REMARK minimizedAffinity 11.5572977
REMARK minimizedRMSD -1
REMARK  0 active torsions:
REMARK  status: ('A' for Active; 'I' for Inactive)
ROOT
ATOM      1  N1  IND d   1       2.075   2.008   3.248  0.00  0.00    -0.196 N 
ATOM      2  C2  IND d   1       2.095   3.367   3.097  0.00  0.00     0.054 A 
ATOM      3  C3  IND d   1       1.995   3.697   1.790  0.00  0.00    -0.031 A 
ATOM      4  C4  IND d   1       1.688   2.174  -0.263  0.00  0.00     0.051 A 
ATOM      5  C5  IND d   1       1.649   0.859  -0.632  0.00  0.00    -0.031 A 
ATOM      6  C6  IND d   1       1.749  -0.161   0.292  0.00  0.00     0.015 A 
ATOM      7  C7  IND d   1       1.881   0.097   1.627  0.00  0.00    -0.016 A 
ATOM      8  C8  IND d   1       1.929   1.432   2.005  0.00  0.00    -0.047 A 
ATOM      9  C9  IND d   1       1.870   2.471   1.067  0.00  0.00    -0.096 A 
ATOM     10  HN1 IND d   1       2.143   1.585   3.993  0.00  0.00     0.298 HD
ENDROOT
TORSDOF 0
ENDMDL
