MODEL 1
REMARK minimizedAffinity 1.45282233
REMARK minimizedRMSD -1
REMARK  0 active torsions:
REMARK  status: ('A' for Active; 'I' for Inactive)
ROOT
ATOM      1  N1  IND d   1      -5.567   2.146   3.792  0.00  0.00    -0.196 N 
ATOM      2  C2  IND d   1      -5.757   1.460   4.959  0.00  0.00     0.054 A 
ATOM      3  C3  IND d   1      -5.855   2.319   5.999  0.00  0.00    -0.031 A 
ATOM      4  C4  IND d   1      -5.835   4.894   6.000  0.00  0.00     0.051 A 
ATOM      5  C5  IND d   1      -5.651   5.970   5.178  0.00  0.00    -0.031 A 
ATOM      6  C6  IND d   1      -5.427   5.823   3.824  0.00  0.00     0.015 A 
ATOM      7  C7  IND d   1      -5.391   4.590   3.237  0.00  0.00    -0.016 A 
ATOM      8  C8  IND d   1      -5.571   3.495   4.070  0.00  0.00    -0.047 A 
ATOM      9  C9  IND d   1      -5.756   3.635   5.452  0.00  0.00    -0.096 A 
ATOM     10  HN1 IND d   1      -5.463   1.793   3.015  0.00  0.00     0.298 HD
ENDROOT
TORSDOF 0
ENDMDL
