MODEL 1
REMARK minimizedAffinity 11.4523563
REMARK minimizedRMSD -1
REMARK  0 active torsions:
REMARK  status: ('A' for Active; 'I' for Inactive)
ROOT
ATOM      1  N1  IND d   1      -4.494   5.978   4.062  0.00  0.00    -0.196 N 
ATOM      2  C2  IND d   1      -5.820   5.793   3.785  0.00  0.00     0.054 A 
ATOM      3  C3  IND d   1      -6.000   5.594   2.460  0.00  0.00    -0.031 A 
ATOM      4  C4  IND d   1      -4.251   5.431   0.577  0.00  0.00     0.051 A 
ATOM      5  C5  IND d   1      -2.913   5.569   0.335  0.00  0.00    -0.031 A 
ATOM      6  C6  IND d   1      -2.015   5.854   1.343  0.00  0.00     0.015 A 
ATOM      7  C7  IND d   1      -2.422   6.000   2.639  0.00  0.00    -0.016 A 
ATOM      8  C8  IND d   1      -3.781   5.867   2.888  0.00  0.00    -0.047 A 
ATOM      9  C9  IND d   1      -4.703   5.621   1.862  0.00  0.00    -0.096 A 
ATOM     10  HN1 IND d   1      -4.161   6.136   4.838  0.00  0.00     0.298 HD
ENDROOT
TORSDOF 0
ENDMDL
