MODEL 1
REMARK minimizedAffinity 3.21318984
REMARK minimizedRMSD -1
REMARK  0 active torsions:
REMARK  status: ('A' for Active; 'I' for Inactive)
ROOT
ATOM      1  N1  IND d   1      -0.859   3.092  -0.909  0.00  0.00    -0.196 N 
ATOM      2  C2  IND d   1      -1.608   1.964  -1.094  0.00  0.00     0.054 A 
ATOM      3  C3  IND d   1      -1.141   0.957  -0.321  0.00  0.00    -0.031 A 
ATOM      4  C4  IND d   1       0.776   0.969   1.397  0.00  0.00     0.051 A 
ATOM      5  C5  IND d   1       1.776   1.760   1.890  0.00  0.00    -0.031 A 
ATOM      6  C6  IND d   1       1.950   3.062   1.469  0.00  0.00     0.015 A 
ATOM      7  C7  IND d   1       1.120   3.628   0.543  0.00  0.00    -0.016 A 
ATOM      8  C8  IND d   1       0.108   2.826   0.035  0.00  0.00    -0.047 A 
ATOM      9  C9  IND d   1      -0.047   1.491   0.427  0.00  0.00    -0.096 A 
ATOM     10  HN1 IND d   1      -0.973   3.842  -1.313  0.00  0.00     0.298 HD
ENDROOT
TORSDOF 0
ENDMDL
