MODEL 1
REMARK minimizedAffinity 4.64500284
REMARK minimizedRMSD -1
REMARK  0 active torsions:
REMARK  status: ('A' for Active; 'I' for Inactive)
ROOT
ATOM      1  N1  IND d   1       0.840  -4.613   0.120  0.00  0.00    -0.196 N 
ATOM      2  C2  IND d   1      -0.020  -4.755  -0.932  0.00  0.00     0.054 A 
ATOM      3  C3  IND d   1      -0.008  -3.644  -1.703  0.00  0.00    -0.031 A 
ATOM      4  C4  IND d   1       1.424  -1.516  -1.481  0.00  0.00     0.051 A 
ATOM      5  C5  IND d   1       2.330  -0.908  -0.658  0.00  0.00    -0.031 A 
ATOM      6  C6  IND d   1       2.797  -1.518   0.488  0.00  0.00     0.015 A 
ATOM      7  C7  IND d   1       2.383  -2.768   0.849  0.00  0.00    -0.016 A 
ATOM      8  C8  IND d   1       1.457  -3.385   0.020  0.00  0.00    -0.047 A 
ATOM      9  C9  IND d   1       0.947  -2.754  -1.122  0.00  0.00    -0.096 A 
ATOM     10  HN1 IND d   1       0.974  -5.193   0.741  0.00  0.00     0.298 HD
ENDROOT
TORSDOF 0
ENDMDL
