MODEL 1
REMARK minimizedAffinity 3.55040145
REMARK minimizedRMSD -1
REMARK  0 active torsions:
REMARK  status: ('A' for Active; 'I' for Inactive)
ROOT
ATOM      1  N1  IND d   1       0.836  -1.716  -0.086  0.00  0.00    -0.196 N 
ATOM      2  C2  IND d   1       1.563  -2.812  -0.458  0.00  0.00     0.054 A 
ATOM      3  C3  IND d   1       2.863  -2.480  -0.622  0.00  0.00    -0.031 A 
ATOM      4  C4  IND d   1       4.037  -0.223  -0.232  0.00  0.00     0.051 A 
ATOM      5  C5  IND d   1       3.783   1.084   0.078  0.00  0.00    -0.031 A 
ATOM      6  C6  IND d   1       2.508   1.533   0.358  0.00  0.00     0.015 A 
ATOM      7  C7  IND d   1       1.437   0.685   0.349  0.00  0.00    -0.016 A 
ATOM      8  C8  IND d   1       1.690  -0.641   0.028  0.00  0.00    -0.047 A 
ATOM      9  C9  IND d   1       2.975  -1.093  -0.299  0.00  0.00    -0.096 A 
ATOM     10  HN1 IND d   1      -0.013  -1.700   0.055  0.00  0.00     0.298 HD
ENDROOT
TORSDOF 0
ENDMDL
