MODEL 1
REMARK minimizedAffinity -1.76556444
REMARK minimizedRMSD -1
REMARK  0 active torsions:
REMARK  status: ('A' for Active; 'I' for Inactive)
ROOT
ATOM      1  N1  IND d   1      -2.367   5.988   2.946  0.00  0.00    -0.196 N 
ATOM      2  C2  IND d   1      -2.756   5.971   1.635  0.00  0.00     0.054 A 
ATOM      3  C3  IND d   1      -4.104   5.934   1.545  0.00  0.00    -0.031 A 
ATOM      4  C4  IND d   1      -5.871   6.000   3.417  0.00  0.00     0.051 A 
ATOM      5  C5  IND d   1      -6.000   5.982   4.777  0.00  0.00    -0.031 A 
ATOM      6  C6  IND d   1      -4.902   5.967   5.614  0.00  0.00     0.015 A 
ATOM      7  C7  IND d   1      -3.629   5.982   5.119  0.00  0.00    -0.016 A 
ATOM      8  C8  IND d   1      -3.494   5.993   3.737  0.00  0.00    -0.047 A 
ATOM      9  C9  IND d   1      -4.604   5.965   2.883  0.00  0.00    -0.096 A 
ATOM     10  HN1 IND d   1      -1.555   5.995   3.228  0.00  0.00     0.298 HD
ENDROOT
TORSDOF 0
ENDMDL
