MODEL 1
REMARK minimizedAffinity -1.19130385
REMARK minimizedRMSD -1
REMARK  0 active torsions:
REMARK  status: ('A' for Active; 'I' for Inactive)
ROOT
ATOM      1  N1  IND d   1       1.137  -5.203  -1.091  0.00  0.00    -0.196 N 
ATOM      2  C2  IND d   1      -0.173  -5.350  -1.455  0.00  0.00     0.054 A 
ATOM      3  C3  IND d   1      -0.751  -4.141  -1.629  0.00  0.00    -0.031 A 
ATOM      4  C4  IND d   1       0.290  -1.791  -1.471  0.00  0.00     0.051 A 
ATOM      5  C5  IND d   1       1.446  -1.146  -1.133  0.00  0.00    -0.031 A 
ATOM      6  C6  IND d   1       2.582  -1.834  -0.759  0.00  0.00     0.015 A 
ATOM      7  C7  IND d   1       2.608  -3.200  -0.720  0.00  0.00    -0.016 A 
ATOM      8  C8  IND d   1       1.433  -3.858  -1.055  0.00  0.00    -0.047 A 
ATOM      9  C9  IND d   1       0.265  -3.164  -1.395  0.00  0.00    -0.096 A 
ATOM     10  HN1 IND d   1       1.683  -5.843  -0.915  0.00  0.00     0.298 HD
ENDROOT
TORSDOF 0
ENDMDL
