MODEL 1
REMARK minimizedAffinity -1.21572602
REMARK minimizedRMSD -1
REMARK  0 active torsions:
REMARK  status: ('A' for Active; 'I' for Inactive)
ROOT
ATOM      1  N1  IND d   1      -4.566   1.953   2.959  0.00  0.00    -0.196 N 
ATOM      2  C2  IND d   1      -5.347   3.055   2.745  0.00  0.00     0.054 A 
ATOM      3  C3  IND d   1      -5.991   2.952   1.561  0.00  0.00    -0.031 A 
ATOM      4  C4  IND d   1      -5.991   1.018  -0.138  0.00  0.00     0.051 A 
ATOM      5  C5  IND d   1      -5.402  -0.187  -0.398  0.00  0.00    -0.031 A 
ATOM      6  C6  IND d   1      -4.488  -0.754   0.466  0.00  0.00     0.015 A 
ATOM      7  C7  IND d   1      -4.136  -0.138   1.634  0.00  0.00    -0.016 A 
ATOM      8  C8  IND d   1      -4.726   1.090   1.898  0.00  0.00    -0.047 A 
ATOM      9  C9  IND d   1      -5.623   1.689   1.004  0.00  0.00    -0.096 A 
ATOM     10  HN1 IND d   1      -4.059   1.822   3.641  0.00  0.00     0.298 HD
ENDROOT
TORSDOF 0
ENDMDL
