MODEL 1
REMARK minimizedAffinity -2.12169981
REMARK minimizedRMSD -1
REMARK  0 active torsions:
REMARK  status: ('A' for Active; 'I' for Inactive)
ROOT
ATOM      1  N1  IND d   1       2.553  -3.067  -1.189  0.00  0.00    -0.196 N 
ATOM      2  C2  IND d   1       1.524  -3.959  -1.067  0.00  0.00     0.054 A 
ATOM      3  C3  IND d   1       0.340  -3.308  -1.021  0.00  0.00    -0.031 A 
ATOM      4  C4  IND d   1      -0.151  -0.790  -1.233  0.00  0.00     0.051 A 
ATOM      5  C5  IND d   1       0.469   0.425  -1.324  0.00  0.00    -0.031 A 
ATOM      6  C6  IND d   1       1.843   0.539  -1.377  0.00  0.00     0.015 A 
ATOM      7  C7  IND d   1       2.652  -0.562  -1.354  0.00  0.00    -0.016 A 
ATOM      8  C8  IND d   1       2.026  -1.796  -1.256  0.00  0.00    -0.047 A 
ATOM      9  C9  IND d   1       0.633  -1.917  -1.158  0.00  0.00    -0.096 A 
ATOM     10  HN1 IND d   1       3.389  -3.267  -1.220  0.00  0.00     0.298 HD
ENDROOT
TORSDOF 0
ENDMDL
