MODEL 1
REMARK minimizedAffinity -4.49740219
REMARK minimizedRMSD -1
REMARK  0 active torsions:
REMARK  status: ('A' for Active; 'I' for Inactive)
ROOT
ATOM      1  C   UNL d   1       0.172   0.491   3.144  0.00  0.00     0.020 A 
ATOM      2  C1  UNL d   1       1.287  -0.151   2.607  0.00  0.00     0.020 A 
ATOM      3  C2  UNL d   1       1.290  -0.542   1.266  0.00  0.00     0.034 A 
ATOM      4  C3  UNL d   1       0.175  -0.290   0.458  0.00  0.00     0.017 A 
ATOM      5  C4  UNL d   1      -0.943   0.355   0.998  0.00  0.00     0.017 A 
ATOM      6  C5  UNL d   1      -0.941   0.744   2.341  0.00  0.00     0.034 A 
ATOM      7 Cl   UNL d   1      -2.356   0.699   0.062  0.00  0.00    -0.070 Cl
ATOM      8 Cl1  UNL d   1       0.247  -0.800  -1.192  0.00  0.00    -0.070 Cl
ENDROOT
TORSDOF 0
ENDMDL
