MODEL 1
REMARK minimizedAffinity -6.22409725
REMARK minimizedRMSD -1
REMARK  0 active torsions:
REMARK  status: ('A' for Active; 'I' for Inactive)
ROOT
ATOM      1  C   UNL d   1      -0.499   0.966   3.228  0.00  0.00     0.020 A 
ATOM      2  C1  UNL d   1       0.815   0.566   2.991  0.00  0.00     0.020 A 
ATOM      3  C2  UNL d   1       1.193   0.126   1.721  0.00  0.00     0.034 A 
ATOM      4  C3  UNL d   1       0.256   0.085   0.682  0.00  0.00     0.017 A 
ATOM      5  C4  UNL d   1      -1.063   0.488   0.921  0.00  0.00     0.017 A 
ATOM      6  C5  UNL d   1      -1.436   0.928   2.195  0.00  0.00     0.034 A 
ATOM      7 Cl   UNL d   1      -2.275   0.466  -0.311  0.00  0.00    -0.070 Cl
ATOM      8 Cl1  UNL d   1       0.793  -0.470  -0.863  0.00  0.00    -0.070 Cl
ENDROOT
TORSDOF 0
ENDMDL
