MODEL 1
REMARK minimizedAffinity -3.57644534
REMARK minimizedRMSD -1
REMARK  0 active torsions:
REMARK  status: ('A' for Active; 'I' for Inactive)
ROOT
ATOM      1  C   UNL d   1      -1.126  -0.407  -0.656  0.00  0.00     0.020 A 
ATOM      2  C1  UNL d   1       0.239  -0.292  -0.917  0.00  0.00     0.020 A 
ATOM      3  C2  UNL d   1       1.108   0.139   0.087  0.00  0.00     0.034 A 
ATOM      4  C3  UNL d   1       0.613   0.457   1.357  0.00  0.00     0.017 A 
ATOM      5  C4  UNL d   1      -0.757   0.341   1.618  0.00  0.00     0.017 A 
ATOM      6  C5  UNL d   1      -1.623  -0.092   0.609  0.00  0.00     0.034 A 
ATOM      7 Cl   UNL d   1      -1.442   0.714   3.161  0.00  0.00    -0.070 Cl
ATOM      8 Cl1  UNL d   1       1.745   0.983   2.552  0.00  0.00    -0.070 Cl
ENDROOT
TORSDOF 0
ENDMDL
