MODEL 1
REMARK minimizedAffinity -5.12878418
REMARK minimizedRMSD -1
REMARK  0 active torsions:
REMARK  status: ('A' for Active; 'I' for Inactive)
ROOT
ATOM      1  C   UNL d   1      -0.736   1.185   3.395  0.00  0.00     0.020 A 
ATOM      2  C1  UNL d   1      -1.484   1.197   2.218  0.00  0.00     0.020 A 
ATOM      3  C2  UNL d   1      -0.977   0.602   1.062  0.00  0.00     0.034 A 
ATOM      4  C3  UNL d   1       0.283  -0.009   1.079  0.00  0.00     0.017 A 
ATOM      5  C4  UNL d   1       1.033  -0.021   2.260  0.00  0.00     0.017 A 
ATOM      6  C5  UNL d   1       0.520   0.577   3.416  0.00  0.00     0.034 A 
ATOM      7 Cl   UNL d   1       2.595  -0.755   2.359  0.00  0.00    -0.070 Cl
ATOM      8 Cl1  UNL d   1       0.848  -0.726  -0.388  0.00  0.00    -0.070 Cl
ENDROOT
TORSDOF 0
ENDMDL
