MODEL 1
REMARK minimizedAffinity -5.26414013
REMARK minimizedRMSD -1
REMARK  0 active torsions:
REMARK  status: ('A' for Active; 'I' for Inactive)
ROOT
ATOM      1  C   UNL d   1       1.216   0.846   3.355  0.00  0.00     0.020 A 
ATOM      2  C1  UNL d   1      -0.101   1.298   3.422  0.00  0.00     0.020 A 
ATOM      3  C2  UNL d   1      -0.949   1.142   2.324  0.00  0.00     0.034 A 
ATOM      4  C3  UNL d   1      -0.482   0.533   1.154  0.00  0.00     0.017 A 
ATOM      5  C4  UNL d   1       0.841   0.079   1.088  0.00  0.00     0.017 A 
ATOM      6  C5  UNL d   1       1.686   0.237   2.190  0.00  0.00     0.034 A 
ATOM      7 Cl   UNL d   1       1.489  -0.683  -0.322  0.00  0.00    -0.070 Cl
ATOM      8 Cl1  UNL d   1      -1.586   0.373  -0.165  0.00  0.00    -0.070 Cl
ENDROOT
TORSDOF 0
ENDMDL
