MODEL 1
REMARK minimizedAffinity -3.38284397
REMARK minimizedRMSD -1
REMARK  0 active torsions:
REMARK  status: ('A' for Active; 'I' for Inactive)
ROOT
ATOM      1  C   UNL d   1      -1.668   0.654   2.123  0.00  0.00     0.023 A 
ATOM      2  C1  UNL d   1      -0.748   1.427   2.832  0.00  0.00     0.003 A 
ATOM      3  C2  UNL d   1       0.622   1.242   2.631  0.00  0.00     0.048 A 
ATOM      4  C3  UNL d   1       1.064   0.283   1.720  0.00  0.00     0.023 A 
ATOM      5  C4  UNL d   1       0.146  -0.492   1.008  0.00  0.00     0.048 A 
ATOM      6  C5  UNL d   1      -1.222  -0.304   1.213  0.00  0.00     0.003 A 
ATOM      7  I   UNL d   1       3.102   0.006   1.420  0.00  0.00    -0.146 I 
ENDROOT
TORSDOF 0
ENDMDL
