MODEL 1
REMARK minimizedAffinity -1.67351043
REMARK minimizedRMSD -1
REMARK  0 active torsions:
REMARK  status: ('A' for Active; 'I' for Inactive)
ROOT
ATOM      1  C   UNL d   1       1.726   1.554   2.280  0.00  0.00     0.023 A 
ATOM      2  C1  UNL d   1       0.395   1.902   2.511  0.00  0.00     0.003 A 
ATOM      3  C2  UNL d   1      -0.619   1.344   1.729  0.00  0.00     0.048 A 
ATOM      4  C3  UNL d   1      -0.295   0.438   0.720  0.00  0.00     0.023 A 
ATOM      5  C4  UNL d   1       1.036   0.087   0.487  0.00  0.00     0.048 A 
ATOM      6  C5  UNL d   1       2.046   0.648   1.270  0.00  0.00     0.003 A 
ATOM      7  I   UNL d   1      -1.802  -0.394  -0.444  0.00  0.00    -0.146 I 
ENDROOT
TORSDOF 0
ENDMDL
