MODEL 1
REMARK minimizedAffinity -0.145958677
REMARK minimizedRMSD -1
REMARK  0 active torsions:
REMARK  status: ('A' for Active; 'I' for Inactive)
ROOT
ATOM      1  C   UNL d   1       0.874   2.038   3.083  0.00  0.00     0.023 A 
ATOM      2  C1  UNL d   1       1.460   1.656   1.876  0.00  0.00     0.003 A 
ATOM      3  C2  UNL d   1       0.803   0.760   1.031  0.00  0.00     0.048 A 
ATOM      4  C3  UNL d   1      -0.442   0.250   1.398  0.00  0.00     0.023 A 
ATOM      5  C4  UNL d   1      -1.033   0.629   2.604  0.00  0.00     0.048 A 
ATOM      6  C5  UNL d   1      -0.371   1.524   3.446  0.00  0.00     0.003 A 
ATOM      7  I   UNL d   1      -1.422  -1.084   0.142  0.00  0.00    -0.146 I 
ENDROOT
TORSDOF 0
ENDMDL
