MODEL 1
REMARK minimizedAffinity 2.01362658
REMARK minimizedRMSD -1
REMARK  0 active torsions:
REMARK  status: ('A' for Active; 'I' for Inactive)
ROOT
ATOM      1  C   UNL d   1      -2.180  -0.669   0.752  0.00  0.00     0.023 A 
ATOM      2  C1  UNL d   1      -1.306  -0.395  -0.300  0.00  0.00     0.003 A 
ATOM      3  C2  UNL d   1      -0.141   0.339  -0.068  0.00  0.00     0.048 A 
ATOM      4  C3  UNL d   1       0.144   0.796   1.218  0.00  0.00     0.023 A 
ATOM      5  C4  UNL d   1      -0.728   0.524   2.274  0.00  0.00     0.048 A 
ATOM      6  C5  UNL d   1      -1.892  -0.210   2.037  0.00  0.00     0.003 A 
ATOM      7  I   UNL d   1       1.876   1.890   1.566  0.00  0.00    -0.146 I 
ENDROOT
TORSDOF 0
ENDMDL
