MODEL 1
REMARK minimizedAffinity 1.27547371
REMARK minimizedRMSD -1
REMARK  0 active torsions:
REMARK  status: ('A' for Active; 'I' for Inactive)
ROOT
ATOM      1  C   UNL d   1      -2.591  -0.939   0.597  0.00  0.00     0.023 A 
ATOM      2  C1  UNL d   1      -1.682  -0.329  -0.266  0.00  0.00     0.003 A 
ATOM      3  C2  UNL d   1      -0.747   0.582   0.232  0.00  0.00     0.048 A 
ATOM      4  C3  UNL d   1      -0.727   0.876   1.595  0.00  0.00     0.023 A 
ATOM      5  C4  UNL d   1      -1.635   0.267   2.463  0.00  0.00     0.048 A 
ATOM      6  C5  UNL d   1      -2.568  -0.642   1.960  0.00  0.00     0.003 A 
ATOM      7  I   UNL d   1       0.663   2.230   2.339  0.00  0.00    -0.146 I 
ENDROOT
TORSDOF 0
ENDMDL
