MODEL 1
REMARK minimizedAffinity -3.24835157
REMARK minimizedRMSD -1
REMARK  0 active torsions:
REMARK  status: ('A' for Active; 'I' for Inactive)
ROOT
ATOM      1  C   UNL d   1       2.605   1.017   1.543  0.00  0.00     0.023 A 
ATOM      2  C1  UNL d   1       2.434  -0.118   0.749  0.00  0.00     0.003 A 
ATOM      3  C2  UNL d   1       1.153  -0.513   0.359  0.00  0.00     0.048 A 
ATOM      4  C3  UNL d   1       0.047   0.233   0.765  0.00  0.00     0.023 A 
ATOM      5  C4  UNL d   1       0.212   1.369   1.559  0.00  0.00     0.048 A 
ATOM      6  C5  UNL d   1       1.495   1.759   1.947  0.00  0.00     0.003 A 
ATOM      7  I   UNL d   1      -1.862  -0.353   0.186  0.00  0.00    -0.146 I 
ENDROOT
TORSDOF 0
ENDMDL
