MODEL 1
REMARK minimizedAffinity -3.83887863
REMARK minimizedRMSD -1
REMARK  0 active torsions:
REMARK  status: ('A' for Active; 'I' for Inactive)
ROOT
ATOM      1  C   UNL d   1       2.325   0.368   0.312  0.00  0.00     0.023 A 
ATOM      2  C1  UNL d   1       1.147   1.085   0.101  0.00  0.00     0.003 A 
ATOM      3  C2  UNL d   1       0.197   1.184   1.119  0.00  0.00     0.048 A 
ATOM      4  C3  UNL d   1       0.430   0.565   2.346  0.00  0.00     0.023 A 
ATOM      5  C4  UNL d   1       1.608  -0.154   2.562  0.00  0.00     0.048 A 
ATOM      6  C5  UNL d   1       2.555  -0.251   1.541  0.00  0.00     0.003 A 
ATOM      7  I   UNL d   1      -0.983   0.711   3.863  0.00  0.00    -0.146 I 
ENDROOT
TORSDOF 0
ENDMDL
