MODEL 1
REMARK minimizedAffinity -2.65583515
REMARK minimizedRMSD -1
REMARK  0 active torsions:
REMARK  status: ('A' for Active; 'I' for Inactive)
ROOT
ATOM      1  C   UNL d   1      -2.272  -0.267   1.501  0.00  0.00     0.023 A 
ATOM      2  C1  UNL d   1      -1.615  -0.563   0.307  0.00  0.00     0.003 A 
ATOM      3  C2  UNL d   1      -0.272  -0.216   0.142  0.00  0.00     0.048 A 
ATOM      4  C3  UNL d   1       0.407   0.428   1.176  0.00  0.00     0.023 A 
ATOM      5  C4  UNL d   1      -0.247   0.725   2.373  0.00  0.00     0.048 A 
ATOM      6  C5  UNL d   1      -1.589   0.376   2.533  0.00  0.00     0.003 A 
ATOM      7  I   UNL d   1       2.405   0.946   0.934  0.00  0.00    -0.146 I 
ENDROOT
TORSDOF 0
ENDMDL
