MODEL 1
REMARK minimizedAffinity -0.602791667
REMARK minimizedRMSD -1
REMARK  0 active torsions:
REMARK  status: ('A' for Active; 'I' for Inactive)
ROOT
ATOM      1  C   UNL d   1      -1.976   0.039   1.625  0.00  0.00     0.023 A 
ATOM      2  C1  UNL d   1      -1.297   0.742   2.621  0.00  0.00     0.003 A 
ATOM      3  C2  UNL d   1       0.010   1.180   2.400  0.00  0.00     0.048 A 
ATOM      4  C3  UNL d   1       0.633   0.912   1.182  0.00  0.00     0.023 A 
ATOM      5  C4  UNL d   1      -0.043   0.210   0.182  0.00  0.00     0.048 A 
ATOM      6  C5  UNL d   1      -1.350  -0.227   0.408  0.00  0.00     0.003 A 
ATOM      7  I   UNL d   1       2.579   1.563   0.851  0.00  0.00    -0.146 I 
ENDROOT
TORSDOF 0
ENDMDL
