MODEL 1
REMARK minimizedAffinity -1.72667563
REMARK minimizedRMSD -1
REMARK  0 active torsions:
REMARK  status: ('A' for Active; 'I' for Inactive)
ROOT
ATOM      1  C   UNL d   1       1.958   1.785   2.062  0.00  0.00     0.023 A 
ATOM      2  C1  UNL d   1       2.189   0.600   1.365  0.00  0.00     0.003 A 
ATOM      3  C2  UNL d   1       1.114  -0.147   0.879  0.00  0.00     0.048 A 
ATOM      4  C3  UNL d   1      -0.190   0.299   1.093  0.00  0.00     0.023 A 
ATOM      5  C4  UNL d   1      -0.426   1.485   1.790  0.00  0.00     0.048 A 
ATOM      6  C5  UNL d   1       0.652   2.228   2.274  0.00  0.00     0.003 A 
ATOM      7  I   UNL d   1      -1.792  -0.810   0.370  0.00  0.00    -0.146 I 
ENDROOT
TORSDOF 0
ENDMDL
