MODEL 1
REMARK minimizedAffinity 7.69188023
REMARK minimizedRMSD -1
REMARK  0 active torsions:
REMARK  status: ('A' for Active; 'I' for Inactive)
ROOT
ATOM      1  N1  IND d   1       3.476   0.765  -0.725  0.00  0.00    -0.196 N 
ATOM      2  C2  IND d   1       2.587   0.929   0.301  0.00  0.00     0.054 A 
ATOM      3  C3  IND d   1       1.812  -0.171   0.430  0.00  0.00    -0.031 A 
ATOM      4  C4  IND d   1       1.896  -2.394  -0.865  0.00  0.00     0.051 A 
ATOM      5  C5  IND d   1       2.516  -3.004  -1.919  0.00  0.00    -0.031 A 
ATOM      6  C6  IND d   1       3.509  -2.376  -2.643  0.00  0.00     0.015 A 
ATOM      7  C7  IND d   1       3.930  -1.115  -2.330  0.00  0.00    -0.016 A 
ATOM      8  C8  IND d   1       3.298  -0.490  -1.264  0.00  0.00    -0.047 A 
ATOM      9  C9  IND d   1       2.260  -1.105  -0.553  0.00  0.00    -0.096 A 
ATOM     10  HN1 IND d   1       4.051   1.348  -0.989  0.00  0.00     0.298 HD
ENDROOT
TORSDOF 0
ENDMDL
