MODEL 1
REMARK minimizedAffinity 4.93965769
REMARK minimizedRMSD -1
REMARK  0 active torsions:
REMARK  status: ('A' for Active; 'I' for Inactive)
ROOT
ATOM      1  N1  IND d   1      -6.000   0.107  -1.792  0.00  0.00    -0.196 N 
ATOM      2  C2  IND d   1      -5.853  -0.558  -0.607  0.00  0.00     0.054 A 
ATOM      3  C3  IND d   1      -4.544  -0.769  -0.345  0.00  0.00    -0.031 A 
ATOM      4  C4  IND d   1      -2.469  -0.020  -1.672  0.00  0.00     0.051 A 
ATOM      5  C5  IND d   1      -2.098   0.584  -2.841  0.00  0.00    -0.031 A 
ATOM      6  C6  IND d   1      -3.027   1.072  -3.736  0.00  0.00     0.015 A 
ATOM      7  C7  IND d   1      -4.368   0.984  -3.490  0.00  0.00    -0.016 A 
ATOM      8  C8  IND d   1      -4.749   0.365  -2.308  0.00  0.00    -0.047 A 
ATOM      9  C9  IND d   1      -3.811  -0.170  -1.415  0.00  0.00    -0.096 A 
ATOM     10  HN1 IND d   1      -6.748   0.327  -2.155  0.00  0.00     0.298 HD
ENDROOT
TORSDOF 0
ENDMDL
