MODEL 1
REMARK minimizedAffinity 2.904459
REMARK minimizedRMSD -1
REMARK  0 active torsions:
REMARK  status: ('A' for Active; 'I' for Inactive)
ROOT
ATOM      1  N1  IND d   1       3.205  -1.524  -1.376  0.00  0.00    -0.196 N 
ATOM      2  C2  IND d   1       4.253  -1.518  -2.253  0.00  0.00     0.054 A 
ATOM      3  C3  IND d   1       4.864  -0.312  -2.247  0.00  0.00    -0.031 A 
ATOM      4  C4  IND d   1       4.374   1.764  -0.805  0.00  0.00     0.051 A 
ATOM      5  C5  IND d   1       3.490   2.251   0.116  0.00  0.00    -0.031 A 
ATOM      6  C6  IND d   1       2.445   1.489   0.598  0.00  0.00     0.015 A 
ATOM      7  C7  IND d   1       2.253   0.201   0.184  0.00  0.00    -0.016 A 
ATOM      8  C8  IND d   1       3.145  -0.295  -0.756  0.00  0.00    -0.047 A 
ATOM      9  C9  IND d   1       4.181   0.488  -1.281  0.00  0.00    -0.096 A 
ATOM     10  HN1 IND d   1       2.672  -2.184  -1.235  0.00  0.00     0.298 HD
ENDROOT
TORSDOF 0
ENDMDL
