MODEL 1
REMARK minimizedAffinity 6.31810045
REMARK minimizedRMSD -1
REMARK  0 active torsions:
REMARK  status: ('A' for Active; 'I' for Inactive)
ROOT
ATOM      1  N1  IND d   1      -0.166   1.037  -0.895  0.00  0.00    -0.196 N 
ATOM      2  C2  IND d   1      -1.529   1.064  -0.798  0.00  0.00     0.054 A 
ATOM      3  C3  IND d   1      -1.912   0.881   0.486  0.00  0.00    -0.031 A 
ATOM      4  C4  IND d   1      -0.470   0.619   2.602  0.00  0.00     0.051 A 
ATOM      5  C5  IND d   1       0.827   0.495   3.013  0.00  0.00    -0.031 A 
ATOM      6  C6  IND d   1       1.882   0.549   2.124  0.00  0.00     0.015 A 
ATOM      7  C7  IND d   1       1.677   0.742   0.787  0.00  0.00    -0.016 A 
ATOM      8  C8  IND d   1       0.361   0.861   0.366  0.00  0.00    -0.047 A 
ATOM      9  C9  IND d   1      -0.716   0.765   1.257  0.00  0.00    -0.096 A 
ATOM     10  HN1 IND d   1       0.287   1.117  -1.622  0.00  0.00     0.298 HD
ENDROOT
TORSDOF 0
ENDMDL
