MODEL 1
REMARK minimizedAffinity 2.21861506
REMARK minimizedRMSD -1
REMARK  0 active torsions:
REMARK  status: ('A' for Active; 'I' for Inactive)
ROOT
ATOM      1  N1  IND d   1       0.660  -1.152   2.705  0.00  0.00    -0.196 N 
ATOM      2  C2  IND d   1       0.070   0.056   2.958  0.00  0.00     0.054 A 
ATOM      3  C3  IND d   1       0.475   0.976   2.054  0.00  0.00    -0.031 A 
ATOM      4  C4  IND d   1       2.021   0.695   0.015  0.00  0.00     0.051 A 
ATOM      5  C5  IND d   1       2.830  -0.215  -0.607  0.00  0.00    -0.031 A 
ATOM      6  C6  IND d   1       2.957  -1.511  -0.149  0.00  0.00     0.015 A 
ATOM      7  C7  IND d   1       2.268  -1.949   0.947  0.00  0.00    -0.016 A 
ATOM      8  C8  IND d   1       1.451  -1.026   1.584  0.00  0.00    -0.047 A 
ATOM      9  C9  IND d   1       1.351   0.301   1.149  0.00  0.00    -0.096 A 
ATOM     10  HN1 IND d   1       0.554  -1.869   3.168  0.00  0.00     0.298 HD
ENDROOT
TORSDOF 0
ENDMDL
