MODEL 1
REMARK minimizedAffinity 9.39284897
REMARK minimizedRMSD -1
REMARK  0 active torsions:
REMARK  status: ('A' for Active; 'I' for Inactive)
ROOT
ATOM      1  N1  IND d   1      -0.675   0.765   3.560  0.00  0.00    -0.196 N 
ATOM      2  C2  IND d   1       0.522   0.259   3.981  0.00  0.00     0.054 A 
ATOM      3  C3  IND d   1       1.360   0.099   2.932  0.00  0.00    -0.031 A 
ATOM      4  C4  IND d   1       1.011   0.699   0.453  0.00  0.00     0.051 A 
ATOM      5  C5  IND d   1       0.065   1.154  -0.422  0.00  0.00    -0.031 A 
ATOM      6  C6  IND d   1      -1.201   1.513  -0.005  0.00  0.00     0.015 A 
ATOM      7  C7  IND d   1      -1.566   1.440   1.309  0.00  0.00    -0.016 A 
ATOM      8  C8  IND d   1      -0.610   0.972   2.200  0.00  0.00    -0.047 A 
ATOM      9  C9  IND d   1       0.662   0.566   1.777  0.00  0.00    -0.096 A 
ATOM     10  HN1 IND d   1      -1.355   0.928   4.061  0.00  0.00     0.298 HD
ENDROOT
TORSDOF 0
ENDMDL
