MODEL 1
REMARK minimizedAffinity 3.49086571
REMARK minimizedRMSD -1
REMARK  0 active torsions:
REMARK  status: ('A' for Active; 'I' for Inactive)
ROOT
ATOM      1  N1  IND d   1      -0.130   1.656  -0.497  0.00  0.00    -0.196 N 
ATOM      2  C2  IND d   1      -1.492   1.764  -0.548  0.00  0.00     0.054 A 
ATOM      3  C3  IND d   1      -2.017   1.692   0.696  0.00  0.00    -0.031 A 
ATOM      4  C4  IND d   1      -0.821   1.501   2.967  0.00  0.00     0.051 A 
ATOM      5  C5  IND d   1       0.417   1.335   3.522  0.00  0.00    -0.031 A 
ATOM      6  C6  IND d   1       1.559   1.269   2.750  0.00  0.00     0.015 A 
ATOM      7  C7  IND d   1       1.507   1.378   1.389  0.00  0.00    -0.016 A 
ATOM      8  C8  IND d   1       0.251   1.540   0.822  0.00  0.00    -0.047 A 
ATOM      9  C9  IND d   1      -0.916   1.565   1.597  0.00  0.00    -0.096 A 
ATOM     10  HN1 IND d   1       0.399   1.660  -1.174  0.00  0.00     0.298 HD
ENDROOT
TORSDOF 0
ENDMDL
