MODEL 1
REMARK minimizedAffinity 11.3818903
REMARK minimizedRMSD -1
REMARK  0 active torsions:
REMARK  status: ('A' for Active; 'I' for Inactive)
ROOT
ATOM      1  N1  IND d   1      -0.834   1.557   3.724  0.00  0.00    -0.196 N 
ATOM      2  C2  IND d   1       0.441   1.072   3.804  0.00  0.00     0.054 A 
ATOM      3  C3  IND d   1       0.989   0.984   2.571  0.00  0.00    -0.031 A 
ATOM      4  C4  IND d   1       0.010   1.678   0.293  0.00  0.00     0.051 A 
ATOM      5  C5  IND d   1      -1.136   2.139  -0.291  0.00  0.00    -0.031 A 
ATOM      6  C6  IND d   1      -2.262   2.439   0.449  0.00  0.00     0.015 A 
ATOM      7  C7  IND d   1      -2.280   2.298   1.808  0.00  0.00    -0.016 A 
ATOM      8  C8  IND d   1      -1.120   1.823   2.403  0.00  0.00    -0.047 A 
ATOM      9  C9  IND d   1       0.011   1.477   1.654  0.00  0.00    -0.096 A 
ATOM     10  HN1 IND d   1      -1.368   1.675   4.388  0.00  0.00     0.298 HD
ENDROOT
TORSDOF 0
ENDMDL
