MODEL 1
REMARK minimizedAffinity 1.16865695
REMARK minimizedRMSD -1
REMARK  0 active torsions:
REMARK  status: ('A' for Active; 'I' for Inactive)
ROOT
ATOM      1  N1  IND d   1      -1.314   2.894   3.250  0.00  0.00    -0.196 N 
ATOM      2  C2  IND d   1      -0.040   2.402   3.329  0.00  0.00     0.054 A 
ATOM      3  C3  IND d   1       0.009   1.143   2.840  0.00  0.00    -0.031 A 
ATOM      4  C4  IND d   1      -1.856  -0.269   1.766  0.00  0.00     0.051 A 
ATOM      5  C5  IND d   1      -3.198  -0.262   1.505  0.00  0.00    -0.031 A 
ATOM      6  C6  IND d   1      -3.995   0.821   1.815  0.00  0.00     0.015 A 
ATOM      7  C7  IND d   1      -3.477   1.946   2.391  0.00  0.00    -0.016 A 
ATOM      8  C8  IND d   1      -2.116   1.939   2.665  0.00  0.00    -0.047 A 
ATOM      9  C9  IND d   1      -1.310   0.827   2.391  0.00  0.00    -0.096 A 
ATOM     10  HN1 IND d   1      -1.570   3.669   3.520  0.00  0.00     0.298 HD
ENDROOT
TORSDOF 0
ENDMDL
