MODEL 1
REMARK minimizedAffinity 10.9154549
REMARK minimizedRMSD -1
REMARK  0 active torsions:
REMARK  status: ('A' for Active; 'I' for Inactive)
ROOT
ATOM      1  N1  IND d   1       4.898  -5.991   4.100  0.00  0.00    -0.196 N 
ATOM      2  C2  IND d   1       5.998  -5.981   3.289  0.00  0.00     0.054 A 
ATOM      3  C3  IND d   1       5.625  -5.982   1.989  0.00  0.00    -0.031 A 
ATOM      4  C4  IND d   1       3.264  -5.896   0.966  0.00  0.00     0.051 A 
ATOM      5  C5  IND d   1       1.941  -5.929   1.306  0.00  0.00    -0.031 A 
ATOM      6  C6  IND d   1       1.527  -5.982   2.621  0.00  0.00     0.015 A 
ATOM      7  C7  IND d   1       2.426  -5.994   3.651  0.00  0.00    -0.016 A 
ATOM      8  C8  IND d   1       3.770  -5.968   3.309  0.00  0.00    -0.047 A 
ATOM      9  C9  IND d   1       4.197  -5.956   1.975  0.00  0.00    -0.096 A 
ATOM     10  HN1 IND d   1       4.908  -6.009   4.959  0.00  0.00     0.298 HD
ENDROOT
TORSDOF 0
ENDMDL
