MODEL 1
REMARK minimizedAffinity 7.28137207
REMARK minimizedRMSD -1
REMARK  0 active torsions:
REMARK  status: ('A' for Active; 'I' for Inactive)
ROOT
ATOM      1  N1  IND d   1      -5.256  -1.756  -5.906  0.00  0.00    -0.196 N 
ATOM      2  C2  IND d   1      -5.690  -3.052  -5.932  0.00  0.00     0.054 A 
ATOM      3  C3  IND d   1      -4.639  -3.899  -6.000  0.00  0.00    -0.031 A 
ATOM      4  C4  IND d   1      -2.117  -3.381  -5.977  0.00  0.00     0.051 A 
ATOM      5  C5  IND d   1      -1.231  -2.341  -5.999  0.00  0.00    -0.031 A 
ATOM      6  C6  IND d   1      -1.649  -1.026  -5.988  0.00  0.00     0.015 A 
ATOM      7  C7  IND d   1      -2.975  -0.701  -5.943  0.00  0.00    -0.016 A 
ATOM      8  C8  IND d   1      -3.878  -1.755  -5.928  0.00  0.00    -0.047 A 
ATOM      9  C9  IND d   1      -3.461  -3.091  -5.982  0.00  0.00    -0.096 A 
ATOM     10  HN1 IND d   1      -5.759  -1.059  -5.881  0.00  0.00     0.298 HD
ENDROOT
TORSDOF 0
ENDMDL
