MODEL 1
REMARK minimizedAffinity 4.52213192
REMARK minimizedRMSD -1
REMARK  0 active torsions:
REMARK  status: ('A' for Active; 'I' for Inactive)
ROOT
ATOM      1  N1  IND d   1      -0.682   0.112   1.122  0.00  0.00    -0.196 N 
ATOM      2  C2  IND d   1      -0.017   0.316   2.300  0.00  0.00     0.054 A 
ATOM      3  C3  IND d   1      -0.896   0.516   3.307  0.00  0.00    -0.031 A 
ATOM      4  C4  IND d   1      -3.470   0.452   3.270  0.00  0.00     0.051 A 
ATOM      5  C5  IND d   1      -4.532   0.337   2.418  0.00  0.00    -0.031 A 
ATOM      6  C6  IND d   1      -4.362   0.136   1.063  0.00  0.00     0.015 A 
ATOM      7  C7  IND d   1      -3.117   0.029   0.510  0.00  0.00    -0.016 A 
ATOM      8  C8  IND d   1      -2.036   0.151   1.371  0.00  0.00    -0.047 A 
ATOM      9  C9  IND d   1      -2.202   0.398   2.740  0.00  0.00    -0.096 A 
ATOM     10  HN1 IND d   1      -0.315  -0.018   0.356  0.00  0.00     0.298 HD
ENDROOT
TORSDOF 0
ENDMDL
