MODEL 1
REMARK minimizedAffinity 11.8462191
REMARK minimizedRMSD -1
REMARK  0 active torsions:
REMARK  status: ('A' for Active; 'I' for Inactive)
ROOT
ATOM      1  N1  IND d   1      -3.455   1.784   1.529  0.00  0.00    -0.196 N 
ATOM      2  C2  IND d   1      -4.420   0.905   1.935  0.00  0.00     0.054 A 
ATOM      3  C3  IND d   1      -3.854  -0.234   2.396  0.00  0.00    -0.031 A 
ATOM      4  C4  IND d   1      -1.365  -0.828   2.673  0.00  0.00     0.051 A 
ATOM      5  C5  IND d   1      -0.109  -0.358   2.406  0.00  0.00    -0.031 A 
ATOM      6  C6  IND d   1       0.100   0.876   1.825  0.00  0.00     0.015 A 
ATOM      7  C7  IND d   1      -0.944   1.694   1.497  0.00  0.00    -0.016 A 
ATOM      8  C8  IND d   1      -2.220   1.218   1.759  0.00  0.00    -0.047 A 
ATOM      9  C9  IND d   1      -2.440  -0.051   2.310  0.00  0.00    -0.096 A 
ATOM     10  HN1 IND d   1      -3.596   2.561   1.188  0.00  0.00     0.298 HD
ENDROOT
TORSDOF 0
ENDMDL
