MODEL 1
REMARK minimizedAffinity 14.0163107
REMARK minimizedRMSD -1
REMARK  0 active torsions:
REMARK  status: ('A' for Active; 'I' for Inactive)
ROOT
ATOM      1  N1  IND d   1      -5.970  -4.490   4.753  0.00  0.00    -0.196 N 
ATOM      2  C2  IND d   1      -5.977  -4.812   3.424  0.00  0.00     0.054 A 
ATOM      3  C3  IND d   1      -5.995  -3.691   2.669  0.00  0.00    -0.031 A 
ATOM      4  C4  IND d   1      -5.914  -1.224   3.401  0.00  0.00     0.051 A 
ATOM      5  C5  IND d   1      -5.936  -0.429   4.512  0.00  0.00    -0.031 A 
ATOM      6  C6  IND d   1      -5.969  -0.957   5.786  0.00  0.00     0.015 A 
ATOM      7  C7  IND d   1      -5.969  -2.307   5.998  0.00  0.00    -0.016 A 
ATOM      8  C8  IND d   1      -5.953  -3.117   4.871  0.00  0.00    -0.047 A 
ATOM      9  C9  IND d   1      -5.964  -2.587   3.575  0.00  0.00    -0.096 A 
ATOM     10  HN1 IND d   1      -5.975  -5.050   5.405  0.00  0.00     0.298 HD
ENDROOT
TORSDOF 0
ENDMDL
