MODEL 1
REMARK minimizedAffinity 12.2213631
REMARK minimizedRMSD -1
REMARK  0 active torsions:
REMARK  status: ('A' for Active; 'I' for Inactive)
ROOT
ATOM      1  N1  IND d   1      -2.659   1.072   2.020  0.00  0.00    -0.196 N 
ATOM      2  C2  IND d   1      -2.444  -0.114   1.375  0.00  0.00     0.054 A 
ATOM      3  C3  IND d   1      -1.189  -0.558   1.613  0.00  0.00    -0.031 A 
ATOM      4  C4  IND d   1       0.644   0.449   3.114  0.00  0.00     0.051 A 
ATOM      5  C5  IND d   1       0.928   1.545   3.880  0.00  0.00    -0.031 A 
ATOM      6  C6  IND d   1       0.011   2.558   4.072  0.00  0.00     0.015 A 
ATOM      7  C7  IND d   1      -1.234   2.507   3.511  0.00  0.00    -0.016 A 
ATOM      8  C8  IND d   1      -1.523   1.400   2.726  0.00  0.00    -0.047 A 
ATOM      9  C9  IND d   1      -0.581   0.389   2.494  0.00  0.00    -0.096 A 
ATOM     10  HN1 IND d   1      -3.383   1.535   1.990  0.00  0.00     0.298 HD
ENDROOT
TORSDOF 0
ENDMDL
