MODEL 1
REMARK minimizedAffinity 6.37613964
REMARK minimizedRMSD -1
REMARK  0 active torsions:
REMARK  status: ('A' for Active; 'I' for Inactive)
ROOT
ATOM      1  N1  IND d   1      -2.935  -0.641   3.224  0.00  0.00    -0.196 N 
ATOM      2  C2  IND d   1      -4.071   0.088   3.009  0.00  0.00     0.054 A 
ATOM      3  C3  IND d   1      -3.759   1.329   2.573  0.00  0.00    -0.031 A 
ATOM      4  C4  IND d   1      -1.453   2.343   2.042  0.00  0.00     0.051 A 
ATOM      5  C5  IND d   1      -0.115   2.074   2.115  0.00  0.00    -0.031 A 
ATOM      6  C6  IND d   1       0.361   0.861   2.568  0.00  0.00     0.015 A 
ATOM      7  C7  IND d   1      -0.488  -0.137   2.956  0.00  0.00    -0.016 A 
ATOM      8  C8  IND d   1      -1.847   0.135   2.890  0.00  0.00    -0.047 A 
ATOM      9  C9  IND d   1      -2.335   1.379   2.471  0.00  0.00    -0.096 A 
ATOM     10  HN1 IND d   1      -2.905  -1.448   3.518  0.00  0.00     0.298 HD
ENDROOT
TORSDOF 0
ENDMDL
