MODEL 1
REMARK minimizedAffinity 4.93638611
REMARK minimizedRMSD -1
REMARK  0 active torsions:
REMARK  status: ('A' for Active; 'I' for Inactive)
ROOT
ATOM      1  N1  IND d   1      -2.167   0.822   1.505  0.00  0.00    -0.196 N 
ATOM      2  C2  IND d   1      -1.436   0.339   2.554  0.00  0.00     0.054 A 
ATOM      3  C3  IND d   1      -2.252  -0.194   3.491  0.00  0.00    -0.031 A 
ATOM      4  C4  IND d   1      -4.811  -0.474   3.463  0.00  0.00     0.051 A 
ATOM      5  C5  IND d   1      -5.921  -0.155   2.733  0.00  0.00    -0.031 A 
ATOM      6  C6  IND d   1      -5.835   0.517   1.530  0.00  0.00     0.015 A 
ATOM      7  C7  IND d   1      -4.629   0.886   1.006  0.00  0.00    -0.016 A 
ATOM      8  C8  IND d   1      -3.500   0.571   1.748  0.00  0.00    -0.047 A 
ATOM      9  C9  IND d   1      -3.584  -0.073   2.989  0.00  0.00    -0.096 A 
ATOM     10  HN1 IND d   1      -1.849   1.216   0.810  0.00  0.00     0.298 HD
ENDROOT
TORSDOF 0
ENDMDL
