MODEL 1
REMARK minimizedAffinity 9.36247063
REMARK minimizedRMSD -1
REMARK  0 active torsions:
REMARK  status: ('A' for Active; 'I' for Inactive)
ROOT
ATOM      1  N1  IND d   1      -1.530   1.040   1.714  0.00  0.00    -0.196 N 
ATOM      2  C2  IND d   1      -2.533   1.969   1.736  0.00  0.00     0.054 A 
ATOM      3  C3  IND d   1      -3.725   1.380   1.493  0.00  0.00    -0.031 A 
ATOM      4  C4  IND d   1      -4.277  -1.108   1.131  0.00  0.00     0.051 A 
ATOM      5  C5  IND d   1      -3.687  -2.332   0.987  0.00  0.00    -0.031 A 
ATOM      6  C6  IND d   1      -2.321  -2.499   1.083  0.00  0.00     0.015 A 
ATOM      7  C7  IND d   1      -1.491  -1.445   1.338  0.00  0.00    -0.016 A 
ATOM      8  C8  IND d   1      -2.086  -0.199   1.478  0.00  0.00    -0.047 A 
ATOM      9  C9  IND d   1      -3.468  -0.017   1.340  0.00  0.00    -0.096 A 
ATOM     10  HN1 IND d   1      -0.693   1.202   1.828  0.00  0.00     0.298 HD
ENDROOT
TORSDOF 0
ENDMDL
