MODEL 1
REMARK minimizedAffinity 2.98539495
REMARK minimizedRMSD -1
REMARK  0 active torsions:
REMARK  status: ('A' for Active; 'I' for Inactive)
ROOT
ATOM      1  N1  IND d   1      -3.087   1.619   2.097  0.00  0.00    -0.196 N 
ATOM      2  C2  IND d   1      -3.211   0.355   1.592  0.00  0.00     0.054 A 
ATOM      3  C3  IND d   1      -2.099  -0.367   1.856  0.00  0.00    -0.031 A 
ATOM      4  C4  IND d   1       0.002   0.293   3.191  0.00  0.00     0.051 A 
ATOM      5  C5  IND d   1       0.590   1.355   3.816  0.00  0.00    -0.031 A 
ATOM      6  C6  IND d   1      -0.030   2.585   3.905  0.00  0.00     0.015 A 
ATOM      7  C7  IND d   1      -1.273   2.795   3.379  0.00  0.00    -0.016 A 
ATOM      8  C8  IND d   1      -1.871   1.720   2.737  0.00  0.00    -0.047 A 
ATOM      9  C9  IND d   1      -1.228   0.482   2.606  0.00  0.00    -0.096 A 
ATOM     10  HN1 IND d   1      -3.671   2.247   2.027  0.00  0.00     0.298 HD
ENDROOT
TORSDOF 0
ENDMDL
