MODEL 1
REMARK minimizedAffinity 2.02503729
REMARK minimizedRMSD -1
REMARK  0 active torsions:
REMARK  status: ('A' for Active; 'I' for Inactive)
ROOT
ATOM      1  N1  IND d   1      -1.034  -5.051  -0.543  0.00  0.00    -0.196 N 
ATOM      2  C2  IND d   1      -1.993  -4.226  -0.025  0.00  0.00     0.054 A 
ATOM      3  C3  IND d   1      -1.687  -3.889   1.248  0.00  0.00    -0.031 A 
ATOM      4  C4  IND d   1       0.390  -4.492   2.645  0.00  0.00     0.051 A 
ATOM      5  C5  IND d   1       1.526  -5.252   2.614  0.00  0.00    -0.031 A 
ATOM      6  C6  IND d   1       1.874  -5.997   1.506  0.00  0.00     0.015 A 
ATOM      7  C7  IND d   1       1.103  -6.000   0.378  0.00  0.00    -0.016 A 
ATOM      8  C8  IND d   1      -0.054  -5.235   0.409  0.00  0.00    -0.047 A 
ATOM      9  C9  IND d   1      -0.435  -4.511   1.545  0.00  0.00    -0.096 A 
ATOM     10  HN1 IND d   1      -1.041  -5.396  -1.330  0.00  0.00     0.298 HD
ENDROOT
TORSDOF 0
ENDMDL
