MODEL 1
REMARK minimizedAffinity 4.98730183
REMARK minimizedRMSD -1
REMARK  0 active torsions:
REMARK  status: ('A' for Active; 'I' for Inactive)
ROOT
ATOM      1  N1  IND d   1       0.690   0.486   1.601  0.00  0.00    -0.196 N 
ATOM      2  C2  IND d   1       0.608   0.507   2.965  0.00  0.00     0.054 A 
ATOM      3  C3  IND d   1       1.810   0.216   3.513  0.00  0.00    -0.031 A 
ATOM      4  C4  IND d   1       4.068  -0.227   2.360  0.00  0.00     0.051 A 
ATOM      5  C5  IND d   1       4.635  -0.389   1.126  0.00  0.00    -0.031 A 
ATOM      6  C6  IND d   1       3.901  -0.262  -0.035  0.00  0.00     0.015 A 
ATOM      7  C7  IND d   1       2.570   0.044  -0.007  0.00  0.00    -0.016 A 
ATOM      8  C8  IND d   1       1.990   0.202   1.243  0.00  0.00    -0.047 A 
ATOM      9  C9  IND d   1       2.720   0.032   2.427  0.00  0.00    -0.096 A 
ATOM     10  HN1 IND d   1       0.039   0.626   1.057  0.00  0.00     0.298 HD
ENDROOT
TORSDOF 0
ENDMDL
