MODEL 1
REMARK minimizedAffinity 14.3408051
REMARK minimizedRMSD -1
REMARK  0 active torsions:
REMARK  status: ('A' for Active; 'I' for Inactive)
ROOT
ATOM      1  N1  IND d   1      -3.421   2.049   1.952  0.00  0.00    -0.196 N 
ATOM      2  C2  IND d   1      -4.647   2.574   1.655  0.00  0.00     0.054 A 
ATOM      3  C3  IND d   1      -5.364   1.704   0.909  0.00  0.00    -0.031 A 
ATOM      4  C4  IND d   1      -4.759  -0.680   0.146  0.00  0.00     0.051 A 
ATOM      5  C5  IND d   1      -3.733  -1.582   0.143  0.00  0.00    -0.031 A 
ATOM      6  C6  IND d   1      -2.527  -1.316   0.758  0.00  0.00     0.015 A 
ATOM      7  C7  IND d   1      -2.305  -0.137   1.411  0.00  0.00    -0.016 A 
ATOM      8  C8  IND d   1      -3.342   0.785   1.410  0.00  0.00    -0.047 A 
ATOM      9  C9  IND d   1      -4.553   0.538   0.751  0.00  0.00    -0.096 A 
ATOM     10  HN1 IND d   1      -2.802   2.442   2.402  0.00  0.00     0.298 HD
ENDROOT
TORSDOF 0
ENDMDL
