MODEL 1
REMARK minimizedAffinity 5.73989916
REMARK minimizedRMSD -1
REMARK  0 active torsions:
REMARK  status: ('A' for Active; 'I' for Inactive)
ROOT
ATOM      1  C   UNL d   1      -0.777  -0.488   5.736  0.00  0.00     0.023 A 
ATOM      2  C1  UNL d   1      -1.552  -0.971   4.681  0.00  0.00     0.003 A 
ATOM      3  C2  UNL d   1      -0.943  -1.363   3.488  0.00  0.00     0.048 A 
ATOM      4  C3  UNL d   1       0.442  -1.269   3.355  0.00  0.00     0.023 A 
ATOM      5  C4  UNL d   1       1.222  -0.786   4.407  0.00  0.00     0.048 A 
ATOM      6  C5  UNL d   1       0.608  -0.395   5.598  0.00  0.00     0.003 A 
ATOM      7  I   UNL d   1       1.351  -1.851   1.579  0.00  0.00    -0.146 I 
ENDROOT
TORSDOF 0
ENDMDL
