MODEL 1
REMARK minimizedAffinity 12.0992279
REMARK minimizedRMSD -1
REMARK  0 active torsions:
REMARK  status: ('A' for Active; 'I' for Inactive)
ROOT
ATOM      1  C   UNL d   1       1.352  -4.595   1.756  0.00  0.00     0.023 A 
ATOM      2  C1  UNL d   1       0.904  -5.240   2.909  0.00  0.00     0.003 A 
ATOM      3  C2  UNL d   1      -0.175  -4.720   3.627  0.00  0.00     0.048 A 
ATOM      4  C3  UNL d   1      -0.803  -3.556   3.186  0.00  0.00     0.023 A 
ATOM      5  C4  UNL d   1      -0.359  -2.908   2.032  0.00  0.00     0.048 A 
ATOM      6  C5  UNL d   1       0.721  -3.430   1.318  0.00  0.00     0.003 A 
ATOM      7  I   UNL d   1      -2.409  -2.781   4.253  0.00  0.00    -0.146 I 
ENDROOT
TORSDOF 0
ENDMDL
