MODEL 1
REMARK minimizedAffinity 5.68224621
REMARK minimizedRMSD -1
REMARK  0 active torsions:
REMARK  status: ('A' for Active; 'I' for Inactive)
ROOT
ATOM      1  C   UNL d   1       0.783  -1.078   2.946  0.00  0.00     0.023 A 
ATOM      2  C1  UNL d   1       0.129  -2.274   2.646  0.00  0.00     0.003 A 
ATOM      3  C2  UNL d   1      -0.831  -2.785   3.522  0.00  0.00     0.048 A 
ATOM      4  C3  UNL d   1      -1.133  -2.095   4.695  0.00  0.00     0.023 A 
ATOM      5  C4  UNL d   1      -0.482  -0.898   4.999  0.00  0.00     0.048 A 
ATOM      6  C5  UNL d   1       0.478  -0.392   4.121  0.00  0.00     0.003 A 
ATOM      7  I   UNL d   1      -2.562  -2.853   6.000  0.00  0.00    -0.146 I 
ENDROOT
TORSDOF 0
ENDMDL
