MODEL 1
REMARK minimizedAffinity 12.2950039
REMARK minimizedRMSD -1
REMARK  0 active torsions:
REMARK  status: ('A' for Active; 'I' for Inactive)
ROOT
ATOM      1  C   UNL d   1      -4.154  -3.621   2.392  0.00  0.00     0.023 A 
ATOM      2  C1  UNL d   1      -3.251  -4.180   1.487  0.00  0.00     0.003 A 
ATOM      3  C2  UNL d   1      -3.720  -4.863   0.363  0.00  0.00     0.048 A 
ATOM      4  C3  UNL d   1      -5.093  -4.983   0.150  0.00  0.00     0.023 A 
ATOM      5  C4  UNL d   1      -6.000  -4.425   1.053  0.00  0.00     0.048 A 
ATOM      6  C5  UNL d   1      -5.526  -3.744   2.175  0.00  0.00     0.003 A 
ATOM      7  I   UNL d   1      -5.793  -6.000  -1.522  0.00  0.00    -0.146 I 
ENDROOT
TORSDOF 0
ENDMDL
