MODEL 1
REMARK minimizedAffinity 8.67128277
REMARK minimizedRMSD -1
REMARK  0 active torsions:
REMARK  status: ('A' for Active; 'I' for Inactive)
ROOT
ATOM      1  C   UNL d   1       0.768  -1.911   1.504  0.00  0.00     0.023 A 
ATOM      2  C1  UNL d   1      -0.101  -2.744   2.209  0.00  0.00     0.003 A 
ATOM      3  C2  UNL d   1      -0.509  -2.397   3.499  0.00  0.00     0.048 A 
ATOM      4  C3  UNL d   1      -0.046  -1.216   4.076  0.00  0.00     0.023 A 
ATOM      5  C4  UNL d   1       0.823  -0.379   3.374  0.00  0.00     0.048 A 
ATOM      6  C5  UNL d   1       1.229  -0.730   2.085  0.00  0.00     0.003 A 
ATOM      7  I   UNL d   1      -0.652  -0.697   5.996  0.00  0.00    -0.146 I 
ENDROOT
TORSDOF 0
ENDMDL
