MODEL 1
REMARK minimizedAffinity 12.6973686
REMARK minimizedRMSD -1
REMARK  0 active torsions:
REMARK  status: ('A' for Active; 'I' for Inactive)
ROOT
ATOM      1  C   UNL d   1       1.541  -0.332   2.229  0.00  0.00     0.023 A 
ATOM      2  C1  UNL d   1       1.144  -1.316   1.323  0.00  0.00     0.003 A 
ATOM      3  C2  UNL d   1      -0.019  -2.052   1.555  0.00  0.00     0.048 A 
ATOM      4  C3  UNL d   1      -0.782  -1.799   2.695  0.00  0.00     0.023 A 
ATOM      5  C4  UNL d   1      -0.389  -0.815   3.604  0.00  0.00     0.048 A 
ATOM      6  C5  UNL d   1       0.776  -0.082   3.368  0.00  0.00     0.003 A 
ATOM      7  I   UNL d   1      -2.514  -2.893   3.043  0.00  0.00    -0.146 I 
ENDROOT
TORSDOF 0
ENDMDL
