MODEL 1
REMARK minimizedAffinity 6.08016586
REMARK minimizedRMSD -1
REMARK  0 active torsions:
REMARK  status: ('A' for Active; 'I' for Inactive)
ROOT
ATOM      1  C   UNL d   1       0.439   3.203  -1.970  0.00  0.00     0.023 A 
ATOM      2  C1  UNL d   1      -0.034   2.450  -0.895  0.00  0.00     0.003 A 
ATOM      3  C2  UNL d   1      -1.394   2.151  -0.796  0.00  0.00     0.048 A 
ATOM      4  C3  UNL d   1      -2.276   2.607  -1.776  0.00  0.00     0.023 A 
ATOM      5  C4  UNL d   1      -1.807   3.360  -2.853  0.00  0.00     0.048 A 
ATOM      6  C5  UNL d   1      -0.446   3.658  -2.947  0.00  0.00     0.003 A 
ATOM      7  I   UNL d   1      -4.301   2.162  -1.630  0.00  0.00    -0.146 I 
ENDROOT
TORSDOF 0
ENDMDL
