MODEL 1
REMARK minimizedAffinity 11.9680099
REMARK minimizedRMSD -1
REMARK  0 active torsions:
REMARK  status: ('A' for Active; 'I' for Inactive)
ROOT
ATOM      1  C   UNL d   1       3.127   0.420   3.087  0.00  0.00     0.023 A 
ATOM      2  C1  UNL d   1       2.950   0.648   4.452  0.00  0.00     0.003 A 
ATOM      3  C2  UNL d   1       1.730   0.344   5.059  0.00  0.00     0.048 A 
ATOM      4  C3  UNL d   1       0.691  -0.188   4.296  0.00  0.00     0.023 A 
ATOM      5  C4  UNL d   1       0.864  -0.418   2.930  0.00  0.00     0.048 A 
ATOM      6  C5  UNL d   1       2.086  -0.112   2.327  0.00  0.00     0.003 A 
ATOM      7  I   UNL d   1      -1.126  -0.641   5.197  0.00  0.00    -0.146 I 
ENDROOT
TORSDOF 0
ENDMDL
