MODEL 1
REMARK minimizedAffinity 14.8396721
REMARK minimizedRMSD -1
REMARK  0 active torsions:
REMARK  status: ('A' for Active; 'I' for Inactive)
ROOT
ATOM      1  C   UNL d   1       4.027  -1.378   1.306  0.00  0.00     0.023 A 
ATOM      2  C1  UNL d   1       3.429  -0.561   2.266  0.00  0.00     0.003 A 
ATOM      3  C2  UNL d   1       2.044  -0.593   2.446  0.00  0.00     0.048 A 
ATOM      4  C3  UNL d   1       1.265  -1.445   1.664  0.00  0.00     0.023 A 
ATOM      5  C4  UNL d   1       1.859  -2.264   0.703  0.00  0.00     0.048 A 
ATOM      6  C5  UNL d   1       3.244  -2.228   0.526  0.00  0.00     0.003 A 
ATOM      7  I   UNL d   1      -0.796  -1.494   1.930  0.00  0.00    -0.146 I 
ENDROOT
TORSDOF 0
ENDMDL
