MODEL 1
REMARK minimizedAffinity 2.5396471
REMARK minimizedRMSD -1
REMARK  0 active torsions:
REMARK  status: ('A' for Active; 'I' for Inactive)
ROOT
ATOM      1  C   UNL d   1      -3.972  -4.086   3.379  0.00  0.00     0.023 A 
ATOM      2  C1  UNL d   1      -4.458  -3.277   2.352  0.00  0.00     0.003 A 
ATOM      3  C2  UNL d   1      -4.721  -3.824   1.095  0.00  0.00     0.048 A 
ATOM      4  C3  UNL d   1      -4.497  -5.182   0.871  0.00  0.00     0.023 A 
ATOM      5  C4  UNL d   1      -4.011  -5.996   1.896  0.00  0.00     0.048 A 
ATOM      6  C5  UNL d   1      -3.749  -5.444   3.151  0.00  0.00     0.003 A 
ATOM      7  I   UNL d   1      -4.888  -5.999  -0.999  0.00  0.00    -0.146 I 
ENDROOT
TORSDOF 0
ENDMDL
