MODEL 1
REMARK minimizedAffinity 21.0752697
REMARK minimizedRMSD -1
REMARK  0 active torsions:
REMARK  status: ('A' for Active; 'I' for Inactive)
ROOT
ATOM      1  C   UNL d   1       4.091   0.511   2.281  0.00  0.00     0.023 A 
ATOM      2  C1  UNL d   1       4.367  -0.509   1.370  0.00  0.00     0.003 A 
ATOM      3  C2  UNL d   1       3.439  -1.532   1.163  0.00  0.00     0.048 A 
ATOM      4  C3  UNL d   1       2.237  -1.528   1.870  0.00  0.00     0.023 A 
ATOM      5  C4  UNL d   1       1.957  -0.509   2.782  0.00  0.00     0.048 A 
ATOM      6  C5  UNL d   1       2.888   0.511   2.986  0.00  0.00     0.003 A 
ATOM      7  I   UNL d   1       0.854  -3.049   1.564  0.00  0.00    -0.146 I 
ENDROOT
TORSDOF 0
ENDMDL
