MODEL 1
REMARK minimizedAffinity 11.2478848
REMARK minimizedRMSD -1
REMARK  0 active torsions:
REMARK  status: ('A' for Active; 'I' for Inactive)
ROOT
ATOM      1  C   UNL d   1      -0.531  -3.777   1.602  0.00  0.00     0.023 A 
ATOM      2  C1  UNL d   1       0.794  -4.184   1.757  0.00  0.00     0.003 A 
ATOM      3  C2  UNL d   1       1.813  -3.233   1.833  0.00  0.00     0.048 A 
ATOM      4  C3  UNL d   1       1.500  -1.876   1.755  0.00  0.00     0.023 A 
ATOM      5  C4  UNL d   1       0.175  -1.465   1.601  0.00  0.00     0.048 A 
ATOM      6  C5  UNL d   1      -0.840  -2.419   1.524  0.00  0.00     0.003 A 
ATOM      7  I   UNL d   1       3.016  -0.458   1.868  0.00  0.00    -0.146 I 
ENDROOT
TORSDOF 0
ENDMDL
