MODEL 1
REMARK minimizedAffinity 14.5095415
REMARK minimizedRMSD -1
REMARK  0 active torsions:
REMARK  status: ('A' for Active; 'I' for Inactive)
ROOT
ATOM      1  C   UNL d   1      -1.345   4.774  -3.668  0.00  0.00     0.023 A 
ATOM      2  C1  UNL d   1      -1.963   5.867  -3.059  0.00  0.00     0.003 A 
ATOM      3  C2  UNL d   1      -3.021   5.667  -2.171  0.00  0.00     0.048 A 
ATOM      4  C3  UNL d   1      -3.457   4.371  -1.895  0.00  0.00     0.023 A 
ATOM      5  C4  UNL d   1      -2.842   3.275  -2.501  0.00  0.00     0.048 A 
ATOM      6  C5  UNL d   1      -1.784   3.480  -3.389  0.00  0.00     0.003 A 
ATOM      7  I   UNL d   1      -5.032   4.071  -0.573  0.00  0.00    -0.146 I 
ENDROOT
TORSDOF 0
ENDMDL
