MODEL 1
REMARK minimizedAffinity 13.7480612
REMARK minimizedRMSD -1
REMARK  0 active torsions:
REMARK  status: ('A' for Active; 'I' for Inactive)
ROOT
ATOM      1  C   UNL d   1      -1.895   3.767  -4.885  0.00  0.00     0.023 A 
ATOM      2  C1  UNL d   1      -2.220   3.076  -3.717  0.00  0.00     0.003 A 
ATOM      3  C2  UNL d   1      -3.398   2.329  -3.651  0.00  0.00     0.048 A 
ATOM      4  C3  UNL d   1      -4.246   2.276  -4.757  0.00  0.00     0.023 A 
ATOM      5  C4  UNL d   1      -3.925   2.966  -5.927  0.00  0.00     0.048 A 
ATOM      6  C5  UNL d   1      -2.747   3.712  -5.988  0.00  0.00     0.003 A 
ATOM      7  I   UNL d   1      -6.000   1.165  -4.661  0.00  0.00    -0.146 I 
ENDROOT
TORSDOF 0
ENDMDL
