MODEL 1
REMARK minimizedAffinity 5.26754475
REMARK minimizedRMSD -1
REMARK  0 active torsions:
REMARK  status: ('A' for Active; 'I' for Inactive)
ROOT
ATOM      1  C   UNL d   1      -3.629  -3.761   3.174  0.00  0.00     0.023 A 
ATOM      2  C1  UNL d   1      -3.244  -5.089   2.997  0.00  0.00     0.003 A 
ATOM      3  C2  UNL d   1      -3.491  -5.734   1.783  0.00  0.00     0.048 A 
ATOM      4  C3  UNL d   1      -4.124  -5.043   0.750  0.00  0.00     0.023 A 
ATOM      5  C4  UNL d   1      -4.511  -3.713   0.922  0.00  0.00     0.048 A 
ATOM      6  C5  UNL d   1      -4.262  -3.073   2.138  0.00  0.00     0.003 A 
ATOM      7  I   UNL d   1      -4.493  -6.000  -1.058  0.00  0.00    -0.146 I 
ENDROOT
TORSDOF 0
ENDMDL
