MODEL 1
REMARK minimizedAffinity 16.1902905
REMARK minimizedRMSD -1
REMARK  0 active torsions:
REMARK  status: ('A' for Active; 'I' for Inactive)
ROOT
ATOM      1  C   UNL d   1      -2.183   4.461  -2.602  0.00  0.00     0.023 A 
ATOM      2  C1  UNL d   1      -2.057   3.256  -3.293  0.00  0.00     0.003 A 
ATOM      3  C2  UNL d   1      -3.109   2.339  -3.297  0.00  0.00     0.048 A 
ATOM      4  C3  UNL d   1      -4.286   2.633  -2.609  0.00  0.00     0.023 A 
ATOM      5  C4  UNL d   1      -4.417   3.838  -1.916  0.00  0.00     0.048 A 
ATOM      6  C5  UNL d   1      -3.361   4.751  -1.914  0.00  0.00     0.003 A 
ATOM      7  I   UNL d   1      -5.854   1.269  -2.613  0.00  0.00    -0.146 I 
ENDROOT
TORSDOF 0
ENDMDL
