MODEL 1
REMARK minimizedAffinity 13.5765095
REMARK minimizedRMSD -1
REMARK  0 active torsions:
REMARK  status: ('A' for Active; 'I' for Inactive)
ROOT
ATOM      1  C   UNL d   1       1.147  -0.085   3.771  0.00  0.00     0.023 A 
ATOM      2  C1  UNL d   1       2.411   0.323   3.343  0.00  0.00     0.003 A 
ATOM      3  C2  UNL d   1       2.968  -0.226   2.186  0.00  0.00     0.048 A 
ATOM      4  C3  UNL d   1       2.256  -1.181   1.462  0.00  0.00     0.023 A 
ATOM      5  C4  UNL d   1       0.991  -1.592   1.886  0.00  0.00     0.048 A 
ATOM      6  C5  UNL d   1       0.438  -1.041   3.044  0.00  0.00     0.003 A 
ATOM      7  I   UNL d   1       3.083  -1.999  -0.260  0.00  0.00    -0.146 I 
ENDROOT
TORSDOF 0
ENDMDL
