MODEL 1
REMARK minimizedAffinity 2.96266842
REMARK minimizedRMSD -1
REMARK  0 active torsions:
REMARK  status: ('A' for Active; 'I' for Inactive)
ROOT
ATOM      1  C   UNL d   1       5.289  -4.174  -5.947  0.00  0.00     0.023 A 
ATOM      2  C1  UNL d   1       4.993  -5.537  -5.999  0.00  0.00     0.003 A 
ATOM      3  C2  UNL d   1       3.673  -5.971  -5.870  0.00  0.00     0.048 A 
ATOM      4  C3  UNL d   1       2.652  -5.038  -5.691  0.00  0.00     0.023 A 
ATOM      5  C4  UNL d   1       2.943  -3.674  -5.639  0.00  0.00     0.048 A 
ATOM      6  C5  UNL d   1       4.265  -3.244  -5.767  0.00  0.00     0.003 A 
ATOM      7  I   UNL d   1       0.686  -5.683  -5.499  0.00  0.00    -0.146 I 
ENDROOT
TORSDOF 0
ENDMDL
