MODEL 1
REMARK minimizedAffinity 3.90882635
REMARK minimizedRMSD -1
REMARK  0 active torsions:
REMARK  status: ('A' for Active; 'I' for Inactive)
ROOT
ATOM      1  C1  BNZ d   1      -1.029   3.379   0.538  0.00  0.00     0.000 A 
ATOM      2  C2  BNZ d   1      -2.153   3.274   1.314  0.00  0.00     0.000 A 
ATOM      3  C3  BNZ d   1      -2.252   2.306   2.274  0.00  0.00     0.000 A 
ATOM      4  C4  BNZ d   1      -1.246   1.422   2.431  0.00  0.00     0.000 A 
ATOM      5  C5  BNZ d   1      -0.110   1.510   1.650  0.00  0.00     0.000 A 
ATOM      6  C6  BNZ d   1       0.002   2.509   0.711  0.00  0.00     0.000 A 
ENDROOT
TORSDOF 0
ENDMDL
