MODEL 1
REMARK minimizedAffinity -4.55303955
REMARK minimizedRMSD -1
REMARK  0 active torsions:
REMARK  status: ('A' for Active; 'I' for Inactive)
ROOT
ATOM      1  C1  BNZ d   1      -2.144  -0.042   1.389  0.00  0.00     0.000 A 
ATOM      2  C2  BNZ d   1      -0.906  -0.453   0.973  0.00  0.00     0.000 A 
ATOM      3  C3  BNZ d   1       0.151   0.414   0.960  0.00  0.00     0.000 A 
ATOM      4  C4  BNZ d   1      -0.040   1.699   1.323  0.00  0.00     0.000 A 
ATOM      5  C5  BNZ d   1      -1.285   2.130   1.736  0.00  0.00     0.000 A 
ATOM      6  C6  BNZ d   1      -2.338   1.245   1.785  0.00  0.00     0.000 A 
ENDROOT
TORSDOF 0
ENDMDL
