MODEL 1
REMARK minimizedAffinity -4.66320515
REMARK minimizedRMSD -1
REMARK  0 active torsions:
REMARK  status: ('A' for Active; 'I' for Inactive)
ROOT
ATOM      1  C1  BNZ d   1       0.162  -0.285   1.545  0.00  0.00     0.000 A 
ATOM      2  C2  BNZ d   1       1.004   0.351   2.419  0.00  0.00     0.000 A 
ATOM      3  C3  BNZ d   1       1.022   1.715   2.506  0.00  0.00     0.000 A 
ATOM      4  C4  BNZ d   1       0.229   2.442   1.692  0.00  0.00     0.000 A 
ATOM      5  C5  BNZ d   1      -0.618   1.816   0.800  0.00  0.00     0.000 A 
ATOM      6  C6  BNZ d   1      -0.662   0.442   0.742  0.00  0.00     0.000 A 
ENDROOT
TORSDOF 0
ENDMDL
