MODEL 1
REMARK minimizedAffinity -4.14213705
REMARK minimizedRMSD -1
REMARK  0 active torsions:
REMARK  status: ('A' for Active; 'I' for Inactive)
ROOT
ATOM      1  C1  BNZ d   1      -1.153   2.716   1.997  0.00  0.00     0.000 A 
ATOM      2  C2  BNZ d   1       0.103   2.280   1.667  0.00  0.00     0.000 A 
ATOM      3  C3  BNZ d   1       0.308   0.999   1.237  0.00  0.00     0.000 A 
ATOM      4  C4  BNZ d   1      -0.733   0.144   1.178  0.00  0.00     0.000 A 
ATOM      5  C5  BNZ d   1      -2.004   0.566   1.517  0.00  0.00     0.000 A 
ATOM      6  C6  BNZ d   1      -2.213   1.868   1.912  0.00  0.00     0.000 A 
ENDROOT
TORSDOF 0
ENDMDL
