MODEL 1
REMARK minimizedAffinity -2.67051196
REMARK minimizedRMSD -1
REMARK  0 active torsions:
REMARK  status: ('A' for Active; 'I' for Inactive)
ROOT
ATOM      1  C1  BNZ d   1       0.076   1.730   1.242  0.00  0.00     0.000 A 
ATOM      2  C2  BNZ d   1      -1.020   2.438   1.657  0.00  0.00     0.000 A 
ATOM      3  C3  BNZ d   1      -2.082   1.804   2.240  0.00  0.00     0.000 A 
ATOM      4  C4  BNZ d   1      -2.064   0.462   2.369  0.00  0.00     0.000 A 
ATOM      5  C5  BNZ d   1      -0.970  -0.266   1.946  0.00  0.00     0.000 A 
ATOM      6  C6  BNZ d   1       0.114   0.378   1.396  0.00  0.00     0.000 A 
ENDROOT
TORSDOF 0
ENDMDL
