MODEL 1
REMARK minimizedAffinity -3.44022489
REMARK minimizedRMSD -1
REMARK  0 active torsions:
REMARK  status: ('A' for Active; 'I' for Inactive)
ROOT
ATOM      1  C1  BNZ d   1       0.490  -0.087   1.201  0.00  0.00     0.000 A 
ATOM      2  C2  BNZ d   1       0.312   1.178   0.708  0.00  0.00     0.000 A 
ATOM      3  C3  BNZ d   1      -0.908   1.791   0.778  0.00  0.00     0.000 A 
ATOM      4  C4  BNZ d   1      -1.956   1.125   1.305  0.00  0.00     0.000 A 
ATOM      5  C5  BNZ d   1      -1.794  -0.155   1.798  0.00  0.00     0.000 A 
ATOM      6  C6  BNZ d   1      -0.556  -0.754   1.761  0.00  0.00     0.000 A 
ENDROOT
TORSDOF 0
ENDMDL
