MODEL 1
REMARK minimizedAffinity -1.50630534
REMARK minimizedRMSD -1
REMARK  0 active torsions:
REMARK  status: ('A' for Active; 'I' for Inactive)
ROOT
ATOM      1  C1  BNZ d   1      -1.895   1.183   1.411  0.00  0.00     0.000 A 
ATOM      2  C2  BNZ d   1      -0.844   2.036   1.207  0.00  0.00     0.000 A 
ATOM      3  C3  BNZ d   1       0.427   1.557   1.055  0.00  0.00     0.000 A 
ATOM      4  C4  BNZ d   1       0.651   0.230   1.146  0.00  0.00     0.000 A 
ATOM      5  C5  BNZ d   1      -0.398  -0.643   1.361  0.00  0.00     0.000 A 
ATOM      6  C6  BNZ d   1      -1.681  -0.160   1.475  0.00  0.00     0.000 A 
ENDROOT
TORSDOF 0
ENDMDL
