MODEL 1
REMARK minimizedAffinity 1.90515363
REMARK minimizedRMSD -1
REMARK  0 active torsions:
REMARK  status: ('A' for Active; 'I' for Inactive)
ROOT
ATOM      1  C1  BNZ d   1      -0.043   2.832   0.801  0.00  0.00     0.000 A 
ATOM      2  C2  BNZ d   1       1.042   2.357   0.113  0.00  0.00     0.000 A 
ATOM      3  C3  BNZ d   1       1.675   1.212   0.509  0.00  0.00     0.000 A 
ATOM      4  C4  BNZ d   1       1.248   0.566   1.614  0.00  0.00     0.000 A 
ATOM      5  C5  BNZ d   1       0.161   1.037   2.323  0.00  0.00     0.000 A 
ATOM      6  C6  BNZ d   1      -0.498   2.169   1.899  0.00  0.00     0.000 A 
ENDROOT
TORSDOF 0
ENDMDL
