MODEL 1
REMARK minimizedAffinity 2.50367856
REMARK minimizedRMSD -1
REMARK  0 active torsions:
REMARK  status: ('A' for Active; 'I' for Inactive)
ROOT
ATOM      1  C1  BNZ d   1       0.814   0.634   1.632  0.00  0.00     0.000 A 
ATOM      2  C2  BNZ d   1       0.329   1.856   1.249  0.00  0.00     0.000 A 
ATOM      3  C3  BNZ d   1      -0.963   2.212   1.517  0.00  0.00     0.000 A 
ATOM      4  C4  BNZ d   1      -1.779   1.331   2.132  0.00  0.00     0.000 A 
ATOM      5  C5  BNZ d   1      -1.308   0.092   2.516  0.00  0.00     0.000 A 
ATOM      6  C6  BNZ d   1       0.004  -0.248   2.279  0.00  0.00     0.000 A 
ENDROOT
TORSDOF 0
ENDMDL
