MODEL 1
REMARK minimizedAffinity -0.503828883
REMARK minimizedRMSD -1
REMARK  0 active torsions:
REMARK  status: ('A' for Active; 'I' for Inactive)
ROOT
ATOM      1  C1  BNZ d   1      -3.164   1.320   2.643  0.00  0.00     0.000 A 
ATOM      2  C2  BNZ d   1      -2.380   2.367   2.236  0.00  0.00     0.000 A 
ATOM      3  C3  BNZ d   1      -1.086   2.162   1.847  0.00  0.00     0.000 A 
ATOM      4  C4  BNZ d   1      -0.565   0.919   1.905  0.00  0.00     0.000 A 
ATOM      5  C5  BNZ d   1      -1.340  -0.145   2.322  0.00  0.00     0.000 A 
ATOM      6  C6  BNZ d   1      -2.654   0.059   2.676  0.00  0.00     0.000 A 
ENDROOT
TORSDOF 0
ENDMDL
