MODEL 1
REMARK minimizedAffinity -0.0811874792
REMARK minimizedRMSD -1
REMARK  0 active torsions:
REMARK  status: ('A' for Active; 'I' for Inactive)
ROOT
ATOM      1  C1  BNZ d   1      -3.292  -2.797  -3.383  0.00  0.00     0.000 A 
ATOM      2  C2  BNZ d   1      -3.277  -3.877  -2.543  0.00  0.00     0.000 A 
ATOM      3  C3  BNZ d   1      -3.799  -3.792  -1.283  0.00  0.00     0.000 A 
ATOM      4  C4  BNZ d   1      -4.300  -2.616  -0.851  0.00  0.00     0.000 A 
ATOM      5  C5  BNZ d   1      -4.314  -1.515  -1.683  0.00  0.00     0.000 A 
ATOM      6  C6  BNZ d   1      -3.822  -1.615  -2.965  0.00  0.00     0.000 A 
ENDROOT
TORSDOF 0
ENDMDL
