MODEL 1
REMARK minimizedAffinity -4.12394142
REMARK minimizedRMSD -1
REMARK  0 active torsions:
REMARK  status: ('A' for Active; 'I' for Inactive)
ROOT
ATOM      1  C1  BNZ d   1      -0.901   2.332   1.477  0.00  0.00     0.000 A 
ATOM      2  C2  BNZ d   1      -1.994   1.528   1.661  0.00  0.00     0.000 A 
ATOM      3  C3  BNZ d   1      -1.886   0.168   1.574  0.00  0.00     0.000 A 
ATOM      4  C4  BNZ d   1      -0.696  -0.384   1.263  0.00  0.00     0.000 A 
ATOM      5  C5  BNZ d   1       0.414   0.414   1.066  0.00  0.00     0.000 A 
ATOM      6  C6  BNZ d   1       0.310   1.780   1.193  0.00  0.00     0.000 A 
ENDROOT
TORSDOF 0
ENDMDL
