MODEL 1
REMARK minimizedAffinity -2.73696303
REMARK minimizedRMSD -1
REMARK  0 active torsions:
REMARK  status: ('A' for Active; 'I' for Inactive)
ROOT
ATOM      1  C1  BNZ d   1       1.453   0.903   0.114  0.00  0.00     0.000 A 
ATOM      2  C2  BNZ d   1       0.212   1.375   0.447  0.00  0.00     0.000 A 
ATOM      3  C3  BNZ d   1      -0.195   1.418   1.751  0.00  0.00     0.000 A 
ATOM      4  C4  BNZ d   1       0.624   0.952   2.716  0.00  0.00     0.000 A 
ATOM      5  C5  BNZ d   1       1.875   0.464   2.396  0.00  0.00     0.000 A 
ATOM      6  C6  BNZ d   1       2.296   0.459   1.086  0.00  0.00     0.000 A 
ENDROOT
TORSDOF 0
ENDMDL
