MODEL 1
REMARK minimizedAffinity -6.40256739
REMARK minimizedRMSD -1
REMARK  2 active torsions:
REMARK  status: ('A' for Active; 'I' for Inactive)
REMARK    1  A    between atoms: C1_2  and  C2_3 
REMARK    2  A    between atoms: C2_3  and  C3_4 
ROOT
ATOM      1  C3  UNL d   1       0.269  -0.775  -0.421  0.00  0.00    -0.075 A 
ATOM      2  C4  UNL d   1       0.637  -1.994  -1.008  0.00  0.00     0.002 A 
ATOM      3  C5  UNL d   1       1.505  -2.022  -2.100  0.00  0.00     0.002 A 
ATOM      4  C6  UNL d   1       2.007  -0.833  -2.625  0.00  0.00    -0.004 A 
ATOM      5  C7  UNL d   1       1.635   0.385  -2.060  0.00  0.00     0.002 A 
ATOM      6  C8  UNL d   1       0.770   0.416  -0.965  0.00  0.00     0.002 A 
ENDROOT
BRANCH   1   7
ATOM      7  C2  UNL d   1      -0.646  -0.740   0.779  0.00  0.00     0.056 C 
BRANCH   7   8
ATOM      8  C1  UNL d   1      -0.854   0.661   1.365  0.00  0.00     0.007 C 
ATOM      9  C   UNL d   1      -2.182   0.817   2.093  0.00  0.00     0.009 C 
ENDBRANCH   7   8
ENDBRANCH   1   7
TORSDOF 2
ENDMDL
