MODEL 1
REMARK minimizedAffinity 4.95881224
REMARK minimizedRMSD -1
REMARK  2 active torsions:
REMARK  status: ('A' for Active; 'I' for Inactive)
REMARK    1  A    between atoms: C1_2  and  C2_3 
REMARK    2  A    between atoms: C2_3  and  C3_4 
ROOT
ATOM      1  C3  UNL d   1       1.577   2.027  -1.467  0.00  0.00    -0.075 A 
ATOM      2  C4  UNL d   1       0.778   1.323  -2.380  0.00  0.00     0.002 A 
ATOM      3  C5  UNL d   1       1.197   0.093  -2.888  0.00  0.00     0.002 A 
ATOM      4  C6  UNL d   1       2.423  -0.443  -2.499  0.00  0.00    -0.004 A 
ATOM      5  C7  UNL d   1       3.233   0.256  -1.606  0.00  0.00     0.002 A 
ATOM      6  C8  UNL d   1       2.813   1.484  -1.093  0.00  0.00     0.002 A 
ENDROOT
BRANCH   1   7
ATOM      7  C2  UNL d   1       1.115   3.344  -0.891  0.00  0.00     0.056 C 
BRANCH   7   8
ATOM      8  C1  UNL d   1       1.077   3.376   0.640  0.00  0.00     0.007 C 
ATOM      9  C   UNL d   1       1.011   4.787   1.209  0.00  0.00     0.009 C 
ENDBRANCH   7   8
ENDBRANCH   1   7
TORSDOF 2
ENDMDL
