MODEL 1
REMARK minimizedAffinity -2.68320322
REMARK minimizedRMSD -1
REMARK  2 active torsions:
REMARK  status: ('A' for Active; 'I' for Inactive)
REMARK    1  A    between atoms: C1_2  and  C2_3 
REMARK    2  A    between atoms: C2_3  and  C3_4 
ROOT
ATOM      1  C3  UNL d   1      -0.275   0.151  -0.203  0.00  0.00    -0.075 A 
ATOM      2  C4  UNL d   1       0.743   1.110  -0.309  0.00  0.00     0.002 A 
ATOM      3  C5  UNL d   1       1.565   1.149  -1.436  0.00  0.00     0.002 A 
ATOM      4  C6  UNL d   1       1.388   0.226  -2.463  0.00  0.00    -0.004 A 
ATOM      5  C7  UNL d   1       0.391  -0.742  -2.361  0.00  0.00     0.002 A 
ATOM      6  C8  UNL d   1      -0.436  -0.781  -1.237  0.00  0.00     0.002 A 
ENDROOT
BRANCH   1   7
ATOM      7  C2  UNL d   1      -1.187   0.123   1.000  0.00  0.00     0.056 C 
BRANCH   7   8
ATOM      8  C1  UNL d   1      -2.678   0.055   0.650  0.00  0.00     0.007 C 
ATOM      9  C   UNL d   1      -3.518   1.076   1.406  0.00  0.00     0.009 C 
ENDBRANCH   7   8
ENDBRANCH   1   7
TORSDOF 2
ENDMDL
