MODEL 1
REMARK minimizedAffinity -6.01360035
REMARK minimizedRMSD -1
REMARK  2 active torsions:
REMARK  status: ('A' for Active; 'I' for Inactive)
REMARK    1  A    between atoms: C1_2  and  C2_3 
REMARK    2  A    between atoms: C2_3  and  C3_4 
ROOT
ATOM      1  C3  UNL d   1      -0.547  -0.104   0.039  0.00  0.00    -0.075 A 
ATOM      2  C4  UNL d   1       0.046   1.107   0.426  0.00  0.00     0.002 A 
ATOM      3  C5  UNL d   1       1.064   1.674  -0.341  0.00  0.00     0.002 A 
ATOM      4  C6  UNL d   1       1.508   1.034  -1.497  0.00  0.00    -0.004 A 
ATOM      5  C7  UNL d   1       0.937  -0.177  -1.882  0.00  0.00     0.002 A 
ATOM      6  C8  UNL d   1      -0.085  -0.744  -1.118  0.00  0.00     0.002 A 
ENDROOT
BRANCH   1   7
ATOM      7  C2  UNL d   1      -1.670  -0.707   0.849  0.00  0.00     0.056 C 
BRANCH   7   8
ATOM      8  C1  UNL d   1      -2.946   0.141   0.876  0.00  0.00     0.007 C 
ATOM      9  C   UNL d   1      -3.384   0.522   2.283  0.00  0.00     0.009 C 
ENDBRANCH   7   8
ENDBRANCH   1   7
TORSDOF 2
ENDMDL
