MODEL 1
REMARK minimizedAffinity -3.50655913
REMARK minimizedRMSD -1
REMARK  2 active torsions:
REMARK  status: ('A' for Active; 'I' for Inactive)
REMARK    1  A    between atoms: C1_2  and  C2_3 
REMARK    2  A    between atoms: C2_3  and  C3_4 
ROOT
ATOM      1  C3  UNL d   1       0.333  -0.399  -1.186  0.00  0.00    -0.075 A 
ATOM      2  C4  UNL d   1       0.011   0.669  -0.336  0.00  0.00     0.002 A 
ATOM      3  C5  UNL d   1      -0.278   0.440   1.010  0.00  0.00     0.002 A 
ATOM      4  C6  UNL d   1      -0.259  -0.856   1.519  0.00  0.00    -0.004 A 
ATOM      5  C7  UNL d   1       0.043  -1.926   0.679  0.00  0.00     0.002 A 
ATOM      6  C8  UNL d   1       0.337  -1.700  -0.666  0.00  0.00     0.002 A 
ENDROOT
BRANCH   1   7
ATOM      7  C2  UNL d   1       0.676  -0.155  -2.636  0.00  0.00     0.056 C 
BRANCH   7   8
ATOM      8  C1  UNL d   1       2.179  -0.179  -2.935  0.00  0.00     0.007 C 
ATOM      9  C   UNL d   1       3.030   0.307  -1.769  0.00  0.00     0.009 C 
ENDBRANCH   7   8
ENDBRANCH   1   7
TORSDOF 2
ENDMDL
