MODEL 1
REMARK minimizedAffinity -6.04533291
REMARK minimizedRMSD -1
REMARK  2 active torsions:
REMARK  status: ('A' for Active; 'I' for Inactive)
REMARK    1  A    between atoms: C1_2  and  C2_3 
REMARK    2  A    between atoms: C2_3  and  C3_4 
ROOT
ATOM      1  C3  UNL d   1      -0.092  -0.147  -0.116  0.00  0.00    -0.075 A 
ATOM      2  C4  UNL d   1       0.329   1.183  -0.261  0.00  0.00     0.002 A 
ATOM      3  C5  UNL d   1       1.107   1.565  -1.354  0.00  0.00     0.002 A 
ATOM      4  C6  UNL d   1       1.481   0.623  -2.310  0.00  0.00    -0.004 A 
ATOM      5  C7  UNL d   1       1.083  -0.705  -2.168  0.00  0.00     0.002 A 
ATOM      6  C8  UNL d   1       0.301  -1.089  -1.077  0.00  0.00     0.002 A 
ENDROOT
BRANCH   1   7
ATOM      7  C2  UNL d   1      -0.958  -0.561   1.050  0.00  0.00     0.056 C 
BRANCH   7   8
ATOM      8  C1  UNL d   1      -1.884   0.547   1.563  0.00  0.00     0.007 C 
ATOM      9  C   UNL d   1      -3.357   0.270   1.295  0.00  0.00     0.009 C 
ENDBRANCH   7   8
ENDBRANCH   1   7
TORSDOF 2
ENDMDL
