MODEL 1
REMARK minimizedAffinity -3.48220849
REMARK minimizedRMSD -1
REMARK  2 active torsions:
REMARK  status: ('A' for Active; 'I' for Inactive)
REMARK    1  A    between atoms: C1_2  and  C2_3 
REMARK    2  A    between atoms: C2_3  and  C3_4 
ROOT
ATOM      1  C3  UNL d   1       0.145  -0.005   0.089  0.00  0.00    -0.075 A 
ATOM      2  C4  UNL d   1       0.744  -0.979  -0.723  0.00  0.00     0.002 A 
ATOM      3  C5  UNL d   1       1.496  -0.607  -1.837  0.00  0.00     0.002 A 
ATOM      4  C6  UNL d   1       1.650   0.740  -2.160  0.00  0.00    -0.004 A 
ATOM      5  C7  UNL d   1       1.045   1.715  -1.370  0.00  0.00     0.002 A 
ATOM      6  C8  UNL d   1       0.295   1.346  -0.252  0.00  0.00     0.002 A 
ENDROOT
BRANCH   1   7
ATOM      7  C2  UNL d   1      -0.646  -0.400   1.313  0.00  0.00     0.056 C 
BRANCH   7   8
ATOM      8  C1  UNL d   1      -1.601   0.688   1.817  0.00  0.00     0.007 C 
ATOM      9  C   UNL d   1      -3.067   0.370   1.553  0.00  0.00     0.009 C 
ENDBRANCH   7   8
ENDBRANCH   1   7
TORSDOF 2
ENDMDL
