MODEL 1
REMARK minimizedAffinity -3.03949499
REMARK minimizedRMSD -1
REMARK  2 active torsions:
REMARK  status: ('A' for Active; 'I' for Inactive)
REMARK    1  A    between atoms: C1_2  and  C2_3 
REMARK    2  A    between atoms: C2_3  and  C3_4 
ROOT
ATOM      1  C3  UNL d   1      -0.646   0.101   0.774  0.00  0.00    -0.075 A 
ATOM      2  C4  UNL d   1      -0.008   1.307   0.449  0.00  0.00     0.002 A 
ATOM      3  C5  UNL d   1       0.897   1.366  -0.611  0.00  0.00     0.002 A 
ATOM      4  C6  UNL d   1       1.183   0.221  -1.352  0.00  0.00    -0.004 A 
ATOM      5  C7  UNL d   1       0.568  -0.986  -1.027  0.00  0.00     0.002 A 
ATOM      6  C8  UNL d   1      -0.342  -1.047   0.030  0.00  0.00     0.002 A 
ENDROOT
BRANCH   1   7
ATOM      7  C2  UNL d   1      -1.649   0.037   1.901  0.00  0.00     0.056 C 
BRANCH   7   8
ATOM      8  C1  UNL d   1      -3.109   0.094   1.440  0.00  0.00     0.007 C 
ATOM      9  C   UNL d   1      -3.737   1.472   1.601  0.00  0.00     0.009 C 
ENDBRANCH   7   8
ENDBRANCH   1   7
TORSDOF 2
ENDMDL
