MODEL 1
REMARK minimizedAffinity -5.45733166
REMARK minimizedRMSD -1
REMARK  2 active torsions:
REMARK  status: ('A' for Active; 'I' for Inactive)
REMARK    1  A    between atoms: C1_2  and  C2_3 
REMARK    2  A    between atoms: C2_3  and  C3_4 
ROOT
ATOM      1  C3  UNL d   1       0.046  -0.214   0.340  0.00  0.00    -0.075 A 
ATOM      2  C4  UNL d   1      -0.002  -1.023  -0.805  0.00  0.00     0.002 A 
ATOM      3  C5  UNL d   1       0.715  -0.674  -1.949  0.00  0.00     0.002 A 
ATOM      4  C6  UNL d   1       1.479   0.491  -1.968  0.00  0.00    -0.004 A 
ATOM      5  C7  UNL d   1       1.521   1.311  -0.842  0.00  0.00     0.002 A 
ATOM      6  C8  UNL d   1       0.808   0.962   0.306  0.00  0.00     0.002 A 
ENDROOT
BRANCH   1   7
ATOM      7  C2  UNL d   1      -0.705  -0.601   1.592  0.00  0.00     0.056 C 
BRANCH   7   8
ATOM      8  C1  UNL d   1      -2.095   0.033   1.707  0.00  0.00     0.007 C 
ATOM      9  C   UNL d   1      -2.352   0.672   3.065  0.00  0.00     0.009 C 
ENDBRANCH   7   8
ENDBRANCH   1   7
TORSDOF 2
ENDMDL
