MODEL 1
REMARK minimizedAffinity -3.70026612
REMARK minimizedRMSD -1
REMARK  2 active torsions:
REMARK  status: ('A' for Active; 'I' for Inactive)
REMARK    1  A    between atoms: C1_2  and  C2_3 
REMARK    2  A    between atoms: C2_3  and  C3_4 
ROOT
ATOM      1  C3  UNL d   1      -2.148   0.147   2.111  0.00  0.00    -0.075 A 
ATOM      2  C4  UNL d   1      -3.259  -0.514   1.567  0.00  0.00     0.002 A 
ATOM      3  C5  UNL d   1      -4.513   0.097   1.561  0.00  0.00     0.002 A 
ATOM      4  C6  UNL d   1      -4.675   1.369   2.107  0.00  0.00    -0.004 A 
ATOM      5  C7  UNL d   1      -3.582   2.027   2.665  0.00  0.00     0.002 A 
ATOM      6  C8  UNL d   1      -2.325   1.420   2.669  0.00  0.00     0.002 A 
ENDROOT
BRANCH   1   7
ATOM      7  C2  UNL d   1      -0.782  -0.497   2.094  0.00  0.00     0.056 C 
BRANCH   7   8
ATOM      8  C1  UNL d   1      -0.242  -0.776   0.688  0.00  0.00     0.007 C 
ATOM      9  C   UNL d   1       0.320   0.464   0.004  0.00  0.00     0.009 C 
ENDBRANCH   7   8
ENDBRANCH   1   7
TORSDOF 2
ENDMDL
