MODEL 1
REMARK minimizedAffinity -5.66202402
REMARK minimizedRMSD -1
REMARK  2 active torsions:
REMARK  status: ('A' for Active; 'I' for Inactive)
REMARK    1  A    between atoms: C1_2  and  C2_3 
REMARK    2  A    between atoms: C2_3  and  C3_4 
ROOT
ATOM      1  C3  UNL d   1       0.699   0.310  -0.754  0.00  0.00    -0.075 A 
ATOM      2  C4  UNL d   1       0.667  -1.013  -1.218  0.00  0.00     0.002 A 
ATOM      3  C5  UNL d   1       1.408  -1.389  -2.339  0.00  0.00     0.002 A 
ATOM      4  C6  UNL d   1       2.180  -0.446  -3.015  0.00  0.00    -0.004 A 
ATOM      5  C7  UNL d   1       2.206   0.875  -2.573  0.00  0.00     0.002 A 
ATOM      6  C8  UNL d   1       1.469   1.252  -1.449  0.00  0.00     0.002 A 
ENDROOT
BRANCH   1   7
ATOM      7  C2  UNL d   1      -0.078   0.716   0.476  0.00  0.00     0.056 C 
BRANCH   7   8
ATOM      8  C1  UNL d   1      -0.971  -0.392   1.044  0.00  0.00     0.007 C 
ATOM      9  C   UNL d   1      -2.292   0.126   1.597  0.00  0.00     0.009 C 
ENDBRANCH   7   8
ENDBRANCH   1   7
TORSDOF 2
ENDMDL
