MODEL 1
REMARK minimizedAffinity 13.8032827
REMARK minimizedRMSD -1
REMARK  0 active torsions:
REMARK  status: ('A' for Active; 'I' for Inactive)
ROOT
ATOM      1  C1  DEN d   1      -2.654  -5.747  -3.602  0.00  0.00     0.130 A 
ATOM      2  C2  DEN d   1      -1.714  -4.887  -2.888  0.00  0.00    -0.031 A 
ATOM      3  C3  DEN d   1      -1.980  -3.490  -3.285  0.00  0.00     0.027 A 
ATOM      4  C4  DEN d   1      -3.751  -2.579  -4.924  0.00  0.00     0.027 A 
ATOM      5  C5  DEN d   1      -4.771  -2.926  -5.782  0.00  0.00    -0.003 A 
ATOM      6  C6  DEN d   1      -5.131  -4.230  -5.998  0.00  0.00     0.001 A 
ATOM      7  C7  DEN d   1      -4.495  -5.232  -5.313  0.00  0.00     0.017 A 
ATOM      8  C8  DEN d   1      -3.462  -4.890  -4.451  0.00  0.00    -0.094 A 
ATOM      9  C9  DEN d   1      -3.121  -3.565  -4.237  0.00  0.00    -0.072 A 
ENDROOT
TORSDOF 0
ENDMDL
