MODEL 1
REMARK minimizedAffinity 18.4417248
REMARK minimizedRMSD -1
REMARK  0 active torsions:
REMARK  status: ('A' for Active; 'I' for Inactive)
ROOT
ATOM      1  C1  DEN d   1       1.492   1.479   5.159  0.00  0.00     0.130 A 
ATOM      2  C2  DEN d   1       1.051   2.589   5.999  0.00  0.00    -0.031 A 
ATOM      3  C3  DEN d   1      -0.236   3.082   5.467  0.00  0.00     0.027 A 
ATOM      4  C4  DEN d   1      -1.583   2.235   3.437  0.00  0.00     0.027 A 
ATOM      5  C5  DEN d   1      -1.605   1.321   2.407  0.00  0.00    -0.003 A 
ATOM      6  C6  DEN d   1      -0.588   0.425   2.203  0.00  0.00     0.001 A 
ATOM      7  C7  DEN d   1       0.473   0.395   3.069  0.00  0.00     0.017 A 
ATOM      8  C8  DEN d   1       0.506   1.318   4.106  0.00  0.00    -0.094 A 
ATOM      9  C9  DEN d   1      -0.538   2.207   4.302  0.00  0.00    -0.072 A 
ENDROOT
TORSDOF 0
ENDMDL
