MODEL 1
REMARK minimizedAffinity 10.0372353
REMARK minimizedRMSD -1
REMARK  0 active torsions:
REMARK  status: ('A' for Active; 'I' for Inactive)
ROOT
ATOM      1  C1  DEN d   1      -5.960  -1.575   1.680  0.00  0.00     0.130 A 
ATOM      2  C2  DEN d   1      -6.000  -2.916   2.257  0.00  0.00    -0.031 A 
ATOM      3  C3  DEN d   1      -4.982  -2.984   3.324  0.00  0.00     0.027 A 
ATOM      4  C4  DEN d   1      -3.359  -1.152   4.139  0.00  0.00     0.027 A 
ATOM      5  C5  DEN d   1      -2.944   0.147   3.945  0.00  0.00    -0.003 A 
ATOM      6  C6  DEN d   1      -3.478   0.946   2.969  0.00  0.00     0.001 A 
ATOM      7  C7  DEN d   1      -4.489   0.468   2.178  0.00  0.00     0.017 A 
ATOM      8  C8  DEN d   1      -4.907  -0.844   2.362  0.00  0.00    -0.094 A 
ATOM      9  C9  DEN d   1      -4.363  -1.631   3.362  0.00  0.00    -0.072 A 
ENDROOT
TORSDOF 0
ENDMDL
