MODEL 1
REMARK minimizedAffinity 12.8715982
REMARK minimizedRMSD -1
REMARK  0 active torsions:
REMARK  status: ('A' for Active; 'I' for Inactive)
ROOT
ATOM      1  C1  DEN d   1      -2.028  -0.475  -3.438  0.00  0.00     0.130 A 
ATOM      2  C2  DEN d   1      -0.680  -0.015  -3.116  0.00  0.00    -0.031 A 
ATOM      3  C3  DEN d   1       0.143  -1.199  -2.798  0.00  0.00     0.027 A 
ATOM      4  C4  DEN d   1      -0.535  -3.688  -2.778  0.00  0.00     0.027 A 
ATOM      5  C5  DEN d   1      -1.575  -4.570  -2.971  0.00  0.00    -0.003 A 
ATOM      6  C6  DEN d   1      -2.837  -4.150  -3.298  0.00  0.00     0.001 A 
ATOM      7  C7  DEN d   1      -3.081  -2.815  -3.485  0.00  0.00     0.017 A 
ATOM      8  C8  DEN d   1      -2.039  -1.919  -3.285  0.00  0.00    -0.094 A 
ATOM      9  C9  DEN d   1      -0.767  -2.364  -2.967  0.00  0.00    -0.072 A 
ENDROOT
TORSDOF 0
ENDMDL
