MODEL 1
REMARK minimizedAffinity 19.0755672
REMARK minimizedRMSD -1
REMARK  0 active torsions:
REMARK  status: ('A' for Active; 'I' for Inactive)
ROOT
ATOM      1  C1  DEN d   1       2.618   0.499  -4.177  0.00  0.00     0.130 A 
ATOM      2  C2  DEN d   1       1.559  -0.485  -4.382  0.00  0.00    -0.031 A 
ATOM      3  C3  DEN d   1       1.267  -1.119  -3.080  0.00  0.00     0.027 A 
ATOM      4  C4  DEN d   1       2.345  -0.671  -0.780  0.00  0.00     0.027 A 
ATOM      5  C5  DEN d   1       3.295   0.066  -0.110  0.00  0.00    -0.003 A 
ATOM      6  C6  DEN d   1       4.104   0.968  -0.750  0.00  0.00     0.001 A 
ATOM      7  C7  DEN d   1       3.945   1.189  -2.093  0.00  0.00     0.017 A 
ATOM      8  C8  DEN d   1       2.994   0.443  -2.776  0.00  0.00    -0.094 A 
ATOM      9  C9  DEN d   1       2.178  -0.455  -2.109  0.00  0.00    -0.072 A 
ENDROOT
TORSDOF 0
ENDMDL
