MODEL 1
REMARK minimizedAffinity 13.6724062
REMARK minimizedRMSD -1
REMARK  0 active torsions:
REMARK  status: ('A' for Active; 'I' for Inactive)
ROOT
ATOM      1  C1  DEN d   1      -2.379  -3.403  -3.763  0.00  0.00     0.130 A 
ATOM      2  C2  DEN d   1      -1.923  -4.523  -2.944  0.00  0.00    -0.031 A 
ATOM      3  C3  DEN d   1      -2.822  -5.667  -3.193  0.00  0.00     0.027 A 
ATOM      4  C4  DEN d   1      -4.862  -5.815  -4.765  0.00  0.00     0.027 A 
ATOM      5  C5  DEN d   1      -5.644  -5.117  -5.658  0.00  0.00    -0.003 A 
ATOM      6  C6  DEN d   1      -5.414  -3.799  -5.955  0.00  0.00     0.001 A 
ATOM      7  C7  DEN d   1      -4.350  -3.151  -5.386  0.00  0.00     0.017 A 
ATOM      8  C8  DEN d   1      -3.562  -3.846  -4.479  0.00  0.00    -0.094 A 
ATOM      9  C9  DEN d   1      -3.802  -5.181  -4.202  0.00  0.00    -0.072 A 
ENDROOT
TORSDOF 0
ENDMDL
