MODEL 1
REMARK minimizedAffinity 20.5074062
REMARK minimizedRMSD -1
REMARK  0 active torsions:
REMARK  status: ('A' for Active; 'I' for Inactive)
ROOT
ATOM      1  C1  DEN d   1       0.115  -1.087  -2.352  0.00  0.00     0.130 A 
ATOM      2  C2  DEN d   1      -0.895  -2.117  -2.577  0.00  0.00    -0.031 A 
ATOM      3  C3  DEN d   1      -0.691  -2.667  -3.932  0.00  0.00     0.027 A 
ATOM      4  C4  DEN d   1       1.083  -2.030  -5.692  0.00  0.00     0.027 A 
ATOM      5  C5  DEN d   1       2.150  -1.201  -5.962  0.00  0.00    -0.003 A 
ATOM      6  C6  DEN d   1       2.588  -0.260  -5.068  0.00  0.00     0.001 A 
ATOM      7  C7  DEN d   1       1.985  -0.156  -3.842  0.00  0.00     0.017 A 
ATOM      8  C8  DEN d   1       0.904  -0.983  -3.566  0.00  0.00    -0.094 A 
ATOM      9  C9  DEN d   1       0.484  -1.936  -4.478  0.00  0.00    -0.072 A 
ENDROOT
TORSDOF 0
ENDMDL
