MODEL 1
REMARK minimizedAffinity 6.47361135
REMARK minimizedRMSD -1
REMARK  0 active torsions:
REMARK  status: ('A' for Active; 'I' for Inactive)
ROOT
ATOM      1  C1  DEN d   1       1.405  -1.166  -0.145  0.00  0.00     0.130 A 
ATOM      2  C2  DEN d   1       1.758  -1.956  -1.321  0.00  0.00    -0.031 A 
ATOM      3  C3  DEN d   1       2.327  -1.041  -2.331  0.00  0.00     0.027 A 
ATOM      4  C4  DEN d   1       2.697   1.507  -2.186  0.00  0.00     0.027 A 
ATOM      5  C5  DEN d   1       2.542   2.621  -1.390  0.00  0.00    -0.003 A 
ATOM      6  C6  DEN d   1       1.971   2.556  -0.147  0.00  0.00     0.001 A 
ATOM      7  C7  DEN d   1       1.574   1.344   0.355  0.00  0.00     0.017 A 
ATOM      8  C8  DEN d   1       1.721   0.219  -0.444  0.00  0.00    -0.094 A 
ATOM      9  C9  DEN d   1       2.312   0.303  -1.693  0.00  0.00    -0.072 A 
ENDROOT
TORSDOF 0
ENDMDL
