MODEL 1
REMARK minimizedAffinity 14.228014
REMARK minimizedRMSD -1
REMARK  0 active torsions:
REMARK  status: ('A' for Active; 'I' for Inactive)
ROOT
ATOM      1  C1  DEN d   1      -2.266   2.423  -4.190  0.00  0.00     0.130 A 
ATOM      2  C2  DEN d   1      -0.880   2.703  -3.824  0.00  0.00    -0.031 A 
ATOM      3  C3  DEN d   1      -0.561   4.075  -4.266  0.00  0.00     0.027 A 
ATOM      4  C4  DEN d   1      -2.070   5.786  -5.469  0.00  0.00     0.027 A 
ATOM      5  C5  DEN d   1      -3.323   5.999  -6.000  0.00  0.00    -0.003 A 
ATOM      6  C6  DEN d   1      -4.293   5.032  -5.995  0.00  0.00     0.001 A 
ATOM      7  C7  DEN d   1      -4.040   3.821  -5.408  0.00  0.00     0.017 A 
ATOM      8  C8  DEN d   1      -2.776   3.595  -4.877  0.00  0.00    -0.094 A 
ATOM      9  C9  DEN d   1      -1.814   4.590  -4.881  0.00  0.00    -0.072 A 
ENDROOT
TORSDOF 0
ENDMDL
