MODEL 1
REMARK minimizedAffinity 23.3173771
REMARK minimizedRMSD -1
REMARK  0 active torsions:
REMARK  status: ('A' for Active; 'I' for Inactive)
ROOT
ATOM      1  C1  DEN d   1      -4.255  -4.461  -3.963  0.00  0.00     0.130 A 
ATOM      2  C2  DEN d   1      -4.313  -3.406  -4.971  0.00  0.00    -0.031 A 
ATOM      3  C3  DEN d   1      -3.025  -2.684  -4.951  0.00  0.00     0.027 A 
ATOM      4  C4  DEN d   1      -0.956  -3.099  -3.467  0.00  0.00     0.027 A 
ATOM      5  C5  DEN d   1      -0.439  -3.876  -2.454  0.00  0.00    -0.003 A 
ATOM      6  C6  DEN d   1      -1.163  -4.872  -1.855  0.00  0.00     0.001 A 
ATOM      7  C7  DEN d   1      -2.431  -5.148  -2.295  0.00  0.00     0.017 A 
ATOM      8  C8  DEN d   1      -2.962  -4.364  -3.311  0.00  0.00    -0.094 A 
ATOM      9  C9  DEN d   1      -2.209  -3.369  -3.912  0.00  0.00    -0.072 A 
ENDROOT
TORSDOF 0
ENDMDL
