MODEL 1
REMARK minimizedAffinity 15.2689705
REMARK minimizedRMSD -1
REMARK  0 active torsions:
REMARK  status: ('A' for Active; 'I' for Inactive)
ROOT
ATOM      1  C1  DEN d   1      -3.803   0.543   2.766  0.00  0.00     0.130 A 
ATOM      2  C2  DEN d   1      -4.064  -0.855   3.102  0.00  0.00    -0.031 A 
ATOM      3  C3  DEN d   1      -2.765  -1.520   3.327  0.00  0.00     0.027 A 
ATOM      4  C4  DEN d   1      -0.388  -0.526   3.193  0.00  0.00     0.027 A 
ATOM      5  C5  DEN d   1       0.338   0.614   2.932  0.00  0.00    -0.003 A 
ATOM      6  C6  DEN d   1      -0.258   1.792   2.566  0.00  0.00     0.001 A 
ATOM      7  C7  DEN d   1      -1.624   1.869   2.496  0.00  0.00     0.017 A 
ATOM      8  C8  DEN d   1      -2.363   0.721   2.751  0.00  0.00    -0.094 A 
ATOM      9  C9  DEN d   1      -1.742  -0.457   3.131  0.00  0.00    -0.072 A 
ENDROOT
TORSDOF 0
ENDMDL
