MODEL 1
REMARK minimizedAffinity 2.14503217
REMARK minimizedRMSD -1
REMARK  0 active torsions:
REMARK  status: ('A' for Active; 'I' for Inactive)
ROOT
ATOM      1  C1  DEN d   1      -3.016  -6.000  -2.721  0.00  0.00     0.130 A 
ATOM      2  C2  DEN d   1      -1.616  -5.860  -2.330  0.00  0.00    -0.031 A 
ATOM      3  C3  DEN d   1      -0.973  -4.914  -3.264  0.00  0.00     0.027 A 
ATOM      4  C4  DEN d   1      -2.005  -3.655  -5.264  0.00  0.00     0.027 A 
ATOM      5  C5  DEN d   1      -3.156  -3.460  -5.995  0.00  0.00    -0.003 A 
ATOM      6  C6  DEN d   1      -4.323  -4.119  -5.709  0.00  0.00     0.001 A 
ATOM      7  C7  DEN d   1      -4.376  -4.970  -4.637  0.00  0.00     0.017 A 
ATOM      8  C8  DEN d   1      -3.218  -5.177  -3.900  0.00  0.00    -0.094 A 
ATOM      9  C9  DEN d   1      -2.052  -4.493  -4.198  0.00  0.00    -0.072 A 
ENDROOT
TORSDOF 0
ENDMDL
