MODEL 1
REMARK minimizedAffinity 23.0134392
REMARK minimizedRMSD -1
REMARK  0 active torsions:
REMARK  status: ('A' for Active; 'I' for Inactive)
ROOT
ATOM      1  C1  DEN d   1      -4.401  -1.068   1.748  0.00  0.00     0.130 A 
ATOM      2  C2  DEN d   1      -4.729  -2.484   1.888  0.00  0.00    -0.031 A 
ATOM      3  C3  DEN d   1      -3.503  -3.198   2.301  0.00  0.00     0.027 A 
ATOM      4  C4  DEN d   1      -1.144  -2.252   2.739  0.00  0.00     0.027 A 
ATOM      5  C5  DEN d   1      -0.375  -1.109   2.738  0.00  0.00    -0.003 A 
ATOM      6  C6  DEN d   1      -0.881   0.112   2.378  0.00  0.00     0.001 A 
ATOM      7  C7  DEN d   1      -2.206   0.227   2.047  0.00  0.00     0.017 A 
ATOM      8  C8  DEN d   1      -2.985  -0.922   2.037  0.00  0.00    -0.094 A 
ATOM      9  C9  DEN d   1      -2.458  -2.145   2.416  0.00  0.00    -0.072 A 
ENDROOT
TORSDOF 0
ENDMDL
