MODEL 1
REMARK minimizedAffinity 12.3722782
REMARK minimizedRMSD -1
REMARK  0 active torsions:
REMARK  status: ('A' for Active; 'I' for Inactive)
ROOT
ATOM      1  C1  DEN d   1      -3.223   0.358   5.953  0.00  0.00     0.130 A 
ATOM      2  C2  DEN d   1      -4.075   1.543   5.979  0.00  0.00    -0.031 A 
ATOM      3  C3  DEN d   1      -3.202   2.734   5.999  0.00  0.00     0.027 A 
ATOM      4  C4  DEN d   1      -0.625   2.856   5.988  0.00  0.00     0.027 A 
ATOM      5  C5  DEN d   1       0.534   2.111   5.980  0.00  0.00    -0.003 A 
ATOM      6  C6  DEN d   1       0.522   0.742   5.998  0.00  0.00     0.001 A 
ATOM      7  C7  DEN d   1      -0.673   0.073   5.978  0.00  0.00     0.017 A 
ATOM      8  C8  DEN d   1      -1.846   0.816   5.992  0.00  0.00    -0.094 A 
ATOM      9  C9  DEN d   1      -1.813   2.200   5.962  0.00  0.00    -0.072 A 
ENDROOT
TORSDOF 0
ENDMDL
