MODEL 1
REMARK minimizedAffinity 15.9375353
REMARK minimizedRMSD -1
REMARK  0 active torsions:
REMARK  status: ('A' for Active; 'I' for Inactive)
ROOT
ATOM      1  C1  DEN d   1       0.021  -0.025   2.268  0.00  0.00     0.130 A 
ATOM      2  C2  DEN d   1       0.532   1.095   3.054  0.00  0.00    -0.031 A 
ATOM      3  C3  DEN d   1      -0.624   1.830   3.606  0.00  0.00     0.027 A 
ATOM      4  C4  DEN d   1      -3.141   1.343   3.326  0.00  0.00     0.027 A 
ATOM      5  C5  DEN d   1      -4.064   0.506   2.738  0.00  0.00    -0.003 A 
ATOM      6  C6  DEN d   1      -3.694  -0.537   1.931  0.00  0.00     0.001 A 
ATOM      7  C7  DEN d   1      -2.365  -0.799   1.726  0.00  0.00     0.017 A 
ATOM      8  C8  DEN d   1      -1.429   0.045   2.310  0.00  0.00    -0.094 A 
ATOM      9  C9  DEN d   1      -1.822   1.087   3.132  0.00  0.00    -0.072 A 
ENDROOT
TORSDOF 0
ENDMDL
