MODEL 1
REMARK minimizedAffinity 8.888134
REMARK minimizedRMSD -1
REMARK  0 active torsions:
REMARK  status: ('A' for Active; 'I' for Inactive)
ROOT
ATOM      1  C1  DEN d   1      -1.515   1.519   4.807  0.00  0.00     0.130 A 
ATOM      2  C2  DEN d   1      -1.882   0.761   6.000  0.00  0.00    -0.031 A 
ATOM      3  C3  DEN d   1      -3.310   0.402   5.892  0.00  0.00     0.027 A 
ATOM      4  C4  DEN d   1      -4.980   0.939   4.001  0.00  0.00     0.027 A 
ATOM      5  C5  DEN d   1      -5.135   1.569   2.786  0.00  0.00    -0.003 A 
ATOM      6  C6  DEN d   1      -4.112   2.249   2.180  0.00  0.00     0.001 A 
ATOM      7  C7  DEN d   1      -2.875   2.278   2.767  0.00  0.00     0.017 A 
ATOM      8  C8  DEN d   1      -2.712   1.651   3.996  0.00  0.00    -0.094 A 
ATOM      9  C9  DEN d   1      -3.756   0.958   4.586  0.00  0.00    -0.072 A 
ENDROOT
TORSDOF 0
ENDMDL
