MODEL 1
REMARK minimizedAffinity 6.0116539
REMARK minimizedRMSD -1
REMARK  0 active torsions:
REMARK  status: ('A' for Active; 'I' for Inactive)
ROOT
ATOM      1  C1  DEN d   1       1.362   2.586   0.918  0.00  0.00     0.130 A 
ATOM      2  C2  DEN d   1       1.434   3.899   1.554  0.00  0.00    -0.031 A 
ATOM      3  C3  DEN d   1       1.329   4.924   0.496  0.00  0.00     0.027 A 
ATOM      4  C4  DEN d   1       1.058   4.608  -2.049  0.00  0.00     0.027 A 
ATOM      5  C5  DEN d   1       0.959   3.679  -3.061  0.00  0.00    -0.003 A 
ATOM      6  C6  DEN d   1       1.022   2.331  -2.823  0.00  0.00     0.001 A 
ATOM      7  C7  DEN d   1       1.142   1.874  -1.537  0.00  0.00     0.017 A 
ATOM      8  C8  DEN d   1       1.250   2.805  -0.513  0.00  0.00    -0.094 A 
ATOM      9  C9  DEN d   1       1.172   4.163  -0.772  0.00  0.00    -0.072 A 
ENDROOT
TORSDOF 0
ENDMDL
