MODEL 1
REMARK minimizedAffinity 14.1029663
REMARK minimizedRMSD -1
REMARK  1 active torsions:
REMARK  status: ('A' for Active; 'I' for Inactive)
REMARK    1  A    between atoms: C1_2  and  C2_3 
ROOT
ATOM      1  C2  UNL d   1      -3.514   1.796   5.214  0.00  0.00    -0.081 A 
ATOM      2  C3  UNL d   1      -3.381   1.979   3.832  0.00  0.00     0.006 A 
ATOM      3  C4  UNL d   1      -2.493   1.190   3.096  0.00  0.00     0.002 A 
ATOM      4  C5  UNL d   1      -1.731   0.201   3.727  0.00  0.00    -0.080 A 
ATOM      5  C6  UNL d   1      -0.797  -0.673   2.944  0.00  0.00     0.076 C 
ATOM      6  C7  UNL d   1      -1.851   0.031   5.110  0.00  0.00     0.002 A 
ATOM      7  C8  UNL d   1      -2.738   0.819   5.847  0.00  0.00     0.006 A 
ENDROOT
BRANCH   1   8
ATOM      8  C1  UNL d   1      -4.517   2.601   6.000  0.00  0.00     0.054 C 
ATOM      9  C   UNL d   1      -4.546   4.052   5.539  0.00  0.00     0.018 C 
ENDBRANCH   1   8
TORSDOF 1
ENDMDL
