MODEL 1
REMARK minimizedAffinity 10.3221798
REMARK minimizedRMSD -1
REMARK  1 active torsions:
REMARK  status: ('A' for Active; 'I' for Inactive)
REMARK    1  A    between atoms: C1_2  and  C2_3 
ROOT
ATOM      1  C2  UNL d   1      -3.566   2.078   4.994  0.00  0.00    -0.081 A 
ATOM      2  C3  UNL d   1      -3.932   1.964   3.648  0.00  0.00     0.006 A 
ATOM      3  C4  UNL d   1      -3.135   1.244   2.755  0.00  0.00     0.002 A 
ATOM      4  C5  UNL d   1      -1.963   0.620   3.195  0.00  0.00    -0.080 A 
ATOM      5  C6  UNL d   1      -1.114  -0.182   2.254  0.00  0.00     0.076 C 
ATOM      6  C7  UNL d   1      -1.587   0.748   4.537  0.00  0.00     0.002 A 
ATOM      7  C8  UNL d   1      -2.384   1.469   5.429  0.00  0.00     0.006 A 
ENDROOT
BRANCH   1   8
ATOM      8  C1  UNL d   1      -4.457   2.800   5.973  0.00  0.00     0.054 C 
ATOM      9  C   UNL d   1      -4.181   4.296   5.973  0.00  0.00     0.018 C 
ENDBRANCH   1   8
TORSDOF 1
ENDMDL
