MODEL 1
REMARK minimizedAffinity 6.36814785
REMARK minimizedRMSD -1
REMARK  1 active torsions:
REMARK  status: ('A' for Active; 'I' for Inactive)
REMARK    1  A    between atoms: C1_2  and  C2_3 
ROOT
ATOM      1  C2  UNL d   1       4.362  -4.155  -0.498  0.00  0.00    -0.081 A 
ATOM      2  C3  UNL d   1       3.206  -3.555   0.017  0.00  0.00     0.006 A 
ATOM      3  C4  UNL d   1       3.002  -2.180  -0.121  0.00  0.00     0.002 A 
ATOM      4  C5  UNL d   1       3.944  -1.384  -0.781  0.00  0.00    -0.080 A 
ATOM      5  C6  UNL d   1       3.722   0.088  -0.962  0.00  0.00     0.076 C 
ATOM      6  C7  UNL d   1       5.107  -1.981  -1.280  0.00  0.00     0.002 A 
ATOM      7  C8  UNL d   1       5.313  -3.356  -1.142  0.00  0.00     0.006 A 
ENDROOT
BRANCH   1   8
ATOM      8  C1  UNL d   1       4.555  -5.648  -0.408  0.00  0.00     0.054 C 
ATOM      9  C   UNL d   1       5.998  -6.000  -0.075  0.00  0.00     0.018 C 
ENDBRANCH   1   8
TORSDOF 1
ENDMDL
