MODEL 1
REMARK minimizedAffinity 11.2811213
REMARK minimizedRMSD -1
REMARK  1 active torsions:
REMARK  status: ('A' for Active; 'I' for Inactive)
REMARK    1  A    between atoms: C1_2  and  C2_3 
ROOT
ATOM      1  C2  UNL d   1      -4.519   1.068   3.559  0.00  0.00    -0.081 A 
ATOM      2  C3  UNL d   1      -4.984   0.234   2.536  0.00  0.00     0.006 A 
ATOM      3  C4  UNL d   1      -4.100  -0.593   1.838  0.00  0.00     0.002 A 
ATOM      4  C5  UNL d   1      -2.738  -0.604   2.157  0.00  0.00    -0.080 A 
ATOM      5  C6  UNL d   1      -1.783  -1.509   1.437  0.00  0.00     0.076 C 
ATOM      6  C7  UNL d   1      -2.270   0.242   3.168  0.00  0.00     0.002 A 
ATOM      7  C8  UNL d   1      -3.153   1.069   3.865  0.00  0.00     0.006 A 
ENDROOT
BRANCH   1   8
ATOM      8  C1  UNL d   1      -5.479   1.913   4.356  0.00  0.00     0.054 C 
ATOM      9  C   UNL d   1      -4.832   2.433   5.632  0.00  0.00     0.018 C 
ENDBRANCH   1   8
TORSDOF 1
ENDMDL
