MODEL 1
REMARK minimizedAffinity 9.85770512
REMARK minimizedRMSD -1
REMARK  1 active torsions:
REMARK  status: ('A' for Active; 'I' for Inactive)
REMARK    1  A    between atoms: C1_2  and  C2_3 
ROOT
ATOM      1  C2  UNL d   1      -2.330  -1.859   0.581  0.00  0.00    -0.081 A 
ATOM      2  C3  UNL d   1      -1.906  -1.800  -0.753  0.00  0.00     0.006 A 
ATOM      3  C4  UNL d   1      -2.812  -1.499  -1.772  0.00  0.00     0.002 A 
ATOM      4  C5  UNL d   1      -4.155  -1.243  -1.475  0.00  0.00    -0.080 A 
ATOM      5  C6  UNL d   1      -5.132  -0.888  -2.556  0.00  0.00     0.076 C 
ATOM      6  C7  UNL d   1      -4.583  -1.318  -0.145  0.00  0.00     0.002 A 
ATOM      7  C8  UNL d   1      -3.677  -1.620   0.875  0.00  0.00     0.006 A 
ENDROOT
BRANCH   1   8
ATOM      8  C1  UNL d   1      -1.342  -2.120   1.689  0.00  0.00     0.054 C 
ATOM      9  C   UNL d   1      -0.886  -0.822   2.341  0.00  0.00     0.018 C 
ENDBRANCH   1   8
TORSDOF 1
ENDMDL
