MODEL 1
REMARK minimizedAffinity 10.8207989
REMARK minimizedRMSD -1
REMARK  1 active torsions:
REMARK  status: ('A' for Active; 'I' for Inactive)
REMARK    1  A    between atoms: C1_2  and  C2_3 
ROOT
ATOM      1  C2  UNL d   1      -2.795   0.397   3.411  0.00  0.00    -0.081 A 
ATOM      2  C3  UNL d   1      -2.506   0.708   4.745  0.00  0.00     0.006 A 
ATOM      3  C4  UNL d   1      -3.499   1.223   5.583  0.00  0.00     0.002 A 
ATOM      4  C5  UNL d   1      -4.797   1.426   5.103  0.00  0.00    -0.080 A 
ATOM      5  C6  UNL d   1      -5.880   1.949   6.000  0.00  0.00     0.076 C 
ATOM      6  C7  UNL d   1      -5.081   1.132   3.765  0.00  0.00     0.002 A 
ATOM      7  C8  UNL d   1      -4.089   0.618   2.927  0.00  0.00     0.006 A 
ENDROOT
BRANCH   1   8
ATOM      8  C1  UNL d   1      -1.743  -0.218   2.523  0.00  0.00     0.054 C 
ATOM      9  C   UNL d   1      -2.254  -1.490   1.860  0.00  0.00     0.018 C 
ENDBRANCH   1   8
TORSDOF 1
ENDMDL
