MODEL 1
REMARK minimizedAffinity 5.87045479
REMARK minimizedRMSD -1
REMARK  1 active torsions:
REMARK  status: ('A' for Active; 'I' for Inactive)
REMARK    1  A    between atoms: C1_2  and  C2_3 
ROOT
ATOM      1  C2  UNL d   1      -3.900   1.643   4.730  0.00  0.00    -0.081 A 
ATOM      2  C3  UNL d   1      -4.666   1.303   3.609  0.00  0.00     0.006 A 
ATOM      3  C4  UNL d   1      -4.126   0.504   2.598  0.00  0.00     0.002 A 
ATOM      4  C5  UNL d   1      -2.815   0.025   2.696  0.00  0.00    -0.080 A 
ATOM      5  C6  UNL d   1      -2.234  -0.858   1.632  0.00  0.00     0.076 C 
ATOM      6  C7  UNL d   1      -2.044   0.379   3.808  0.00  0.00     0.002 A 
ATOM      7  C8  UNL d   1      -2.583   1.179   4.818  0.00  0.00     0.006 A 
ENDROOT
BRANCH   1   8
ATOM      8  C1  UNL d   1      -4.500   2.451   5.852  0.00  0.00     0.054 C 
ATOM      9  C   UNL d   1      -5.990   2.174   5.997  0.00  0.00     0.018 C 
ENDBRANCH   1   8
TORSDOF 1
ENDMDL
