MODEL 1
REMARK minimizedAffinity 17.7255383
REMARK minimizedRMSD -1
REMARK  1 active torsions:
REMARK  status: ('A' for Active; 'I' for Inactive)
REMARK    1  A    between atoms: C1_2  and  C2_3 
ROOT
ATOM      1  C2  UNL d   1       1.605   1.764  -1.688  0.00  0.00    -0.081 A 
ATOM      2  C3  UNL d   1       2.930   1.363  -1.899  0.00  0.00     0.006 A 
ATOM      3  C4  UNL d   1       3.706   1.973  -2.888  0.00  0.00     0.002 A 
ATOM      4  C5  UNL d   1       3.174   2.999  -3.675  0.00  0.00    -0.080 A 
ATOM      5  C6  UNL d   1       4.006   3.683  -4.719  0.00  0.00     0.076 C 
ATOM      6  C7  UNL d   1       1.845   3.388  -3.477  0.00  0.00     0.002 A 
ATOM      7  C8  UNL d   1       1.068   2.778  -2.489  0.00  0.00     0.006 A 
ENDROOT
BRANCH   1   8
ATOM      8  C1  UNL d   1       0.786   1.153  -0.580  0.00  0.00     0.054 C 
ATOM      9  C   UNL d   1       1.611   0.982   0.687  0.00  0.00     0.018 C 
ENDBRANCH   1   8
TORSDOF 1
ENDMDL
