MODEL 1
REMARK minimizedAffinity 8.73269081
REMARK minimizedRMSD -1
REMARK  1 active torsions:
REMARK  status: ('A' for Active; 'I' for Inactive)
REMARK    1  A    between atoms: C1_2  and  C2_3 
ROOT
ATOM      1  C2  UNL d   1       3.444   1.979  -0.344  0.00  0.00    -0.081 A 
ATOM      2  C3  UNL d   1       2.920   2.051   0.953  0.00  0.00     0.006 A 
ATOM      3  C4  UNL d   1       3.638   2.681   1.972  0.00  0.00     0.002 A 
ATOM      4  C5  UNL d   1       4.887   3.255   1.711  0.00  0.00    -0.080 A 
ATOM      5  C6  UNL d   1       5.654   3.961   2.789  0.00  0.00     0.076 C 
ATOM      6  C7  UNL d   1       5.418   3.168   0.419  0.00  0.00     0.002 A 
ATOM      7  C8  UNL d   1       4.700   2.538  -0.600  0.00  0.00     0.006 A 
ENDROOT
BRANCH   1   8
ATOM      8  C1  UNL d   1       2.643   1.357  -1.460  0.00  0.00     0.054 C 
ATOM      9  C   UNL d   1       2.735   2.185  -2.734  0.00  0.00     0.018 C 
ENDBRANCH   1   8
TORSDOF 1
ENDMDL
