MODEL 1
REMARK minimizedAffinity 13.174264
REMARK minimizedRMSD -1
REMARK  1 active torsions:
REMARK  status: ('A' for Active; 'I' for Inactive)
REMARK    1  A    between atoms: C1_2  and  C2_3 
ROOT
ATOM      1  C2  UNL d   1      -5.764  -0.015  -0.744  0.00  0.00    -0.081 A 
ATOM      2  C3  UNL d   1      -5.889   1.272  -1.282  0.00  0.00     0.006 A 
ATOM      3  C4  UNL d   1      -5.952   1.458  -2.665  0.00  0.00     0.002 A 
ATOM      4  C5  UNL d   1      -5.899   0.362  -3.532  0.00  0.00    -0.080 A 
ATOM      5  C6  UNL d   1      -5.996   0.545  -5.018  0.00  0.00     0.076 C 
ATOM      6  C7  UNL d   1      -5.756  -0.922  -2.996  0.00  0.00     0.002 A 
ATOM      7  C8  UNL d   1      -5.693  -1.109  -1.613  0.00  0.00     0.006 A 
ENDROOT
BRANCH   1   8
ATOM      8  C1  UNL d   1      -5.761  -0.225   0.749  0.00  0.00     0.054 C 
ATOM      9  C   UNL d   1      -4.929   0.836   1.455  0.00  0.00     0.018 C 
ENDBRANCH   1   8
TORSDOF 1
ENDMDL
