MODEL 1
REMARK minimizedAffinity 2.95814753
REMARK minimizedRMSD -1
REMARK  0 active torsions:
REMARK  status: ('A' for Active; 'I' for Inactive)
ROOT
ATOM      1  C1  DEN d   1       4.279   2.985  -0.337  0.00  0.00     0.130 A 
ATOM      2  C2  DEN d   1       5.537   2.255  -0.202  0.00  0.00    -0.031 A 
ATOM      3  C3  DEN d   1       5.217   0.840   0.075  0.00  0.00     0.027 A 
ATOM      4  C4  DEN d   1       2.908  -0.287   0.301  0.00  0.00     0.027 A 
ATOM      5  C5  DEN d   1       1.547  -0.073   0.278  0.00  0.00    -0.003 A 
ATOM      6  C6  DEN d   1       1.006   1.171   0.084  0.00  0.00     0.001 A 
ATOM      7  C7  DEN d   1       1.831   2.242  -0.140  0.00  0.00     0.017 A 
ATOM      8  C8  DEN d   1       3.204   2.035  -0.111  0.00  0.00    -0.094 A 
ATOM      9  C9  DEN d   1       3.731   0.769   0.075  0.00  0.00    -0.072 A 
ENDROOT
TORSDOF 0
ENDMDL
