MODEL 1
REMARK minimizedAffinity 7.83481646
REMARK minimizedRMSD -1
REMARK  0 active torsions:
REMARK  status: ('A' for Active; 'I' for Inactive)
ROOT
ATOM      1  C1  DEN d   1       2.839   0.057   1.954  0.00  0.00     0.130 A 
ATOM      2  C2  DEN d   1       3.660   0.247   0.761  0.00  0.00    -0.031 A 
ATOM      3  C3  DEN d   1       2.948   1.175  -0.140  0.00  0.00     0.027 A 
ATOM      4  C4  DEN d   1       0.669   2.335   0.197  0.00  0.00     0.027 A 
ATOM      5  C5  DEN d   1      -0.405   2.474   1.048  0.00  0.00    -0.003 A 
ATOM      6  C6  DEN d   1      -0.488   1.797   2.236  0.00  0.00     0.001 A 
ATOM      7  C7  DEN d   1       0.543   0.983   2.626  0.00  0.00     0.017 A 
ATOM      8  C8  DEN d   1       1.625   0.832   1.770  0.00  0.00    -0.094 A 
ATOM      9  C9  DEN d   1       1.696   1.535   0.579  0.00  0.00    -0.072 A 
ENDROOT
TORSDOF 0
ENDMDL
