MODEL 1
REMARK minimizedAffinity 8.09792423
REMARK minimizedRMSD -1
REMARK  0 active torsions:
REMARK  status: ('A' for Active; 'I' for Inactive)
ROOT
ATOM      1  C1  DEN d   1       3.023  -1.597  -0.466  0.00  0.00     0.130 A 
ATOM      2  C2  DEN d   1       1.713  -2.043   0.001  0.00  0.00    -0.031 A 
ATOM      3  C3  DEN d   1       1.032  -0.889   0.622  0.00  0.00     0.027 A 
ATOM      4  C4  DEN d   1       1.874   1.533   0.901  0.00  0.00     0.027 A 
ATOM      5  C5  DEN d   1       2.930   2.388   0.673  0.00  0.00    -0.003 A 
ATOM      6  C6  DEN d   1       4.094   1.970   0.085  0.00  0.00     0.001 A 
ATOM      7  C7  DEN d   1       4.214   0.672  -0.336  0.00  0.00     0.017 A 
ATOM      8  C8  DEN d   1       3.156  -0.198  -0.103  0.00  0.00    -0.094 A 
ATOM      9  C9  DEN d   1       1.983   0.247   0.481  0.00  0.00    -0.072 A 
ENDROOT
TORSDOF 0
ENDMDL
