MODEL 1
REMARK minimizedAffinity 5.0899334
REMARK minimizedRMSD -1
REMARK  0 active torsions:
REMARK  status: ('A' for Active; 'I' for Inactive)
ROOT
ATOM      1  C1  DEN d   1      -0.402  -1.115  -2.239  0.00  0.00     0.130 A 
ATOM      2  C2  DEN d   1      -1.169  -0.668  -1.080  0.00  0.00    -0.031 A 
ATOM      3  C3  DEN d   1      -0.436  -1.072   0.136  0.00  0.00     0.027 A 
ATOM      4  C4  DEN d   1       1.803  -2.336   0.336  0.00  0.00     0.027 A 
ATOM      5  C5  DEN d   1       2.822  -2.934  -0.372  0.00  0.00    -0.003 A 
ATOM      6  C6  DEN d   1       2.820  -2.997  -1.741  0.00  0.00     0.001 A 
ATOM      7  C7  DEN d   1       1.802  -2.412  -2.446  0.00  0.00     0.017 A 
ATOM      8  C8  DEN d   1       0.767  -1.814  -1.738  0.00  0.00    -0.094 A 
ATOM      9  C9  DEN d   1       0.793  -1.750  -0.356  0.00  0.00    -0.072 A 
ENDROOT
TORSDOF 0
ENDMDL
