MODEL 1
REMARK minimizedAffinity 6.66180897
REMARK minimizedRMSD -1
REMARK  1 active torsions:
REMARK  status: ('A' for Active; 'I' for Inactive)
REMARK    1  A    between atoms: C1_2  and  C2_3 
ROOT
ATOM      1  C2  UNL d   1       0.805   4.338  -3.821  0.00  0.00    -0.077 A 
ATOM      2  C3  UNL d   1      -0.596   4.333  -3.875  0.00  0.00     0.002 A 
ATOM      3  C4  UNL d   1      -1.263   4.906  -4.960  0.00  0.00     0.002 A 
ATOM      4  C5  UNL d   1      -0.538   5.484  -5.999  0.00  0.00    -0.004 A 
ATOM      5  C6  UNL d   1       0.856   5.496  -5.954  0.00  0.00     0.002 A 
ATOM      6  C7  UNL d   1       1.524   4.925  -4.870  0.00  0.00     0.002 A 
ENDROOT
BRANCH   1   7
ATOM      7  C1  UNL d   1       1.527   3.676  -2.677  0.00  0.00     0.055 C 
ATOM      8  C   UNL d   1       0.942   2.305  -2.371  0.00  0.00     0.019 C 
ENDBRANCH   1   7
TORSDOF 1
ENDMDL
