MODEL 1
REMARK minimizedAffinity 2.01630211
REMARK minimizedRMSD -1
REMARK  1 active torsions:
REMARK  status: ('A' for Active; 'I' for Inactive)
REMARK    1  A    between atoms: C1_2  and  C2_3 
ROOT
ATOM      1  C2  UNL d   1      -3.059  -0.769   2.705  0.00  0.00    -0.077 A 
ATOM      2  C3  UNL d   1      -2.759  -1.828   1.837  0.00  0.00     0.002 A 
ATOM      3  C4  UNL d   1      -3.616  -2.137   0.779  0.00  0.00     0.002 A 
ATOM      4  C5  UNL d   1      -4.775  -1.391   0.578  0.00  0.00    -0.004 A 
ATOM      5  C6  UNL d   1      -5.083  -0.337   1.437  0.00  0.00     0.002 A 
ATOM      6  C7  UNL d   1      -4.228  -0.027   2.496  0.00  0.00     0.002 A 
ENDROOT
BRANCH   1   7
ATOM      7  C1  UNL d   1      -2.111  -0.402   3.817  0.00  0.00     0.055 C 
ATOM      8  C   UNL d   1      -2.798  -0.463   5.174  0.00  0.00     0.019 C 
ENDBRANCH   1   7
TORSDOF 1
ENDMDL
