MODEL 1
REMARK minimizedAffinity 0.16322051
REMARK minimizedRMSD -1
REMARK  1 active torsions:
REMARK  status: ('A' for Active; 'I' for Inactive)
REMARK    1  A    between atoms: C1_2  and  C2_3 
ROOT
ATOM      1  C2  UNL d   1       1.073   4.482  -3.751  0.00  0.00    -0.077 A 
ATOM      2  C3  UNL d   1       1.764   4.841  -4.916  0.00  0.00     0.002 A 
ATOM      3  C4  UNL d   1       1.082   5.399  -5.999  0.00  0.00     0.002 A 
ATOM      4  C5  UNL d   1      -0.293   5.608  -5.926  0.00  0.00    -0.004 A 
ATOM      5  C6  UNL d   1      -0.991   5.252  -4.772  0.00  0.00     0.002 A 
ATOM      6  C7  UNL d   1      -0.311   4.693  -3.689  0.00  0.00     0.002 A 
ENDROOT
BRANCH   1   7
ATOM      7  C1  UNL d   1       1.814   3.926  -2.564  0.00  0.00     0.055 C 
ATOM      8  C   UNL d   1       1.066   2.755  -1.943  0.00  0.00     0.019 C 
ENDBRANCH   1   7
TORSDOF 1
ENDMDL
