MODEL 1
REMARK minimizedAffinity 1.07177794
REMARK minimizedRMSD -1
REMARK  1 active torsions:
REMARK  status: ('A' for Active; 'I' for Inactive)
REMARK    1  A    between atoms: C1_2  and  C2_3 
ROOT
ATOM      1  C2  UNL d   1       0.697   4.342  -3.855  0.00  0.00    -0.077 A 
ATOM      2  C3  UNL d   1       1.369   4.884  -4.960  0.00  0.00     0.002 A 
ATOM      3  C4  UNL d   1       0.652   5.482  -5.999  0.00  0.00     0.002 A 
ATOM      4  C5  UNL d   1      -0.739   5.547  -5.940  0.00  0.00    -0.004 A 
ATOM      5  C6  UNL d   1      -1.416   5.009  -4.846  0.00  0.00     0.002 A 
ATOM      6  C7  UNL d   1      -0.701   4.411  -3.808  0.00  0.00     0.002 A 
ENDROOT
BRANCH   1   7
ATOM      7  C1  UNL d   1       1.471   3.741  -2.711  0.00  0.00     0.055 C 
ATOM      8  C   UNL d   1       0.878   2.408  -2.282  0.00  0.00     0.019 C 
ENDBRANCH   1   7
TORSDOF 1
ENDMDL
