MODEL 1
REMARK minimizedAffinity 2.79184628
REMARK minimizedRMSD -1
REMARK  1 active torsions:
REMARK  status: ('A' for Active; 'I' for Inactive)
REMARK    1  A    between atoms: C1_2  and  C2_3 
ROOT
ATOM      1  C2  UNL d   1       1.133   4.481  -3.752  0.00  0.00    -0.077 A 
ATOM      2  C3  UNL d   1      -0.056   5.224  -3.761  0.00  0.00     0.002 A 
ATOM      3  C4  UNL d   1      -0.407   5.981  -4.880  0.00  0.00     0.002 A 
ATOM      4  C5  UNL d   1       0.422   5.999  -5.999  0.00  0.00    -0.004 A 
ATOM      5  C6  UNL d   1       1.608   5.265  -6.000  0.00  0.00     0.002 A 
ATOM      6  C7  UNL d   1       1.961   4.509  -4.882  0.00  0.00     0.002 A 
ENDROOT
BRANCH   1   7
ATOM      7  C1  UNL d   1       1.490   3.624  -2.565  0.00  0.00     0.055 C 
ATOM      8  C   UNL d   1       1.507   2.148  -2.934  0.00  0.00     0.019 C 
ENDBRANCH   1   7
TORSDOF 1
ENDMDL
