MODEL 1
REMARK minimizedAffinity 2.37892699
REMARK minimizedRMSD -1
REMARK  1 active torsions:
REMARK  status: ('A' for Active; 'I' for Inactive)
REMARK    1  A    between atoms: C1_2  and  C2_3 
ROOT
ATOM      1  C2  UNL d   1       0.005   3.852  -3.937  0.00  0.00    -0.077 A 
ATOM      2  C3  UNL d   1      -1.128   4.299  -4.632  0.00  0.00     0.002 A 
ATOM      3  C4  UNL d   1      -1.033   5.369  -5.523  0.00  0.00     0.002 A 
ATOM      4  C5  UNL d   1       0.192   5.999  -5.731  0.00  0.00    -0.004 A 
ATOM      5  C6  UNL d   1       1.324   5.564  -5.044  0.00  0.00     0.002 A 
ATOM      6  C7  UNL d   1       1.232   4.494  -4.152  0.00  0.00     0.002 A 
ENDROOT
BRANCH   1   7
ATOM      7  C1  UNL d   1      -0.084   2.666  -3.013  0.00  0.00     0.055 C 
ATOM      8  C   UNL d   1       1.172   2.530  -2.164  0.00  0.00     0.019 C 
ENDBRANCH   1   7
TORSDOF 1
ENDMDL
