MODEL 1
REMARK minimizedAffinity 7.86011362
REMARK minimizedRMSD -1
REMARK  1 active torsions:
REMARK  status: ('A' for Active; 'I' for Inactive)
REMARK    1  A    between atoms: C1_2  and  C2_3 
ROOT
ATOM      1  C2  UNL d   1       0.751   4.584  -4.889  0.00  0.00    -0.077 A 
ATOM      2  C3  UNL d   1       2.134   4.768  -4.756  0.00  0.00     0.002 A 
ATOM      3  C4  UNL d   1       2.847   4.081  -3.771  0.00  0.00     0.002 A 
ATOM      4  C5  UNL d   1       2.185   3.203  -2.915  0.00  0.00    -0.004 A 
ATOM      5  C6  UNL d   1       0.809   3.015  -3.038  0.00  0.00     0.002 A 
ATOM      6  C7  UNL d   1       0.095   3.701  -4.021  0.00  0.00     0.002 A 
ENDROOT
BRANCH   1   7
ATOM      7  C1  UNL d   1      -0.011   5.287  -5.982  0.00  0.00     0.055 C 
ATOM      8  C   UNL d   1      -1.492   4.943  -5.933  0.00  0.00     0.019 C 
ENDBRANCH   1   7
TORSDOF 1
ENDMDL
