MODEL 1
REMARK minimizedAffinity -0.417421341
REMARK minimizedRMSD -1
REMARK  1 active torsions:
REMARK  status: ('A' for Active; 'I' for Inactive)
REMARK    1  A    between atoms: C1_2  and  C2_3 
ROOT
ATOM      1  C2  UNL d   1      -5.615   2.915  -1.860  0.00  0.00    -0.077 A 
ATOM      2  C3  UNL d   1      -4.832   4.071  -1.980  0.00  0.00     0.002 A 
ATOM      3  C4  UNL d   1      -4.439   4.779  -0.843  0.00  0.00     0.002 A 
ATOM      4  C5  UNL d   1      -4.820   4.337   0.422  0.00  0.00    -0.004 A 
ATOM      5  C6  UNL d   1      -5.601   3.189   0.552  0.00  0.00     0.002 A 
ATOM      6  C7  UNL d   1      -5.996   2.481  -0.584  0.00  0.00     0.002 A 
ENDROOT
BRANCH   1   7
ATOM      7  C1  UNL d   1      -5.999   2.123  -3.083  0.00  0.00     0.055 C 
ATOM      8  C   UNL d   1      -5.890   0.626  -2.829  0.00  0.00     0.019 C 
ENDBRANCH   1   7
TORSDOF 1
ENDMDL
