MODEL 1
REMARK minimizedAffinity -0.815010548
REMARK minimizedRMSD -1
REMARK  1 active torsions:
REMARK  status: ('A' for Active; 'I' for Inactive)
REMARK    1  A    between atoms: C1_2  and  C2_3 
ROOT
ATOM      1  C2  UNL d   1       0.750   4.243  -3.883  0.00  0.00    -0.077 A 
ATOM      2  C3  UNL d   1       1.264   4.869  -5.028  0.00  0.00     0.002 A 
ATOM      3  C4  UNL d   1       0.402   5.383  -5.998  0.00  0.00     0.002 A 
ATOM      4  C5  UNL d   1      -0.977   5.279  -5.833  0.00  0.00    -0.004 A 
ATOM      5  C6  UNL d   1      -1.498   4.656  -4.700  0.00  0.00     0.002 A 
ATOM      6  C7  UNL d   1      -0.638   4.141  -3.729  0.00  0.00     0.002 A 
ENDROOT
BRANCH   1   7
ATOM      7  C1  UNL d   1       1.677   3.732  -2.812  0.00  0.00     0.055 C 
ATOM      8  C   UNL d   1       1.100   2.506  -2.119  0.00  0.00     0.019 C 
ENDBRANCH   1   7
TORSDOF 1
ENDMDL
