MODEL 1
REMARK minimizedAffinity 3.21250463
REMARK minimizedRMSD -1
REMARK  1 active torsions:
REMARK  status: ('A' for Active; 'I' for Inactive)
REMARK    1  A    between atoms: C1_2  and  C2_3 
ROOT
ATOM      1  C2  UNL d   1      -3.076  -0.459   3.203  0.00  0.00    -0.077 A 
ATOM      2  C3  UNL d   1      -4.345   0.075   2.940  0.00  0.00     0.002 A 
ATOM      3  C4  UNL d   1      -5.043  -0.298   1.790  0.00  0.00     0.002 A 
ATOM      4  C5  UNL d   1      -4.482  -1.207   0.896  0.00  0.00    -0.004 A 
ATOM      5  C6  UNL d   1      -3.219  -1.741   1.147  0.00  0.00     0.002 A 
ATOM      6  C7  UNL d   1      -2.519  -1.369   2.296  0.00  0.00     0.002 A 
ENDROOT
BRANCH   1   7
ATOM      7  C1  UNL d   1      -2.342  -0.096   4.468  0.00  0.00     0.055 C 
ATOM      8  C   UNL d   1      -3.276  -0.097   5.669  0.00  0.00     0.019 C 
ENDBRANCH   1   7
TORSDOF 1
ENDMDL
