MODEL 1
REMARK minimizedAffinity -2.49304032
REMARK minimizedRMSD -1
REMARK  1 active torsions:
REMARK  status: ('A' for Active; 'I' for Inactive)
REMARK    1  A    between atoms: C1_2  and  C2_3 
ROOT
ATOM      1  C2  UNL d   1      -3.463  -1.282   1.759  0.00  0.00    -0.077 A 
ATOM      2  C3  UNL d   1      -2.765  -0.379   2.572  0.00  0.00     0.002 A 
ATOM      3  C4  UNL d   1      -1.462  -0.663   2.986  0.00  0.00     0.002 A 
ATOM      4  C5  UNL d   1      -0.846  -1.847   2.588  0.00  0.00    -0.004 A 
ATOM      5  C6  UNL d   1      -1.533  -2.753   1.782  0.00  0.00     0.002 A 
ATOM      6  C7  UNL d   1      -2.835  -2.472   1.368  0.00  0.00     0.002 A 
ENDROOT
BRANCH   1   7
ATOM      7  C1  UNL d   1      -4.851  -0.955   1.271  0.00  0.00     0.055 C 
ATOM      8  C   UNL d   1      -5.358   0.345   1.876  0.00  0.00     0.019 C 
ENDBRANCH   1   7
TORSDOF 1
ENDMDL
