MODEL 1
REMARK minimizedAffinity 2.53228927
REMARK minimizedRMSD -1
REMARK  1 active torsions:
REMARK  status: ('A' for Active; 'I' for Inactive)
REMARK    1  A    between atoms: N_2  and  C1_3 
ROOT
ATOM      1  C1  UNL d   1       3.754   1.000   0.007  0.00  0.00     0.143 A 
ATOM      2  C2  UNL d   1       2.474   0.684  -0.461  0.00  0.00    -0.057 A 
ATOM      3  C3  UNL d   1       1.328   1.209   0.148  0.00  0.00     0.033 A 
ATOM      4  C4  UNL d   1       1.441   2.038   1.259  0.00  0.00    -0.042 A 
ATOM      5  C5  UNL d   1       2.702   2.345   1.757  0.00  0.00     0.033 A 
ATOM      6  C6  UNL d   1       3.843   1.824   1.140  0.00  0.00    -0.057 A 
ENDROOT
BRANCH   1   7
ATOM      7  N   UNL d   1       4.928   0.432  -0.494  0.00  0.00    -0.732 N 
ATOM      8  C   UNL d   1       6.000   0.046   0.399  0.00  0.00     0.284 C 
ATOM      9  H3  UNL d   1       4.749  -0.235  -1.241  0.00  0.00     0.395 HD
ENDBRANCH   1   7
TORSDOF 1
ENDMDL
