MODEL 1
REMARK minimizedAffinity 17.0472736
REMARK minimizedRMSD -1
REMARK  1 active torsions:
REMARK  status: ('A' for Active; 'I' for Inactive)
REMARK    1  A    between atoms: N_2  and  C1_3 
ROOT
ATOM      1  C1  UNL d   1       0.175   3.702   2.176  0.00  0.00     0.143 A 
ATOM      2  C2  UNL d   1       0.882   2.634   2.739  0.00  0.00    -0.057 A 
ATOM      3  C3  UNL d   1       0.552   1.307   2.439  0.00  0.00     0.033 A 
ATOM      4  C4  UNL d   1      -0.513   1.023   1.592  0.00  0.00    -0.042 A 
ATOM      5  C5  UNL d   1      -1.246   2.068   1.041  0.00  0.00     0.033 A 
ATOM      6  C6  UNL d   1      -0.908   3.392   1.339  0.00  0.00    -0.057 A 
ENDROOT
BRANCH   1   7
ATOM      7  N   UNL d   1       0.392   5.041   2.512  0.00  0.00    -0.732 N 
ATOM      8  C   UNL d   1       1.563   5.432   3.267  0.00  0.00     0.284 C 
ATOM      9  H3  UNL d   1       0.157   5.675   1.751  0.00  0.00     0.395 HD
ENDBRANCH   1   7
TORSDOF 1
ENDMDL
