MODEL 1
REMARK minimizedAffinity -0.885196447
REMARK minimizedRMSD -1
REMARK  1 active torsions:
REMARK  status: ('A' for Active; 'I' for Inactive)
REMARK    1  A    between atoms: N_2  and  C1_3 
ROOT
ATOM      1  C1  UNL d   1       5.819   4.810   1.693  0.00  0.00     0.143 A 
ATOM      2  C2  UNL d   1       5.768   6.000   2.427  0.00  0.00    -0.057 A 
ATOM      3  C3  UNL d   1       5.844   5.994   3.826  0.00  0.00     0.033 A 
ATOM      4  C4  UNL d   1       5.942   4.791   4.517  0.00  0.00    -0.042 A 
ATOM      5  C5  UNL d   1       5.968   3.595   3.809  0.00  0.00     0.033 A 
ATOM      6  C6  UNL d   1       5.900   3.608   2.413  0.00  0.00    -0.057 A 
ENDROOT
BRANCH   1   7
ATOM      7  N   UNL d   1       5.650   4.744   0.308  0.00  0.00    -0.732 N 
ATOM      8  C   UNL d   1       6.000   5.869  -0.532  0.00  0.00     0.284 C 
ATOM      9  H3  UNL d   1       5.921   3.840  -0.074  0.00  0.00     0.395 HD
ENDBRANCH   1   7
TORSDOF 1
ENDMDL
