MODEL 1
REMARK minimizedAffinity 7.7424469
REMARK minimizedRMSD -1
REMARK  2 active torsions:
REMARK  status: ('A' for Active; 'I' for Inactive)
REMARK    1  A    between atoms: C2'_3  and  C1'_4 
REMARK    2  A    between atoms: C1'_4  and  C1_5 
ROOT
ATOM      1  C1  I4B d   1       1.874  -0.976   1.968  0.00  0.00    -0.075 A 
ATOM      2  C2  I4B d   1       2.079  -0.699   3.297  0.00  0.00     0.003 A 
ATOM      3  C3  I4B d   1       1.816  -1.684   4.279  0.00  0.00     0.002 A 
ATOM      4  C4  I4B d   1       1.304  -2.907   3.896  0.00  0.00    -0.004 A 
ATOM      5  C5  I4B d   1       1.118  -3.194   2.546  0.00  0.00     0.002 A 
ATOM      6  C6  I4B d   1       1.416  -2.227   1.575  0.00  0.00     0.003 A 
ENDROOT
BRANCH   1   7
ATOM      7  C1' I4B d   1       2.131   0.099   0.960  0.00  0.00     0.060 C 
BRANCH   7   8
ATOM      8  C2' I4B d   1       0.817   0.799   0.679  0.00  0.00    -0.013 C 
ATOM      9  C4' I4B d   1       1.026   2.268   0.424  0.00  0.00     0.013 C 
ATOM     10  C3' I4B d   1       0.179   0.130  -0.502  0.00  0.00     0.013 C 
ENDBRANCH   7   8
ENDBRANCH   1   7
TORSDOF 2
ENDMDL
