MODEL 1
REMARK minimizedAffinity 6.19011116
REMARK minimizedRMSD -1
REMARK  2 active torsions:
REMARK  status: ('A' for Active; 'I' for Inactive)
REMARK    1  A    between atoms: C2'_3  and  C1'_4 
REMARK    2  A    between atoms: C1'_4  and  C1_5 
ROOT
ATOM      1  C1  I4B d   1      -3.255   0.409   0.278  0.00  0.00    -0.075 A 
ATOM      2  C2  I4B d   1      -3.827   1.517  -0.295  0.00  0.00     0.003 A 
ATOM      3  C3  I4B d   1      -5.040   1.401  -1.017  0.00  0.00     0.002 A 
ATOM      4  C4  I4B d   1      -5.616   0.158  -1.183  0.00  0.00    -0.004 A 
ATOM      5  C5  I4B d   1      -5.047  -0.961  -0.583  0.00  0.00     0.002 A 
ATOM      6  C6  I4B d   1      -3.866  -0.834   0.163  0.00  0.00     0.003 A 
ENDROOT
BRANCH   1   7
ATOM      7  C1' I4B d   1      -1.957   0.562   1.005  0.00  0.00     0.060 C 
BRANCH   7   8
ATOM      8  C2' I4B d   1      -0.838   0.245   0.034  0.00  0.00    -0.013 C 
ATOM      9  C4' I4B d   1       0.303   1.217   0.181  0.00  0.00     0.013 C 
ATOM     10  C3' I4B d   1      -0.387  -1.162   0.291  0.00  0.00     0.013 C 
ENDBRANCH   7   8
ENDBRANCH   1   7
TORSDOF 2
ENDMDL
