MODEL 1
REMARK minimizedAffinity 4.61089754
REMARK minimizedRMSD -1
REMARK  2 active torsions:
REMARK  status: ('A' for Active; 'I' for Inactive)
REMARK    1  A    between atoms: C2'_3  and  C1'_4 
REMARK    2  A    between atoms: C1'_4  and  C1_5 
ROOT
ATOM      1  C1  I4B d   1       1.779  -0.384   0.914  0.00  0.00    -0.075 A 
ATOM      2  C2  I4B d   1       2.247  -0.186   2.189  0.00  0.00     0.003 A 
ATOM      3  C3  I4B d   1       2.191  -1.234   3.140  0.00  0.00     0.002 A 
ATOM      4  C4  I4B d   1       1.617  -2.439   2.790  0.00  0.00    -0.004 A 
ATOM      5  C5  I4B d   1       1.164  -2.645   1.490  0.00  0.00     0.002 A 
ATOM      6  C6  I4B d   1       1.257  -1.616   0.542  0.00  0.00     0.003 A 
ENDROOT
BRANCH   1   7
ATOM      7  C1' I4B d   1       1.824   0.755  -0.055  0.00  0.00     0.060 C 
BRANCH   7   8
ATOM      8  C2' I4B d   1       0.444   1.379  -0.106  0.00  0.00    -0.013 C 
ATOM      9  C4' I4B d   1       0.514   2.872   0.079  0.00  0.00     0.013 C 
ATOM     10  C3' I4B d   1      -0.176   1.025  -1.425  0.00  0.00     0.013 C 
ENDBRANCH   7   8
ENDBRANCH   1   7
TORSDOF 2
ENDMDL
