MODEL 1
REMARK minimizedAffinity 4.94760799
REMARK minimizedRMSD -1
REMARK  2 active torsions:
REMARK  status: ('A' for Active; 'I' for Inactive)
REMARK    1  A    between atoms: C2'_3  and  C1'_4 
REMARK    2  A    between atoms: C1'_4  and  C1_5 
ROOT
ATOM      1  C1  I4B d   1      -1.631  -5.133  -2.952  0.00  0.00    -0.075 A 
ATOM      2  C2  I4B d   1      -1.684  -4.777  -1.627  0.00  0.00     0.003 A 
ATOM      3  C3  I4B d   1      -2.846  -5.044  -0.863  0.00  0.00     0.002 A 
ATOM      4  C4  I4B d   1      -3.942  -5.619  -1.472  0.00  0.00    -0.004 A 
ATOM      5  C5  I4B d   1      -3.879  -6.000  -2.809  0.00  0.00     0.002 A 
ATOM      6  C6  I4B d   1      -2.712  -5.767  -3.551  0.00  0.00     0.003 A 
ENDROOT
BRANCH   1   7
ATOM      7  C1' I4B d   1      -0.401  -4.806  -3.737  0.00  0.00     0.060 C 
BRANCH   7   8
ATOM      8  C2' I4B d   1      -0.077  -5.999  -4.614  0.00  0.00    -0.013 C 
ATOM      9  C4' I4B d   1      -0.911  -5.996  -5.868  0.00  0.00     0.013 C 
ATOM     10  C3' I4B d   1       1.387  -5.951  -4.937  0.00  0.00     0.013 C 
ENDBRANCH   7   8
ENDBRANCH   1   7
TORSDOF 2
ENDMDL
