MODEL 1
REMARK minimizedAffinity 5.58862305
REMARK minimizedRMSD -1
REMARK  2 active torsions:
REMARK  status: ('A' for Active; 'I' for Inactive)
REMARK    1  A    between atoms: C2'_3  and  C1'_4 
REMARK    2  A    between atoms: C1'_4  and  C1_5 
ROOT
ATOM      1  C1  I4B d   1      -3.378   0.524  -1.800  0.00  0.00    -0.075 A 
ATOM      2  C2  I4B d   1      -4.702   0.792  -2.043  0.00  0.00     0.003 A 
ATOM      3  C3  I4B d   1      -5.686   0.454  -1.082  0.00  0.00     0.002 A 
ATOM      4  C4  I4B d   1      -5.309  -0.192   0.078  0.00  0.00    -0.004 A 
ATOM      5  C5  I4B d   1      -3.964  -0.442   0.333  0.00  0.00     0.002 A 
ATOM      6  C6  I4B d   1      -2.990  -0.070  -0.606  0.00  0.00     0.003 A 
ENDROOT
BRANCH   1   7
ATOM      7  C1' I4B d   1      -2.369   0.865  -2.850  0.00  0.00     0.060 C 
BRANCH   7   8
ATOM      8  C2' I4B d   1      -1.150   1.441  -2.158  0.00  0.00    -0.013 C 
ATOM      9  C4' I4B d   1      -0.105   0.382  -1.926  0.00  0.00     0.013 C 
ATOM     10  C3' I4B d   1      -0.616   2.552  -3.011  0.00  0.00     0.013 C 
ENDBRANCH   7   8
ENDBRANCH   1   7
TORSDOF 2
ENDMDL
