MODEL 1
REMARK minimizedAffinity 8.54117584
REMARK minimizedRMSD -1
REMARK  2 active torsions:
REMARK  status: ('A' for Active; 'I' for Inactive)
REMARK    1  A    between atoms: C2'_3  and  C1'_4 
REMARK    2  A    between atoms: C1'_4  and  C1_5 
ROOT
ATOM      1  C1  I4B d   1      -0.336  -0.928   0.885  0.00  0.00    -0.075 A 
ATOM      2  C2  I4B d   1       0.197  -1.598   1.958  0.00  0.00     0.003 A 
ATOM      3  C3  I4B d   1       1.553  -1.405   2.317  0.00  0.00     0.002 A 
ATOM      4  C4  I4B d   1       2.347  -0.578   1.550  0.00  0.00    -0.004 A 
ATOM      5  C5  I4B d   1       1.799   0.118   0.476  0.00  0.00     0.002 A 
ATOM      6  C6  I4B d   1       0.446  -0.048   0.149  0.00  0.00     0.003 A 
ENDROOT
BRANCH   1   7
ATOM      7  C1' I4B d   1      -1.763  -1.181   0.515  0.00  0.00     0.060 C 
BRANCH   7   8
ATOM      8  C2' I4B d   1      -2.447   0.161   0.348  0.00  0.00    -0.013 C 
ATOM      9  C4' I4B d   1      -3.285   0.194  -0.903  0.00  0.00     0.013 C 
ATOM     10  C3' I4B d   1      -3.284   0.410   1.567  0.00  0.00     0.013 C 
ENDBRANCH   7   8
ENDBRANCH   1   7
TORSDOF 2
ENDMDL
