MODEL 1
REMARK minimizedAffinity 9.22443771
REMARK minimizedRMSD -1
REMARK  2 active torsions:
REMARK  status: ('A' for Active; 'I' for Inactive)
REMARK    1  A    between atoms: C2'_3  and  C1'_4 
REMARK    2  A    between atoms: C1'_4  and  C1_5 
ROOT
ATOM      1  C1  I4B d   1       0.715  -0.415   0.776  0.00  0.00    -0.075 A 
ATOM      2  C2  I4B d   1       0.293  -1.650   1.202  0.00  0.00     0.003 A 
ATOM      3  C3  I4B d   1       1.238  -2.636   1.575  0.00  0.00     0.002 A 
ATOM      4  C4  I4B d   1       2.586  -2.364   1.459  0.00  0.00    -0.004 A 
ATOM      5  C5  I4B d   1       3.012  -1.104   1.049  0.00  0.00     0.002 A 
ATOM      6  C6  I4B d   1       2.071  -0.119   0.717  0.00  0.00     0.003 A 
ENDROOT
BRANCH   1   7
ATOM      7  C1' I4B d   1      -0.309   0.592   0.359  0.00  0.00     0.060 C 
BRANCH   7   8
ATOM      8  C2' I4B d   1      -1.071   0.022  -0.820  0.00  0.00    -0.013 C 
ATOM      9  C4' I4B d   1      -2.550  -0.029  -0.541  0.00  0.00     0.013 C 
ATOM     10  C3' I4B d   1      -0.776   0.874  -2.018  0.00  0.00     0.013 C 
ENDBRANCH   7   8
ENDBRANCH   1   7
TORSDOF 2
ENDMDL
