MODEL 1
REMARK minimizedAffinity 6.08325911
REMARK minimizedRMSD -1
REMARK  2 active torsions:
REMARK  status: ('A' for Active; 'I' for Inactive)
REMARK    1  A    between atoms: C2'_3  and  C1'_4 
REMARK    2  A    between atoms: C1'_4  and  C1_5 
ROOT
ATOM      1  C1  I4B d   1      -1.405   0.082   1.109  0.00  0.00    -0.075 A 
ATOM      2  C2  I4B d   1      -0.284   0.871   1.033  0.00  0.00     0.003 A 
ATOM      3  C3  I4B d   1       1.004   0.283   1.040  0.00  0.00     0.002 A 
ATOM      4  C4  I4B d   1       1.125  -1.085   1.175  0.00  0.00    -0.004 A 
ATOM      5  C5  I4B d   1      -0.012  -1.886   1.229  0.00  0.00     0.002 A 
ATOM      6  C6  I4B d   1      -1.286  -1.300   1.183  0.00  0.00     0.003 A 
ENDROOT
BRANCH   1   7
ATOM      7  C1' I4B d   1      -2.749   0.738   1.131  0.00  0.00     0.060 C 
BRANCH   7   8
ATOM      8  C2' I4B d   1      -3.800  -0.347   1.022  0.00  0.00    -0.013 C 
ATOM      9  C4' I4B d   1      -4.810  -0.242   2.135  0.00  0.00     0.013 C 
ATOM     10  C3' I4B d   1      -4.458  -0.221  -0.320  0.00  0.00     0.013 C 
ENDBRANCH   7   8
ENDBRANCH   1   7
TORSDOF 2
ENDMDL
