MODEL 1
REMARK minimizedAffinity 2.14442587
REMARK minimizedRMSD -1
REMARK  2 active torsions:
REMARK  status: ('A' for Active; 'I' for Inactive)
REMARK    1  A    between atoms: C2'_3  and  C1'_4 
REMARK    2  A    between atoms: C1'_4  and  C1_5 
ROOT
ATOM      1  C1  I4B d   1      -1.698  -5.945  -4.019  0.00  0.00    -0.075 A 
ATOM      2  C2  I4B d   1      -3.039  -5.881  -4.304  0.00  0.00     0.003 A 
ATOM      3  C3  I4B d   1      -3.991  -5.861  -3.255  0.00  0.00     0.002 A 
ATOM      4  C4  I4B d   1      -3.562  -5.958  -1.947  0.00  0.00    -0.004 A 
ATOM      5  C5  I4B d   1      -2.201  -6.000  -1.659  0.00  0.00     0.002 A 
ATOM      6  C6  I4B d   1      -1.262  -5.981  -2.700  0.00  0.00     0.003 A 
ENDROOT
BRANCH   1   7
ATOM      7  C1' I4B d   1      -0.722  -5.998  -5.151  0.00  0.00     0.060 C 
BRANCH   7   8
ATOM      8  C2' I4B d   1       0.674  -5.917  -4.568  0.00  0.00    -0.013 C 
ATOM      9  C4' I4B d   1       1.721  -5.999  -5.648  0.00  0.00     0.013 C 
ATOM     10  C3' I4B d   1       0.783  -4.631  -3.805  0.00  0.00     0.013 C 
ENDBRANCH   7   8
ENDBRANCH   1   7
TORSDOF 2
ENDMDL
