MODEL 1
REMARK minimizedAffinity 8.69560242
REMARK minimizedRMSD -1
REMARK  2 active torsions:
REMARK  status: ('A' for Active; 'I' for Inactive)
REMARK    1  A    between atoms: C2'_3  and  C1'_4 
REMARK    2  A    between atoms: C1'_4  and  C1_5 
ROOT
ATOM      1  C1  I4B d   1      -0.829  -1.017   0.497  0.00  0.00    -0.075 A 
ATOM      2  C2  I4B d   1      -0.212   0.203   0.364  0.00  0.00     0.003 A 
ATOM      3  C3  I4B d   1       1.160   0.346   0.684  0.00  0.00     0.002 A 
ATOM      4  C4  I4B d   1       1.859  -0.737   1.177  0.00  0.00    -0.004 A 
ATOM      5  C5  I4B d   1       1.239  -1.977   1.289  0.00  0.00     0.002 A 
ATOM      6  C6  I4B d   1      -0.111  -2.122   0.935  0.00  0.00     0.003 A 
ENDROOT
BRANCH   1   7
ATOM      7  C1' I4B d   1      -2.287  -1.125   0.181  0.00  0.00     0.060 C 
BRANCH   7   8
ATOM      8  C2' I4B d   1      -2.862   0.277   0.147  0.00  0.00    -0.013 C 
ATOM      9  C4' I4B d   1      -3.514   0.566  -1.179  0.00  0.00     0.013 C 
ATOM     10  C3' I4B d   1      -3.846   0.401   1.272  0.00  0.00     0.013 C 
ENDBRANCH   7   8
ENDBRANCH   1   7
TORSDOF 2
ENDMDL
