MODEL 1
REMARK minimizedAffinity 6.24265194
REMARK minimizedRMSD -1
REMARK  2 active torsions:
REMARK  status: ('A' for Active; 'I' for Inactive)
REMARK    1  A    between atoms: C2'_3  and  C1'_4 
REMARK    2  A    between atoms: C1'_4  and  C1_5 
ROOT
ATOM      1  C1  I4B d   1      -3.303  -1.334   0.067  0.00  0.00    -0.075 A 
ATOM      2  C2  I4B d   1      -3.677  -1.342  -1.254  0.00  0.00     0.003 A 
ATOM      3  C3  I4B d   1      -4.513  -0.319  -1.763  0.00  0.00     0.002 A 
ATOM      4  C4  I4B d   1      -4.989   0.657  -0.912  0.00  0.00    -0.004 A 
ATOM      5  C5  I4B d   1      -4.590   0.676   0.422  0.00  0.00     0.002 A 
ATOM      6  C6  I4B d   1      -3.732  -0.319   0.912  0.00  0.00     0.003 A 
ENDROOT
BRANCH   1   7
ATOM      7  C1' I4B d   1      -2.446  -2.448   0.579  0.00  0.00     0.060 C 
BRANCH   7   8
ATOM      8  C2' I4B d   1      -3.347  -3.630   0.879  0.00  0.00    -0.013 C 
ATOM      9  C4' I4B d   1      -2.836  -4.885   0.221  0.00  0.00     0.013 C 
ATOM     10  C3' I4B d   1      -3.420  -3.790   2.368  0.00  0.00     0.013 C 
ENDBRANCH   7   8
ENDBRANCH   1   7
TORSDOF 2
ENDMDL
