MODEL 1
REMARK minimizedAffinity 5.03862524
REMARK minimizedRMSD -1
REMARK  0 active torsions:
REMARK  status: ('A' for Active; 'I' for Inactive)
ROOT
ATOM      1  N1  IND d   1       3.906   5.253  -2.148  0.00  0.00    -0.196 N 
ATOM      2  C2  IND d   1       5.008   5.710  -1.480  0.00  0.00     0.054 A 
ATOM      3  C3  IND d   1       6.000   5.999  -2.352  0.00  0.00    -0.031 A 
ATOM      4  C4  IND d   1       5.998   5.894  -4.924  0.00  0.00     0.051 A 
ATOM      5  C5  IND d   1       5.232   5.503  -5.986  0.00  0.00    -0.031 A 
ATOM      6  C6  IND d   1       3.957   5.001  -5.820  0.00  0.00     0.015 A 
ATOM      7  C7  IND d   1       3.395   4.882  -4.580  0.00  0.00    -0.016 A 
ATOM      8  C8  IND d   1       4.173   5.271  -3.499  0.00  0.00    -0.047 A 
ATOM      9  C9  IND d   1       5.483   5.741  -3.659  0.00  0.00    -0.096 A 
ATOM     10  HN1 IND d   1       3.169   4.997  -1.785  0.00  0.00     0.298 HD
ENDROOT
TORSDOF 0
ENDMDL
