MODEL 1
REMARK minimizedAffinity 5.62275314
REMARK minimizedRMSD -1
REMARK  0 active torsions:
REMARK  status: ('A' for Active; 'I' for Inactive)
ROOT
ATOM      1  N1  IND d   1       3.997   5.996  -2.070  0.00  0.00    -0.196 N 
ATOM      2  C2  IND d   1       5.080   6.000  -1.236  0.00  0.00     0.054 A 
ATOM      3  C3  IND d   1       5.999   5.101  -1.655  0.00  0.00    -0.031 A 
ATOM      4  C4  IND d   1       5.980   3.592  -3.740  0.00  0.00     0.051 A 
ATOM      5  C5  IND d   1       5.187   3.210  -4.786  0.00  0.00    -0.031 A 
ATOM      6  C6  IND d   1       3.933   3.750  -4.986  0.00  0.00     0.015 A 
ATOM      7  C7  IND d   1       3.428   4.705  -4.150  0.00  0.00    -0.016 A 
ATOM      8  C8  IND d   1       4.227   5.090  -3.082  0.00  0.00    -0.047 A 
ATOM      9  C9  IND d   1       5.483   4.514  -2.850  0.00  0.00    -0.096 A 
ATOM     10  HN1 IND d   1       3.291   6.478  -1.978  0.00  0.00     0.298 HD
ENDROOT
TORSDOF 0
ENDMDL
