MODEL 1
REMARK minimizedAffinity 2.42295718
REMARK minimizedRMSD -1
REMARK  0 active torsions:
REMARK  status: ('A' for Active; 'I' for Inactive)
ROOT
ATOM      1  N1  IND d   1       4.040   5.151  -0.755  0.00  0.00    -0.196 N 
ATOM      2  C2  IND d   1       5.067   5.994  -0.430  0.00  0.00     0.054 A 
ATOM      3  C3  IND d   1       6.000   5.998  -1.408  0.00  0.00    -0.031 A 
ATOM      4  C4  IND d   1       5.998   4.778  -3.675  0.00  0.00     0.051 A 
ATOM      5  C5  IND d   1       5.291   3.866  -4.407  0.00  0.00    -0.031 A 
ATOM      6  C6  IND d   1       4.106   3.326  -3.951  0.00  0.00     0.015 A 
ATOM      7  C7  IND d   1       3.575   3.690  -2.746  0.00  0.00    -0.016 A 
ATOM      8  C8  IND d   1       4.294   4.611  -1.997  0.00  0.00    -0.047 A 
ATOM      9  C9  IND d   1       5.519   5.130  -2.435  0.00  0.00    -0.096 A 
ATOM     10  HN1 IND d   1       3.352   4.987  -0.267  0.00  0.00     0.298 HD
ENDROOT
TORSDOF 0
ENDMDL
