MODEL 1
REMARK minimizedAffinity 10.2367554
REMARK minimizedRMSD -1
REMARK  0 active torsions:
REMARK  status: ('A' for Active; 'I' for Inactive)
ROOT
ATOM      1  N1  IND d   1       2.350   5.625  -2.590  0.00  0.00    -0.196 N 
ATOM      2  C2  IND d   1       1.547   4.576  -2.942  0.00  0.00     0.054 A 
ATOM      3  C3  IND d   1       2.290   3.561  -3.439  0.00  0.00    -0.031 A 
ATOM      4  C4  IND d   1       4.847   3.367  -3.671  0.00  0.00     0.051 A 
ATOM      5  C5  IND d   1       6.000   4.085  -3.517  0.00  0.00    -0.031 A 
ATOM      6  C6  IND d   1       5.995   5.377  -3.034  0.00  0.00     0.015 A 
ATOM      7  C7  IND d   1       4.833   5.999  -2.674  0.00  0.00    -0.016 A 
ATOM      8  C8  IND d   1       3.660   5.276  -2.836  0.00  0.00    -0.047 A 
ATOM      9  C9  IND d   1       3.654   3.980  -3.366  0.00  0.00    -0.096 A 
ATOM     10  HN1 IND d   1       2.082   6.376  -2.269  0.00  0.00     0.298 HD
ENDROOT
TORSDOF 0
ENDMDL
