MODEL 1
REMARK minimizedAffinity -0.645750403
REMARK minimizedRMSD -1
REMARK  0 active torsions:
REMARK  status: ('A' for Active; 'I' for Inactive)
ROOT
ATOM      1  N1  IND d   1       6.000   6.000  -2.285  0.00  0.00    -0.196 N 
ATOM      2  C2  IND d   1       5.389   5.232  -1.332  0.00  0.00     0.054 A 
ATOM      3  C3  IND d   1       4.635   4.272  -1.914  0.00  0.00    -0.031 A 
ATOM      4  C4  IND d   1       4.341   3.712  -4.410  0.00  0.00     0.051 A 
ATOM      5  C5  IND d   1       4.671   4.156  -5.659  0.00  0.00    -0.031 A 
ATOM      6  C6  IND d   1       5.480   5.258  -5.852  0.00  0.00     0.015 A 
ATOM      7  C7  IND d   1       6.000   5.953  -4.797  0.00  0.00    -0.016 A 
ATOM      8  C8  IND d   1       5.661   5.509  -3.527  0.00  0.00    -0.047 A 
ATOM      9  C9  IND d   1       4.806   4.418  -3.325  0.00  0.00    -0.096 A 
ATOM     10  HN1 IND d   1       6.510   6.675  -2.133  0.00  0.00     0.298 HD
ENDROOT
TORSDOF 0
ENDMDL
