MODEL 1
REMARK minimizedAffinity 10.6436796
REMARK minimizedRMSD -1
REMARK  0 active torsions:
REMARK  status: ('A' for Active; 'I' for Inactive)
ROOT
ATOM      1  N1  IND d   1       2.648  -1.686  -4.484  0.00  0.00    -0.196 N 
ATOM      2  C2  IND d   1       3.690  -2.271  -3.820  0.00  0.00     0.054 A 
ATOM      3  C3  IND d   1       3.270  -2.778  -2.639  0.00  0.00    -0.031 A 
ATOM      4  C4  IND d   1       0.898  -2.850  -1.641  0.00  0.00     0.051 A 
ATOM      5  C5  IND d   1      -0.378  -2.412  -1.862  0.00  0.00    -0.031 A 
ATOM      6  C6  IND d   1      -0.717  -1.697  -2.993  0.00  0.00     0.015 A 
ATOM      7  C7  IND d   1       0.208  -1.403  -3.954  0.00  0.00    -0.016 A 
ATOM      8  C8  IND d   1       1.506  -1.840  -3.730  0.00  0.00    -0.047 A 
ATOM      9  C9  IND d   1       1.865  -2.529  -2.564  0.00  0.00    -0.096 A 
ATOM     10  HN1 IND d   1       2.698  -1.289  -5.245  0.00  0.00     0.298 HD
ENDROOT
TORSDOF 0
ENDMDL
