MODEL 1
REMARK minimizedAffinity -2.95853829
REMARK minimizedRMSD -1
REMARK  0 active torsions:
REMARK  status: ('A' for Active; 'I' for Inactive)
ROOT
ATOM      1  N1  IND d   1       3.975   3.548  -5.802  0.00  0.00    -0.196 N 
ATOM      2  C2  IND d   1       5.039   2.711  -5.995  0.00  0.00     0.054 A 
ATOM      3  C3  IND d   1       6.000   2.951  -5.075  0.00  0.00    -0.031 A 
ATOM      4  C4  IND d   1       5.996   4.601  -3.099  0.00  0.00     0.051 A 
ATOM      5  C5  IND d   1       5.259   5.605  -2.535  0.00  0.00    -0.031 A 
ATOM      6  C6  IND d   1       4.031   5.980  -3.040  0.00  0.00     0.015 A 
ATOM      7  C7  IND d   1       3.486   5.355  -4.126  0.00  0.00    -0.016 A 
ATOM      8  C8  IND d   1       4.234   4.340  -4.705  0.00  0.00    -0.047 A 
ATOM      9  C9  IND d   1       5.500   3.983  -4.223  0.00  0.00    -0.096 A 
ATOM     10  HN1 IND d   1       3.264   3.575  -6.285  0.00  0.00     0.298 HD
ENDROOT
TORSDOF 0
ENDMDL
