MODEL 1
REMARK minimizedAffinity 0.72219348
REMARK minimizedRMSD -1
REMARK  0 active torsions:
REMARK  status: ('A' for Active; 'I' for Inactive)
ROOT
ATOM      1  N1  IND d   1       4.758   5.250  -0.680  0.00  0.00    -0.196 N 
ATOM      2  C2  IND d   1       6.000   5.464  -1.209  0.00  0.00     0.054 A 
ATOM      3  C3  IND d   1       6.000   5.196  -2.534  0.00  0.00    -0.031 A 
ATOM      4  C4  IND d   1       4.050   4.488  -4.059  0.00  0.00     0.051 A 
ATOM      5  C5  IND d   1       2.732   4.130  -4.026  0.00  0.00    -0.031 A 
ATOM      6  C6  IND d   1       2.006   4.129  -2.852  0.00  0.00     0.015 A 
ATOM      7  C7  IND d   1       2.571   4.499  -1.665  0.00  0.00    -0.016 A 
ATOM      8  C8  IND d   1       3.912   4.857  -1.694  0.00  0.00    -0.047 A 
ATOM      9  C9  IND d   1       4.665   4.819  -2.874  0.00  0.00    -0.096 A 
ATOM     10  HN1 IND d   1       4.541   5.344   0.147  0.00  0.00     0.298 HD
ENDROOT
TORSDOF 0
ENDMDL
