MODEL 1
REMARK minimizedAffinity -3.53588176
REMARK minimizedRMSD -1
REMARK  0 active torsions:
REMARK  status: ('A' for Active; 'I' for Inactive)
ROOT
ATOM      1  N1  IND d   1       6.000   2.240  -4.877  0.00  0.00    -0.196 N 
ATOM      2  C2  IND d   1       5.153   1.883  -5.889  0.00  0.00     0.054 A 
ATOM      3  C3  IND d   1       4.115   2.746  -5.960  0.00  0.00    -0.031 A 
ATOM      4  C4  IND d   1       3.660   4.874  -4.584  0.00  0.00     0.051 A 
ATOM      5  C5  IND d   1       4.132   5.591  -3.521  0.00  0.00    -0.031 A 
ATOM      6  C6  IND d   1       5.276   5.222  -2.844  0.00  0.00     0.015 A 
ATOM      7  C7  IND d   1       6.000   4.123  -3.213  0.00  0.00    -0.016 A 
ATOM      8  C8  IND d   1       5.519   3.389  -4.288  0.00  0.00    -0.047 A 
ATOM      9  C9  IND d   1       4.335   3.734  -4.952  0.00  0.00    -0.096 A 
ATOM     10  HN1 IND d   1       6.713   1.819  -4.648  0.00  0.00     0.298 HD
ENDROOT
TORSDOF 0
ENDMDL
