MODEL 1
REMARK minimizedAffinity -4.72438955
REMARK minimizedRMSD -1
REMARK  0 active torsions:
REMARK  status: ('A' for Active; 'I' for Inactive)
ROOT
ATOM      1  N1  IND d   1       3.478   3.084  -5.658  0.00  0.00    -0.196 N 
ATOM      2  C2  IND d   1       4.497   2.238  -5.999  0.00  0.00     0.054 A 
ATOM      3  C3  IND d   1       5.625   2.568  -5.331  0.00  0.00    -0.031 A 
ATOM      4  C4  IND d   1       5.999   4.394  -3.556  0.00  0.00     0.051 A 
ATOM      5  C5  IND d   1       5.375   5.442  -2.940  0.00  0.00    -0.031 A 
ATOM      6  C6  IND d   1       4.058   5.762  -3.202  0.00  0.00     0.015 A 
ATOM      7  C7  IND d   1       3.311   5.036  -4.085  0.00  0.00    -0.016 A 
ATOM      8  C8  IND d   1       3.944   3.976  -4.718  0.00  0.00    -0.047 A 
ATOM      9  C9  IND d   1       5.292   3.672  -4.488  0.00  0.00    -0.096 A 
ATOM     10  HN1 IND d   1       2.680   3.062  -5.978  0.00  0.00     0.298 HD
ENDROOT
TORSDOF 0
ENDMDL
