MODEL 1
REMARK minimizedAffinity -3.42024994
REMARK minimizedRMSD -1
REMARK  0 active torsions:
REMARK  status: ('A' for Active; 'I' for Inactive)
ROOT
ATOM      1  N1  IND d   1       4.755  -3.009   2.341  0.00  0.00    -0.196 N 
ATOM      2  C2  IND d   1       4.136  -2.096   1.534  0.00  0.00     0.054 A 
ATOM      3  C3  IND d   1       3.485  -1.175   2.279  0.00  0.00    -0.031 A 
ATOM      4  C4  IND d   1       3.386  -0.915   4.839  0.00  0.00     0.051 A 
ATOM      5  C5  IND d   1       3.765  -1.529   5.999  0.00  0.00    -0.031 A 
ATOM      6  C6  IND d   1       4.511  -2.690   5.999  0.00  0.00     0.015 A 
ATOM      7  C7  IND d   1       4.917  -3.277   4.834  0.00  0.00    -0.016 A 
ATOM      8  C8  IND d   1       4.528  -2.659   3.654  0.00  0.00    -0.047 A 
ATOM      9  C9  IND d   1       3.735  -1.505   3.646  0.00  0.00    -0.096 A 
ATOM     10  HN1 IND d   1       5.210  -3.688   2.073  0.00  0.00     0.298 HD
ENDROOT
TORSDOF 0
ENDMDL
