MODEL 1
REMARK minimizedAffinity 3.11374855
REMARK minimizedRMSD -1
REMARK  0 active torsions:
REMARK  status: ('A' for Active; 'I' for Inactive)
ROOT
ATOM      1  N1  IND d   1       6.000   4.297  -2.055  0.00  0.00    -0.196 N 
ATOM      2  C2  IND d   1       5.378   5.406  -1.551  0.00  0.00     0.054 A 
ATOM      3  C3  IND d   1       4.629   6.000  -2.507  0.00  0.00    -0.031 A 
ATOM      4  C4  IND d   1       4.197   5.268  -4.937  0.00  0.00     0.051 A 
ATOM      5  C5  IND d   1       4.575   4.339  -5.866  0.00  0.00    -0.031 A 
ATOM      6  C6  IND d   1       5.463   3.326  -5.564  0.00  0.00     0.015 A 
ATOM      7  C7  IND d   1       5.999   3.198  -4.315  0.00  0.00    -0.016 A 
ATOM      8  C8  IND d   1       5.624   4.144  -3.371  0.00  0.00    -0.047 A 
ATOM      9  C9  IND d   1       4.756   5.199  -3.683  0.00  0.00    -0.096 A 
ATOM     10  HN1 IND d   1       6.536   3.783  -1.622  0.00  0.00     0.298 HD
ENDROOT
TORSDOF 0
ENDMDL
