MODEL 1
REMARK minimizedAffinity -3.02137113
REMARK minimizedRMSD -1
REMARK  0 active torsions:
REMARK  status: ('A' for Active; 'I' for Inactive)
ROOT
ATOM      1  N1  IND d   1       6.000   2.758  -4.750  0.00  0.00    -0.196 N 
ATOM      2  C2  IND d   1       5.254   2.686  -5.894  0.00  0.00     0.054 A 
ATOM      3  C3  IND d   1       4.316   3.660  -5.905  0.00  0.00    -0.031 A 
ATOM      4  C4  IND d   1       3.892   5.543  -4.202  0.00  0.00     0.051 A 
ATOM      5  C5  IND d   1       4.295   5.999  -2.978  0.00  0.00    -0.031 A 
ATOM      6  C6  IND d   1       5.308   5.387  -2.269  0.00  0.00     0.015 A 
ATOM      7  C7  IND d   1       5.968   4.299  -2.765  0.00  0.00    -0.016 A 
ATOM      8  C8  IND d   1       5.557   3.829  -4.005  0.00  0.00    -0.047 A 
ATOM      9  C9  IND d   1       4.501   4.419  -4.709  0.00  0.00    -0.096 A 
ATOM     10  HN1 IND d   1       6.638   2.224  -4.533  0.00  0.00     0.298 HD
ENDROOT
TORSDOF 0
ENDMDL
