MODEL 1
REMARK minimizedAffinity 1.3828944
REMARK minimizedRMSD -1
REMARK  0 active torsions:
REMARK  status: ('A' for Active; 'I' for Inactive)
ROOT
ATOM      1  N1  IND d   1       5.991   2.139  -3.779  0.00  0.00    -0.196 N 
ATOM      2  C2  IND d   1       5.984   1.481  -4.977  0.00  0.00     0.054 A 
ATOM      3  C3  IND d   1       5.939   2.365  -5.999  0.00  0.00    -0.031 A 
ATOM      4  C4  IND d   1       5.975   4.938  -5.938  0.00  0.00     0.051 A 
ATOM      5  C5  IND d   1       5.943   5.996  -5.073  0.00  0.00    -0.031 A 
ATOM      6  C6  IND d   1       5.927   5.818  -3.705  0.00  0.00     0.015 A 
ATOM      7  C7  IND d   1       5.955   4.571  -3.148  0.00  0.00    -0.016 A 
ATOM      8  C8  IND d   1       5.981   3.495  -4.023  0.00  0.00    -0.047 A 
ATOM      9  C9  IND d   1       5.954   3.668  -5.413  0.00  0.00    -0.096 A 
ATOM     10  HN1 IND d   1       6.000   1.769  -3.003  0.00  0.00     0.298 HD
ENDROOT
TORSDOF 0
ENDMDL
