MODEL 1
REMARK minimizedAffinity -4.22362995
REMARK minimizedRMSD -1
REMARK  0 active torsions:
REMARK  status: ('A' for Active; 'I' for Inactive)
ROOT
ATOM      1  N1  IND d   1       4.189   4.724  -2.088  0.00  0.00    -0.196 N 
ATOM      2  C2  IND d   1       5.133   5.523  -1.505  0.00  0.00     0.054 A 
ATOM      3  C3  IND d   1       6.000   5.982  -2.436  0.00  0.00    -0.031 A 
ATOM      4  C4  IND d   1       6.000   5.630  -4.986  0.00  0.00     0.051 A 
ATOM      5  C5  IND d   1       5.357   4.946  -5.979  0.00  0.00    -0.031 A 
ATOM      6  C6  IND d   1       4.269   4.137  -5.721  0.00  0.00     0.015 A 
ATOM      7  C7  IND d   1       3.773   3.993  -4.456  0.00  0.00    -0.016 A 
ATOM      8  C8  IND d   1       4.428   4.681  -3.444  0.00  0.00    -0.047 A 
ATOM      9  C9  IND d   1       5.559   5.469  -3.694  0.00  0.00    -0.096 A 
ATOM     10  HN1 IND d   1       3.554   4.316  -1.676  0.00  0.00     0.298 HD
ENDROOT
TORSDOF 0
ENDMDL
