MODEL 1
REMARK minimizedAffinity -0.740683973
REMARK minimizedRMSD -1
REMARK  0 active torsions:
REMARK  status: ('A' for Active; 'I' for Inactive)
ROOT
ATOM      1  N1  IND d   1       6.000   4.921  -1.467  0.00  0.00    -0.196 N 
ATOM      2  C2  IND d   1       5.127   5.830  -0.936  0.00  0.00     0.054 A 
ATOM      3  C3  IND d   1       4.067   5.999  -1.757  0.00  0.00    -0.031 A 
ATOM      4  C4  IND d   1       3.509   4.813  -3.973  0.00  0.00     0.051 A 
ATOM      5  C5  IND d   1       4.021   3.929  -4.880  0.00  0.00    -0.031 A 
ATOM      6  C6  IND d   1       5.243   3.316  -4.691  0.00  0.00     0.015 A 
ATOM      7  C7  IND d   1       5.996   3.557  -3.577  0.00  0.00    -0.016 A 
ATOM      8  C8  IND d   1       5.482   4.459  -2.657  0.00  0.00    -0.047 A 
ATOM      9  C9  IND d   1       4.262   5.116  -2.863  0.00  0.00    -0.096 A 
ATOM     10  HN1 IND d   1       6.747   4.679  -1.116  0.00  0.00     0.298 HD
ENDROOT
TORSDOF 0
ENDMDL
