MODEL 1
REMARK minimizedAffinity -4.18882656
REMARK minimizedRMSD -1
REMARK  0 active torsions:
REMARK  status: ('A' for Active; 'I' for Inactive)
ROOT
ATOM      1  C   UNL d   1       1.372   2.109   1.545  0.00  0.00     0.124 A 
ATOM      2  C1  UNL d   1       0.101   1.616   1.808  0.00  0.00     0.062 A 
ATOM      3  C2  UNL d   1      -0.444   0.621   1.002  0.00  0.00     0.162 A 
ATOM      4  C3  UNL d   1       0.282   0.111  -0.074  0.00  0.00    -0.034 A 
ATOM      5  C4  UNL d   1       1.559   0.611  -0.333  0.00  0.00     0.162 A 
ATOM      6  C5  UNL d   1       2.100   1.606   0.476  0.00  0.00     0.062 A 
ATOM      7  F   UNL d   1       3.328   2.081   0.221  0.00  0.00    -0.097 F 
ATOM      8  F1  UNL d   1       2.284   0.143  -1.359  0.00  0.00    -0.096 F 
ATOM      9  I   UNL d   1      -0.530  -1.378  -1.282  0.00  0.00    -0.060 I 
ATOM     10  F2  UNL d   1      -1.674   0.164   1.279  0.00  0.00    -0.096 F 
ATOM     11  F3  UNL d   1      -0.604   2.101   2.840  0.00  0.00    -0.097 F 
ATOM     12  F4  UNL d   1       1.894   3.067   2.322  0.00  0.00    -0.092 F 
ENDROOT
TORSDOF 0
ENDMDL
