MODEL 1
REMARK minimizedAffinity -2.61857939
REMARK minimizedRMSD -1
REMARK  0 active torsions:
REMARK  status: ('A' for Active; 'I' for Inactive)
ROOT
ATOM      1  C   UNL d   1       1.795   1.795   1.046  0.00  0.00     0.124 A 
ATOM      2  C1  UNL d   1       0.442   1.950   1.314  0.00  0.00     0.062 A 
ATOM      3  C2  UNL d   1      -0.480   1.035   0.814  0.00  0.00     0.162 A 
ATOM      4  C3  UNL d   1      -0.052  -0.045   0.041  0.00  0.00    -0.034 A 
ATOM      5  C4  UNL d   1       1.310  -0.194  -0.225  0.00  0.00     0.162 A 
ATOM      6  C5  UNL d   1       2.228   0.724   0.277  0.00  0.00     0.062 A 
ATOM      7  F   UNL d   1       3.535   0.572   0.016  0.00  0.00    -0.097 F 
ATOM      8  F1  UNL d   1       1.756  -1.220  -0.965  0.00  0.00    -0.096 F 
ATOM      9  I   UNL d   1      -1.428  -1.415  -0.708  0.00  0.00    -0.060 I 
ATOM     10  F2  UNL d   1      -1.781   1.209   1.089  0.00  0.00    -0.096 F 
ATOM     11  F3  UNL d   1       0.022   2.984   2.056  0.00  0.00    -0.097 F 
ATOM     12  F4  UNL d   1       2.680   2.677   1.527  0.00  0.00    -0.092 F 
ENDROOT
TORSDOF 0
ENDMDL
