MODEL 1
REMARK minimizedAffinity -3.53285694
REMARK minimizedRMSD -1
REMARK  0 active torsions:
REMARK  status: ('A' for Active; 'I' for Inactive)
ROOT
ATOM      1  C   UNL d   1      -0.455   0.320   1.544  0.00  0.00     0.124 A 
ATOM      2  C1  UNL d   1       0.228   1.501   1.799  0.00  0.00     0.062 A 
ATOM      3  C2  UNL d   1       1.409   1.786   1.119  0.00  0.00     0.162 A 
ATOM      4  C3  UNL d   1       1.914   0.890   0.178  0.00  0.00    -0.034 A 
ATOM      5  C4  UNL d   1       1.221  -0.297  -0.072  0.00  0.00     0.162 A 
ATOM      6  C5  UNL d   1       0.042  -0.578   0.610  0.00  0.00     0.062 A 
ATOM      7  F   UNL d   1      -0.617  -1.719   0.363  0.00  0.00    -0.097 F 
ATOM      8  F1  UNL d   1       1.679  -1.181  -0.971  0.00  0.00    -0.096 F 
ATOM      9  I   UNL d   1       3.679   1.313  -0.840  0.00  0.00    -0.060 I 
ATOM     10  F2  UNL d   1       2.048   2.935   1.385  0.00  0.00    -0.096 F 
ATOM     11  F3  UNL d   1      -0.250   2.369   2.702  0.00  0.00    -0.097 F 
ATOM     12  F4  UNL d   1      -1.591   0.047   2.200  0.00  0.00    -0.092 F 
ENDROOT
TORSDOF 0
ENDMDL
