MODEL 1
REMARK minimizedAffinity 4.01991892
REMARK minimizedRMSD -1
REMARK  0 active torsions:
REMARK  status: ('A' for Active; 'I' for Inactive)
ROOT
ATOM      1  C   UNL d   1       0.773   1.627   1.142  0.00  0.00     0.124 A 
ATOM      2  C1  UNL d   1       1.330   0.918   0.087  0.00  0.00     0.062 A 
ATOM      3  C2  UNL d   1       0.607  -0.097  -0.533  0.00  0.00     0.162 A 
ATOM      4  C3  UNL d   1      -0.682  -0.407  -0.101  0.00  0.00    -0.034 A 
ATOM      5  C4  UNL d   1      -1.235   0.310   0.961  0.00  0.00     0.162 A 
ATOM      6  C5  UNL d   1      -0.508   1.323   1.578  0.00  0.00     0.062 A 
ATOM      7  F   UNL d   1      -1.048   2.007   2.597  0.00  0.00    -0.097 F 
ATOM      8  F1  UNL d   1      -2.472   0.037   1.402  0.00  0.00    -0.096 F 
ATOM      9  I   UNL d   1      -1.767  -1.924  -1.027  0.00  0.00    -0.060 I 
ATOM     10  F2  UNL d   1       1.170  -0.765  -1.551  0.00  0.00    -0.096 F 
ATOM     11  F3  UNL d   1       2.569   1.210  -0.335  0.00  0.00    -0.097 F 
ATOM     12  F4  UNL d   1       1.472   2.602   1.738  0.00  0.00    -0.092 F 
ENDROOT
TORSDOF 0
ENDMDL
