MODEL 1
REMARK minimizedAffinity -4.06217337
REMARK minimizedRMSD -1
REMARK  0 active torsions:
REMARK  status: ('A' for Active; 'I' for Inactive)
ROOT
ATOM      1  C   UNL d   1       2.080   1.903   0.961  0.00  0.00     0.124 A 
ATOM      2  C1  UNL d   1       0.704   2.081   0.961  0.00  0.00     0.062 A 
ATOM      3  C2  UNL d   1      -0.130   1.098   0.435  0.00  0.00     0.162 A 
ATOM      4  C3  UNL d   1       0.412  -0.073  -0.095  0.00  0.00    -0.034 A 
ATOM      5  C4  UNL d   1       1.797  -0.245  -0.092  0.00  0.00     0.162 A 
ATOM      6  C5  UNL d   1       2.625   0.741   0.435  0.00  0.00     0.062 A 
ATOM      7  F   UNL d   1       3.955   0.567   0.434  0.00  0.00    -0.097 F 
ATOM      8  F1  UNL d   1       2.351  -1.359  -0.594  0.00  0.00    -0.096 F 
ATOM      9  I   UNL d   1      -0.831  -1.546  -0.883  0.00  0.00    -0.060 I 
ATOM     10  F2  UNL d   1      -1.456   1.297   0.448  0.00  0.00    -0.096 F 
ATOM     11  F3  UNL d   1       0.174   3.204   1.469  0.00  0.00    -0.097 F 
ATOM     12  F4  UNL d   1       2.879   2.851   1.467  0.00  0.00    -0.092 F 
ENDROOT
TORSDOF 0
ENDMDL
