MODEL 1
REMARK minimizedAffinity 0.0554687344
REMARK minimizedRMSD -1
REMARK  0 active torsions:
REMARK  status: ('A' for Active; 'I' for Inactive)
ROOT
ATOM      1  C   UNL d   1       0.380   1.122   2.035  0.00  0.00     0.124 A 
ATOM      2  C1  UNL d   1       0.646   1.699   0.800  0.00  0.00     0.062 A 
ATOM      3  C2  UNL d   1       0.033   1.206  -0.348  0.00  0.00     0.162 A 
ATOM      4  C3  UNL d   1      -0.853   0.131  -0.268  0.00  0.00    -0.034 A 
ATOM      5  C4  UNL d   1      -1.114  -0.444   0.977  0.00  0.00     0.162 A 
ATOM      6  C5  UNL d   1      -0.499   0.052   2.122  0.00  0.00     0.062 A 
ATOM      7  F   UNL d   1      -0.756  -0.506   3.314  0.00  0.00    -0.097 F 
ATOM      8  F1  UNL d   1      -1.960  -1.478   1.091  0.00  0.00    -0.096 F 
ATOM      9  I   UNL d   1      -1.771  -0.608  -1.983  0.00  0.00    -0.060 I 
ATOM     10  F2  UNL d   1       0.307   1.783  -1.528  0.00  0.00    -0.096 F 
ATOM     11  F3  UNL d   1       1.495   2.732   0.713  0.00  0.00    -0.097 F 
ATOM     12  F4  UNL d   1       0.972   1.597   3.138  0.00  0.00    -0.092 F 
ENDROOT
TORSDOF 0
ENDMDL
