MODEL 1
REMARK minimizedAffinity -4.09879255
REMARK minimizedRMSD -1
REMARK  0 active torsions:
REMARK  status: ('A' for Active; 'I' for Inactive)
ROOT
ATOM      1  C   UNL d   1       2.215   2.281   1.181  0.00  0.00     0.124 A 
ATOM      2  C1  UNL d   1       0.855   2.159   1.433  0.00  0.00     0.062 A 
ATOM      3  C2  UNL d   1       0.138   1.091   0.902  0.00  0.00     0.162 A 
ATOM      4  C3  UNL d   1       0.779   0.136   0.113  0.00  0.00    -0.034 A 
ATOM      5  C4  UNL d   1       2.146   0.266  -0.138  0.00  0.00     0.162 A 
ATOM      6  C5  UNL d   1       2.858   1.335   0.396  0.00  0.00     0.062 A 
ATOM      7  F   UNL d   1       4.172   1.451   0.151  0.00  0.00    -0.097 F 
ATOM      8  F1  UNL d   1       2.793  -0.635  -0.892  0.00  0.00    -0.096 F 
ATOM      9  I   UNL d   1      -0.291  -1.462  -0.684  0.00  0.00    -0.060 I 
ATOM     10  F2  UNL d   1      -1.175   0.998   1.162  0.00  0.00    -0.096 F 
ATOM     11  F3  UNL d   1       0.231   3.072   2.190  0.00  0.00    -0.097 F 
ATOM     12  F4  UNL d   1       2.902   3.310   1.693  0.00  0.00    -0.092 F 
ENDROOT
TORSDOF 0
ENDMDL
