MODEL 1
REMARK minimizedAffinity -1.79097521
REMARK minimizedRMSD -1
REMARK  0 active torsions:
REMARK  status: ('A' for Active; 'I' for Inactive)
ROOT
ATOM      1  C   UNL d   1       2.196   1.588   0.811  0.00  0.00     0.124 A 
ATOM      2  C1  UNL d   1       0.839   1.842   0.953  0.00  0.00     0.062 A 
ATOM      3  C2  UNL d   1      -0.096   1.005   0.352  0.00  0.00     0.162 A 
ATOM      4  C3  UNL d   1       0.322  -0.095  -0.396  0.00  0.00    -0.034 A 
ATOM      5  C4  UNL d   1       1.689  -0.343  -0.536  0.00  0.00     0.162 A 
ATOM      6  C5  UNL d   1       2.620   0.496   0.067  0.00  0.00     0.062 A 
ATOM      7  F   UNL d   1       3.930   0.249  -0.072  0.00  0.00    -0.097 F 
ATOM      8  F1  UNL d   1       2.125  -1.392  -1.249  0.00  0.00    -0.096 F 
ATOM      9  I   UNL d   1      -1.074  -1.349  -1.297  0.00  0.00    -0.060 I 
ATOM     10  F2  UNL d   1      -1.401   1.275   0.507  0.00  0.00    -0.096 F 
ATOM     11  F3  UNL d   1       0.428   2.898   1.671  0.00  0.00    -0.097 F 
ATOM     12  F4  UNL d   1       3.095   2.396   1.389  0.00  0.00    -0.092 F 
ENDROOT
TORSDOF 0
ENDMDL
