MODEL 1
REMARK minimizedAffinity -0.874548018
REMARK minimizedRMSD -1
REMARK  0 active torsions:
REMARK  status: ('A' for Active; 'I' for Inactive)
ROOT
ATOM      1  C   UNL d   1       1.151   1.732   1.277  0.00  0.00     0.124 A 
ATOM      2  C1  UNL d   1       0.048   1.311   2.006  0.00  0.00     0.062 A 
ATOM      3  C2  UNL d   1      -0.820   0.360   1.476  0.00  0.00     0.162 A 
ATOM      4  C3  UNL d   1      -0.586  -0.178   0.210  0.00  0.00    -0.034 A 
ATOM      5  C4  UNL d   1       0.525   0.252  -0.518  0.00  0.00     0.162 A 
ATOM      6  C5  UNL d   1       1.389   1.203   0.016  0.00  0.00     0.062 A 
ATOM      7  F   UNL d   1       2.455   1.608  -0.689  0.00  0.00    -0.097 F 
ATOM      8  F1  UNL d   1       0.779  -0.244  -1.738  0.00  0.00    -0.096 F 
ATOM      9  I   UNL d   1      -1.881  -1.600  -0.586  0.00  0.00    -0.060 I 
ATOM     10  F2  UNL d   1      -1.878  -0.029   2.202  0.00  0.00    -0.096 F 
ATOM     11  F3  UNL d   1      -0.185   1.822   3.223  0.00  0.00    -0.097 F 
ATOM     12  F4  UNL d   1       1.983   2.648   1.789  0.00  0.00    -0.092 F 
ENDROOT
TORSDOF 0
ENDMDL
