MODEL 1
REMARK minimizedAffinity -5.77243853
REMARK minimizedRMSD -1
REMARK  0 active torsions:
REMARK  status: ('A' for Active; 'I' for Inactive)
ROOT
ATOM      1  C   UNL d   1       2.414   2.446   0.851  0.00  0.00     0.124 A 
ATOM      2  C1  UNL d   1       1.036   2.574   0.952  0.00  0.00     0.062 A 
ATOM      3  C2  UNL d   1       0.206   1.521   0.579  0.00  0.00     0.162 A 
ATOM      4  C3  UNL d   1       0.752   0.329   0.102  0.00  0.00    -0.034 A 
ATOM      5  C4  UNL d   1       2.140   0.209   0.003  0.00  0.00     0.162 A 
ATOM      6  C5  UNL d   1       2.965   1.264   0.377  0.00  0.00     0.062 A 
ATOM      7  F   UNL d   1       4.296   1.139   0.278  0.00  0.00    -0.097 F 
ATOM      8  F1  UNL d   1       2.698  -0.923  -0.452  0.00  0.00    -0.096 F 
ATOM      9  I   UNL d   1      -0.485  -1.248  -0.457  0.00  0.00    -0.060 I 
ATOM     10  F2  UNL d   1      -1.122   1.672   0.688  0.00  0.00    -0.096 F 
ATOM     11  F3  UNL d   1       0.501   3.716   1.410  0.00  0.00    -0.097 F 
ATOM     12  F4  UNL d   1       3.210   3.462   1.210  0.00  0.00    -0.092 F 
ENDROOT
TORSDOF 0
ENDMDL
