MODEL 1
REMARK minimizedAffinity -2.97842598
REMARK minimizedRMSD -1
REMARK  0 active torsions:
REMARK  status: ('A' for Active; 'I' for Inactive)
ROOT
ATOM      1  C   UNL d   1      -1.022   0.634   1.090  0.00  0.00     0.124 A 
ATOM      2  C1  UNL d   1      -0.559  -0.394   0.281  0.00  0.00     0.062 A 
ATOM      3  C2  UNL d   1       0.761  -0.396  -0.161  0.00  0.00     0.162 A 
ATOM      4  C3  UNL d   1       1.628   0.633   0.206  0.00  0.00    -0.034 A 
ATOM      5  C4  UNL d   1       1.154   1.664   1.020  0.00  0.00     0.162 A 
ATOM      6  C5  UNL d   1      -0.166   1.662   1.459  0.00  0.00     0.062 A 
ATOM      7  F   UNL d   1      -0.612   2.656   2.240  0.00  0.00    -0.097 F 
ATOM      8  F1  UNL d   1       1.961   2.669   1.392  0.00  0.00    -0.096 F 
ATOM      9  I   UNL d   1       3.602   0.634  -0.452  0.00  0.00    -0.060 I 
ATOM     10  F2  UNL d   1       1.182  -1.402  -0.942  0.00  0.00    -0.096 F 
ATOM     11  F3  UNL d   1      -1.385  -1.387  -0.077  0.00  0.00    -0.097 F 
ATOM     12  F4  UNL d   1      -2.293   0.635   1.513  0.00  0.00    -0.092 F 
ENDROOT
TORSDOF 0
ENDMDL
