MODEL 1
REMARK minimizedAffinity -0.766823292
REMARK minimizedRMSD -1
REMARK  0 active torsions:
REMARK  status: ('A' for Active; 'I' for Inactive)
ROOT
ATOM      1  C   UNL d   1       2.395   2.000   0.272  0.00  0.00     0.124 A 
ATOM      2  C1  UNL d   1       2.794   0.818  -0.338  0.00  0.00     0.062 A 
ATOM      3  C2  UNL d   1       1.864  -0.184  -0.598  0.00  0.00     0.162 A 
ATOM      4  C3  UNL d   1       0.525  -0.010  -0.248  0.00  0.00    -0.034 A 
ATOM      5  C4  UNL d   1       0.131   1.181   0.366  0.00  0.00     0.162 A 
ATOM      6  C5  UNL d   1       1.064   2.180   0.623  0.00  0.00     0.062 A 
ATOM      7  F   UNL d   1       0.677   3.320   1.213  0.00  0.00    -0.097 F 
ATOM      8  F1  UNL d   1      -1.148   1.381   0.715  0.00  0.00    -0.096 F 
ATOM      9  I   UNL d   1      -0.869  -1.506  -0.635  0.00  0.00    -0.060 I 
ATOM     10  F2  UNL d   1       2.278  -1.315  -1.188  0.00  0.00    -0.096 F 
ATOM     11  F3  UNL d   1       4.079   0.642  -0.678  0.00  0.00    -0.097 F 
ATOM     12  F4  UNL d   1       3.292   2.962   0.522  0.00  0.00    -0.092 F 
ENDROOT
TORSDOF 0
ENDMDL
