MODEL 1
REMARK minimizedAffinity 3.04612875
REMARK minimizedRMSD -1
REMARK  0 active torsions:
REMARK  status: ('A' for Active; 'I' for Inactive)
ROOT
ATOM      1  C   UNL d   1       1.668   2.128   1.884  0.00  0.00     0.124 A 
ATOM      2  C1  UNL d   1       2.290   1.634   0.745  0.00  0.00     0.062 A 
ATOM      3  C2  UNL d   1       1.634   0.713  -0.067  0.00  0.00     0.162 A 
ATOM      4  C3  UNL d   1       0.348   0.280   0.256  0.00  0.00    -0.034 A 
ATOM      5  C4  UNL d   1      -0.271   0.781   1.403  0.00  0.00     0.162 A 
ATOM      6  C5  UNL d   1       0.388   1.701   2.211  0.00  0.00     0.062 A 
ATOM      7  F   UNL d   1      -0.214   2.177   3.311  0.00  0.00    -0.097 F 
ATOM      8  F1  UNL d   1      -1.507   0.386   1.742  0.00  0.00    -0.096 F 
ATOM      9  I   UNL d   1      -0.635  -1.096  -0.956  0.00  0.00    -0.060 I 
ATOM     10  F2  UNL d   1       2.259   0.253  -1.161  0.00  0.00    -0.096 F 
ATOM     11  F3  UNL d   1       3.526   2.044   0.427  0.00  0.00    -0.097 F 
ATOM     12  F4  UNL d   1       2.301   3.013   2.664  0.00  0.00    -0.092 F 
ENDROOT
TORSDOF 0
ENDMDL
