MODEL 1
REMARK minimizedAffinity -4.22403955
REMARK minimizedRMSD -1
REMARK  0 active torsions:
REMARK  status: ('A' for Active; 'I' for Inactive)
ROOT
ATOM      1  C   UNL d   1       1.770   1.908   0.727  0.00  0.00     0.124 A 
ATOM      2  C1  UNL d   1       2.323   0.812   0.080  0.00  0.00     0.062 A 
ATOM      3  C2  UNL d   1       1.501  -0.190  -0.427  0.00  0.00     0.162 A 
ATOM      4  C3  UNL d   1       0.116  -0.100  -0.291  0.00  0.00    -0.034 A 
ATOM      5  C4  UNL d   1      -0.434   1.005   0.361  0.00  0.00     0.162 A 
ATOM      6  C5  UNL d   1       0.392   2.004   0.867  0.00  0.00     0.062 A 
ATOM      7  F   UNL d   1      -0.144   3.062   1.491  0.00  0.00    -0.097 F 
ATOM      8  F1  UNL d   1      -1.761   1.123   0.510  0.00  0.00    -0.096 F 
ATOM      9  I   UNL d   1      -1.117  -1.596  -1.049  0.00  0.00    -0.060 I 
ATOM     10  F2  UNL d   1       2.063  -1.238  -1.048  0.00  0.00    -0.096 F 
ATOM     11  F3  UNL d   1       3.654   0.716  -0.056  0.00  0.00    -0.097 F 
ATOM     12  F4  UNL d   1       2.563   2.870   1.215  0.00  0.00    -0.092 F 
ENDROOT
TORSDOF 0
ENDMDL
