MODEL 1
REMARK minimizedAffinity -4.99948692
REMARK minimizedRMSD -1
REMARK  0 active torsions:
REMARK  status: ('A' for Active; 'I' for Inactive)
ROOT
ATOM      1  C   UNL d   1      -0.611   0.603   1.689  0.00  0.00     0.124 A 
ATOM      2  C1  UNL d   1       0.221   1.692   1.911  0.00  0.00     0.062 A 
ATOM      3  C2  UNL d   1       1.469   1.756   1.299  0.00  0.00     0.162 A 
ATOM      4  C3  UNL d   1       1.893   0.728   0.456  0.00  0.00    -0.034 A 
ATOM      5  C4  UNL d   1       1.052  -0.364   0.238  0.00  0.00     0.162 A 
ATOM      6  C5  UNL d   1      -0.195  -0.423   0.853  0.00  0.00     0.062 A 
ATOM      7  F   UNL d   1      -0.997  -1.476   0.636  0.00  0.00    -0.097 F 
ATOM      8  F1  UNL d   1       1.428  -1.370  -0.566  0.00  0.00    -0.096 F 
ATOM      9  I   UNL d   1       3.759   0.820  -0.461  0.00  0.00    -0.060 I 
ATOM     10  F2  UNL d   1       2.252   2.820   1.532  0.00  0.00    -0.096 F 
ATOM     11  F3  UNL d   1      -0.178   2.684   2.720  0.00  0.00    -0.097 F 
ATOM     12  F4  UNL d   1      -1.811   0.544   2.280  0.00  0.00    -0.092 F 
ENDROOT
TORSDOF 0
ENDMDL
