MODEL 1
REMARK minimizedAffinity 0.0400927179
REMARK minimizedRMSD -1
REMARK  3 active torsions:
REMARK  status: ('A' for Active; 'I' for Inactive)
REMARK    1  A    between atoms: C3'_2  and  C2'_3 
REMARK    2  A    between atoms: C2'_3  and  C1'_4 
REMARK    3  A    between atoms: C1'_4  and  C1_5 
ROOT
ATOM      1  C1  N4B d   1      -5.813   2.250   3.503  0.00  0.00    -0.075 A 
ATOM      2  C2  N4B d   1      -5.388   1.426   4.569  0.00  0.00     0.002 A 
ATOM      3  C3  N4B d   1      -5.158   1.971   5.809  0.00  0.00     0.002 A 
ATOM      4  C4  N4B d   1      -5.326   3.335   6.000  0.00  0.00    -0.004 A 
ATOM      5  C5  N4B d   1      -5.761   4.119   4.972  0.00  0.00     0.002 A 
ATOM      6  C6  N4B d   1      -6.000   3.584   3.722  0.00  0.00     0.002 A 
ENDROOT
BRANCH   1   7
ATOM      7  C1' N4B d   1      -5.994   1.714   2.110  0.00  0.00     0.057 C 
BRANCH   7   8
ATOM      8  C2' N4B d   1      -5.907   0.191   2.143  0.00  0.00     0.009 C 
BRANCH   8   9
ATOM      9  C3' N4B d   1      -4.782  -0.334   1.268  0.00  0.00     0.004 C 
ATOM     10  C4' N4B d   1      -3.998  -1.431   1.926  0.00  0.00     0.003 C 
ENDBRANCH   8   9
ENDBRANCH   7   8
ENDBRANCH   1   7
TORSDOF 3
ENDMDL
