MODEL 1
REMARK minimizedAffinity 4.1209693
REMARK minimizedRMSD -1
REMARK  3 active torsions:
REMARK  status: ('A' for Active; 'I' for Inactive)
REMARK    1  A    between atoms: C3'_2  and  C2'_3 
REMARK    2  A    between atoms: C2'_3  and  C1'_4 
REMARK    3  A    between atoms: C1'_4  and  C1_5 
ROOT
ATOM      1  C1  N4B d   1       2.268   0.706   0.754  0.00  0.00    -0.075 A 
ATOM      2  C2  N4B d   1       1.266  -0.164   0.270  0.00  0.00     0.002 A 
ATOM      3  C3  N4B d   1       0.917  -1.279   0.991  0.00  0.00     0.002 A 
ATOM      4  C4  N4B d   1       1.567  -1.555   2.185  0.00  0.00    -0.004 A 
ATOM      5  C5  N4B d   1       2.516  -0.696   2.659  0.00  0.00     0.002 A 
ATOM      6  C6  N4B d   1       2.873   0.431   1.946  0.00  0.00     0.002 A 
ENDROOT
BRANCH   1   7
ATOM      7  C1' N4B d   1       2.743   1.891  -0.041  0.00  0.00     0.057 C 
BRANCH   7   8
ATOM      8  C2' N4B d   1       4.153   2.262   0.407  0.00  0.00     0.009 C 
BRANCH   8   9
ATOM      9  C3' N4B d   1       4.281   3.744   0.713  0.00  0.00     0.004 C 
ATOM     10  C4' N4B d   1       5.693   4.158   1.002  0.00  0.00     0.003 C 
ENDBRANCH   8   9
ENDBRANCH   7   8
ENDBRANCH   1   7
TORSDOF 3
ENDMDL
