MODEL 1
REMARK minimizedAffinity 9.90944004
REMARK minimizedRMSD -1
REMARK  3 active torsions:
REMARK  status: ('A' for Active; 'I' for Inactive)
REMARK    1  A    between atoms: C3'_2  and  C2'_3 
REMARK    2  A    between atoms: C2'_3  and  C1'_4 
REMARK    3  A    between atoms: C1'_4  and  C1_5 
ROOT
ATOM      1  C1  N4B d   1      -0.222   0.269   1.642  0.00  0.00    -0.075 A 
ATOM      2  C2  N4B d   1      -1.586   0.593   1.810  0.00  0.00     0.002 A 
ATOM      3  C3  N4B d   1      -1.942   1.772   2.417  0.00  0.00     0.002 A 
ATOM      4  C4  N4B d   1      -0.955   2.631   2.879  0.00  0.00    -0.004 A 
ATOM      5  C5  N4B d   1       0.360   2.322   2.691  0.00  0.00     0.002 A 
ATOM      6  C6  N4B d   1       0.732   1.142   2.079  0.00  0.00     0.002 A 
ENDROOT
BRANCH   1   7
ATOM      7  C1' N4B d   1       0.216  -1.048   1.062  0.00  0.00     0.057 C 
BRANCH   7   8
ATOM      8  C2' N4B d   1      -0.586  -2.173   1.710  0.00  0.00     0.009 C 
BRANCH   8   9
ATOM      9  C3' N4B d   1      -1.317  -3.016   0.680  0.00  0.00     0.004 C 
ATOM     10  C4' N4B d   1      -1.002  -4.477   0.796  0.00  0.00     0.003 C 
ENDBRANCH   8   9
ENDBRANCH   7   8
ENDBRANCH   1   7
TORSDOF 3
ENDMDL
