MODEL 1
REMARK minimizedAffinity 5.49293947
REMARK minimizedRMSD -1
REMARK  3 active torsions:
REMARK  status: ('A' for Active; 'I' for Inactive)
REMARK    1  A    between atoms: C3'_2  and  C2'_3 
REMARK    2  A    between atoms: C2'_3  and  C1'_4 
REMARK    3  A    between atoms: C1'_4  and  C1_5 
ROOT
ATOM      1  C1  N4B d   1      -2.242   0.624   0.896  0.00  0.00    -0.075 A 
ATOM      2  C2  N4B d   1      -3.648   0.678   0.772  0.00  0.00     0.002 A 
ATOM      3  C3  N4B d   1      -4.384   1.451   1.637  0.00  0.00     0.002 A 
ATOM      4  C4  N4B d   1      -3.740   2.161   2.640  0.00  0.00    -0.004 A 
ATOM      5  C5  N4B d   1      -2.380   2.123   2.737  0.00  0.00     0.002 A 
ATOM      6  C6  N4B d   1      -1.628   1.354   1.872  0.00  0.00     0.002 A 
ENDROOT
BRANCH   1   7
ATOM      7  C1' N4B d   1      -1.403  -0.274   0.029  0.00  0.00     0.057 C 
BRANCH   7   8
ATOM      8  C2' N4B d   1      -2.193  -1.538  -0.295  0.00  0.00     0.009 C 
BRANCH   8   9
ATOM      9  C3' N4B d   1      -1.433  -2.796   0.087  0.00  0.00     0.004 C 
ATOM     10  C4' N4B d   1      -1.785  -3.293   1.458  0.00  0.00     0.003 C 
ENDBRANCH   8   9
ENDBRANCH   7   8
ENDBRANCH   1   7
TORSDOF 3
ENDMDL
