MODEL 1
REMARK minimizedAffinity 6.7121439
REMARK minimizedRMSD -1
REMARK  3 active torsions:
REMARK  status: ('A' for Active; 'I' for Inactive)
REMARK    1  A    between atoms: C3'_2  and  C2'_3 
REMARK    2  A    between atoms: C2'_3  and  C1'_4 
REMARK    3  A    between atoms: C1'_4  and  C1_5 
ROOT
ATOM      1  C1  N4B d   1      -1.624   1.531   2.548  0.00  0.00    -0.075 A 
ATOM      2  C2  N4B d   1      -2.177   1.108   1.320  0.00  0.00     0.002 A 
ATOM      3  C3  N4B d   1      -1.417   0.375   0.442  0.00  0.00     0.002 A 
ATOM      4  C4  N4B d   1      -0.102   0.071   0.761  0.00  0.00    -0.004 A 
ATOM      5  C5  N4B d   1       0.416   0.462   1.961  0.00  0.00     0.002 A 
ATOM      6  C6  N4B d   1      -0.337   1.195   2.855  0.00  0.00     0.002 A 
ENDROOT
BRANCH   1   7
ATOM      7  C1' N4B d   1      -2.389   2.407   3.503  0.00  0.00     0.057 C 
BRANCH   7   8
ATOM      8  C2' N4B d   1      -3.743   1.767   3.795  0.00  0.00     0.009 C 
BRANCH   8   9
ATOM      9  C3' N4B d   1      -4.209   2.047   5.213  0.00  0.00     0.004 C 
ATOM     10  C4' N4B d   1      -4.462   0.796   6.000  0.00  0.00     0.003 C 
ENDBRANCH   8   9
ENDBRANCH   7   8
ENDBRANCH   1   7
TORSDOF 3
ENDMDL
