MODEL 1
REMARK minimizedAffinity 5.41842079
REMARK minimizedRMSD -1
REMARK  3 active torsions:
REMARK  status: ('A' for Active; 'I' for Inactive)
REMARK    1  A    between atoms: C3'_2  and  C2'_3 
REMARK    2  A    between atoms: C2'_3  and  C1'_4 
REMARK    3  A    between atoms: C1'_4  and  C1_5 
ROOT
ATOM      1  C1  N4B d   1      -1.187   0.743   1.624  0.00  0.00    -0.075 A 
ATOM      2  C2  N4B d   1       0.185   1.060   1.734  0.00  0.00     0.002 A 
ATOM      3  C3  N4B d   1       0.611   1.942   2.698  0.00  0.00     0.002 A 
ATOM      4  C4  N4B d   1      -0.315   2.530   3.546  0.00  0.00    -0.004 A 
ATOM      5  C5  N4B d   1      -1.635   2.199   3.450  0.00  0.00     0.002 A 
ATOM      6  C6  N4B d   1      -2.077   1.312   2.489  0.00  0.00     0.002 A 
ENDROOT
BRANCH   1   7
ATOM      7  C1' N4B d   1      -1.711  -0.149   0.532  0.00  0.00     0.057 C 
BRANCH   7   8
ATOM      8  C2' N4B d   1      -1.067  -1.526   0.659  0.00  0.00     0.009 C 
BRANCH   8   9
ATOM      9  C3' N4B d   1      -2.019  -2.638   0.249  0.00  0.00     0.004 C 
ATOM     10  C4' N4B d   1      -1.736  -3.932   0.952  0.00  0.00     0.003 C 
ENDBRANCH   8   9
ENDBRANCH   7   8
ENDBRANCH   1   7
TORSDOF 3
ENDMDL
