MODEL 1
REMARK minimizedAffinity -0.259761125
REMARK minimizedRMSD -1
REMARK  3 active torsions:
REMARK  status: ('A' for Active; 'I' for Inactive)
REMARK    1  A    between atoms: C3'_2  and  C2'_3 
REMARK    2  A    between atoms: C2'_3  and  C1'_4 
REMARK    3  A    between atoms: C1'_4  and  C1_5 
ROOT
ATOM      1  C1  N4B d   1      -2.471   1.127   2.723  0.00  0.00    -0.075 A 
ATOM      2  C2  N4B d   1      -1.156   0.744   3.071  0.00  0.00     0.002 A 
ATOM      3  C3  N4B d   1      -0.259   0.401   2.090  0.00  0.00     0.002 A 
ATOM      4  C4  N4B d   1      -0.657   0.415   0.761  0.00  0.00    -0.004 A 
ATOM      5  C5  N4B d   1      -1.921   0.810   0.432  0.00  0.00     0.002 A 
ATOM      6  C6  N4B d   1      -2.832   1.161   1.408  0.00  0.00     0.002 A 
ENDROOT
BRANCH   1   7
ATOM      7  C1' N4B d   1      -3.512   1.428   3.766  0.00  0.00     0.057 C 
BRANCH   7   8
ATOM      8  C2' N4B d   1      -3.367   0.439   4.919  0.00  0.00     0.009 C 
BRANCH   8   9
ATOM      9  C3' N4B d   1      -4.553   0.493   5.867  0.00  0.00     0.004 C 
ATOM     10  C4' N4B d   1      -5.269  -0.820   5.977  0.00  0.00     0.003 C 
ENDBRANCH   8   9
ENDBRANCH   7   8
ENDBRANCH   1   7
TORSDOF 3
ENDMDL
