MODEL 1
REMARK minimizedAffinity 12.545723
REMARK minimizedRMSD -1
REMARK  3 active torsions:
REMARK  status: ('A' for Active; 'I' for Inactive)
REMARK    1  A    between atoms: C3'_2  and  C2'_3 
REMARK    2  A    between atoms: C2'_3  and  C1'_4 
REMARK    3  A    between atoms: C1'_4  and  C1_5 
ROOT
ATOM      1  C1  N4B d   1       1.592   0.132   2.084  0.00  0.00    -0.075 A 
ATOM      2  C2  N4B d   1       0.601  -0.848   1.861  0.00  0.00     0.002 A 
ATOM      3  C3  N4B d   1      -0.714  -0.477   1.724  0.00  0.00     0.002 A 
ATOM      4  C4  N4B d   1      -1.063   0.861   1.825  0.00  0.00    -0.004 A 
ATOM      5  C5  N4B d   1      -0.097   1.805   2.015  0.00  0.00     0.002 A 
ATOM      6  C6  N4B d   1       1.229   1.447   2.151  0.00  0.00     0.002 A 
ENDROOT
BRANCH   1   7
ATOM      7  C1' N4B d   1       3.031  -0.233   2.326  0.00  0.00     0.057 C 
BRANCH   7   8
ATOM      8  C2' N4B d   1       3.637  -0.765   1.031  0.00  0.00     0.009 C 
BRANCH   8   9
ATOM      9  C3' N4B d   1       4.732  -1.785   1.292  0.00  0.00     0.004 C 
ATOM     10  C4' N4B d   1       5.668  -1.364   2.385  0.00  0.00     0.003 C 
ENDBRANCH   8   9
ENDBRANCH   7   8
ENDBRANCH   1   7
TORSDOF 3
ENDMDL
