MODEL 1
REMARK minimizedAffinity 9.72223759
REMARK minimizedRMSD -1
REMARK  3 active torsions:
REMARK  status: ('A' for Active; 'I' for Inactive)
REMARK    1  A    between atoms: C3'_2  and  C2'_3 
REMARK    2  A    between atoms: C2'_3  and  C1'_4 
REMARK    3  A    between atoms: C1'_4  and  C1_5 
ROOT
ATOM      1  C1  N4B d   1       0.221   0.371   1.621  0.00  0.00    -0.075 A 
ATOM      2  C2  N4B d   1       0.237   0.909   2.927  0.00  0.00     0.002 A 
ATOM      3  C3  N4B d   1      -0.850   1.603   3.397  0.00  0.00     0.002 A 
ATOM      4  C4  N4B d   1      -1.953   1.789   2.577  0.00  0.00    -0.004 A 
ATOM      5  C5  N4B d   1      -1.970   1.245   1.326  0.00  0.00     0.002 A 
ATOM      6  C6  N4B d   1      -0.886   0.541   0.842  0.00  0.00     0.002 A 
ENDROOT
BRANCH   1   7
ATOM      7  C1' N4B d   1       1.420  -0.322   1.033  0.00  0.00     0.057 C 
BRANCH   7   8
ATOM      8  C2' N4B d   1       2.291   0.706   0.316  0.00  0.00     0.009 C 
BRANCH   8   9
ATOM      9  C3' N4B d   1       3.641   0.131  -0.077  0.00  0.00     0.004 C 
ATOM     10  C4' N4B d   1       4.326  -0.570   1.057  0.00  0.00     0.003 C 
ENDBRANCH   8   9
ENDBRANCH   7   8
ENDBRANCH   1   7
TORSDOF 3
ENDMDL
