MODEL 1
REMARK minimizedAffinity 14.8898487
REMARK minimizedRMSD -1
REMARK  0 active torsions:
REMARK  status: ('A' for Active; 'I' for Inactive)
ROOT
ATOM      1  N1  IND d   1       3.538   0.612   0.680  0.00  0.00    -0.196 N 
ATOM      2  C2  IND d   1       2.564   1.217  -0.064  0.00  0.00     0.054 A 
ATOM      3  C3  IND d   1       1.503   1.529   0.714  0.00  0.00    -0.031 A 
ATOM      4  C4  IND d   1       1.192   1.228   3.252  0.00  0.00     0.051 A 
ATOM      5  C5  IND d   1       1.793   0.688   4.354  0.00  0.00    -0.031 A 
ATOM      6  C6  IND d   1       3.033   0.086   4.287  0.00  0.00     0.015 A 
ATOM      7  C7  IND d   1       3.725   0.010   3.112  0.00  0.00    -0.016 A 
ATOM      8  C8  IND d   1       3.115   0.551   1.989  0.00  0.00    -0.047 A 
ATOM      9  C9  IND d   1       1.839   1.126   2.043  0.00  0.00    -0.096 A 
ATOM     10  HN1 IND d   1       4.288   0.318   0.380  0.00  0.00     0.298 HD
ENDROOT
TORSDOF 0
ENDMDL
