MODEL 1
REMARK minimizedAffinity 10.5370588
REMARK minimizedRMSD -1
REMARK  0 active torsions:
REMARK  status: ('A' for Active; 'I' for Inactive)
ROOT
ATOM      1  N1  IND d   1       3.302  -0.163   1.546  0.00  0.00    -0.196 N 
ATOM      2  C2  IND d   1       3.699   0.429   0.379  0.00  0.00     0.054 A 
ATOM      3  C3  IND d   1       2.892   1.471   0.081  0.00  0.00    -0.031 A 
ATOM      4  C4  IND d   1       0.921   2.448   1.419  0.00  0.00     0.051 A 
ATOM      5  C5  IND d   1       0.158   2.225   2.531  0.00  0.00    -0.031 A 
ATOM      6  C6  IND d   1       0.411   1.175   3.390  0.00  0.00     0.015 A 
ATOM      7  C7  IND d   1       1.448   0.312   3.174  0.00  0.00    -0.016 A 
ATOM      8  C8  IND d   1       2.220   0.531   2.042  0.00  0.00    -0.047 A 
ATOM      9  C9  IND d   1       1.942   1.569   1.144  0.00  0.00    -0.096 A 
ATOM     10  HN1 IND d   1       3.666  -0.852   1.908  0.00  0.00     0.298 HD
ENDROOT
TORSDOF 0
ENDMDL
