MODEL 1
REMARK minimizedAffinity 14.9117842
REMARK minimizedRMSD -1
REMARK  0 active torsions:
REMARK  status: ('A' for Active; 'I' for Inactive)
ROOT
ATOM      1  N1  IND d   1      -5.406  -3.366  -3.029  0.00  0.00    -0.196 N 
ATOM      2  C2  IND d   1      -5.998  -4.597  -2.987  0.00  0.00     0.054 A 
ATOM      3  C3  IND d   1      -5.059  -5.569  -2.937  0.00  0.00    -0.031 A 
ATOM      4  C4  IND d   1      -2.496  -5.362  -2.811  0.00  0.00     0.051 A 
ATOM      5  C5  IND d   1      -1.486  -4.442  -2.858  0.00  0.00    -0.031 A 
ATOM      6  C6  IND d   1      -1.736  -3.089  -2.963  0.00  0.00     0.015 A 
ATOM      7  C7  IND d   1      -3.011  -2.602  -3.015  0.00  0.00    -0.016 A 
ATOM      8  C8  IND d   1      -4.039  -3.534  -2.975  0.00  0.00    -0.047 A 
ATOM      9  C9  IND d   1      -3.791  -4.911  -2.911  0.00  0.00    -0.096 A 
ATOM     10  HN1 IND d   1      -5.817  -2.613  -3.081  0.00  0.00     0.298 HD
ENDROOT
TORSDOF 0
ENDMDL
