MODEL 1
REMARK minimizedAffinity 12.3094978
REMARK minimizedRMSD -1
REMARK  0 active torsions:
REMARK  status: ('A' for Active; 'I' for Inactive)
ROOT
ATOM      1  N1  IND d   1      -1.085  -5.572  -3.144  0.00  0.00    -0.196 N 
ATOM      2  C2  IND d   1      -0.328  -4.670  -3.838  0.00  0.00     0.054 A 
ATOM      3  C3  IND d   1      -1.010  -3.516  -4.010  0.00  0.00    -0.031 A 
ATOM      4  C4  IND d   1      -3.343  -2.851  -3.147  0.00  0.00     0.051 A 
ATOM      5  C5  IND d   1      -4.434  -3.354  -2.496  0.00  0.00    -0.031 A 
ATOM      6  C6  IND d   1      -4.464  -4.647  -2.015  0.00  0.00     0.015 A 
ATOM      7  C7  IND d   1      -3.395  -5.485  -2.158  0.00  0.00    -0.016 A 
ATOM      8  C8  IND d   1      -2.288  -4.981  -2.826  0.00  0.00    -0.047 A 
ATOM      9  C9  IND d   1      -2.268  -3.683  -3.353  0.00  0.00    -0.096 A 
ATOM     10  HN1 IND d   1      -0.850  -6.374  -2.940  0.00  0.00     0.298 HD
ENDROOT
TORSDOF 0
ENDMDL
