MODEL 1
REMARK minimizedAffinity 16.8751602
REMARK minimizedRMSD -1
REMARK  0 active torsions:
REMARK  status: ('A' for Active; 'I' for Inactive)
ROOT
ATOM      1  N1  IND d   1      -5.199  -2.983  -3.163  0.00  0.00    -0.196 N 
ATOM      2  C2  IND d   1      -6.000  -4.066  -2.929  0.00  0.00     0.054 A 
ATOM      3  C3  IND d   1      -5.249  -5.173  -2.732  0.00  0.00    -0.031 A 
ATOM      4  C4  IND d   1      -2.688  -5.418  -2.648  0.00  0.00     0.051 A 
ATOM      5  C5  IND d   1      -1.531  -4.715  -2.840  0.00  0.00    -0.031 A 
ATOM      6  C6  IND d   1      -1.539  -3.371  -3.153  0.00  0.00     0.015 A 
ATOM      7  C7  IND d   1      -2.708  -2.674  -3.275  0.00  0.00    -0.016 A 
ATOM      8  C8  IND d   1      -3.884  -3.386  -3.088  0.00  0.00    -0.047 A 
ATOM      9  C9  IND d   1      -3.884  -4.760  -2.812  0.00  0.00    -0.096 A 
ATOM     10  HN1 IND d   1      -5.471  -2.185  -3.329  0.00  0.00     0.298 HD
ENDROOT
TORSDOF 0
ENDMDL
