MODEL 1
REMARK minimizedAffinity 8.03134632
REMARK minimizedRMSD -1
REMARK  0 active torsions:
REMARK  status: ('A' for Active; 'I' for Inactive)
ROOT
ATOM      1  N1  IND d   1       2.266   0.021   1.781  0.00  0.00    -0.196 N 
ATOM      2  C2  IND d   1       1.376   1.041   1.588  0.00  0.00     0.054 A 
ATOM      3  C3  IND d   1       1.906   1.980   0.773  0.00  0.00    -0.031 A 
ATOM      4  C4  IND d   1       4.176   2.000  -0.441  0.00  0.00     0.051 A 
ATOM      5  C5  IND d   1       5.347   1.303  -0.547  0.00  0.00    -0.031 A 
ATOM      6  C6  IND d   1       5.554   0.118   0.129  0.00  0.00     0.015 A 
ATOM      7  C7  IND d   1       4.589  -0.422   0.931  0.00  0.00    -0.016 A 
ATOM      8  C8  IND d   1       3.402   0.286   1.047  0.00  0.00    -0.047 A 
ATOM      9  C9  IND d   1       3.202   1.511   0.397  0.00  0.00    -0.096 A 
ATOM     10  HN1 IND d   1       2.139  -0.669   2.278  0.00  0.00     0.298 HD
ENDROOT
TORSDOF 0
ENDMDL
