MODEL 1
REMARK minimizedAffinity 12.3732786
REMARK minimizedRMSD -1
REMARK  0 active torsions:
REMARK  status: ('A' for Active; 'I' for Inactive)
ROOT
ATOM      1  N1  IND d   1      -4.396   3.125   3.939  0.00  0.00    -0.196 N 
ATOM      2  C2  IND d   1      -4.611   3.896   5.047  0.00  0.00     0.054 A 
ATOM      3  C3  IND d   1      -5.251   3.182   6.000  0.00  0.00    -0.031 A 
ATOM      4  C4  IND d   1      -5.951   0.705   5.994  0.00  0.00     0.051 A 
ATOM      5  C5  IND d   1      -6.000  -0.399   5.189  0.00  0.00    -0.031 A 
ATOM      6  C6  IND d   1      -5.504  -0.385   3.901  0.00  0.00     0.015 A 
ATOM      7  C7  IND d   1      -4.929   0.736   3.372  0.00  0.00    -0.016 A 
ATOM      8  C8  IND d   1      -4.884   1.860   4.184  0.00  0.00    -0.047 A 
ATOM      9  C9  IND d   1      -5.423   1.864   5.476  0.00  0.00    -0.096 A 
ATOM     10  HN1 IND d   1      -4.020   3.386   3.211  0.00  0.00     0.298 HD
ENDROOT
TORSDOF 0
ENDMDL
