MODEL 1
REMARK minimizedAffinity 15.4041529
REMARK minimizedRMSD -1
REMARK  0 active torsions:
REMARK  status: ('A' for Active; 'I' for Inactive)
ROOT
ATOM      1  N1  IND d   1       2.430   0.237   1.689  0.00  0.00    -0.196 N 
ATOM      2  C2  IND d   1       1.641   1.351   1.764  0.00  0.00     0.054 A 
ATOM      3  C3  IND d   1       2.133   2.331   0.973  0.00  0.00    -0.031 A 
ATOM      4  C4  IND d   1       4.162   2.290  -0.610  0.00  0.00     0.051 A 
ATOM      5  C5  IND d   1       5.214   1.505  -0.994  0.00  0.00    -0.031 A 
ATOM      6  C6  IND d   1       5.393   0.232  -0.494  0.00  0.00     0.015 A 
ATOM      7  C7  IND d   1       4.517  -0.312   0.402  0.00  0.00    -0.016 A 
ATOM      8  C8  IND d   1       3.452   0.484   0.799  0.00  0.00    -0.047 A 
ATOM      9  C9  IND d   1       3.289   1.793   0.328  0.00  0.00    -0.096 A 
ATOM     10  HN1 IND d   1       2.308  -0.494   2.123  0.00  0.00     0.298 HD
ENDROOT
TORSDOF 0
ENDMDL
