MODEL 1
REMARK minimizedAffinity 14.4089222
REMARK minimizedRMSD -1
REMARK  0 active torsions:
REMARK  status: ('A' for Active; 'I' for Inactive)
ROOT
ATOM      1  N1  IND d   1       4.104   1.505  -1.534  0.00  0.00    -0.196 N 
ATOM      2  C2  IND d   1       3.389   2.555  -2.038  0.00  0.00     0.054 A 
ATOM      3  C3  IND d   1       2.228   2.702  -1.361  0.00  0.00    -0.031 A 
ATOM      4  C4  IND d   1       1.346   1.396   0.674  0.00  0.00     0.051 A 
ATOM      5  C5  IND d   1       1.630   0.322   1.471  0.00  0.00    -0.031 A 
ATOM      6  C6  IND d   1       2.777  -0.425   1.305  0.00  0.00     0.015 A 
ATOM      7  C7  IND d   1       3.694  -0.119   0.339  0.00  0.00    -0.016 A 
ATOM      8  C8  IND d   1       3.405   0.966  -0.476  0.00  0.00    -0.047 A 
ATOM      9  C9  IND d   1       2.222   1.703  -0.340  0.00  0.00    -0.096 A 
ATOM     10  HN1 IND d   1       4.863   1.228  -1.828  0.00  0.00     0.298 HD
ENDROOT
TORSDOF 0
ENDMDL
