MODEL 1
REMARK minimizedAffinity 27.9341946
REMARK minimizedRMSD -1
REMARK  0 active torsions:
REMARK  status: ('A' for Active; 'I' for Inactive)
ROOT
ATOM      1  N1  IND d   1      -0.772  -2.799   1.510  0.00  0.00    -0.196 N 
ATOM      2  C2  IND d   1      -1.317  -2.108   0.464  0.00  0.00     0.054 A 
ATOM      3  C3  IND d   1      -2.376  -2.780  -0.042  0.00  0.00    -0.031 A 
ATOM      4  C4  IND d   1      -3.450  -4.979   0.755  0.00  0.00     0.051 A 
ATOM      5  C5  IND d   1      -3.282  -5.997   1.651  0.00  0.00    -0.031 A 
ATOM      6  C6  IND d   1      -2.250  -6.000   2.567  0.00  0.00     0.015 A 
ATOM      7  C7  IND d   1      -1.349  -4.974   2.628  0.00  0.00    -0.016 A 
ATOM      8  C8  IND d   1      -1.512  -3.943   1.714  0.00  0.00    -0.047 A 
ATOM      9  C9  IND d   1      -2.533  -3.955   0.755  0.00  0.00    -0.096 A 
ATOM     10  HN1 IND d   1      -0.082  -2.560   1.964  0.00  0.00     0.298 HD
ENDROOT
TORSDOF 0
ENDMDL
