MODEL 1
REMARK minimizedAffinity 13.7609797
REMARK minimizedRMSD -1
REMARK  0 active torsions:
REMARK  status: ('A' for Active; 'I' for Inactive)
ROOT
ATOM      1  N1  IND d   1       5.006  -1.104   1.264  0.00  0.00    -0.196 N 
ATOM      2  C2  IND d   1       4.930  -0.795  -0.065  0.00  0.00     0.054 A 
ATOM      3  C3  IND d   1       3.771  -0.152  -0.332  0.00  0.00    -0.031 A 
ATOM      4  C4  IND d   1       1.902   0.588   1.276  0.00  0.00     0.051 A 
ATOM      5  C5  IND d   1       1.506   0.498   2.581  0.00  0.00    -0.031 A 
ATOM      6  C6  IND d   1       2.274  -0.140   3.534  0.00  0.00     0.015 A 
ATOM      7  C7  IND d   1       3.477  -0.706   3.218  0.00  0.00    -0.016 A 
ATOM      8  C8  IND d   1       3.878  -0.623   1.892  0.00  0.00    -0.047 A 
ATOM      9  C9  IND d   1       3.084  -0.014   0.912  0.00  0.00    -0.096 A 
ATOM     10  HN1 IND d   1       5.651  -1.528   1.645  0.00  0.00     0.298 HD
ENDROOT
TORSDOF 0
ENDMDL
