MODEL 1
REMARK minimizedAffinity 14.2076874
REMARK minimizedRMSD -1
REMARK  0 active torsions:
REMARK  status: ('A' for Active; 'I' for Inactive)
ROOT
ATOM      1  N1  IND d   1      -4.240   2.713   5.086  0.00  0.00    -0.196 N 
ATOM      2  C2  IND d   1      -4.079   1.835   4.051  0.00  0.00     0.054 A 
ATOM      3  C3  IND d   1      -4.577   2.359   2.908  0.00  0.00    -0.031 A 
ATOM      4  C4  IND d   1      -5.608   4.680   2.487  0.00  0.00     0.051 A 
ATOM      5  C5  IND d   1      -6.000   5.818   3.135  0.00  0.00    -0.031 A 
ATOM      6  C6  IND d   1      -5.819   5.984   4.493  0.00  0.00     0.015 A 
ATOM      7  C7  IND d   1      -5.226   5.018   5.255  0.00  0.00    -0.016 A 
ATOM      8  C8  IND d   1      -4.834   3.858   4.603  0.00  0.00    -0.047 A 
ATOM      9  C9  IND d   1      -5.053   3.667   3.232  0.00  0.00    -0.096 A 
ATOM     10  HN1 IND d   1      -4.009   2.573   5.903  0.00  0.00     0.298 HD
ENDROOT
TORSDOF 0
ENDMDL
