MODEL 1
REMARK minimizedAffinity 17.266861
REMARK minimizedRMSD -1
REMARK  0 active torsions:
REMARK  status: ('A' for Active; 'I' for Inactive)
ROOT
ATOM      1  N1  IND d   1       4.264   1.006  -1.980  0.00  0.00    -0.196 N 
ATOM      2  C2  IND d   1       3.938   2.211  -2.539  0.00  0.00     0.054 A 
ATOM      3  C3  IND d   1       3.007   2.841  -1.788  0.00  0.00    -0.031 A 
ATOM      4  C4  IND d   1       1.952   2.127   0.449  0.00  0.00     0.051 A 
ATOM      5  C5  IND d   1       1.907   1.088   1.335  0.00  0.00    -0.031 A 
ATOM      6  C6  IND d   1       2.663  -0.053   1.160  0.00  0.00     0.015 A 
ATOM      7  C7  IND d   1       3.504  -0.194   0.093  0.00  0.00    -0.016 A 
ATOM      8  C8  IND d   1       3.547   0.856  -0.813  0.00  0.00    -0.047 A 
ATOM      9  C9  IND d   1       2.750   1.999  -0.663  0.00  0.00    -0.096 A 
ATOM     10  HN1 IND d   1       4.823   0.438  -2.303  0.00  0.00     0.298 HD
ENDROOT
TORSDOF 0
ENDMDL
