MODEL 1
REMARK minimizedAffinity 17.3375931
REMARK minimizedRMSD -1
REMARK  0 active torsions:
REMARK  status: ('A' for Active; 'I' for Inactive)
ROOT
ATOM      1  N1  IND d   1      -0.607  -5.874  -3.350  0.00  0.00    -0.196 N 
ATOM      2  C2  IND d   1       0.215  -4.943  -3.922  0.00  0.00     0.054 A 
ATOM      3  C3  IND d   1      -0.343  -3.714  -3.848  0.00  0.00    -0.031 A 
ATOM      4  C4  IND d   1      -2.550  -2.983  -2.743  0.00  0.00     0.051 A 
ATOM      5  C5  IND d   1      -3.662  -3.482  -2.124  0.00  0.00    -0.031 A 
ATOM      6  C6  IND d   1      -3.813  -4.831  -1.874  0.00  0.00     0.015 A 
ATOM      7  C7  IND d   1      -2.850  -5.734  -2.225  0.00  0.00    -0.016 A 
ATOM      8  C8  IND d   1      -1.723  -5.231  -2.861  0.00  0.00    -0.047 A 
ATOM      9  C9  IND d   1      -1.583  -3.869  -3.156  0.00  0.00    -0.096 A 
ATOM     10  HN1 IND d   1      -0.453  -6.719  -3.303  0.00  0.00     0.298 HD
ENDROOT
TORSDOF 0
ENDMDL
