MODEL 1
REMARK minimizedAffinity 26.4575768
REMARK minimizedRMSD -1
REMARK  0 active torsions:
REMARK  status: ('A' for Active; 'I' for Inactive)
ROOT
ATOM      1  N1  IND d   1      -3.633  -2.505  -3.376  0.00  0.00    -0.196 N 
ATOM      2  C2  IND d   1      -2.347  -2.569  -2.916  0.00  0.00     0.054 A 
ATOM      3  C3  IND d   1      -2.163  -3.696  -2.192  0.00  0.00    -0.031 A 
ATOM      4  C4  IND d   1      -3.803  -5.623  -1.719  0.00  0.00     0.051 A 
ATOM      5  C5  IND d   1      -5.104  -5.999  -1.899  0.00  0.00    -0.031 A 
ATOM      6  C6  IND d   1      -6.000  -5.214  -2.597  0.00  0.00     0.015 A 
ATOM      7  C7  IND d   1      -5.622  -4.025  -3.153  0.00  0.00    -0.016 A 
ATOM      8  C8  IND d   1      -4.302  -3.637  -2.966  0.00  0.00    -0.047 A 
ATOM      9  C9  IND d   1      -3.400  -4.409  -2.223  0.00  0.00    -0.096 A 
ATOM     10  HN1 IND d   1      -3.967  -1.865  -3.843  0.00  0.00     0.298 HD
ENDROOT
TORSDOF 0
ENDMDL
