MODEL 1
REMARK minimizedAffinity 18.7769241
REMARK minimizedRMSD -1
REMARK  0 active torsions:
REMARK  status: ('A' for Active; 'I' for Inactive)
ROOT
ATOM      1  N1  IND d   1       3.588  -0.363   1.946  0.00  0.00    -0.196 N 
ATOM      2  C2  IND d   1       2.500   0.445   2.124  0.00  0.00     0.054 A 
ATOM      3  C3  IND d   1       2.509   1.452   1.223  0.00  0.00    -0.031 A 
ATOM      4  C4  IND d   1       4.158   1.911  -0.701  0.00  0.00     0.051 A 
ATOM      5  C5  IND d   1       5.333   1.469  -1.241  0.00  0.00    -0.031 A 
ATOM      6  C6  IND d   1       5.999   0.370  -0.738  0.00  0.00     0.015 A 
ATOM      7  C7  IND d   1       5.506  -0.338   0.322  0.00  0.00    -0.016 A 
ATOM      8  C8  IND d   1       4.316   0.112   0.877  0.00  0.00    -0.047 A 
ATOM      9  C9  IND d   1       3.658   1.252   0.398  0.00  0.00    -0.096 A 
ATOM     10  HN1 IND d   1       3.785  -1.052   2.421  0.00  0.00     0.298 HD
ENDROOT
TORSDOF 0
ENDMDL
