MODEL 1
REMARK minimizedAffinity -1.22648275
REMARK minimizedRMSD -1
REMARK  1 active torsions:
REMARK  status: ('A' for Active; 'I' for Inactive)
REMARK    1  A    between atoms: N_2  and  C1_3 
ROOT
ATOM      1  C1  UNL d   1      -0.360   2.715   0.150  0.00  0.00     0.143 A 
ATOM      2  C2  UNL d   1      -0.373   2.799  -1.247  0.00  0.00    -0.057 A 
ATOM      3  C3  UNL d   1      -0.022   3.983  -1.906  0.00  0.00     0.033 A 
ATOM      4  C4  UNL d   1       0.321   5.117  -1.177  0.00  0.00    -0.042 A 
ATOM      5  C5  UNL d   1       0.316   5.064   0.212  0.00  0.00     0.033 A 
ATOM      6  C6  UNL d   1      -0.029   3.877   0.865  0.00  0.00    -0.057 A 
ENDROOT
BRANCH   1   7
ATOM      7  N   UNL d   1      -0.794   1.597   0.866  0.00  0.00    -0.732 N 
ATOM      8  C   UNL d   1      -1.428   1.749   2.158  0.00  0.00     0.284 C 
ATOM      9  H3  UNL d   1      -1.231   0.898   0.269  0.00  0.00     0.395 HD
ENDBRANCH   1   7
TORSDOF 1
ENDMDL
