MODEL 1
REMARK minimizedAffinity 13.0691605
REMARK minimizedRMSD -1
REMARK  1 active torsions:
REMARK  status: ('A' for Active; 'I' for Inactive)
REMARK    1  A    between atoms: N_2  and  C1_3 
ROOT
ATOM      1  C1  UNL d   1      -3.758  -2.938   5.235  0.00  0.00     0.143 A 
ATOM      2  C2  UNL d   1      -4.906  -2.694   5.997  0.00  0.00    -0.057 A 
ATOM      3  C3  UNL d   1      -5.987  -3.583   5.985  0.00  0.00     0.033 A 
ATOM      4  C4  UNL d   1      -5.952  -4.721   5.186  0.00  0.00    -0.042 A 
ATOM      5  C5  UNL d   1      -4.831  -4.970   4.401  0.00  0.00     0.033 A 
ATOM      6  C6  UNL d   1      -3.752  -4.082   4.422  0.00  0.00    -0.057 A 
ENDROOT
BRANCH   1   7
ATOM      7  N   UNL d   1      -2.691  -2.042   5.128  0.00  0.00    -0.732 N 
ATOM      8  C   UNL d   1      -1.473  -2.425   4.446  0.00  0.00     0.284 C 
ATOM      9  H3  UNL d   1      -2.999  -1.093   4.929  0.00  0.00     0.395 HD
ENDBRANCH   1   7
TORSDOF 1
ENDMDL
