MODEL 1
REMARK minimizedAffinity 3.17929387
REMARK minimizedRMSD -1
REMARK  1 active torsions:
REMARK  status: ('A' for Active; 'I' for Inactive)
REMARK    1  A    between atoms: N_2  and  C1_3 
ROOT
ATOM      1  C1  UNL d   1      -4.521  -3.404   5.343  0.00  0.00     0.143 A 
ATOM      2  C2  UNL d   1      -5.239  -4.409   6.000  0.00  0.00    -0.057 A 
ATOM      3  C3  UNL d   1      -5.958  -5.374   5.284  0.00  0.00     0.033 A 
ATOM      4  C4  UNL d   1      -5.996  -5.333   3.894  0.00  0.00    -0.042 A 
ATOM      5  C5  UNL d   1      -5.310  -4.328   3.221  0.00  0.00     0.033 A 
ATOM      6  C6  UNL d   1      -4.588  -3.372   3.941  0.00  0.00    -0.057 A 
ENDROOT
BRANCH   1   7
ATOM      7  N   UNL d   1      -3.867  -2.359   6.000  0.00  0.00    -0.732 N 
ATOM      8  C   UNL d   1      -3.006  -1.453   5.270  0.00  0.00     0.284 C 
ATOM      9  H3  UNL d   1      -4.460  -1.903   6.690  0.00  0.00     0.395 HD
ENDBRANCH   1   7
TORSDOF 1
ENDMDL
