MODEL 1
REMARK minimizedAffinity 0.131629184
REMARK minimizedRMSD -1
REMARK  1 active torsions:
REMARK  status: ('A' for Active; 'I' for Inactive)
REMARK    1  A    between atoms: N_2  and  C1_3 
ROOT
ATOM      1  C1  UNL d   1       0.378   3.422   0.336  0.00  0.00     0.143 A 
ATOM      2  C2  UNL d   1      -0.693   2.525   0.418  0.00  0.00    -0.057 A 
ATOM      3  C3  UNL d   1      -1.026   1.900   1.626  0.00  0.00     0.033 A 
ATOM      4  C4  UNL d   1      -0.273   2.141   2.771  0.00  0.00    -0.042 A 
ATOM      5  C5  UNL d   1       0.810   3.010   2.707  0.00  0.00     0.033 A 
ATOM      6  C6  UNL d   1       1.134   3.635   1.499  0.00  0.00    -0.057 A 
ENDROOT
BRANCH   1   7
ATOM      7  N   UNL d   1       0.819   3.998  -0.858  0.00  0.00    -0.732 N 
ATOM      8  C   UNL d   1       0.118   3.752  -2.099  0.00  0.00     0.284 C 
ATOM      9  H3  UNL d   1       1.121   4.962  -0.735  0.00  0.00     0.395 HD
ENDBRANCH   1   7
TORSDOF 1
ENDMDL
