MODEL 1
REMARK minimizedAffinity -4.54182148
REMARK minimizedRMSD -1
REMARK  1 active torsions:
REMARK  status: ('A' for Active; 'I' for Inactive)
REMARK    1  A    between atoms: N_2  and  C1_3 
ROOT
ATOM      1  C1  UNL d   1      -5.382  -1.269  -1.479  0.00  0.00     0.143 A 
ATOM      2  C2  UNL d   1      -4.129  -0.756  -1.128  0.00  0.00    -0.057 A 
ATOM      3  C3  UNL d   1      -3.536   0.278  -1.864  0.00  0.00     0.033 A 
ATOM      4  C4  UNL d   1      -4.175   0.798  -2.984  0.00  0.00    -0.042 A 
ATOM      5  C5  UNL d   1      -5.410   0.285  -3.366  0.00  0.00     0.033 A 
ATOM      6  C6  UNL d   1      -6.000  -0.742  -2.624  0.00  0.00    -0.057 A 
ENDROOT
BRANCH   1   7
ATOM      7  N   UNL d   1      -5.979  -2.363  -0.847  0.00  0.00    -0.732 N 
ATOM      8  C   UNL d   1      -5.332  -3.011   0.273  0.00  0.00     0.284 C 
ATOM      9  H3  UNL d   1      -6.984  -2.246  -0.736  0.00  0.00     0.395 HD
ENDBRANCH   1   7
TORSDOF 1
ENDMDL
