MODEL 1
REMARK minimizedAffinity -1.97717202
REMARK minimizedRMSD -1
REMARK  1 active torsions:
REMARK  status: ('A' for Active; 'I' for Inactive)
REMARK    1  A    between atoms: N_2  and  C1_3 
ROOT
ATOM      1  C1  UNL d   1      -4.215  -3.748   3.974  0.00  0.00     0.143 A 
ATOM      2  C2  UNL d   1      -2.858  -3.416   3.901  0.00  0.00    -0.057 A 
ATOM      3  C3  UNL d   1      -2.254  -2.607   4.871  0.00  0.00     0.033 A 
ATOM      4  C4  UNL d   1      -3.007  -2.090   5.920  0.00  0.00    -0.042 A 
ATOM      5  C5  UNL d   1      -4.363  -2.386   6.000  0.00  0.00     0.033 A 
ATOM      6  C6  UNL d   1      -4.959  -3.200   5.031  0.00  0.00    -0.057 A 
ENDROOT
BRANCH   1   7
ATOM      7  N   UNL d   1      -4.895  -4.467   2.988  0.00  0.00    -0.732 N 
ATOM      8  C   UNL d   1      -5.955  -5.385   3.344  0.00  0.00     0.284 C 
ATOM      9  H3  UNL d   1      -5.092  -3.904   2.164  0.00  0.00     0.395 HD
ENDBRANCH   1   7
TORSDOF 1
ENDMDL
