MODEL 1
REMARK minimizedAffinity 2.42480969
REMARK minimizedRMSD -1
REMARK  1 active torsions:
REMARK  status: ('A' for Active; 'I' for Inactive)
REMARK    1  A    between atoms: N_2  and  C1_3 
ROOT
ATOM      1  C1  UNL d   1      -0.134   2.348   0.598  0.00  0.00     0.143 A 
ATOM      2  C2  UNL d   1      -0.955   1.248   0.872  0.00  0.00    -0.057 A 
ATOM      3  C3  UNL d   1      -1.311   0.917   2.185  0.00  0.00     0.033 A 
ATOM      4  C4  UNL d   1      -0.827   1.664   3.253  0.00  0.00    -0.042 A 
ATOM      5  C5  UNL d   1       0.010   2.746   3.006  0.00  0.00     0.033 A 
ATOM      6  C6  UNL d   1       0.357   3.077   1.693  0.00  0.00    -0.057 A 
ENDROOT
BRANCH   1   7
ATOM      7  N   UNL d   1       0.335   2.670  -0.678  0.00  0.00    -0.732 N 
ATOM      8  C   UNL d   1      -0.589   2.989  -1.744  0.00  0.00     0.284 C 
ATOM      9  H3  UNL d   1       1.159   3.266  -0.649  0.00  0.00     0.395 HD
ENDBRANCH   1   7
TORSDOF 1
ENDMDL
