MODEL 1
REMARK minimizedAffinity 11.1422148
REMARK minimizedRMSD -1
REMARK  1 active torsions:
REMARK  status: ('A' for Active; 'I' for Inactive)
REMARK    1  A    between atoms: N_2  and  C1_3 
ROOT
ATOM      1  C1  UNL d   1      -2.226   4.370   0.654  0.00  0.00     0.143 A 
ATOM      2  C2  UNL d   1      -1.547   5.592   0.630  0.00  0.00    -0.057 A 
ATOM      3  C3  UNL d   1      -0.215   5.674   0.207  0.00  0.00     0.033 A 
ATOM      4  C4  UNL d   1       0.473   4.527  -0.173  0.00  0.00    -0.042 A 
ATOM      5  C5  UNL d   1      -0.175   3.297  -0.134  0.00  0.00     0.033 A 
ATOM      6  C6  UNL d   1      -1.508   3.222   0.283  0.00  0.00    -0.057 A 
ENDROOT
BRANCH   1   7
ATOM      7  N   UNL d   1      -3.520   4.208   1.157  0.00  0.00    -0.732 N 
ATOM      8  C   UNL d   1      -4.326   5.360   1.501  0.00  0.00     0.284 C 
ATOM      9  H3  UNL d   1      -4.032   3.469   0.681  0.00  0.00     0.395 HD
ENDBRANCH   1   7
TORSDOF 1
ENDMDL
