MODEL 1
REMARK minimizedAffinity 0.465119421
REMARK minimizedRMSD -1
REMARK  1 active torsions:
REMARK  status: ('A' for Active; 'I' for Inactive)
REMARK    1  A    between atoms: N_2  and  C1_3 
ROOT
ATOM      1  C1  UNL d   1      -0.206   2.470   2.033  0.00  0.00     0.143 A 
ATOM      2  C2  UNL d   1      -0.042   2.536   3.420  0.00  0.00    -0.057 A 
ATOM      3  C3  UNL d   1      -0.645   1.600   4.268  0.00  0.00     0.033 A 
ATOM      4  C4  UNL d   1      -1.450   0.594   3.744  0.00  0.00    -0.042 A 
ATOM      5  C5  UNL d   1      -1.648   0.524   2.369  0.00  0.00     0.033 A 
ATOM      6  C6  UNL d   1      -1.037   1.458   1.527  0.00  0.00    -0.057 A 
ENDROOT
BRANCH   1   7
ATOM      7  N   UNL d   1       0.286   3.430   1.144  0.00  0.00    -0.732 N 
ATOM      8  C   UNL d   1       0.265   3.192  -0.283  0.00  0.00     0.284 C 
ATOM      9  H3  UNL d   1       0.027   4.376   1.412  0.00  0.00     0.395 HD
ENDBRANCH   1   7
TORSDOF 1
ENDMDL
