MODEL 1
REMARK minimizedAffinity -5.11289644
REMARK minimizedRMSD -1
REMARK  0 active torsions:
REMARK  status: ('A' for Active; 'I' for Inactive)
ROOT
ATOM      1  C2' OXE d   1       0.884  -0.655   2.104  0.00  0.00     0.078 C 
ATOM      2  C1' OXE d   1       0.143   1.996   1.554  0.00  0.00     0.078 C 
ATOM      3  C1  OXE d   1       0.205   1.029   0.399  0.00  0.00    -0.078 A 
ATOM      4  C2  OXE d   1       0.614  -0.255   0.670  0.00  0.00    -0.078 A 
ATOM      5  C3  OXE d   1       0.636  -1.201  -0.350  0.00  0.00     0.003 A 
ATOM      6  C4  OXE d   1       0.395  -0.821  -1.676  0.00  0.00    -0.002 A 
ATOM      7  C5  OXE d   1       0.015   0.491  -1.980  0.00  0.00    -0.002 A 
ATOM      8  C6  OXE d   1      -0.125   1.416  -0.951  0.00  0.00     0.003 A 
ENDROOT
TORSDOF 0
ENDMDL
