MODEL 1
REMARK minimizedAffinity -2.08651876
REMARK minimizedRMSD -1
REMARK  0 active torsions:
REMARK  status: ('A' for Active; 'I' for Inactive)
ROOT
ATOM      1  C2' OXE d   1      -0.044  -0.306   0.630  0.00  0.00     0.078 C 
ATOM      2  C1' OXE d   1       1.007  -0.316  -1.973  0.00  0.00     0.078 C 
ATOM      3  C1  OXE d   1       0.218  -1.522  -1.528  0.00  0.00    -0.078 A 
ATOM      4  C2  OXE d   1      -0.252  -1.529  -0.237  0.00  0.00    -0.078 A 
ATOM      5  C3  OXE d   1      -1.032  -2.593   0.206  0.00  0.00     0.003 A 
ATOM      6  C4  OXE d   1      -1.211  -3.725  -0.598  0.00  0.00    -0.002 A 
ATOM      7  C5  OXE d   1      -0.707  -3.755  -1.903  0.00  0.00    -0.002 A 
ATOM      8  C6  OXE d   1      -0.027  -2.647  -2.397  0.00  0.00     0.003 A 
ENDROOT
TORSDOF 0
ENDMDL
