MODEL 1
REMARK minimizedAffinity -6.24704218
REMARK minimizedRMSD -1
REMARK  0 active torsions:
REMARK  status: ('A' for Active; 'I' for Inactive)
ROOT
ATOM      1  C2' OXE d   1       0.394  -0.690  -0.624  0.00  0.00     0.078 C 
ATOM      2  C1' OXE d   1       0.257  -0.288   2.151  0.00  0.00     0.078 C 
ATOM      3  C1  OXE d   1      -0.309   0.786   1.255  0.00  0.00    -0.078 A 
ATOM      4  C2  OXE d   1      -0.195   0.602  -0.102  0.00  0.00    -0.078 A 
ATOM      5  C3  OXE d   1      -0.749   1.536  -0.972  0.00  0.00     0.003 A 
ATOM      6  C4  OXE d   1      -1.283   2.734  -0.481  0.00  0.00    -0.002 A 
ATOM      7  C5  OXE d   1      -1.372   2.959   0.896  0.00  0.00    -0.002 A 
ATOM      8  C6  OXE d   1      -0.929   1.979   1.777  0.00  0.00     0.003 A 
ENDROOT
TORSDOF 0
ENDMDL
