MODEL 1
REMARK minimizedAffinity -2.26194143
REMARK minimizedRMSD -1
REMARK  0 active torsions:
REMARK  status: ('A' for Active; 'I' for Inactive)
ROOT
ATOM      1  C2' OXE d   1       0.434  -1.430  -0.783  0.00  0.00     0.078 C 
ATOM      2  C1' OXE d   1       0.460  -1.118   2.007  0.00  0.00     0.078 C 
ATOM      3  C1  OXE d   1       0.156   0.097   1.166  0.00  0.00    -0.078 A 
ATOM      4  C2  OXE d   1       0.191  -0.055  -0.199  0.00  0.00    -0.078 A 
ATOM      5  C3  OXE d   1      -0.135   1.020  -1.021  0.00  0.00     0.003 A 
ATOM      6  C4  OXE d   1      -0.349   2.291  -0.474  0.00  0.00    -0.002 A 
ATOM      7  C5  OXE d   1      -0.350   2.476   0.913  0.00  0.00    -0.002 A 
ATOM      8  C6  OXE d   1      -0.142   1.383   1.746  0.00  0.00     0.003 A 
ENDROOT
TORSDOF 0
ENDMDL
