MODEL 1
REMARK minimizedAffinity -6.79191303
REMARK minimizedRMSD -1
REMARK  0 active torsions:
REMARK  status: ('A' for Active; 'I' for Inactive)
ROOT
ATOM      1  C2' OXE d   1      -0.056  -0.176  -1.063  0.00  0.00     0.078 C 
ATOM      2  C1' OXE d   1       0.209  -0.345   1.727  0.00  0.00     0.078 C 
ATOM      3  C1  OXE d   1      -0.382   0.917   1.152  0.00  0.00    -0.078 A 
ATOM      4  C2  OXE d   1      -0.465   1.010  -0.217  0.00  0.00    -0.078 A 
ATOM      5  C3  OXE d   1      -1.053   2.131  -0.797  0.00  0.00     0.003 A 
ATOM      6  C4  OXE d   1      -1.420   3.228  -0.008  0.00  0.00    -0.002 A 
ATOM      7  C5  OXE d   1      -1.307   3.170   1.385  0.00  0.00    -0.002 A 
ATOM      8  C6  OXE d   1      -0.831   2.008   1.982  0.00  0.00     0.003 A 
ENDROOT
TORSDOF 0
ENDMDL
