MODEL 1
REMARK minimizedAffinity -5.9422636
REMARK minimizedRMSD -1
REMARK  0 active torsions:
REMARK  status: ('A' for Active; 'I' for Inactive)
ROOT
ATOM      1  C2' OXE d   1       0.862  -0.600   1.989  0.00  0.00     0.078 C 
ATOM      2  C1' OXE d   1       0.608  -0.890  -0.792  0.00  0.00     0.078 C 
ATOM      3  C1  OXE d   1       0.033   0.352  -0.158  0.00  0.00    -0.078 A 
ATOM      4  C2  OXE d   1       0.121   0.463   1.208  0.00  0.00    -0.078 A 
ATOM      5  C3  OXE d   1      -0.345   1.614   1.837  0.00  0.00     0.003 A 
ATOM      6  C4  OXE d   1      -1.039   2.589   1.109  0.00  0.00    -0.002 A 
ATOM      7  C5  OXE d   1      -1.174   2.476  -0.278  0.00  0.00    -0.002 A 
ATOM      8  C6  OXE d   1      -0.608   1.387  -0.932  0.00  0.00     0.003 A 
ENDROOT
TORSDOF 0
ENDMDL
