MODEL 1
REMARK minimizedAffinity -2.30296803
REMARK minimizedRMSD -1
REMARK  0 active torsions:
REMARK  status: ('A' for Active; 'I' for Inactive)
ROOT
ATOM      1  C2' OXE d   1       0.326   0.509   1.554  0.00  0.00     0.078 C 
ATOM      2  C1' OXE d   1      -0.330   1.205  -1.085  0.00  0.00     0.078 C 
ATOM      3  C1  OXE d   1       0.170   2.297  -0.173  0.00  0.00    -0.078 A 
ATOM      4  C2  OXE d   1       0.445   1.957   1.130  0.00  0.00    -0.078 A 
ATOM      5  C3  OXE d   1       0.961   2.914   1.998  0.00  0.00     0.003 A 
ATOM      6  C4  OXE d   1       1.058   4.253   1.601  0.00  0.00    -0.002 A 
ATOM      7  C5  OXE d   1       0.746   4.629   0.290  0.00  0.00    -0.002 A 
ATOM      8  C6  OXE d   1       0.342   3.658  -0.619  0.00  0.00     0.003 A 
ENDROOT
TORSDOF 0
ENDMDL
