MODEL 1
REMARK minimizedAffinity -2.05173445
REMARK minimizedRMSD -1
REMARK  0 active torsions:
REMARK  status: ('A' for Active; 'I' for Inactive)
ROOT
ATOM      1  C2' OXE d   1      -0.059   3.934  -0.445  0.00  0.00     0.078 C 
ATOM      2  C1' OXE d   1      -2.078   1.987  -0.561  0.00  0.00     0.078 C 
ATOM      3  C1  OXE d   1      -1.085   1.904   0.571  0.00  0.00    -0.078 A 
ATOM      4  C2  OXE d   1      -0.073   2.834   0.594  0.00  0.00    -0.078 A 
ATOM      5  C3  OXE d   1       0.838   2.836   1.646  0.00  0.00     0.003 A 
ATOM      6  C4  OXE d   1       0.824   1.808   2.597  0.00  0.00    -0.002 A 
ATOM      7  C5  OXE d   1      -0.174   0.829   2.570  0.00  0.00    -0.002 A 
ATOM      8  C6  OXE d   1      -1.159   0.887   1.590  0.00  0.00     0.003 A 
ENDROOT
TORSDOF 0
ENDMDL
