MODEL 1
REMARK minimizedAffinity 2.05514121
REMARK minimizedRMSD -1
REMARK  0 active torsions:
REMARK  status: ('A' for Active; 'I' for Inactive)
ROOT
ATOM      1  C2' OXE d   1       0.342   1.889   2.599  0.00  0.00     0.078 C 
ATOM      2  C1' OXE d   1       1.447  -0.691   2.537  0.00  0.00     0.078 C 
ATOM      3  C1  OXE d   1       0.915  -0.122   1.245  0.00  0.00    -0.078 A 
ATOM      4  C2  OXE d   1       0.333   1.122   1.295  0.00  0.00    -0.078 A 
ATOM      5  C3  OXE d   1      -0.124   1.716   0.122  0.00  0.00     0.003 A 
ATOM      6  C4  OXE d   1      -0.138   0.996  -1.079  0.00  0.00    -0.002 A 
ATOM      7  C5  OXE d   1       0.413  -0.288  -1.143  0.00  0.00    -0.002 A 
ATOM      8  C6  OXE d   1       0.981  -0.844  -0.001  0.00  0.00     0.003 A 
ENDROOT
TORSDOF 0
ENDMDL
