MODEL 1
REMARK minimizedAffinity -3.6817286
REMARK minimizedRMSD -1
REMARK  0 active torsions:
REMARK  status: ('A' for Active; 'I' for Inactive)
ROOT
ATOM      1  C1  BNZ d   1      -0.086  -0.277   0.396  0.00  0.00     0.000 A 
ATOM      2  C2  BNZ d   1       1.074  -0.671   1.008  0.00  0.00     0.000 A 
ATOM      3  C3  BNZ d   1       2.104   0.209   1.188  0.00  0.00     0.000 A 
ATOM      4  C4  BNZ d   1       1.990   1.468   0.719  0.00  0.00     0.000 A 
ATOM      5  C5  BNZ d   1       0.831   1.878   0.091  0.00  0.00     0.000 A 
ATOM      6  C6  BNZ d   1      -0.219   1.000  -0.053  0.00  0.00     0.000 A 
ENDROOT
TORSDOF 0
ENDMDL
