MODEL 1
REMARK minimizedAffinity -2.67784333
REMARK minimizedRMSD -1
REMARK  0 active torsions:
REMARK  status: ('A' for Active; 'I' for Inactive)
ROOT
ATOM      1  C1  BNZ d   1      -1.476   0.064   0.038  0.00  0.00     0.000 A 
ATOM      2  C2  BNZ d   1      -0.224   0.532   0.337  0.00  0.00     0.000 A 
ATOM      3  C3  BNZ d   1       0.633   0.920  -0.654  0.00  0.00     0.000 A 
ATOM      4  C4  BNZ d   1       0.254   0.803  -1.943  0.00  0.00     0.000 A 
ATOM      5  C5  BNZ d   1      -1.002   0.324  -2.261  0.00  0.00     0.000 A 
ATOM      6  C6  BNZ d   1      -1.877  -0.029  -1.259  0.00  0.00     0.000 A 
ENDROOT
TORSDOF 0
ENDMDL
