MODEL 1
REMARK minimizedAffinity -2.82440829
REMARK minimizedRMSD -1
REMARK  0 active torsions:
REMARK  status: ('A' for Active; 'I' for Inactive)
ROOT
ATOM      1  C1  BNZ d   1       0.083  -1.568   1.167  0.00  0.00     0.000 A 
ATOM      2  C2  BNZ d   1      -1.226  -1.457   0.780  0.00  0.00     0.000 A 
ATOM      3  C3  BNZ d   1      -1.659  -0.363   0.083  0.00  0.00     0.000 A 
ATOM      4  C4  BNZ d   1      -0.794   0.634  -0.191  0.00  0.00     0.000 A 
ATOM      5  C5  BNZ d   1       0.527   0.541   0.201  0.00  0.00     0.000 A 
ATOM      6  C6  BNZ d   1       0.968  -0.579   0.868  0.00  0.00     0.000 A 
ENDROOT
TORSDOF 0
ENDMDL
