MODEL 1
REMARK minimizedAffinity -3.83335972
REMARK minimizedRMSD -1
REMARK  0 active torsions:
REMARK  status: ('A' for Active; 'I' for Inactive)
ROOT
ATOM      1  C1  BNZ d   1      -0.330   0.486   0.276  0.00  0.00     0.000 A 
ATOM      2  C2  BNZ d   1       0.713   1.370   0.195  0.00  0.00     0.000 A 
ATOM      3  C3  BNZ d   1       1.939   1.055   0.711  0.00  0.00     0.000 A 
ATOM      4  C4  BNZ d   1       2.109  -0.125   1.342  0.00  0.00     0.000 A 
ATOM      5  C5  BNZ d   1       1.065  -1.022   1.441  0.00  0.00     0.000 A 
ATOM      6  C6  BNZ d   1      -0.157  -0.718   0.886  0.00  0.00     0.000 A 
ENDROOT
TORSDOF 0
ENDMDL
