MODEL 1
REMARK minimizedAffinity -3.71674085
REMARK minimizedRMSD -1
REMARK  0 active torsions:
REMARK  status: ('A' for Active; 'I' for Inactive)
ROOT
ATOM      1  C1  BNZ d   1       2.299   1.209   0.515  0.00  0.00     0.000 A 
ATOM      2  C2  BNZ d   1       1.211   1.456  -0.280  0.00  0.00     0.000 A 
ATOM      3  C3  BNZ d   1       0.125   0.627  -0.256  0.00  0.00     0.000 A 
ATOM      4  C4  BNZ d   1       0.143  -0.468   0.531  0.00  0.00     0.000 A 
ATOM      5  C5  BNZ d   1       1.236  -0.736   1.331  0.00  0.00     0.000 A 
ATOM      6  C6  BNZ d   1       2.312   0.122   1.333  0.00  0.00     0.000 A 
ENDROOT
TORSDOF 0
ENDMDL
