MODEL 1
REMARK minimizedAffinity -1.88618553
REMARK minimizedRMSD -1
REMARK  0 active torsions:
REMARK  status: ('A' for Active; 'I' for Inactive)
ROOT
ATOM      1  O1  BZF d   1      -0.218   1.407   0.345  0.00  0.00    -0.204 OA
ATOM      2  C2  BZF d   1      -1.559   1.124   0.168  0.00  0.00     0.174 A 
ATOM      3  C3  BZF d   1      -1.725  -0.135  -0.286  0.00  0.00    -0.012 A 
ATOM      4  C3A BZF d   1      -0.412  -0.703  -0.312  0.00  0.00    -0.107 A 
ATOM      5  C4  BZF d   1       0.073  -1.932  -0.656  0.00  0.00     0.055 A 
ATOM      6  C5  BZF d   1       1.416  -2.141  -0.640  0.00  0.00    -0.016 A 
ATOM      7  C6  BZF d   1       2.301  -1.143  -0.290  0.00  0.00     0.022 A 
ATOM      8  C7  BZF d   1       1.867   0.092   0.064  0.00  0.00     0.029 A 
ATOM      9  C7A BZF d   1       0.509   0.296   0.081  0.00  0.00     0.058 A 
ENDROOT
TORSDOF 0
ENDMDL
