MODEL 1
REMARK minimizedAffinity 1.05850184
REMARK minimizedRMSD -1
REMARK  0 active torsions:
REMARK  status: ('A' for Active; 'I' for Inactive)
ROOT
ATOM      1  O1  BZF d   1      -2.674   1.565   1.682  0.00  0.00    -0.204 OA
ATOM      2  C2  BZF d   1      -3.612   0.673   1.199  0.00  0.00     0.174 A 
ATOM      3  C3  BZF d   1      -3.082  -0.101   0.231  0.00  0.00    -0.012 A 
ATOM      4  C3A BZF d   1      -1.702   0.271   0.164  0.00  0.00    -0.107 A 
ATOM      5  C4  BZF d   1      -0.650  -0.156  -0.594  0.00  0.00     0.055 A 
ATOM      6  C5  BZF d   1       0.552   0.465  -0.465  0.00  0.00    -0.016 A 
ATOM      7  C6  BZF d   1       0.736   1.517   0.408  0.00  0.00     0.022 A 
ATOM      8  C7  BZF d   1      -0.277   1.972   1.186  0.00  0.00     0.029 A 
ATOM      9  C7A BZF d   1      -1.484   1.326   1.081  0.00  0.00     0.058 A 
ENDROOT
TORSDOF 0
ENDMDL
