MODEL 1
REMARK minimizedAffinity -5.82015085
REMARK minimizedRMSD -1
REMARK  0 active torsions:
REMARK  status: ('A' for Active; 'I' for Inactive)
ROOT
ATOM      1  O1  BZF d   1      -0.303   1.125  -0.345  0.00  0.00    -0.204 OA
ATOM      2  C2  BZF d   1      -1.082   0.085  -0.815  0.00  0.00     0.174 A 
ATOM      3  C3  BZF d   1      -0.377  -1.063  -0.853  0.00  0.00    -0.012 A 
ATOM      4  C3A BZF d   1       0.898  -0.740  -0.289  0.00  0.00    -0.107 A 
ATOM      5  C4  BZF d   1       2.027  -1.468  -0.040  0.00  0.00     0.055 A 
ATOM      6  C5  BZF d   1       3.125  -0.836   0.451  0.00  0.00    -0.016 A 
ATOM      7  C6  BZF d   1       3.132   0.521   0.700  0.00  0.00     0.022 A 
ATOM      8  C7  BZF d   1       2.035   1.283   0.474  0.00  0.00     0.029 A 
ATOM      9  C7A BZF d   1       0.913   0.642   0.009  0.00  0.00     0.058 A 
ENDROOT
TORSDOF 0
ENDMDL
