MODEL 1
REMARK minimizedAffinity 0.759263515
REMARK minimizedRMSD -1
REMARK  0 active torsions:
REMARK  status: ('A' for Active; 'I' for Inactive)
ROOT
ATOM      1  O1  BZF d   1      -2.555  -1.159   1.510  0.00  0.00    -0.204 OA
ATOM      2  C2  BZF d   1      -2.967   0.144   1.710  0.00  0.00     0.174 A 
ATOM      3  C3  BZF d   1      -2.112   1.011   1.129  0.00  0.00    -0.012 A 
ATOM      4  C3A BZF d   1      -1.154   0.195   0.449  0.00  0.00    -0.107 A 
ATOM      5  C4  BZF d   1      -0.063   0.474  -0.325  0.00  0.00     0.055 A 
ATOM      6  C5  BZF d   1       0.704  -0.551  -0.779  0.00  0.00    -0.016 A 
ATOM      7  C6  BZF d   1       0.415  -1.865  -0.475  0.00  0.00     0.022 A 
ATOM      8  C7  BZF d   1      -0.659  -2.192   0.284  0.00  0.00     0.029 A 
ATOM      9  C7A BZF d   1      -1.456  -1.160   0.717  0.00  0.00     0.058 A 
ENDROOT
TORSDOF 0
ENDMDL
