MODEL 1
REMARK minimizedAffinity -5.62656879
REMARK minimizedRMSD -1
REMARK  0 active torsions:
REMARK  status: ('A' for Active; 'I' for Inactive)
ROOT
ATOM      1  O1  BZF d   1       2.982  -1.235  -0.837  0.00  0.00    -0.204 OA
ATOM      2  C2  BZF d   1       2.031  -1.502   0.129  0.00  0.00     0.174 A 
ATOM      3  C3  BZF d   1       1.979  -0.505   1.037  0.00  0.00    -0.012 A 
ATOM      4  C3A BZF d   1       2.893   0.486   0.560  0.00  0.00    -0.107 A 
ATOM      5  C4  BZF d   1       3.270   1.715   1.021  0.00  0.00     0.055 A 
ATOM      6  C5  BZF d   1       4.241   2.400   0.361  0.00  0.00    -0.016 A 
ATOM      7  C6  BZF d   1       4.858   1.884  -0.760  0.00  0.00     0.022 A 
ATOM      8  C7  BZF d   1       4.515   0.671  -1.258  0.00  0.00     0.029 A 
ATOM      9  C7A BZF d   1       3.512  -0.009  -0.612  0.00  0.00     0.058 A 
ENDROOT
TORSDOF 0
ENDMDL
