MODEL 1
REMARK minimizedAffinity -6.12562323
REMARK minimizedRMSD -1
REMARK  0 active torsions:
REMARK  status: ('A' for Active; 'I' for Inactive)
ROOT
ATOM      1  O1  BZF d   1       0.030   1.733  -0.258  0.00  0.00    -0.204 OA
ATOM      2  C2  BZF d   1       1.072   2.616  -0.051  0.00  0.00     0.174 A 
ATOM      3  C3  BZF d   1       2.221   1.952   0.188  0.00  0.00    -0.012 A 
ATOM      4  C3A BZF d   1       1.895   0.568   0.035  0.00  0.00    -0.107 A 
ATOM      5  C4  BZF d   1       2.621  -0.585   0.132  0.00  0.00     0.055 A 
ATOM      6  C5  BZF d   1       1.987  -1.779  -0.002  0.00  0.00    -0.016 A 
ATOM      7  C6  BZF d   1       0.628  -1.858  -0.227  0.00  0.00     0.022 A 
ATOM      8  C7  BZF d   1      -0.134  -0.742  -0.336  0.00  0.00     0.029 A 
ATOM      9  C7A BZF d   1       0.510   0.467  -0.234  0.00  0.00     0.058 A 
ENDROOT
TORSDOF 0
ENDMDL
