MODEL 1
REMARK minimizedAffinity -4.91956043
REMARK minimizedRMSD -1
REMARK  0 active torsions:
REMARK  status: ('A' for Active; 'I' for Inactive)
ROOT
ATOM      1  O1  BZF d   1       2.294  -1.788   0.993  0.00  0.00    -0.204 OA
ATOM      2  C2  BZF d   1       3.061  -0.767   1.520  0.00  0.00     0.174 A 
ATOM      3  C3  BZF d   1       2.659   0.429   1.043  0.00  0.00    -0.012 A 
ATOM      4  C3A BZF d   1       1.512   0.146   0.236  0.00  0.00    -0.107 A 
ATOM      5  C4  BZF d   1       0.661   0.926  -0.493  0.00  0.00     0.055 A 
ATOM      6  C5  BZF d   1      -0.315   0.332  -1.228  0.00  0.00    -0.016 A 
ATOM      7  C6  BZF d   1      -0.465  -1.039  -1.261  0.00  0.00     0.022 A 
ATOM      8  C7  BZF d   1       0.352  -1.855  -0.551  0.00  0.00     0.029 A 
ATOM      9  C7A BZF d   1       1.318  -1.255   0.218  0.00  0.00     0.058 A 
ENDROOT
TORSDOF 0
ENDMDL
