MODEL 1
REMARK minimizedAffinity -5.63746977
REMARK minimizedRMSD -1
REMARK  0 active torsions:
REMARK  status: ('A' for Active; 'I' for Inactive)
ROOT
ATOM      1  O1  BZF d   1       1.402   1.301  -0.062  0.00  0.00    -0.204 OA
ATOM      2  C2  BZF d   1       2.662   0.980   0.405  0.00  0.00     0.174 A 
ATOM      3  C3  BZF d   1       2.856  -0.354   0.378  0.00  0.00    -0.012 A 
ATOM      4  C3A BZF d   1       1.676  -0.894  -0.224  0.00  0.00    -0.107 A 
ATOM      5  C4  BZF d   1       1.279  -2.162  -0.539  0.00  0.00     0.055 A 
ATOM      6  C5  BZF d   1       0.036  -2.357  -1.053  0.00  0.00    -0.016 A 
ATOM      7  C6  BZF d   1      -0.837  -1.309  -1.259  0.00  0.00     0.022 A 
ATOM      8  C7  BZF d   1      -0.486  -0.033  -0.967  0.00  0.00     0.029 A 
ATOM      9  C7A BZF d   1       0.782   0.171  -0.478  0.00  0.00     0.058 A 
ENDROOT
TORSDOF 0
ENDMDL
