MODEL 1
REMARK minimizedAffinity 2.16675091
REMARK minimizedRMSD -1
REMARK  0 active torsions:
REMARK  status: ('A' for Active; 'I' for Inactive)
ROOT
ATOM      1  N1  IND d   1       1.415  -1.040   0.578  0.00  0.00    -0.196 N 
ATOM      2  C2  IND d   1       0.428  -1.726  -0.073  0.00  0.00     0.054 A 
ATOM      3  C3  IND d   1      -0.534  -0.876  -0.497  0.00  0.00    -0.031 A 
ATOM      4  C4  IND d   1      -0.642   1.690  -0.324  0.00  0.00     0.051 A 
ATOM      5  C5  IND d   1       0.011   2.762   0.217  0.00  0.00    -0.031 A 
ATOM      6  C6  IND d   1       1.191   2.619   0.918  0.00  0.00     0.015 A 
ATOM      7  C7  IND d   1       1.770   1.394   1.095  0.00  0.00    -0.016 A 
ATOM      8  C8  IND d   1       1.106   0.303   0.553  0.00  0.00    -0.047 A 
ATOM      9  C9  IND d   1      -0.114   0.437  -0.123  0.00  0.00    -0.096 A 
ATOM     10  HN1 IND d   1       2.112  -1.388   0.942  0.00  0.00     0.298 HD
ENDROOT
TORSDOF 0
ENDMDL
