MODEL 1
REMARK minimizedAffinity 4.71727467
REMARK minimizedRMSD -1
REMARK  0 active torsions:
REMARK  status: ('A' for Active; 'I' for Inactive)
ROOT
ATOM      1  N1  IND d   1       0.496  -0.913   2.207  0.00  0.00    -0.196 N 
ATOM      2  C2  IND d   1       1.531  -0.907   3.100  0.00  0.00     0.054 A 
ATOM      3  C3  IND d   1       2.370   0.121   2.841  0.00  0.00    -0.031 A 
ATOM      4  C4  IND d   1       2.185   1.975   1.065  0.00  0.00     0.051 A 
ATOM      5  C5  IND d   1       1.433   2.371  -0.004  0.00  0.00    -0.031 A 
ATOM      6  C6  IND d   1       0.305   1.680  -0.398  0.00  0.00     0.015 A 
ATOM      7  C7  IND d   1      -0.121   0.569   0.274  0.00  0.00    -0.016 A 
ATOM      8  C8  IND d   1       0.645   0.160   1.356  0.00  0.00    -0.047 A 
ATOM      9  C9  IND d   1       1.815   0.833   1.734  0.00  0.00    -0.096 A 
ATOM     10  HN1 IND d   1      -0.141  -1.489   2.182  0.00  0.00     0.298 HD
ENDROOT
TORSDOF 0
ENDMDL
