MODEL 1
REMARK minimizedAffinity 5.20341396
REMARK minimizedRMSD -1
REMARK  0 active torsions:
REMARK  status: ('A' for Active; 'I' for Inactive)
ROOT
ATOM      1  N1  IND d   1       0.445  -2.483   2.302  0.00  0.00    -0.196 N 
ATOM      2  C2  IND d   1       1.352  -2.458   3.325  0.00  0.00     0.054 A 
ATOM      3  C3  IND d   1       2.161  -1.381   3.209  0.00  0.00    -0.031 A 
ATOM      4  C4  IND d   1       2.110   0.525   1.480  0.00  0.00     0.051 A 
ATOM      5  C5  IND d   1       1.484   0.921   0.331  0.00  0.00    -0.031 A 
ATOM      6  C6  IND d   1       0.457   0.190  -0.228  0.00  0.00     0.015 A 
ATOM      7  C7  IND d   1       0.008  -0.965   0.348  0.00  0.00    -0.016 A 
ATOM      8  C8  IND d   1       0.646  -1.374   1.510  0.00  0.00    -0.047 A 
ATOM      9  C9  IND d   1       1.717  -0.658   2.060  0.00  0.00    -0.096 A 
ATOM     10  HN1 IND d   1      -0.151  -3.089   2.175  0.00  0.00     0.298 HD
ENDROOT
TORSDOF 0
ENDMDL
