MODEL 1
REMARK minimizedAffinity 5.75827456
REMARK minimizedRMSD -1
REMARK  0 active torsions:
REMARK  status: ('A' for Active; 'I' for Inactive)
ROOT
ATOM      1  N1  IND d   1       0.010  -1.148   0.760  0.00  0.00    -0.196 N 
ATOM      2  C2  IND d   1       0.518  -2.265   1.362  0.00  0.00     0.054 A 
ATOM      3  C3  IND d   1       1.844  -2.118   1.584  0.00  0.00    -0.031 A 
ATOM      4  C4  IND d   1       3.363  -0.089   1.134  0.00  0.00     0.051 A 
ATOM      5  C5  IND d   1       3.360   1.153   0.562  0.00  0.00    -0.031 A 
ATOM      6  C6  IND d   1       2.217   1.703   0.019  0.00  0.00     0.015 A 
ATOM      7  C7  IND d   1       1.026   1.034   0.037  0.00  0.00    -0.016 A 
ATOM      8  C8  IND d   1       1.027  -0.230   0.611  0.00  0.00    -0.047 A 
ATOM      9  C9  IND d   1       2.193  -0.811   1.125  0.00  0.00    -0.096 A 
ATOM     10  HN1 IND d   1      -0.807  -1.037   0.516  0.00  0.00     0.298 HD
ENDROOT
TORSDOF 0
ENDMDL
