MODEL 1
REMARK minimizedAffinity 3.07435513
REMARK minimizedRMSD -1
REMARK  0 active torsions:
REMARK  status: ('A' for Active; 'I' for Inactive)
ROOT
ATOM      1  N1  IND d   1       0.165  -0.882   1.405  0.00  0.00    -0.196 N 
ATOM      2  C2  IND d   1      -0.098  -2.165   1.015  0.00  0.00     0.054 A 
ATOM      3  C3  IND d   1       1.000  -2.722   0.458  0.00  0.00    -0.031 A 
ATOM      4  C4  IND d   1       3.365  -1.745   0.177  0.00  0.00     0.051 A 
ATOM      5  C5  IND d   1       4.083  -0.594   0.347  0.00  0.00    -0.031 A 
ATOM      6  C6  IND d   1       3.520   0.542   0.893  0.00  0.00     0.015 A 
ATOM      7  C7  IND d   1       2.216   0.566   1.300  0.00  0.00    -0.016 A 
ATOM      8  C8  IND d   1       1.483  -0.599   1.122  0.00  0.00    -0.047 A 
ATOM      9  C9  IND d   1       2.037  -1.741   0.530  0.00  0.00    -0.096 A 
ATOM     10  HN1 IND d   1      -0.399  -0.341   1.766  0.00  0.00     0.298 HD
ENDROOT
TORSDOF 0
ENDMDL
