MODEL 1
REMARK minimizedAffinity -1.76449323
REMARK minimizedRMSD -1
REMARK  0 active torsions:
REMARK  status: ('A' for Active; 'I' for Inactive)
ROOT
ATOM      1  N1  IND d   1       4.386  -5.304  -5.997  0.00  0.00    -0.196 N 
ATOM      2  C2  IND d   1       3.039  -5.419  -5.795  0.00  0.00     0.054 A 
ATOM      3  C3  IND d   1       2.496  -4.207  -5.541  0.00  0.00    -0.031 A 
ATOM      4  C4  IND d   1       3.615  -1.889  -5.507  0.00  0.00     0.051 A 
ATOM      5  C5  IND d   1       4.836  -1.280  -5.598  0.00  0.00    -0.031 A 
ATOM      6  C6  IND d   1       5.992  -1.996  -5.834  0.00  0.00     0.015 A 
ATOM      7  C7  IND d   1       5.968  -3.352  -6.000  0.00  0.00    -0.016 A 
ATOM      8  C8  IND d   1       4.732  -3.974  -5.901  0.00  0.00    -0.047 A 
ATOM      9  C9  IND d   1       3.561  -3.258  -5.620  0.00  0.00    -0.096 A 
ATOM     10  HN1 IND d   1       4.926  -5.953  -6.157  0.00  0.00     0.298 HD
ENDROOT
TORSDOF 0
ENDMDL
