MODEL 1
REMARK minimizedAffinity -1.34894812
REMARK minimizedRMSD -1
REMARK  0 active torsions:
REMARK  status: ('A' for Active; 'I' for Inactive)
ROOT
ATOM      1  N1  IND d   1       1.339  -1.049   3.157  0.00  0.00    -0.196 N 
ATOM      2  C2  IND d   1       2.459  -0.660   3.837  0.00  0.00     0.054 A 
ATOM      3  C3  IND d   1       3.034   0.401   3.228  0.00  0.00    -0.031 A 
ATOM      4  C4  IND d   1       2.251   1.725   1.163  0.00  0.00     0.051 A 
ATOM      5  C5  IND d   1       1.301   1.725   0.180  0.00  0.00    -0.031 A 
ATOM      6  C6  IND d   1       0.293   0.783   0.140  0.00  0.00     0.015 A 
ATOM      7  C7  IND d   1       0.191  -0.192   1.092  0.00  0.00    -0.016 A 
ATOM      8  C8  IND d   1       1.158  -0.199   2.088  0.00  0.00    -0.047 A 
ATOM      9  C9  IND d   1       2.207   0.728   2.109  0.00  0.00    -0.096 A 
ATOM     10  HN1 IND d   1       0.833  -1.713   3.362  0.00  0.00     0.298 HD
ENDROOT
TORSDOF 0
ENDMDL
