MODEL 1
REMARK minimizedAffinity 0.169436067
REMARK minimizedRMSD -1
REMARK  0 active torsions:
REMARK  status: ('A' for Active; 'I' for Inactive)
ROOT
ATOM      1  N1  IND d   1       0.650  -0.894   1.583  0.00  0.00    -0.196 N 
ATOM      2  C2  IND d   1      -0.615  -0.842   1.068  0.00  0.00     0.054 A 
ATOM      3  C3  IND d   1      -0.916   0.421   0.690  0.00  0.00    -0.031 A 
ATOM      4  C4  IND d   1       0.552   2.535   0.730  0.00  0.00     0.051 A 
ATOM      5  C5  IND d   1       1.771   2.992   1.147  0.00  0.00    -0.031 A 
ATOM      6  C6  IND d   1       2.698   2.160   1.740  0.00  0.00     0.015 A 
ATOM      7  C7  IND d   1       2.444   0.831   1.929  0.00  0.00    -0.016 A 
ATOM      8  C8  IND d   1       1.205   0.365   1.513  0.00  0.00    -0.047 A 
ATOM      9  C9  IND d   1       0.243   1.213   0.950  0.00  0.00    -0.096 A 
ATOM     10  HN1 IND d   1       1.034  -1.596   1.898  0.00  0.00     0.298 HD
ENDROOT
TORSDOF 0
ENDMDL
