MODEL 1
REMARK minimizedAffinity 6.44078112
REMARK minimizedRMSD -1
REMARK  0 active torsions:
REMARK  status: ('A' for Active; 'I' for Inactive)
ROOT
ATOM      1  N1  IND d   1      -0.090   3.890   1.888  0.00  0.00    -0.196 N 
ATOM      2  C2  IND d   1       0.020   5.064   1.196  0.00  0.00     0.054 A 
ATOM      3  C3  IND d   1       0.363   4.822  -0.089  0.00  0.00    -0.031 A 
ATOM      4  C4  IND d   1       0.696   2.574  -1.298  0.00  0.00     0.051 A 
ATOM      5  C5  IND d   1       0.739   1.227  -1.074  0.00  0.00    -0.031 A 
ATOM      6  C6  IND d   1       0.500   0.687   0.173  0.00  0.00     0.015 A 
ATOM      7  C7  IND d   1       0.197   1.477   1.246  0.00  0.00    -0.016 A 
ATOM      8  C8  IND d   1       0.160   2.847   1.023  0.00  0.00    -0.047 A 
ATOM      9  C9  IND d   1       0.443   3.403  -0.231  0.00  0.00    -0.096 A 
ATOM     10  HN1 IND d   1      -0.283   3.815   2.723  0.00  0.00     0.298 HD
ENDROOT
TORSDOF 0
ENDMDL
