MODEL 1
REMARK minimizedAffinity 4.11594725
REMARK minimizedRMSD -1
REMARK  0 active torsions:
REMARK  status: ('A' for Active; 'I' for Inactive)
ROOT
ATOM      1  C   UNL d   1       0.858  -0.854   0.848  0.00  0.00     0.124 A 
ATOM      2  C1  UNL d   1       1.458  -0.566  -0.370  0.00  0.00     0.062 A 
ATOM      3  C2  UNL d   1       0.743   0.095  -1.364  0.00  0.00     0.162 A 
ATOM      4  C3  UNL d   1      -0.581   0.475  -1.144  0.00  0.00    -0.034 A 
ATOM      5  C4  UNL d   1      -1.179   0.181   0.083  0.00  0.00     0.162 A 
ATOM      6  C5  UNL d   1      -0.459  -0.480   1.074  0.00  0.00     0.062 A 
ATOM      7  F   UNL d   1      -1.041  -0.757   2.250  0.00  0.00    -0.097 F 
ATOM      8  F1  UNL d   1      -2.450   0.531   0.328  0.00  0.00    -0.096 F 
ATOM      9  I   UNL d   1      -1.655   1.464  -2.627  0.00  0.00    -0.060 I 
ATOM     10  F2  UNL d   1       1.348   0.361  -2.531  0.00  0.00    -0.096 F 
ATOM     11  F3  UNL d   1       2.731  -0.927  -0.591  0.00  0.00    -0.097 F 
ATOM     12  F4  UNL d   1       1.549  -1.491   1.802  0.00  0.00    -0.092 F 
ENDROOT
TORSDOF 0
ENDMDL
