MODEL 1
REMARK minimizedAffinity -1.33192194
REMARK minimizedRMSD -1
REMARK  0 active torsions:
REMARK  status: ('A' for Active; 'I' for Inactive)
ROOT
ATOM      1  C   UNL d   1       1.266  -1.040   1.351  0.00  0.00     0.124 A 
ATOM      2  C1  UNL d   1       0.093  -0.473   1.830  0.00  0.00     0.062 A 
ATOM      3  C2  UNL d   1      -0.761   0.206   0.966  0.00  0.00     0.162 A 
ATOM      4  C3  UNL d   1      -0.446   0.322  -0.388  0.00  0.00    -0.034 A 
ATOM      5  C4  UNL d   1       0.736  -0.250  -0.862  0.00  0.00     0.162 A 
ATOM      6  C5  UNL d   1       1.586  -0.927   0.005  0.00  0.00     0.062 A 
ATOM      7  F   UNL d   1       2.719  -1.474  -0.460  0.00  0.00    -0.097 F 
ATOM      8  F1  UNL d   1       1.070  -0.157  -2.158  0.00  0.00    -0.096 F 
ATOM      9  I   UNL d   1      -1.720   1.336  -1.683  0.00  0.00    -0.060 I 
ATOM     10  F2  UNL d   1      -1.888   0.743   1.457  0.00  0.00    -0.096 F 
ATOM     11  F3  UNL d   1      -0.219  -0.580   3.130  0.00  0.00    -0.097 F 
ATOM     12  F4  UNL d   1       2.086  -1.692   2.185  0.00  0.00    -0.092 F 
ENDROOT
TORSDOF 0
ENDMDL
