MODEL 1
REMARK minimizedAffinity -0.387027353
REMARK minimizedRMSD -1
REMARK  0 active torsions:
REMARK  status: ('A' for Active; 'I' for Inactive)
ROOT
ATOM      1  C   UNL d   1      -1.258  -0.159   1.153  0.00  0.00     0.124 A 
ATOM      2  C1  UNL d   1      -0.399  -0.711   2.093  0.00  0.00     0.062 A 
ATOM      3  C2  UNL d   1       0.862  -1.158   1.711  0.00  0.00     0.162 A 
ATOM      4  C3  UNL d   1       1.273  -1.054   0.382  0.00  0.00    -0.034 A 
ATOM      5  C4  UNL d   1       0.404  -0.498  -0.558  0.00  0.00     0.162 A 
ATOM      6  C5  UNL d   1      -0.856  -0.053  -0.171  0.00  0.00     0.062 A 
ATOM      7  F   UNL d   1      -1.685   0.480  -1.081  0.00  0.00    -0.097 F 
ATOM      8  F1  UNL d   1       0.767  -0.383  -1.844  0.00  0.00    -0.096 F 
ATOM      9  I   UNL d   1       3.159  -1.721  -0.193  0.00  0.00    -0.060 I 
ATOM     10  F2  UNL d   1       1.672  -1.687   2.641  0.00  0.00    -0.096 F 
ATOM     11  F3  UNL d   1      -0.786  -0.815   3.373  0.00  0.00    -0.097 F 
ATOM     12  F4  UNL d   1      -2.472   0.269   1.523  0.00  0.00    -0.092 F 
ENDROOT
TORSDOF 0
ENDMDL
