MODEL 1
REMARK minimizedAffinity 1.79625106
REMARK minimizedRMSD -1
REMARK  0 active torsions:
REMARK  status: ('A' for Active; 'I' for Inactive)
ROOT
ATOM      1  C   UNL d   1       0.697  -0.983   1.247  0.00  0.00     0.124 A 
ATOM      2  C1  UNL d   1       1.200  -0.940  -0.046  0.00  0.00     0.062 A 
ATOM      3  C2  UNL d   1       0.523  -0.233  -1.036  0.00  0.00     0.162 A 
ATOM      4  C3  UNL d   1      -0.663   0.437  -0.737  0.00  0.00    -0.034 A 
ATOM      5  C4  UNL d   1      -1.163   0.388   0.565  0.00  0.00     0.162 A 
ATOM      6  C5  UNL d   1      -0.483  -0.320   1.551  0.00  0.00     0.062 A 
ATOM      7  F   UNL d   1      -0.970  -0.361   2.800  0.00  0.00    -0.097 F 
ATOM      8  F1  UNL d   1      -2.301   1.020   0.887  0.00  0.00    -0.096 F 
ATOM      9  I   UNL d   1      -1.677   1.494  -2.215  0.00  0.00    -0.060 I 
ATOM     10  F2  UNL d   1       1.032  -0.209  -2.277  0.00  0.00    -0.096 F 
ATOM     11  F3  UNL d   1       2.339  -1.581  -0.343  0.00  0.00    -0.097 F 
ATOM     12  F4  UNL d   1       1.349  -1.665   2.198  0.00  0.00    -0.092 F 
ENDROOT
TORSDOF 0
ENDMDL
