MODEL 1
REMARK minimizedAffinity 0.377294362
REMARK minimizedRMSD -1
REMARK  0 active torsions:
REMARK  status: ('A' for Active; 'I' for Inactive)
ROOT
ATOM      1  C   UNL d   1       1.482  -1.015   1.572  0.00  0.00     0.124 A 
ATOM      2  C1  UNL d   1       1.956  -1.027   0.267  0.00  0.00     0.062 A 
ATOM      3  C2  UNL d   1       1.199  -0.467  -0.758  0.00  0.00     0.162 A 
ATOM      4  C3  UNL d   1      -0.040   0.111  -0.483  0.00  0.00    -0.034 A 
ATOM      5  C4  UNL d   1      -0.510   0.119   0.831  0.00  0.00     0.162 A 
ATOM      6  C5  UNL d   1       0.250  -0.442   1.852  0.00  0.00     0.062 A 
ATOM      7  F   UNL d   1      -0.210  -0.430   3.112  0.00  0.00    -0.097 F 
ATOM      8  F1  UNL d   1      -1.698   0.667   1.131  0.00  0.00    -0.096 F 
ATOM      9  I   UNL d   1      -1.174   0.950  -2.013  0.00  0.00    -0.060 I 
ATOM     10  F2  UNL d   1       1.682  -0.493  -2.009  0.00  0.00    -0.096 F 
ATOM     11  F3  UNL d   1       3.146  -1.581  -0.007  0.00  0.00    -0.097 F 
ATOM     12  F4  UNL d   1       2.212  -1.556   2.556  0.00  0.00    -0.092 F 
ENDROOT
TORSDOF 0
ENDMDL
