MODEL 1
REMARK minimizedAffinity -2.86143756
REMARK minimizedRMSD -1
REMARK  0 active torsions:
REMARK  status: ('A' for Active; 'I' for Inactive)
ROOT
ATOM      1  C   UNL d   1       0.813  -0.627   2.258  0.00  0.00     0.124 A 
ATOM      2  C1  UNL d   1       1.618  -0.115   1.249  0.00  0.00     0.062 A 
ATOM      3  C2  UNL d   1       1.046   0.547   0.166  0.00  0.00     0.162 A 
ATOM      4  C3  UNL d   1      -0.337   0.703   0.087  0.00  0.00    -0.034 A 
ATOM      5  C4  UNL d   1      -1.140   0.184   1.104  0.00  0.00     0.162 A 
ATOM      6  C5  UNL d   1      -0.564  -0.477   2.185  0.00  0.00     0.062 A 
ATOM      7  F   UNL d   1      -1.343  -0.971   3.158  0.00  0.00    -0.097 F 
ATOM      8  F1  UNL d   1      -2.474   0.316   1.060  0.00  0.00    -0.096 F 
ATOM      9  I   UNL d   1      -1.195   1.692  -1.531  0.00  0.00    -0.060 I 
ATOM     10  F2  UNL d   1       1.848   1.031  -0.794  0.00  0.00    -0.096 F 
ATOM     11  F3  UNL d   1       2.949  -0.260   1.317  0.00  0.00    -0.097 F 
ATOM     12  F4  UNL d   1       1.365  -1.265   3.298  0.00  0.00    -0.092 F 
ENDROOT
TORSDOF 0
ENDMDL
