MODEL 1
REMARK minimizedAffinity -1.34542823
REMARK minimizedRMSD -1
REMARK  0 active torsions:
REMARK  status: ('A' for Active; 'I' for Inactive)
ROOT
ATOM      1  C   UNL d   1       1.390  -1.683   1.571  0.00  0.00     0.124 A 
ATOM      2  C1  UNL d   1       0.142  -1.185   1.920  0.00  0.00     0.062 A 
ATOM      3  C2  UNL d   1      -0.613  -0.475   0.990  0.00  0.00     0.162 A 
ATOM      4  C3  UNL d   1      -0.123  -0.261  -0.298  0.00  0.00    -0.034 A 
ATOM      5  C4  UNL d   1       1.133  -0.764  -0.641  0.00  0.00     0.162 A 
ATOM      6  C5  UNL d   1       1.884  -1.473   0.292  0.00  0.00     0.062 A 
ATOM      7  F   UNL d   1       3.089  -1.953  -0.047  0.00  0.00    -0.097 F 
ATOM      8  F1  UNL d   1       1.635  -0.576  -1.871  0.00  0.00    -0.096 F 
ATOM      9  I   UNL d   1      -1.249   0.800  -1.691  0.00  0.00    -0.060 I 
ATOM     10  F2  UNL d   1      -1.815  -0.005   1.355  0.00  0.00    -0.096 F 
ATOM     11  F3  UNL d   1      -0.337  -1.386   3.156  0.00  0.00    -0.097 F 
ATOM     12  F4  UNL d   1       2.114  -2.365   2.468  0.00  0.00    -0.092 F 
ENDROOT
TORSDOF 0
ENDMDL
