MODEL 1
REMARK minimizedAffinity -1.93304288
REMARK minimizedRMSD -1
REMARK  0 active torsions:
REMARK  status: ('A' for Active; 'I' for Inactive)
ROOT
ATOM      1  C   UNL d   1      -1.379  -3.016   0.425  0.00  0.00     0.020 A 
ATOM      2  C1  UNL d   1      -1.468  -1.898   1.254  0.00  0.00     0.020 A 
ATOM      3  C2  UNL d   1      -1.076  -0.644   0.780  0.00  0.00     0.034 A 
ATOM      4  C3  UNL d   1      -0.592  -0.505  -0.526  0.00  0.00     0.017 A 
ATOM      5  C4  UNL d   1      -0.503  -1.628  -1.357  0.00  0.00     0.017 A 
ATOM      6  C5  UNL d   1      -0.898  -2.881  -0.877  0.00  0.00     0.034 A 
ATOM      7 Cl   UNL d   1       0.084  -1.536  -2.980  0.00  0.00    -0.070 Cl
ATOM      8 Cl1  UNL d   1      -0.124   1.075  -1.046  0.00  0.00    -0.070 Cl
ENDROOT
TORSDOF 0
ENDMDL
