MODEL 1
REMARK minimizedAffinity -2.9815588
REMARK minimizedRMSD -1
REMARK  0 active torsions:
REMARK  status: ('A' for Active; 'I' for Inactive)
ROOT
ATOM      1  C   UNL d   1      -1.117  -2.815   0.710  0.00  0.00     0.020 A 
ATOM      2  C1  UNL d   1      -1.465  -1.713   1.489  0.00  0.00     0.020 A 
ATOM      3  C2  UNL d   1      -1.271  -0.420   0.997  0.00  0.00     0.034 A 
ATOM      4  C3  UNL d   1      -0.727  -0.227  -0.278  0.00  0.00     0.017 A 
ATOM      5  C4  UNL d   1      -0.378  -1.335  -1.060  0.00  0.00     0.017 A 
ATOM      6  C5  UNL d   1      -0.574  -2.627  -0.562  0.00  0.00     0.034 A 
ATOM      7 Cl   UNL d   1       0.298  -1.176  -2.643  0.00  0.00    -0.070 Cl
ATOM      8 Cl1  UNL d   1      -0.515   1.398  -0.824  0.00  0.00    -0.070 Cl
ENDROOT
TORSDOF 0
ENDMDL
