MODEL 1
REMARK minimizedAffinity -3.38803864
REMARK minimizedRMSD -1
REMARK  0 active torsions:
REMARK  status: ('A' for Active; 'I' for Inactive)
ROOT
ATOM      1  C   UNL d   1       2.675   2.634   0.788  0.00  0.00     0.020 A 
ATOM      2  C1  UNL d   1       2.836   1.751   1.855  0.00  0.00     0.020 A 
ATOM      3  C2  UNL d   1       1.910   0.726   2.059  0.00  0.00     0.034 A 
ATOM      4  C3  UNL d   1       0.817   0.583   1.196  0.00  0.00     0.017 A 
ATOM      5  C4  UNL d   1       0.656   1.470   0.125  0.00  0.00     0.017 A 
ATOM      6  C5  UNL d   1       1.587   2.494  -0.075  0.00  0.00     0.034 A 
ATOM      7 Cl   UNL d   1      -0.666   1.356  -0.982  0.00  0.00    -0.070 Cl
ATOM      8 Cl1  UNL d   1      -0.290  -0.707   1.508  0.00  0.00    -0.070 Cl
ENDROOT
TORSDOF 0
ENDMDL
