MODEL 1
REMARK minimizedAffinity -4.62965393
REMARK minimizedRMSD -1
REMARK  0 active torsions:
REMARK  status: ('A' for Active; 'I' for Inactive)
ROOT
ATOM      1  C   UNL d   1       0.631  -2.267  -0.862  0.00  0.00     0.020 A 
ATOM      2  C1  UNL d   1      -0.168  -3.004   0.012  0.00  0.00     0.020 A 
ATOM      3  C2  UNL d   1      -0.945  -2.347   0.968  0.00  0.00     0.034 A 
ATOM      4  C3  UNL d   1      -0.926  -0.951   1.053  0.00  0.00     0.017 A 
ATOM      5  C4  UNL d   1      -0.124  -0.212   0.176  0.00  0.00     0.017 A 
ATOM      6  C5  UNL d   1       0.653  -0.874  -0.780  0.00  0.00     0.034 A 
ATOM      7 Cl   UNL d   1      -0.048   1.514   0.220  0.00  0.00    -0.070 Cl
ATOM      8 Cl1  UNL d   1      -1.913  -0.205   2.260  0.00  0.00    -0.070 Cl
ENDROOT
TORSDOF 0
ENDMDL
