MODEL 1
REMARK minimizedAffinity -4.59429598
REMARK minimizedRMSD -1
REMARK  0 active torsions:
REMARK  status: ('A' for Active; 'I' for Inactive)
ROOT
ATOM      1  C   UNL d   1      -1.457  -2.924   0.926  0.00  0.00     0.020 A 
ATOM      2  C1  UNL d   1      -1.453  -1.759   1.692  0.00  0.00     0.020 A 
ATOM      3  C2  UNL d   1      -0.968  -0.568   1.149  0.00  0.00     0.034 A 
ATOM      4  C3  UNL d   1      -0.485  -0.538  -0.164  0.00  0.00     0.017 A 
ATOM      5  C4  UNL d   1      -0.489  -1.708  -0.933  0.00  0.00     0.017 A 
ATOM      6  C5  UNL d   1      -0.976  -2.898  -0.384  0.00  0.00     0.034 A 
ATOM      7 Cl   UNL d   1       0.090  -1.749  -2.561  0.00  0.00    -0.070 Cl
ATOM      8 Cl1  UNL d   1       0.100   0.970  -0.771  0.00  0.00    -0.070 Cl
ENDROOT
TORSDOF 0
ENDMDL
