MODEL 1
REMARK minimizedAffinity -0.13846752
REMARK minimizedRMSD -1
REMARK  0 active torsions:
REMARK  status: ('A' for Active; 'I' for Inactive)
ROOT
ATOM      1  C   UNL d   1      -0.850  -2.528  -1.243  0.00  0.00     0.020 A 
ATOM      2  C1  UNL d   1      -1.425  -3.052  -0.086  0.00  0.00     0.020 A 
ATOM      3  C2  UNL d   1      -1.454  -2.292   1.085  0.00  0.00     0.034 A 
ATOM      4  C3  UNL d   1      -0.907  -1.003   1.102  0.00  0.00     0.017 A 
ATOM      5  C4  UNL d   1      -0.330  -0.478  -0.060  0.00  0.00     0.017 A 
ATOM      6  C5  UNL d   1      -0.304  -1.244  -1.230  0.00  0.00     0.034 A 
ATOM      7 Cl   UNL d   1       0.365   1.103  -0.116  0.00  0.00    -0.070 Cl
ATOM      8 Cl1  UNL d   1      -0.978  -0.120   2.585  0.00  0.00    -0.070 Cl
ENDROOT
TORSDOF 0
ENDMDL
