MODEL 1
REMARK minimizedAffinity -4.56834698
REMARK minimizedRMSD -1
REMARK  0 active torsions:
REMARK  status: ('A' for Active; 'I' for Inactive)
ROOT
ATOM      1  C   UNL d   1       0.037  -3.755   0.228  0.00  0.00     0.020 A 
ATOM      2  C1  UNL d   1      -0.021  -2.794   1.236  0.00  0.00     0.020 A 
ATOM      3  C2  UNL d   1       0.064  -1.438   0.914  0.00  0.00     0.034 A 
ATOM      4  C3  UNL d   1       0.208  -1.039  -0.420  0.00  0.00     0.017 A 
ATOM      5  C4  UNL d   1       0.266  -2.004  -1.432  0.00  0.00     0.017 A 
ATOM      6  C5  UNL d   1       0.180  -3.361  -1.103  0.00  0.00     0.034 A 
ATOM      7 Cl   UNL d   1       0.443  -1.590  -3.100  0.00  0.00    -0.070 Cl
ATOM      8 Cl1  UNL d   1       0.306   0.655  -0.746  0.00  0.00    -0.070 Cl
ENDROOT
TORSDOF 0
ENDMDL
