MODEL 1
REMARK minimizedAffinity -3.99351692
REMARK minimizedRMSD -1
REMARK  0 active torsions:
REMARK  status: ('A' for Active; 'I' for Inactive)
ROOT
ATOM      1  C   UNL d   1      -1.405  -0.494   1.467  0.00  0.00     0.020 A 
ATOM      2  C1  UNL d   1      -1.338  -1.824   1.054  0.00  0.00     0.020 A 
ATOM      3  C2  UNL d   1      -0.765  -2.144  -0.179  0.00  0.00     0.034 A 
ATOM      4  C3  UNL d   1      -0.256  -1.133  -1.002  0.00  0.00     0.017 A 
ATOM      5  C4  UNL d   1      -0.324   0.202  -0.587  0.00  0.00     0.017 A 
ATOM      6  C5  UNL d   1      -0.899   0.517   0.648  0.00  0.00     0.034 A 
ATOM      7 Cl   UNL d   1       0.283   1.504  -1.548  0.00  0.00    -0.070 Cl
ATOM      8 Cl1  UNL d   1       0.440  -1.601  -2.513  0.00  0.00    -0.070 Cl
ENDROOT
TORSDOF 0
ENDMDL
