MODEL 1
REMARK minimizedAffinity -2.98919868
REMARK minimizedRMSD -1
REMARK  0 active torsions:
REMARK  status: ('A' for Active; 'I' for Inactive)
ROOT
ATOM      1  C   UNL d   1       0.680  -2.850   0.012  0.00  0.00     0.020 A 
ATOM      2  C1  UNL d   1      -0.586  -3.239   0.450  0.00  0.00     0.020 A 
ATOM      3  C2  UNL d   1      -1.523  -2.273   0.823  0.00  0.00     0.034 A 
ATOM      4  C3  UNL d   1      -1.196  -0.913   0.758  0.00  0.00     0.017 A 
ATOM      5  C4  UNL d   1       0.074  -0.524   0.318  0.00  0.00     0.017 A 
ATOM      6  C5  UNL d   1       1.009  -1.495  -0.054  0.00  0.00     0.034 A 
ATOM      7 Cl   UNL d   1       0.550   1.134   0.212  0.00  0.00    -0.070 Cl
ATOM      8 Cl1  UNL d   1      -2.404   0.227   1.235  0.00  0.00    -0.070 Cl
ENDROOT
TORSDOF 0
ENDMDL
