MODEL 1
REMARK minimizedAffinity -5.48498964
REMARK minimizedRMSD -1
REMARK  0 active torsions:
REMARK  status: ('A' for Active; 'I' for Inactive)
ROOT
ATOM      1  C   UNL d   1       0.644  -3.009  -1.123  0.00  0.00     0.020 A 
ATOM      2  C1  UNL d   1       0.049  -3.351   0.090  0.00  0.00     0.020 A 
ATOM      3  C2  UNL d   1      -0.536  -2.363   0.884  0.00  0.00     0.034 A 
ATOM      4  C3  UNL d   1      -0.527  -1.027   0.466  0.00  0.00     0.017 A 
ATOM      5  C4  UNL d   1       0.070  -0.685  -0.753  0.00  0.00     0.017 A 
ATOM      6  C5  UNL d   1       0.654  -1.679  -1.544  0.00  0.00     0.034 A 
ATOM      7 Cl   UNL d   1       0.120   0.942  -1.336  0.00  0.00    -0.070 Cl
ATOM      8 Cl1  UNL d   1      -1.270   0.143   1.498  0.00  0.00    -0.070 Cl
ENDROOT
TORSDOF 0
ENDMDL
