MODEL 1
REMARK minimizedAffinity -5.72065639
REMARK minimizedRMSD -1
REMARK  0 active torsions:
REMARK  status: ('A' for Active; 'I' for Inactive)
ROOT
ATOM      1  C   UNL d   1      -1.458  -1.659   1.752  0.00  0.00     0.020 A 
ATOM      2  C1  UNL d   1      -1.228  -2.917   1.198  0.00  0.00     0.020 A 
ATOM      3  C2  UNL d   1      -0.546  -3.033  -0.015  0.00  0.00     0.034 A 
ATOM      4  C3  UNL d   1      -0.091  -1.887  -0.678  0.00  0.00     0.017 A 
ATOM      5  C4  UNL d   1      -0.323  -0.624  -0.122  0.00  0.00     0.017 A 
ATOM      6  C5  UNL d   1      -1.007  -0.514   1.093  0.00  0.00     0.034 A 
ATOM      7 Cl   UNL d   1       0.208   0.835  -0.882  0.00  0.00    -0.070 Cl
ATOM      8 Cl1  UNL d   1       0.746  -2.104  -2.174  0.00  0.00    -0.070 Cl
ENDROOT
TORSDOF 0
ENDMDL
