MODEL 1
REMARK minimizedAffinity -4.01219797
REMARK minimizedRMSD -1
REMARK  0 active torsions:
REMARK  status: ('A' for Active; 'I' for Inactive)
ROOT
ATOM      1  C   UNL d   1       0.338  -0.154  -1.587  0.00  0.00     0.020 A 
ATOM      2  C1  UNL d   1      -0.562   0.604  -0.840  0.00  0.00     0.020 A 
ATOM      3  C2  UNL d   1      -1.257   0.018   0.220  0.00  0.00     0.034 A 
ATOM      4  C3  UNL d   1      -1.054  -1.330   0.535  0.00  0.00     0.017 A 
ATOM      5  C4  UNL d   1      -0.150  -2.091  -0.216  0.00  0.00     0.017 A 
ATOM      6  C5  UNL d   1       0.543  -1.499  -1.276  0.00  0.00     0.034 A 
ATOM      7 Cl   UNL d   1       0.154  -3.760   0.113  0.00  0.00    -0.070 Cl
ATOM      8 Cl1  UNL d   1      -1.947  -1.990   1.859  0.00  0.00    -0.070 Cl
ENDROOT
TORSDOF 0
ENDMDL
