MODEL 1
REMARK minimizedAffinity -1.33985901
REMARK minimizedRMSD -1
REMARK  0 active torsions:
REMARK  status: ('A' for Active; 'I' for Inactive)
ROOT
ATOM      1  C   UNL d   1      -1.462  -1.302   1.907  0.00  0.00     0.020 A 
ATOM      2  C1  UNL d   1      -1.320  -2.390   1.047  0.00  0.00     0.020 A 
ATOM      3  C2  UNL d   1      -0.796  -2.204  -0.234  0.00  0.00     0.034 A 
ATOM      4  C3  UNL d   1      -0.412  -0.926  -0.658  0.00  0.00     0.017 A 
ATOM      5  C4  UNL d   1      -0.554   0.165   0.206  0.00  0.00     0.017 A 
ATOM      6  C5  UNL d   1      -1.080  -0.028   1.488  0.00  0.00     0.034 A 
ATOM      7 Cl   UNL d   1      -0.102   1.771  -0.246  0.00  0.00    -0.070 Cl
ATOM      8 Cl1  UNL d   1       0.229  -0.769  -2.255  0.00  0.00    -0.070 Cl
ENDROOT
TORSDOF 0
ENDMDL
