MODEL 1
REMARK minimizedAffinity -1.53909838
REMARK minimizedRMSD -1
REMARK  0 active torsions:
REMARK  status: ('A' for Active; 'I' for Inactive)
ROOT
ATOM      1  C   UNL d   1       1.264   4.247   1.817  0.00  0.00     0.020 A 
ATOM      2  C1  UNL d   1      -0.028   3.725   1.763  0.00  0.00     0.020 A 
ATOM      3  C2  UNL d   1      -0.370   2.809   0.765  0.00  0.00     0.034 A 
ATOM      4  C3  UNL d   1       0.580   2.414  -0.183  0.00  0.00     0.017 A 
ATOM      5  C4  UNL d   1       1.877   2.939  -0.128  0.00  0.00     0.017 A 
ATOM      6  C5  UNL d   1       2.214   3.855   0.873  0.00  0.00     0.034 A 
ATOM      7 Cl   UNL d   1       3.104   2.498  -1.263  0.00  0.00    -0.070 Cl
ATOM      8 Cl1  UNL d   1       0.088   1.278  -1.388  0.00  0.00    -0.070 Cl
ENDROOT
TORSDOF 0
ENDMDL
