MODEL 1
REMARK minimizedAffinity -0.687312484
REMARK minimizedRMSD -1
REMARK  0 active torsions:
REMARK  status: ('A' for Active; 'I' for Inactive)
ROOT
ATOM      1  C   UNL d   1      -1.108  -1.370   1.805  0.00  0.00     0.020 A 
ATOM      2  C1  UNL d   1      -1.202  -2.599   1.154  0.00  0.00     0.020 A 
ATOM      3  C2  UNL d   1      -0.830  -2.709  -0.187  0.00  0.00     0.034 A 
ATOM      4  C3  UNL d   1      -0.362  -1.588  -0.882  0.00  0.00     0.017 A 
ATOM      5  C4  UNL d   1      -0.267  -0.354  -0.227  0.00  0.00     0.017 A 
ATOM      6  C5  UNL d   1      -0.641  -0.250   1.116  0.00  0.00     0.034 A 
ATOM      7 Cl   UNL d   1       0.302   1.073  -1.018  0.00  0.00    -0.070 Cl
ATOM      8 Cl1  UNL d   1       0.082  -1.797  -2.539  0.00  0.00    -0.070 Cl
ENDROOT
TORSDOF 0
ENDMDL
