MODEL 1
REMARK minimizedAffinity -2.91955733
REMARK minimizedRMSD -1
REMARK  0 active torsions:
REMARK  status: ('A' for Active; 'I' for Inactive)
ROOT
ATOM      1  C   UNL d   1      -1.084   0.330   1.083  0.00  0.00     0.020 A 
ATOM      2  C1  UNL d   1      -0.715   1.063  -0.045  0.00  0.00     0.020 A 
ATOM      3  C2  UNL d   1      -0.163   0.413  -1.150  0.00  0.00     0.034 A 
ATOM      4  C3  UNL d   1       0.023  -0.975  -1.131  0.00  0.00     0.017 A 
ATOM      5  C4  UNL d   1      -0.347  -1.709   0.001  0.00  0.00     0.017 A 
ATOM      6  C5  UNL d   1      -0.900  -1.053   1.105  0.00  0.00     0.034 A 
ATOM      7 Cl   UNL d   1      -0.148  -3.423   0.100  0.00  0.00    -0.070 Cl
ATOM      8 Cl1  UNL d   1       0.712  -1.713  -2.533  0.00  0.00    -0.070 Cl
ENDROOT
TORSDOF 0
ENDMDL
