MODEL 1
REMARK minimizedAffinity -5.46945524
REMARK minimizedRMSD -1
REMARK  0 active torsions:
REMARK  status: ('A' for Active; 'I' for Inactive)
ROOT
ATOM      1  C   UNL d   1      -0.114  -2.672   0.894  0.00  0.00     0.020 A 
ATOM      2  C1  UNL d   1       0.428  -3.291  -0.231  0.00  0.00     0.020 A 
ATOM      3  C2  UNL d   1       0.557  -2.580  -1.426  0.00  0.00     0.034 A 
ATOM      4  C3  UNL d   1       0.143  -1.245  -1.499  0.00  0.00     0.017 A 
ATOM      5  C4  UNL d   1      -0.401  -0.624  -0.369  0.00  0.00     0.017 A 
ATOM      6  C5  UNL d   1      -0.528  -1.341   0.825  0.00  0.00     0.034 A 
ATOM      7 Cl   UNL d   1      -0.935   1.020  -0.381  0.00  0.00    -0.070 Cl
ATOM      8 Cl1  UNL d   1       0.333  -0.426  -3.008  0.00  0.00    -0.070 Cl
ENDROOT
TORSDOF 0
ENDMDL
