MODEL 1
REMARK minimizedAffinity 14.4582405
REMARK minimizedRMSD -1
REMARK  1 active torsions:
REMARK  status: ('A' for Active; 'I' for Inactive)
REMARK    1  A    between atoms: C1_2  and  C2_3 
ROOT
ATOM      1  C2  UNL d   1       3.927   4.914   2.134  0.00  0.00    -0.073 A 
ATOM      2  C3  UNL d   1       2.701   5.084   1.481  0.00  0.00    -0.002 A 
ATOM      3  C4  UNL d   1       2.196   4.078   0.656  0.00  0.00     0.004 A 
ATOM      4  C5  UNL d   1       2.907   2.891   0.481  0.00  0.00    -0.004 A 
ATOM      5  C6  UNL d   1       4.128   2.697   1.135  0.00  0.00    -0.075 A 
ATOM      6  C7  UNL d   1       4.906   1.426   0.956  0.00  0.00     0.076 C 
ATOM      7  C8  UNL d   1       4.630   3.713   1.959  0.00  0.00     0.001 A 
ENDROOT
BRANCH   1   8
ATOM      8  C1  UNL d   1       4.473   5.994   3.031  0.00  0.00     0.053 C 
ATOM      9  C   UNL d   1       5.993   5.995   3.062  0.00  0.00     0.018 C 
ENDBRANCH   1   8
TORSDOF 1
ENDMDL
