MODEL 1
REMARK minimizedAffinity 14.583663
REMARK minimizedRMSD -1
REMARK  1 active torsions:
REMARK  status: ('A' for Active; 'I' for Inactive)
REMARK    1  A    between atoms: C1_2  and  C2_3 
ROOT
ATOM      1  C2  UNL d   1      -1.079  -0.795   2.600  0.00  0.00    -0.073 A 
ATOM      2  C3  UNL d   1      -0.100  -0.009   1.982  0.00  0.00    -0.002 A 
ATOM      3  C4  UNL d   1       1.244  -0.157   2.326  0.00  0.00     0.004 A 
ATOM      4  C5  UNL d   1       1.624  -1.095   3.286  0.00  0.00    -0.004 A 
ATOM      5  C6  UNL d   1       0.661  -1.898   3.907  0.00  0.00    -0.075 A 
ATOM      6  C7  UNL d   1       1.053  -2.910   4.944  0.00  0.00     0.076 C 
ATOM      7  C8  UNL d   1      -0.687  -1.741   3.558  0.00  0.00     0.001 A 
ENDROOT
BRANCH   1   8
ATOM      8  C1  UNL d   1      -2.531  -0.643   2.227  0.00  0.00     0.053 C 
ATOM      9  C   UNL d   1      -3.348  -1.868   2.607  0.00  0.00     0.018 C 
ENDBRANCH   1   8
TORSDOF 1
ENDMDL
