MODEL 1
REMARK minimizedAffinity 17.2999477
REMARK minimizedRMSD -1
REMARK  1 active torsions:
REMARK  status: ('A' for Active; 'I' for Inactive)
REMARK    1  A    between atoms: C1_2  and  C2_3 
ROOT
ATOM      1  C2  UNL d   1      -1.009   0.487   2.924  0.00  0.00    -0.073 A 
ATOM      2  C3  UNL d   1       0.004  -0.309   2.378  0.00  0.00    -0.002 A 
ATOM      3  C4  UNL d   1       1.252  -0.385   2.998  0.00  0.00     0.004 A 
ATOM      4  C5  UNL d   1       1.497   0.327   4.172  0.00  0.00    -0.004 A 
ATOM      5  C6  UNL d   1       0.494   1.120   4.739  0.00  0.00    -0.075 A 
ATOM      6  C7  UNL d   1       0.743   1.894   5.999  0.00  0.00     0.076 C 
ATOM      7  C8  UNL d   1      -0.756   1.193   4.109  0.00  0.00     0.001 A 
ENDROOT
BRANCH   1   8
ATOM      8  C1  UNL d   1      -2.360   0.568   2.262  0.00  0.00     0.053 C 
ATOM      9  C   UNL d   1      -3.250  -0.607   2.637  0.00  0.00     0.018 C 
ENDBRANCH   1   8
TORSDOF 1
ENDMDL
