MODEL 1
REMARK minimizedAffinity 11.5628853
REMARK minimizedRMSD -1
REMARK  1 active torsions:
REMARK  status: ('A' for Active; 'I' for Inactive)
REMARK    1  A    between atoms: C1_2  and  C2_3 
ROOT
ATOM      1  C2  UNL d   1       4.668   4.938   2.425  0.00  0.00    -0.073 A 
ATOM      2  C3  UNL d   1       5.841   5.586   2.827  0.00  0.00    -0.002 A 
ATOM      3  C4  UNL d   1       6.000   6.000   4.150  0.00  0.00     0.004 A 
ATOM      4  C5  UNL d   1       4.992   5.764   5.085  0.00  0.00    -0.004 A 
ATOM      5  C6  UNL d   1       3.817   5.107   4.705  0.00  0.00    -0.075 A 
ATOM      6  C7  UNL d   1       2.722   4.848   5.698  0.00  0.00     0.076 C 
ATOM      7  C8  UNL d   1       3.664   4.697   3.374  0.00  0.00     0.001 A 
ENDROOT
BRANCH   1   8
ATOM      8  C1  UNL d   1       4.495   4.483   0.999  0.00  0.00     0.053 C 
ATOM      9  C   UNL d   1       3.074   4.023   0.716  0.00  0.00     0.018 C 
ENDBRANCH   1   8
TORSDOF 1
ENDMDL
