MODEL 1
REMARK minimizedAffinity 12.1025982
REMARK minimizedRMSD -1
REMARK  1 active torsions:
REMARK  status: ('A' for Active; 'I' for Inactive)
REMARK    1  A    between atoms: C1_2  and  C2_3 
ROOT
ATOM      1  C2  UNL d   1       2.758   0.273   3.552  0.00  0.00    -0.073 A 
ATOM      2  C3  UNL d   1       2.487  -1.095   3.442  0.00  0.00    -0.002 A 
ATOM      3  C4  UNL d   1       1.190  -1.537   3.179  0.00  0.00     0.004 A 
ATOM      4  C5  UNL d   1       0.154  -0.618   3.016  0.00  0.00    -0.004 A 
ATOM      5  C6  UNL d   1       0.407   0.755   3.111  0.00  0.00    -0.075 A 
ATOM      6  C7  UNL d   1      -0.696   1.757   2.941  0.00  0.00     0.076 C 
ATOM      7  C8  UNL d   1       1.712   1.191   3.378  0.00  0.00     0.001 A 
ENDROOT
BRANCH   1   8
ATOM      8  C1  UNL d   1       4.158   0.756   3.831  0.00  0.00     0.053 C 
ATOM      9  C   UNL d   1       4.708   1.598   2.690  0.00  0.00     0.018 C 
ENDBRANCH   1   8
TORSDOF 1
ENDMDL
