MODEL 1
REMARK minimizedAffinity 2.41888428
REMARK minimizedRMSD -1
REMARK  0 active torsions:
REMARK  status: ('A' for Active; 'I' for Inactive)
ROOT
ATOM      1  C   UNL d   1       3.631  -5.999  -1.719  0.00  0.00     0.023 A 
ATOM      2  C1  UNL d   1       5.025  -5.997  -1.754  0.00  0.00     0.003 A 
ATOM      3  C2  UNL d   1       5.694  -5.995  -2.980  0.00  0.00     0.048 A 
ATOM      4  C3  UNL d   1       4.961  -5.994  -4.167  0.00  0.00     0.023 A 
ATOM      5  C4  UNL d   1       3.566  -5.995  -4.136  0.00  0.00     0.048 A 
ATOM      6  C5  UNL d   1       2.902  -5.998  -2.908  0.00  0.00     0.003 A 
ATOM      7  I   UNL d   1       5.954  -5.992  -5.993  0.00  0.00    -0.146 I 
ENDROOT
TORSDOF 0
ENDMDL
