MODEL 1
REMARK minimizedAffinity 4.01253986
REMARK minimizedRMSD -1
REMARK  0 active torsions:
REMARK  status: ('A' for Active; 'I' for Inactive)
ROOT
ATOM      1  C   UNL d   1       3.689  -5.995  -5.999  0.00  0.00     0.023 A 
ATOM      2  C1  UNL d   1       2.492  -5.999  -5.283  0.00  0.00     0.003 A 
ATOM      3  C2  UNL d   1       2.512  -5.990  -3.887  0.00  0.00     0.048 A 
ATOM      4  C3  UNL d   1       3.733  -5.976  -3.213  0.00  0.00     0.023 A 
ATOM      5  C4  UNL d   1       4.934  -5.971  -3.926  0.00  0.00     0.048 A 
ATOM      6  C5  UNL d   1       4.908  -5.981  -5.322  0.00  0.00     0.003 A 
ATOM      7  I   UNL d   1       3.766  -5.963  -1.135  0.00  0.00    -0.146 I 
ENDROOT
TORSDOF 0
ENDMDL
