MODEL 1
REMARK minimizedAffinity 3.54673457
REMARK minimizedRMSD -1
REMARK  0 active torsions:
REMARK  status: ('A' for Active; 'I' for Inactive)
ROOT
ATOM      1  C   UNL d   1       2.872  -3.173   3.383  0.00  0.00     0.023 A 
ATOM      2  C1  UNL d   1       1.530  -3.266   3.013  0.00  0.00     0.003 A 
ATOM      3  C2  UNL d   1       0.658  -4.077   3.742  0.00  0.00     0.048 A 
ATOM      4  C3  UNL d   1       1.134  -4.792   4.841  0.00  0.00     0.023 A 
ATOM      5  C4  UNL d   1       2.476  -4.701   5.215  0.00  0.00     0.048 A 
ATOM      6  C5  UNL d   1       3.344  -3.889   4.483  0.00  0.00     0.003 A 
ATOM      7  I   UNL d   1      -0.161  -6.000   5.928  0.00  0.00    -0.146 I 
ENDROOT
TORSDOF 0
ENDMDL
