MODEL 1
REMARK minimizedAffinity -1.67649806
REMARK minimizedRMSD -1
REMARK  0 active torsions:
REMARK  status: ('A' for Active; 'I' for Inactive)
ROOT
ATOM      1  C   UNL d   1       4.770  -5.952  -2.314  0.00  0.00     0.023 A 
ATOM      2  C1  UNL d   1       3.399  -5.939  -2.054  0.00  0.00     0.003 A 
ATOM      3  C2  UNL d   1       2.486  -5.952  -3.111  0.00  0.00     0.048 A 
ATOM      4  C3  UNL d   1       2.951  -5.978  -4.425  0.00  0.00     0.023 A 
ATOM      5  C4  UNL d   1       4.321  -5.992  -4.690  0.00  0.00     0.048 A 
ATOM      6  C5  UNL d   1       5.230  -5.978  -3.630  0.00  0.00     0.003 A 
ATOM      7  I   UNL d   1       1.595  -5.998  -6.000  0.00  0.00    -0.146 I 
ENDROOT
TORSDOF 0
ENDMDL
