MODEL 1
REMARK minimizedAffinity 4.99824381
REMARK minimizedRMSD -1
REMARK  0 active torsions:
REMARK  status: ('A' for Active; 'I' for Inactive)
ROOT
ATOM      1  C   UNL d   1       5.286  -5.988  -0.479  0.00  0.00     0.023 A 
ATOM      2  C1  UNL d   1       5.699  -5.100  -1.473  0.00  0.00     0.003 A 
ATOM      3  C2  UNL d   1       5.030  -3.887  -1.649  0.00  0.00     0.048 A 
ATOM      4  C3  UNL d   1       3.950  -3.568  -0.827  0.00  0.00     0.023 A 
ATOM      5  C4  UNL d   1       3.533  -4.453   0.169  0.00  0.00     0.048 A 
ATOM      6  C5  UNL d   1       4.204  -5.665   0.340  0.00  0.00     0.003 A 
ATOM      7  I   UNL d   1       2.953  -1.762  -1.087  0.00  0.00    -0.146 I 
ENDROOT
TORSDOF 0
ENDMDL
