MODEL 1
REMARK minimizedAffinity 8.92196751
REMARK minimizedRMSD -1
REMARK  0 active torsions:
REMARK  status: ('A' for Active; 'I' for Inactive)
ROOT
ATOM      1  C   UNL d   1       2.877   2.372  -0.225  0.00  0.00     0.023 A 
ATOM      2  C1  UNL d   1       2.018   2.506   0.866  0.00  0.00     0.003 A 
ATOM      3  C2  UNL d   1       1.773   1.414   1.701  0.00  0.00     0.048 A 
ATOM      4  C3  UNL d   1       2.393   0.192   1.441  0.00  0.00     0.023 A 
ATOM      5  C4  UNL d   1       3.254   0.054   0.352  0.00  0.00     0.048 A 
ATOM      6  C5  UNL d   1       3.495   1.148  -0.481  0.00  0.00     0.003 A 
ATOM      7  I   UNL d   1       2.031  -1.435   2.683  0.00  0.00    -0.146 I 
ENDROOT
TORSDOF 0
ENDMDL
