MODEL 1
REMARK minimizedAffinity 9.16779137
REMARK minimizedRMSD -1
REMARK  0 active torsions:
REMARK  status: ('A' for Active; 'I' for Inactive)
ROOT
ATOM      1  C   UNL d   1       1.794  -1.508   3.134  0.00  0.00     0.023 A 
ATOM      2  C1  UNL d   1       1.150  -2.696   2.787  0.00  0.00     0.003 A 
ATOM      3  C2  UNL d   1       0.454  -2.788   1.580  0.00  0.00     0.048 A 
ATOM      4  C3  UNL d   1       0.407  -1.689   0.724  0.00  0.00     0.023 A 
ATOM      5  C4  UNL d   1       1.050  -0.498   1.066  0.00  0.00     0.048 A 
ATOM      6  C5  UNL d   1       1.744  -0.411   2.274  0.00  0.00     0.003 A 
ATOM      7  I   UNL d   1      -0.628  -1.823  -1.074  0.00  0.00    -0.146 I 
ENDROOT
TORSDOF 0
ENDMDL
