MODEL 1
REMARK minimizedAffinity 6.61617565
REMARK minimizedRMSD -1
REMARK  0 active torsions:
REMARK  status: ('A' for Active; 'I' for Inactive)
ROOT
ATOM      1  C   UNL d   1      -4.012   1.951   0.923  0.00  0.00     0.023 A 
ATOM      2  C1  UNL d   1      -5.363   1.904   0.579  0.00  0.00     0.003 A 
ATOM      3  C2  UNL d   1      -5.744   1.923  -0.764  0.00  0.00     0.048 A 
ATOM      4  C3  UNL d   1      -4.770   1.988  -1.759  0.00  0.00     0.023 A 
ATOM      5  C4  UNL d   1      -3.416   2.034  -1.420  0.00  0.00     0.048 A 
ATOM      6  C5  UNL d   1      -3.040   2.016  -0.076  0.00  0.00     0.003 A 
ATOM      7  I   UNL d   1      -5.335   2.016  -3.758  0.00  0.00    -0.146 I 
ENDROOT
TORSDOF 0
ENDMDL
