MODEL 1
REMARK minimizedAffinity -3.45458603
REMARK minimizedRMSD -1
REMARK  0 active torsions:
REMARK  status: ('A' for Active; 'I' for Inactive)
ROOT
ATOM      1  N1  IND d   1       0.427   0.329   1.958  0.00  0.00    -0.196 N 
ATOM      2  C2  IND d   1      -0.717  -0.358   2.257  0.00  0.00     0.054 A 
ATOM      3  C3  IND d   1      -1.269  -0.865   1.132  0.00  0.00    -0.031 A 
ATOM      4  C4  IND d   1      -0.411  -0.777  -1.294  0.00  0.00     0.051 A 
ATOM      5  C5  IND d   1       0.573  -0.232  -2.069  0.00  0.00    -0.031 A 
ATOM      6  C6  IND d   1       1.580   0.542  -1.531  0.00  0.00     0.015 A 
ATOM      7  C7  IND d   1       1.648   0.791  -0.189  0.00  0.00    -0.016 A 
ATOM      8  C8  IND d   1       0.647   0.244   0.600  0.00  0.00    -0.047 A 
ATOM      9  C9  IND d   1      -0.402  -0.507   0.054  0.00  0.00    -0.096 A 
ATOM     10  HN1 IND d   1       0.925   0.744   2.522  0.00  0.00     0.298 HD
ENDROOT
TORSDOF 0
ENDMDL
