MODEL 1
REMARK minimizedAffinity -6.47474289
REMARK minimizedRMSD -1
REMARK  0 active torsions:
REMARK  status: ('A' for Active; 'I' for Inactive)
ROOT
ATOM      1  N1  IND d   1      -0.322  -0.039  -0.486  0.00  0.00    -0.196 N 
ATOM      2  C2  IND d   1       1.016   0.207  -0.346  0.00  0.00     0.054 A 
ATOM      3  C3  IND d   1       1.353   0.243   0.963  0.00  0.00    -0.031 A 
ATOM      4  C4  IND d   1      -0.110  -0.174   3.040  0.00  0.00     0.051 A 
ATOM      5  C5  IND d   1      -1.403  -0.399   3.419  0.00  0.00    -0.031 A 
ATOM      6  C6  IND d   1      -2.423  -0.521   2.497  0.00  0.00     0.015 A 
ATOM      7  C7  IND d   1      -2.183  -0.433   1.155  0.00  0.00    -0.016 A 
ATOM      8  C8  IND d   1      -0.872  -0.197   0.766  0.00  0.00    -0.047 A 
ATOM      9  C9  IND d   1       0.160  -0.030   1.699  0.00  0.00    -0.096 A 
ATOM     10  HN1 IND d   1      -0.748  -0.086  -1.232  0.00  0.00     0.298 HD
ENDROOT
TORSDOF 0
ENDMDL
