MODEL 1
REMARK minimizedAffinity 2.16934204
REMARK minimizedRMSD -1
REMARK  0 active torsions:
REMARK  status: ('A' for Active; 'I' for Inactive)
ROOT
ATOM      1  N1  IND d   1      -0.860  -0.320  -2.469  0.00  0.00    -0.196 N 
ATOM      2  C2  IND d   1      -0.469   0.731  -1.686  0.00  0.00     0.054 A 
ATOM      3  C3  IND d   1       0.876   0.861  -1.711  0.00  0.00    -0.031 A 
ATOM      4  C4  IND d   1       2.625  -0.474  -3.048  0.00  0.00     0.051 A 
ATOM      5  C5  IND d   1       2.753  -1.554  -3.875  0.00  0.00    -0.031 A 
ATOM      6  C6  IND d   1       1.662  -2.292  -4.286  0.00  0.00     0.015 A 
ATOM      7  C7  IND d   1       0.394  -1.968  -3.893  0.00  0.00    -0.016 A 
ATOM      8  C8  IND d   1       0.260  -0.876  -3.047  0.00  0.00    -0.047 A 
ATOM      9  C9  IND d   1       1.369  -0.149  -2.593  0.00  0.00    -0.096 A 
ATOM     10  HN1 IND d   1      -1.669  -0.589  -2.581  0.00  0.00     0.298 HD
ENDROOT
TORSDOF 0
ENDMDL
