MODEL 1
REMARK minimizedAffinity -3.17648077
REMARK minimizedRMSD -1
REMARK  0 active torsions:
REMARK  status: ('A' for Active; 'I' for Inactive)
ROOT
ATOM      1  N1  IND d   1      -1.151  -0.897  -0.474  0.00  0.00    -0.196 N 
ATOM      2  C2  IND d   1      -0.444  -0.301  -1.481  0.00  0.00     0.054 A 
ATOM      3  C3  IND d   1       0.580   0.421  -0.974  0.00  0.00    -0.031 A 
ATOM      4  C4  IND d   1       1.343   0.685   1.470  0.00  0.00     0.051 A 
ATOM      5  C5  IND d   1       0.991   0.359   2.750  0.00  0.00    -0.031 A 
ATOM      6  C6  IND d   1      -0.115  -0.419   3.026  0.00  0.00     0.015 A 
ATOM      7  C7  IND d   1      -0.905  -0.913   2.027  0.00  0.00    -0.016 A 
ATOM      8  C8  IND d   1      -0.554  -0.579   0.727  0.00  0.00    -0.047 A 
ATOM      9  C9  IND d   1       0.542   0.246   0.443  0.00  0.00    -0.096 A 
ATOM     10  HN1 IND d   1      -1.850  -1.387  -0.573  0.00  0.00     0.298 HD
ENDROOT
TORSDOF 0
ENDMDL
