MODEL 1
REMARK minimizedAffinity -2.89065385
REMARK minimizedRMSD -1
REMARK  0 active torsions:
REMARK  status: ('A' for Active; 'I' for Inactive)
ROOT
ATOM      1  N1  IND d   1      -2.487   0.974   0.522  0.00  0.00    -0.196 N 
ATOM      2  C2  IND d   1      -3.104   1.131   1.732  0.00  0.00     0.054 A 
ATOM      3  C3  IND d   1      -2.207   1.010   2.736  0.00  0.00    -0.031 A 
ATOM      4  C4  IND d   1       0.340   0.654   2.621  0.00  0.00     0.051 A 
ATOM      5  C5  IND d   1       1.355   0.416   1.738  0.00  0.00    -0.031 A 
ATOM      6  C6  IND d   1       1.138   0.353   0.377  0.00  0.00     0.015 A 
ATOM      7  C7  IND d   1      -0.107   0.538  -0.155  0.00  0.00    -0.016 A 
ATOM      8  C8  IND d   1      -1.142   0.773   0.739  0.00  0.00    -0.047 A 
ATOM      9  C9  IND d   1      -0.935   0.796   2.124  0.00  0.00    -0.096 A 
ATOM     10  HN1 IND d   1      -2.875   0.996  -0.245  0.00  0.00     0.298 HD
ENDROOT
TORSDOF 0
ENDMDL
