MODEL 1
REMARK minimizedAffinity -1.43293667
REMARK minimizedRMSD -1
REMARK  0 active torsions:
REMARK  status: ('A' for Active; 'I' for Inactive)
ROOT
ATOM      1  N1  IND d   1      -0.546  -0.640  -0.574  0.00  0.00    -0.196 N 
ATOM      2  C2  IND d   1       0.345   0.070  -1.329  0.00  0.00     0.054 A 
ATOM      3  C3  IND d   1       1.086   0.882  -0.543  0.00  0.00    -0.031 A 
ATOM      4  C4  IND d   1       1.075   1.133   2.019  0.00  0.00     0.051 A 
ATOM      5  C5  IND d   1       0.409   0.721   3.139  0.00  0.00    -0.031 A 
ATOM      6  C6  IND d   1      -0.629  -0.187   3.078  0.00  0.00     0.015 A 
ATOM      7  C7  IND d   1      -1.033  -0.727   1.890  0.00  0.00    -0.016 A 
ATOM      8  C8  IND d   1      -0.364  -0.305   0.750  0.00  0.00    -0.047 A 
ATOM      9  C9  IND d   1       0.661   0.648   0.801  0.00  0.00    -0.096 A 
ATOM     10  HN1 IND d   1      -1.124  -1.201  -0.875  0.00  0.00     0.298 HD
ENDROOT
TORSDOF 0
ENDMDL
