MODEL 1
REMARK minimizedAffinity 0.919317067
REMARK minimizedRMSD -1
REMARK  0 active torsions:
REMARK  status: ('A' for Active; 'I' for Inactive)
ROOT
ATOM      1  N1  IND d   1      -1.183  -1.310  -0.991  0.00  0.00    -0.196 N 
ATOM      2  C2  IND d   1      -1.154  -0.062  -0.433  0.00  0.00     0.054 A 
ATOM      3  C3  IND d   1      -0.263   0.722  -1.080  0.00  0.00    -0.031 A 
ATOM      4  C4  IND d   1       1.182   0.197  -3.145  0.00  0.00     0.051 A 
ATOM      5  C5  IND d   1       1.527  -0.822  -3.987  0.00  0.00    -0.031 A 
ATOM      6  C6  IND d   1       0.973  -2.081  -3.874  0.00  0.00     0.015 A 
ATOM      7  C7  IND d   1       0.041  -2.365  -2.916  0.00  0.00    -0.016 A 
ATOM      8  C8  IND d   1      -0.307  -1.334  -2.054  0.00  0.00    -0.047 A 
ATOM      9  C9  IND d   1       0.284  -0.067  -2.138  0.00  0.00    -0.096 A 
ATOM     10  HN1 IND d   1      -1.667  -1.968  -0.724  0.00  0.00     0.298 HD
ENDROOT
TORSDOF 0
ENDMDL
