MODEL 1
REMARK minimizedAffinity -5.8142724
REMARK minimizedRMSD -1
REMARK  0 active torsions:
REMARK  status: ('A' for Active; 'I' for Inactive)
ROOT
ATOM      1  N1  IND d   1       1.312   1.000  -0.682  0.00  0.00    -0.196 N 
ATOM      2  C2  IND d   1       0.267   0.837  -1.548  0.00  0.00     0.054 A 
ATOM      3  C3  IND d   1      -0.718   0.115  -0.966  0.00  0.00    -0.031 A 
ATOM      4  C4  IND d   1      -0.869  -0.811   1.431  0.00  0.00     0.051 A 
ATOM      5  C5  IND d   1      -0.144  -0.947   2.581  0.00  0.00    -0.031 A 
ATOM      6  C6  IND d   1       1.129  -0.428   2.706  0.00  0.00     0.015 A 
ATOM      7  C7  IND d   1       1.721   0.260   1.684  0.00  0.00    -0.016 A 
ATOM      8  C8  IND d   1       0.990   0.393   0.513  0.00  0.00    -0.047 A 
ATOM      9  C9  IND d   1      -0.285  -0.168   0.365  0.00  0.00    -0.096 A 
ATOM     10  HN1 IND d   1       2.046   1.412  -0.854  0.00  0.00     0.298 HD
ENDROOT
TORSDOF 0
ENDMDL
