MODEL 1
REMARK minimizedAffinity 0.665132761
REMARK minimizedRMSD -1
REMARK  0 active torsions:
REMARK  status: ('A' for Active; 'I' for Inactive)
ROOT
ATOM      1  N1  IND d   1      -0.350   0.286  -1.515  0.00  0.00    -0.196 N 
ATOM      2  C2  IND d   1       0.453   0.710  -0.493  0.00  0.00     0.054 A 
ATOM      3  C3  IND d   1       1.704   0.218  -0.642  0.00  0.00    -0.031 A 
ATOM      4  C4  IND d   1       2.680  -1.219  -2.541  0.00  0.00     0.051 A 
ATOM      5  C5  IND d   1       2.324  -1.888  -3.678  0.00  0.00    -0.031 A 
ATOM      6  C6  IND d   1       1.033  -1.863  -4.164  0.00  0.00     0.015 A 
ATOM      7  C7  IND d   1       0.048  -1.157  -3.534  0.00  0.00    -0.016 A 
ATOM      8  C8  IND d   1       0.404  -0.483  -2.375  0.00  0.00    -0.047 A 
ATOM      9  C9  IND d   1       1.704  -0.538  -1.853  0.00  0.00    -0.096 A 
ATOM     10  HN1 IND d   1      -1.185   0.468  -1.605  0.00  0.00     0.298 HD
ENDROOT
TORSDOF 0
ENDMDL
