MODEL 1
REMARK minimizedAffinity -3.69943976
REMARK minimizedRMSD -1
REMARK  0 active torsions:
REMARK  status: ('A' for Active; 'I' for Inactive)
ROOT
ATOM      1  N1  IND d   1      -0.933  -0.724  -0.730  0.00  0.00    -0.196 N 
ATOM      2  C2  IND d   1       0.022  -0.189  -1.549  0.00  0.00     0.054 A 
ATOM      3  C3  IND d   1       1.006   0.378  -0.816  0.00  0.00    -0.031 A 
ATOM      4  C4  IND d   1       1.306   0.456   1.739  0.00  0.00     0.051 A 
ATOM      5  C5  IND d   1       0.674   0.134   2.908  0.00  0.00    -0.031 A 
ATOM      6  C6  IND d   1      -0.548  -0.506   2.924  0.00  0.00     0.015 A 
ATOM      7  C7  IND d   1      -1.183  -0.859   1.767  0.00  0.00    -0.016 A 
ATOM      8  C8  IND d   1      -0.548  -0.527   0.578  0.00  0.00    -0.047 A 
ATOM      9  C9  IND d   1       0.673   0.160   0.555  0.00  0.00    -0.096 A 
ATOM     10  HN1 IND d   1      -1.653  -1.117  -0.988  0.00  0.00     0.298 HD
ENDROOT
TORSDOF 0
ENDMDL
