MODEL 1
REMARK minimizedAffinity -3.19518685
REMARK minimizedRMSD -1
REMARK  0 active torsions:
REMARK  status: ('A' for Active; 'I' for Inactive)
ROOT
ATOM      1  N1  IND d   1      -2.650  -0.467   1.076  0.00  0.00    -0.196 N 
ATOM      2  C2  IND d   1      -3.174  -0.264   2.323  0.00  0.00     0.054 A 
ATOM      3  C3  IND d   1      -2.193   0.043   3.201  0.00  0.00    -0.031 A 
ATOM      4  C4  IND d   1       0.327   0.367   2.790  0.00  0.00     0.051 A 
ATOM      5  C5  IND d   1       1.284   0.254   1.821  0.00  0.00    -0.031 A 
ATOM      6  C6  IND d   1       0.972  -0.110   0.527  0.00  0.00     0.015 A 
ATOM      7  C7  IND d   1      -0.317  -0.365   0.150  0.00  0.00    -0.016 A 
ATOM      8  C8  IND d   1      -1.290  -0.257   1.133  0.00  0.00    -0.047 A 
ATOM      9  C9  IND d   1      -0.973   0.070   2.458  0.00  0.00    -0.096 A 
ATOM     10  HN1 IND d   1      -3.096  -0.688   0.375  0.00  0.00     0.298 HD
ENDROOT
TORSDOF 0
ENDMDL
