MODEL 1
REMARK minimizedAffinity -1.04401529
REMARK minimizedRMSD -1
REMARK  0 active torsions:
REMARK  status: ('A' for Active; 'I' for Inactive)
ROOT
ATOM      1  N1  IND d   1       0.920  -1.037  -1.293  0.00  0.00    -0.196 N 
ATOM      2  C2  IND d   1       0.457  -0.021  -2.081  0.00  0.00     0.054 A 
ATOM      3  C3  IND d   1       0.092   1.035  -1.321  0.00  0.00    -0.031 A 
ATOM      4  C4  IND d   1       0.264   1.353   1.228  0.00  0.00     0.051 A 
ATOM      5  C5  IND d   1       0.589   0.689   2.377  0.00  0.00    -0.031 A 
ATOM      6  C6  IND d   1       1.054  -0.611   2.361  0.00  0.00     0.015 A 
ATOM      7  C7  IND d   1       1.222  -1.293   1.189  0.00  0.00    -0.016 A 
ATOM      8  C8  IND d   1       0.885  -0.623   0.021  0.00  0.00    -0.047 A 
ATOM      9  C9  IND d   1       0.373   0.680   0.034  0.00  0.00    -0.096 A 
ATOM     10  HN1 IND d   1       1.189  -1.805  -1.570  0.00  0.00     0.298 HD
ENDROOT
TORSDOF 0
ENDMDL
