MODEL 1
REMARK minimizedAffinity -0.765978038
REMARK minimizedRMSD -1
REMARK  0 active torsions:
REMARK  status: ('A' for Active; 'I' for Inactive)
ROOT
ATOM      1  N1  IND d   1       1.711   0.208  -0.584  0.00  0.00    -0.196 N 
ATOM      2  C2  IND d   1       0.822  -0.438  -1.396  0.00  0.00     0.054 A 
ATOM      3  C3  IND d   1      -0.339  -0.660  -0.740  0.00  0.00    -0.031 A 
ATOM      4  C4  IND d   1      -1.034   0.041   1.638  0.00  0.00     0.051 A 
ATOM      5  C5  IND d   1      -0.547   0.621   2.775  0.00  0.00    -0.031 A 
ATOM      6  C6  IND d   1       0.743   1.105   2.852  0.00  0.00     0.015 A 
ATOM      7  C7  IND d   1       1.594   1.037   1.785  0.00  0.00    -0.016 A 
ATOM      8  C8  IND d   1       1.105   0.443   0.631  0.00  0.00    -0.047 A 
ATOM      9  C9  IND d   1      -0.189  -0.088   0.561  0.00  0.00    -0.096 A 
ATOM     10  HN1 IND d   1       2.514   0.431  -0.796  0.00  0.00     0.298 HD
ENDROOT
TORSDOF 0
ENDMDL
