MODEL 1
REMARK minimizedAffinity -3.44623446
REMARK minimizedRMSD -1
REMARK  0 active torsions:
REMARK  status: ('A' for Active; 'I' for Inactive)
ROOT
ATOM      1  N1  IND d   1      -0.627  -1.297  -1.130  0.00  0.00    -0.196 N 
ATOM      2  C2  IND d   1      -0.769  -0.068  -0.549  0.00  0.00     0.054 A 
ATOM      3  C3  IND d   1       0.159   0.790  -1.031  0.00  0.00    -0.031 A 
ATOM      4  C4  IND d   1       1.942   0.418  -2.850  0.00  0.00     0.051 A 
ATOM      5  C5  IND d   1       2.481  -0.552  -3.647  0.00  0.00    -0.031 A 
ATOM      6  C6  IND d   1       2.000  -1.846  -3.649  0.00  0.00     0.015 A 
ATOM      7  C7  IND d   1       0.950  -2.216  -2.857  0.00  0.00    -0.016 A 
ATOM      8  C8  IND d   1       0.405  -1.235  -2.041  0.00  0.00    -0.047 A 
ATOM      9  C9  IND d   1       0.916   0.068  -2.004  0.00  0.00    -0.096 A 
ATOM     10  HN1 IND d   1      -1.103  -1.992  -0.956  0.00  0.00     0.298 HD
ENDROOT
TORSDOF 0
ENDMDL
