MODEL 1
REMARK minimizedAffinity -2.89716363
REMARK minimizedRMSD -1
REMARK  0 active torsions:
REMARK  status: ('A' for Active; 'I' for Inactive)
ROOT
ATOM      1  C   UNL d   1       2.002  -4.351  -2.487  0.00  0.00     0.023 A 
ATOM      2  C1  UNL d   1       3.244  -4.018  -3.029  0.00  0.00     0.003 A 
ATOM      3  C2  UNL d   1       4.374  -3.971  -2.210  0.00  0.00     0.048 A 
ATOM      4  C3  UNL d   1       4.256  -4.259  -0.851  0.00  0.00     0.023 A 
ATOM      5  C4  UNL d   1       3.015  -4.593  -0.305  0.00  0.00     0.048 A 
ATOM      6  C5  UNL d   1       1.888  -4.638  -1.127  0.00  0.00     0.003 A 
ATOM      7  I   UNL d   1       5.936  -4.190   0.370  0.00  0.00    -0.146 I 
ENDROOT
TORSDOF 0
ENDMDL
