MODEL 1
REMARK minimizedAffinity -0.472099751
REMARK minimizedRMSD -1
REMARK  0 active torsions:
REMARK  status: ('A' for Active; 'I' for Inactive)
ROOT
ATOM      1  C   UNL d   1       2.423   0.392  -1.715  0.00  0.00     0.023 A 
ATOM      2  C1  UNL d   1       1.589   0.593  -0.614  0.00  0.00     0.003 A 
ATOM      3  C2  UNL d   1       1.120   1.874  -0.316  0.00  0.00     0.048 A 
ATOM      4  C3  UNL d   1       1.488   2.950  -1.124  0.00  0.00     0.023 A 
ATOM      5  C4  UNL d   1       2.321   2.753  -2.226  0.00  0.00     0.048 A 
ATOM      6  C5  UNL d   1       2.788   1.471  -2.520  0.00  0.00     0.003 A 
ATOM      7  I   UNL d   1       0.791   4.857  -0.682  0.00  0.00    -0.146 I 
ENDROOT
TORSDOF 0
ENDMDL
