MODEL 1
REMARK minimizedAffinity 6.62170792
REMARK minimizedRMSD -1
REMARK  0 active torsions:
REMARK  status: ('A' for Active; 'I' for Inactive)
ROOT
ATOM      1  C   UNL d   1       2.628   0.338  -1.779  0.00  0.00     0.023 A 
ATOM      2  C1  UNL d   1       1.894   0.221  -2.960  0.00  0.00     0.003 A 
ATOM      3  C2  UNL d   1       0.943  -0.793  -3.094  0.00  0.00     0.048 A 
ATOM      4  C3  UNL d   1       0.731  -1.685  -2.044  0.00  0.00     0.023 A 
ATOM      5  C4  UNL d   1       1.462  -1.571  -0.861  0.00  0.00     0.048 A 
ATOM      6  C5  UNL d   1       2.413  -0.557  -0.731  0.00  0.00     0.003 A 
ATOM      7  I   UNL d   1      -0.685  -3.194  -2.241  0.00  0.00    -0.146 I 
ENDROOT
TORSDOF 0
ENDMDL
