MODEL 1
REMARK minimizedAffinity 16.181118
REMARK minimizedRMSD -1
REMARK  0 active torsions:
REMARK  status: ('A' for Active; 'I' for Inactive)
ROOT
ATOM      1  C   UNL d   1       1.120  -0.175  -1.632  0.00  0.00     0.023 A 
ATOM      2  C1  UNL d   1       1.139   0.669  -2.742  0.00  0.00     0.003 A 
ATOM      3  C2  UNL d   1       1.491   0.166  -3.997  0.00  0.00     0.048 A 
ATOM      4  C3  UNL d   1       1.822  -1.182  -4.133  0.00  0.00     0.023 A 
ATOM      5  C4  UNL d   1       1.803  -2.030  -3.025  0.00  0.00     0.048 A 
ATOM      6  C5  UNL d   1       1.451  -1.523  -1.773  0.00  0.00     0.003 A 
ATOM      7  I   UNL d   1       2.346  -1.932  -5.999  0.00  0.00    -0.146 I 
ENDROOT
TORSDOF 0
ENDMDL
