MODEL 1
REMARK minimizedAffinity 8.71677685
REMARK minimizedRMSD -1
REMARK  0 active torsions:
REMARK  status: ('A' for Active; 'I' for Inactive)
ROOT
ATOM      1  C   UNL d   1       1.310   1.932  -3.642  0.00  0.00     0.023 A 
ATOM      2  C1  UNL d   1       1.955   2.738  -2.704  0.00  0.00     0.003 A 
ATOM      3  C2  UNL d   1       2.683   2.156  -1.664  0.00  0.00     0.048 A 
ATOM      4  C3  UNL d   1       2.763   0.767  -1.570  0.00  0.00     0.023 A 
ATOM      5  C4  UNL d   1       2.120  -0.044  -2.506  0.00  0.00     0.048 A 
ATOM      6  C5  UNL d   1       1.392   0.543  -3.543  0.00  0.00     0.003 A 
ATOM      7  I   UNL d   1       3.847  -0.103  -0.024  0.00  0.00    -0.146 I 
ENDROOT
TORSDOF 0
ENDMDL
