MODEL 1
REMARK minimizedAffinity 16.3210068
REMARK minimizedRMSD -1
REMARK  0 active torsions:
REMARK  status: ('A' for Active; 'I' for Inactive)
ROOT
ATOM      1  C   UNL d   1       2.881   0.329  -0.243  0.00  0.00     0.023 A 
ATOM      2  C1  UNL d   1       1.566  -0.135  -0.265  0.00  0.00     0.003 A 
ATOM      3  C2  UNL d   1       0.680   0.223   0.754  0.00  0.00     0.048 A 
ATOM      4  C3  UNL d   1       1.117   1.045   1.792  0.00  0.00     0.023 A 
ATOM      5  C4  UNL d   1       2.432   1.513   1.818  0.00  0.00     0.048 A 
ATOM      6  C5  UNL d   1       3.314   1.152   0.797  0.00  0.00     0.003 A 
ATOM      7  I   UNL d   1      -0.199   1.579   3.309  0.00  0.00    -0.146 I 
ENDROOT
TORSDOF 0
ENDMDL
