MODEL 1
REMARK minimizedAffinity 2.14765429
REMARK minimizedRMSD -1
REMARK  0 active torsions:
REMARK  status: ('A' for Active; 'I' for Inactive)
ROOT
ATOM      1  C   UNL d   1       0.007   6.000   0.019  0.00  0.00     0.023 A 
ATOM      2  C1  UNL d   1      -0.785   4.854  -0.053  0.00  0.00     0.003 A 
ATOM      3  C2  UNL d   1      -0.229   3.645  -0.479  0.00  0.00     0.048 A 
ATOM      4  C3  UNL d   1       1.119   3.590  -0.831  0.00  0.00     0.023 A 
ATOM      5  C4  UNL d   1       1.916   4.734  -0.759  0.00  0.00     0.048 A 
ATOM      6  C5  UNL d   1       1.356   5.940  -0.334  0.00  0.00     0.003 A 
ATOM      7  I   UNL d   1       1.948   1.792  -1.464  0.00  0.00    -0.146 I 
ENDROOT
TORSDOF 0
ENDMDL
