MODEL 1
REMARK minimizedAffinity -0.407052219
REMARK minimizedRMSD -1
REMARK  0 active torsions:
REMARK  status: ('A' for Active; 'I' for Inactive)
ROOT
ATOM      1  C   UNL d   1       0.424   6.000  -0.323  0.00  0.00     0.023 A 
ATOM      2  C1  UNL d   1       1.664   5.803  -0.932  0.00  0.00     0.003 A 
ATOM      3  C2  UNL d   1       2.145   4.509  -1.136  0.00  0.00     0.048 A 
ATOM      4  C3  UNL d   1       1.382   3.415  -0.730  0.00  0.00     0.023 A 
ATOM      5  C4  UNL d   1       0.140   3.607  -0.122  0.00  0.00     0.048 A 
ATOM      6  C5  UNL d   1      -0.337   4.903   0.082  0.00  0.00     0.003 A 
ATOM      7  I   UNL d   1       2.096   1.487  -1.034  0.00  0.00    -0.146 I 
ENDROOT
TORSDOF 0
ENDMDL
