MODEL 1
REMARK minimizedAffinity 4.60311556
REMARK minimizedRMSD -1
REMARK  0 active torsions:
REMARK  status: ('A' for Active; 'I' for Inactive)
ROOT
ATOM      1  C   UNL d   1       3.606   0.096  -1.140  0.00  0.00     0.023 A 
ATOM      2  C1  UNL d   1       2.531   0.356  -1.991  0.00  0.00     0.003 A 
ATOM      3  C2  UNL d   1       1.508  -0.584  -2.133  0.00  0.00     0.048 A 
ATOM      4  C3  UNL d   1       1.566  -1.782  -1.421  0.00  0.00     0.023 A 
ATOM      5  C4  UNL d   1       2.639  -2.046  -0.568  0.00  0.00     0.048 A 
ATOM      6  C5  UNL d   1       3.659  -1.103  -0.430  0.00  0.00     0.003 A 
ATOM      7  I   UNL d   1       0.045  -3.183  -1.632  0.00  0.00    -0.146 I 
ENDROOT
TORSDOF 0
ENDMDL
