MODEL 1
REMARK minimizedAffinity 0.40851751
REMARK minimizedRMSD -1
REMARK  0 active torsions:
REMARK  status: ('A' for Active; 'I' for Inactive)
ROOT
ATOM      1  C   UNL d   1      -4.621   6.000  -5.973  0.00  0.00     0.023 A 
ATOM      2  C1  UNL d   1      -5.554   4.963  -5.998  0.00  0.00     0.003 A 
ATOM      3  C2  UNL d   1      -5.132   3.639  -5.862  0.00  0.00     0.048 A 
ATOM      4  C3  UNL d   1      -3.776   3.359  -5.699  0.00  0.00     0.023 A 
ATOM      5  C4  UNL d   1      -2.839   4.393  -5.672  0.00  0.00     0.048 A 
ATOM      6  C5  UNL d   1      -3.265   5.715  -5.810  0.00  0.00     0.003 A 
ATOM      7  I   UNL d   1      -3.146   1.389  -5.494  0.00  0.00    -0.146 I 
ENDROOT
TORSDOF 0
ENDMDL
