MODEL 1
REMARK minimizedAffinity 17.7141743
REMARK minimizedRMSD -1
REMARK  0 active torsions:
REMARK  status: ('A' for Active; 'I' for Inactive)
ROOT
ATOM      1  C   UNL d   1       1.311  -1.787  -2.386  0.00  0.00     0.023 A 
ATOM      2  C1  UNL d   1       1.260  -0.397  -2.495  0.00  0.00     0.003 A 
ATOM      3  C2  UNL d   1       1.700   0.404  -1.439  0.00  0.00     0.048 A 
ATOM      4  C3  UNL d   1       2.191  -0.191  -0.278  0.00  0.00     0.023 A 
ATOM      5  C4  UNL d   1       2.245  -1.581  -0.165  0.00  0.00     0.048 A 
ATOM      6  C5  UNL d   1       1.803  -2.378  -1.222  0.00  0.00     0.003 A 
ATOM      7  I   UNL d   1       2.847   1.000   1.294  0.00  0.00    -0.146 I 
ENDROOT
TORSDOF 0
ENDMDL
