MODEL 1
REMARK minimizedAffinity 7.9478364
REMARK minimizedRMSD -1
REMARK  0 active torsions:
REMARK  status: ('A' for Active; 'I' for Inactive)
ROOT
ATOM      1  C   UNL d   1      -5.167  -1.875   3.361  0.00  0.00     0.023 A 
ATOM      2  C1  UNL d   1      -6.000  -2.740   2.652  0.00  0.00     0.003 A 
ATOM      3  C2  UNL d   1      -5.487  -3.925   2.119  0.00  0.00     0.048 A 
ATOM      4  C3  UNL d   1      -4.140  -4.238   2.300  0.00  0.00     0.023 A 
ATOM      5  C4  UNL d   1      -3.303  -3.375   3.010  0.00  0.00     0.048 A 
ATOM      6  C5  UNL d   1      -3.821  -2.192   3.540  0.00  0.00     0.003 A 
ATOM      7  I   UNL d   1      -3.374  -6.000   1.508  0.00  0.00    -0.146 I 
ENDROOT
TORSDOF 0
ENDMDL
