MODEL 1
REMARK minimizedAffinity 7.85815525
REMARK minimizedRMSD -1
REMARK  0 active torsions:
REMARK  status: ('A' for Active; 'I' for Inactive)
ROOT
ATOM      1  C   UNL d   1       1.473   1.297  -2.369  0.00  0.00     0.023 A 
ATOM      2  C1  UNL d   1       0.689   2.336  -2.870  0.00  0.00     0.003 A 
ATOM      3  C2  UNL d   1       0.895   3.644  -2.427  0.00  0.00     0.048 A 
ATOM      4  C3  UNL d   1       1.888   3.906  -1.483  0.00  0.00     0.023 A 
ATOM      5  C4  UNL d   1       2.676   2.870  -0.980  0.00  0.00     0.048 A 
ATOM      6  C5  UNL d   1       2.465   1.564  -1.425  0.00  0.00     0.003 A 
ATOM      7  I   UNL d   1       2.196   5.853  -0.822  0.00  0.00    -0.146 I 
ENDROOT
TORSDOF 0
ENDMDL
