MODEL 1
REMARK minimizedAffinity 8.86381054
REMARK minimizedRMSD -1
REMARK  0 active torsions:
REMARK  status: ('A' for Active; 'I' for Inactive)
ROOT
ATOM      1  C   UNL d   1      -1.016  -2.615  -3.006  0.00  0.00     0.023 A 
ATOM      2  C1  UNL d   1      -1.551  -3.809  -2.523  0.00  0.00     0.003 A 
ATOM      3  C2  UNL d   1      -2.252  -4.659  -3.381  0.00  0.00     0.048 A 
ATOM      4  C3  UNL d   1      -2.415  -4.308  -4.721  0.00  0.00     0.023 A 
ATOM      5  C4  UNL d   1      -1.881  -3.114  -5.209  0.00  0.00     0.048 A 
ATOM      6  C5  UNL d   1      -1.181  -2.267  -4.347  0.00  0.00     0.003 A 
ATOM      7  I   UNL d   1      -3.459  -5.571  -6.000  0.00  0.00    -0.146 I 
ENDROOT
TORSDOF 0
ENDMDL
