MODEL 1
REMARK minimizedAffinity 4.9793005
REMARK minimizedRMSD -1
REMARK  0 active torsions:
REMARK  status: ('A' for Active; 'I' for Inactive)
ROOT
ATOM      1  C   UNL d   1      -1.161  -3.077  -3.752  0.00  0.00     0.023 A 
ATOM      2  C1  UNL d   1      -1.826  -4.136  -3.133  0.00  0.00     0.003 A 
ATOM      3  C2  UNL d   1      -2.895  -4.762  -3.776  0.00  0.00     0.048 A 
ATOM      4  C3  UNL d   1      -3.294  -4.326  -5.038  0.00  0.00     0.023 A 
ATOM      5  C4  UNL d   1      -2.632  -3.267  -5.662  0.00  0.00     0.048 A 
ATOM      6  C5  UNL d   1      -1.564  -2.643  -5.015  0.00  0.00     0.003 A 
ATOM      7  I   UNL d   1      -4.886  -5.257  -5.998  0.00  0.00    -0.146 I 
ENDROOT
TORSDOF 0
ENDMDL
