MODEL 1
REMARK minimizedAffinity 9.97974586
REMARK minimizedRMSD -1
REMARK  0 active torsions:
REMARK  status: ('A' for Active; 'I' for Inactive)
ROOT
ATOM      1  C   UNL d   1      -0.430  -2.834   3.174  0.00  0.00     0.023 A 
ATOM      2  C1  UNL d   1      -0.958  -3.754   2.268  0.00  0.00     0.003 A 
ATOM      3  C2  UNL d   1      -2.330  -4.010   2.250  0.00  0.00     0.048 A 
ATOM      4  C3  UNL d   1      -3.170  -3.341   3.141  0.00  0.00     0.023 A 
ATOM      5  C4  UNL d   1      -2.646  -2.419   4.049  0.00  0.00     0.048 A 
ATOM      6  C5  UNL d   1      -1.273  -2.167   4.063  0.00  0.00     0.003 A 
ATOM      7  I   UNL d   1      -5.213  -3.720   3.116  0.00  0.00    -0.146 I 
ENDROOT
TORSDOF 0
ENDMDL
