MODEL 1
REMARK minimizedAffinity -5.04933167
REMARK minimizedRMSD -1
REMARK  0 active torsions:
REMARK  status: ('A' for Active; 'I' for Inactive)
ROOT
ATOM      1  N1  IND d   1      -0.106   1.776  -1.372  0.00  0.00    -0.196 N 
ATOM      2  C2  IND d   1       0.113   0.808  -2.312  0.00  0.00     0.054 A 
ATOM      3  C3  IND d   1       0.490  -0.347  -1.717  0.00  0.00    -0.031 A 
ATOM      4  C4  IND d   1       0.714  -0.900   0.787  0.00  0.00     0.051 A 
ATOM      5  C5  IND d   1       0.654  -0.328   2.026  0.00  0.00    -0.031 A 
ATOM      6  C6  IND d   1       0.328   1.002   2.200  0.00  0.00     0.015 A 
ATOM      7  C7  IND d   1       0.038   1.809   1.136  0.00  0.00    -0.016 A 
ATOM      8  C8  IND d   1       0.105   1.233  -0.124  0.00  0.00    -0.047 A 
ATOM      9  C9  IND d   1       0.476  -0.105  -0.309  0.00  0.00    -0.096 A 
ATOM     10  HN1 IND d   1      -0.336   2.589  -1.534  0.00  0.00     0.298 HD
ENDROOT
TORSDOF 0
ENDMDL
