MODEL 1
REMARK minimizedAffinity -0.055175446
REMARK minimizedRMSD -1
REMARK  0 active torsions:
REMARK  status: ('A' for Active; 'I' for Inactive)
ROOT
ATOM      1  N1  IND d   1      -0.170   1.972  -2.389  0.00  0.00    -0.196 N 
ATOM      2  C2  IND d   1      -0.546   3.198  -1.916  0.00  0.00     0.054 A 
ATOM      3  C3  IND d   1      -0.579   3.190  -0.564  0.00  0.00    -0.031 A 
ATOM      4  C4  IND d   1       0.042   1.306   1.076  0.00  0.00     0.051 A 
ATOM      5  C5  IND d   1       0.408  -0.011   1.116  0.00  0.00    -0.031 A 
ATOM      6  C6  IND d   1       0.606  -0.748  -0.033  0.00  0.00     0.015 A 
ATOM      7  C7  IND d   1       0.456  -0.190  -1.271  0.00  0.00    -0.016 A 
ATOM      8  C8  IND d   1       0.078   1.145  -1.316  0.00  0.00    -0.047 A 
ATOM      9  C9  IND d   1      -0.166   1.886  -0.153  0.00  0.00    -0.096 A 
ATOM     10  HN1 IND d   1      -0.101   1.754  -3.218  0.00  0.00     0.298 HD
ENDROOT
TORSDOF 0
ENDMDL
