MODEL 1
REMARK minimizedAffinity -2.38000321
REMARK minimizedRMSD -1
REMARK  0 active torsions:
REMARK  status: ('A' for Active; 'I' for Inactive)
ROOT
ATOM      1  N1  IND d   1      -0.971   2.514   0.361  0.00  0.00    -0.196 N 
ATOM      2  C2  IND d   1      -0.753   2.949   1.639  0.00  0.00     0.054 A 
ATOM      3  C3  IND d   1      -0.197   1.967   2.382  0.00  0.00    -0.031 A 
ATOM      4  C4  IND d   1       0.535  -0.400   1.682  0.00  0.00     0.051 A 
ATOM      5  C5  IND d   1       0.508  -1.268   0.627  0.00  0.00    -0.031 A 
ATOM      6  C6  IND d   1      -0.022  -0.911  -0.597  0.00  0.00     0.015 A 
ATOM      7  C7  IND d   1      -0.536   0.336  -0.814  0.00  0.00    -0.016 A 
ATOM      8  C8  IND d   1      -0.516   1.217   0.257  0.00  0.00    -0.047 A 
ATOM      9  C9  IND d   1      -0.019   0.847   1.513  0.00  0.00    -0.096 A 
ATOM     10  HN1 IND d   1      -1.330   2.972  -0.271  0.00  0.00     0.298 HD
ENDROOT
TORSDOF 0
ENDMDL
