MODEL 1
REMARK minimizedAffinity -2.13505435
REMARK minimizedRMSD -1
REMARK  0 active torsions:
REMARK  status: ('A' for Active; 'I' for Inactive)
ROOT
ATOM      1  N1  IND d   1      -0.384   2.066  -0.441  0.00  0.00    -0.196 N 
ATOM      2  C2  IND d   1      -0.494   2.625   0.801  0.00  0.00     0.054 A 
ATOM      3  C3  IND d   1      -0.229   1.706   1.756  0.00  0.00    -0.031 A 
ATOM      4  C4  IND d   1       0.508  -0.748   1.504  0.00  0.00     0.051 A 
ATOM      5  C5  IND d   1       0.711  -1.721   0.565  0.00  0.00    -0.031 A 
ATOM      6  C6  IND d   1       0.560  -1.475  -0.784  0.00  0.00     0.015 A 
ATOM      7  C7  IND d   1       0.209  -0.239  -1.248  0.00  0.00    -0.016 A 
ATOM      8  C8  IND d   1      -0.006   0.749  -0.298  0.00  0.00    -0.047 A 
ATOM      9  C9  IND d   1       0.105   0.495   1.076  0.00  0.00    -0.096 A 
ATOM     10  HN1 IND d   1      -0.526   2.469  -1.187  0.00  0.00     0.298 HD
ENDROOT
TORSDOF 0
ENDMDL
