MODEL 1
REMARK minimizedAffinity -6.84835291
REMARK minimizedRMSD -1
REMARK  0 active torsions:
REMARK  status: ('A' for Active; 'I' for Inactive)
ROOT
ATOM      1  N1  IND d   1      -0.151   0.393  -1.166  0.00  0.00    -0.196 N 
ATOM      2  C2  IND d   1       0.346  -0.595  -0.363  0.00  0.00     0.054 A 
ATOM      3  C3  IND d   1       0.249  -0.238   0.937  0.00  0.00    -0.031 A 
ATOM      4  C4  IND d   1      -0.786   1.875   1.980  0.00  0.00     0.051 A 
ATOM      5  C5  IND d   1      -1.336   3.082   1.648  0.00  0.00    -0.031 A 
ATOM      6  C6  IND d   1      -1.525   3.460   0.335  0.00  0.00     0.015 A 
ATOM      7  C7  IND d   1      -1.180   2.638  -0.700  0.00  0.00    -0.016 A 
ATOM      8  C8  IND d   1      -0.616   1.415  -0.367  0.00  0.00    -0.047 A 
ATOM      9  C9  IND d   1      -0.382   1.043   0.963  0.00  0.00    -0.096 A 
ATOM     10  HN1 IND d   1      -0.171   0.379  -2.025  0.00  0.00     0.298 HD
ENDROOT
TORSDOF 0
ENDMDL
