MODEL 1
REMARK minimizedAffinity -5.33227491
REMARK minimizedRMSD -1
REMARK  0 active torsions:
REMARK  status: ('A' for Active; 'I' for Inactive)
ROOT
ATOM      1  N1  IND d   1       0.131  -0.408  -0.770  0.00  0.00    -0.196 N 
ATOM      2  C2  IND d   1       0.401  -1.091   0.382  0.00  0.00     0.054 A 
ATOM      3  C3  IND d   1       0.145  -0.315   1.460  0.00  0.00    -0.031 A 
ATOM      4  C4  IND d   1      -0.820   2.069   1.566  0.00  0.00     0.051 A 
ATOM      5  C5  IND d   1      -1.191   3.117   0.772  0.00  0.00    -0.031 A 
ATOM      6  C6  IND d   1      -1.142   3.042  -0.605  0.00  0.00     0.015 A 
ATOM      7  C7  IND d   1      -0.728   1.906  -1.242  0.00  0.00    -0.016 A 
ATOM      8  C8  IND d   1      -0.345   0.842  -0.438  0.00  0.00    -0.047 A 
ATOM      9  C9  IND d   1      -0.352   0.927   0.960  0.00  0.00    -0.096 A 
ATOM     10  HN1 IND d   1       0.240  -0.708  -1.569  0.00  0.00     0.298 HD
ENDROOT
TORSDOF 0
ENDMDL
