MODEL 1
REMARK minimizedAffinity 5.35857821
REMARK minimizedRMSD -1
REMARK  0 active torsions:
REMARK  status: ('A' for Active; 'I' for Inactive)
ROOT
ATOM      1  N1  IND d   1      -1.610  -0.774  -2.252  0.00  0.00    -0.196 N 
ATOM      2  C2  IND d   1      -0.771  -0.012  -1.488  0.00  0.00     0.054 A 
ATOM      3  C3  IND d   1      -1.423   1.071  -1.010  0.00  0.00    -0.031 A 
ATOM      4  C4  IND d   1      -3.897   1.737  -1.269  0.00  0.00     0.051 A 
ATOM      5  C5  IND d   1      -5.049   1.373  -1.908  0.00  0.00    -0.031 A 
ATOM      6  C6  IND d   1      -5.116   0.251  -2.708  0.00  0.00     0.015 A 
ATOM      7  C7  IND d   1      -4.031  -0.559  -2.891  0.00  0.00    -0.016 A 
ATOM      8  C8  IND d   1      -2.857  -0.189  -2.250  0.00  0.00    -0.047 A 
ATOM      9  C9  IND d   1      -2.772   0.972  -1.471  0.00  0.00    -0.096 A 
ATOM     10  HN1 IND d   1      -1.395  -1.497  -2.665  0.00  0.00     0.298 HD
ENDROOT
TORSDOF 0
ENDMDL
