MODEL 1
REMARK minimizedAffinity -0.227980286
REMARK minimizedRMSD -1
REMARK  0 active torsions:
REMARK  status: ('A' for Active; 'I' for Inactive)
ROOT
ATOM      1  N1  IND d   1       1.083   3.951   0.716  0.00  0.00    -0.196 N 
ATOM      2  C2  IND d   1       0.468   4.332  -0.444  0.00  0.00     0.054 A 
ATOM      3  C3  IND d   1      -0.542   3.484  -0.741  0.00  0.00    -0.031 A 
ATOM      4  C4  IND d   1      -1.428   1.465   0.589  0.00  0.00     0.051 A 
ATOM      5  C5  IND d   1      -1.167   0.705   1.694  0.00  0.00    -0.031 A 
ATOM      6  C6  IND d   1      -0.123   0.996   2.549  0.00  0.00     0.015 A 
ATOM      7  C7  IND d   1       0.695   2.069   2.335  0.00  0.00    -0.016 A 
ATOM      8  C8  IND d   1       0.437   2.839   1.210  0.00  0.00    -0.047 A 
ATOM      9  C9  IND d   1      -0.594   2.524   0.316  0.00  0.00    -0.096 A 
ATOM     10  HN1 IND d   1       1.759   4.341   1.077  0.00  0.00     0.298 HD
ENDROOT
TORSDOF 0
ENDMDL
