MODEL 1
REMARK minimizedAffinity -1.38589287
REMARK minimizedRMSD -1
REMARK  0 active torsions:
REMARK  status: ('A' for Active; 'I' for Inactive)
ROOT
ATOM      1  C2' OXE d   1      -1.473  -0.086   1.991  0.00  0.00     0.078 C 
ATOM      2  C1' OXE d   1      -1.000  -2.458   0.566  0.00  0.00     0.078 C 
ATOM      3  C1  OXE d   1      -0.499  -1.167  -0.031  0.00  0.00    -0.078 A 
ATOM      4  C2  OXE d   1      -0.776  -0.006   0.650  0.00  0.00    -0.078 A 
ATOM      5  C3  OXE d   1      -0.290   1.207   0.170  0.00  0.00     0.003 A 
ATOM      6  C4  OXE d   1       0.345   1.273  -1.076  0.00  0.00    -0.002 A 
ATOM      7  C5  OXE d   1       0.602   0.107  -1.805  0.00  0.00    -0.002 A 
ATOM      8  C6  OXE d   1       0.225  -1.123  -1.278  0.00  0.00     0.003 A 
ENDROOT
TORSDOF 0
ENDMDL
