MODEL 1
REMARK minimizedAffinity -3.24202967
REMARK minimizedRMSD -1
REMARK  0 active torsions:
REMARK  status: ('A' for Active; 'I' for Inactive)
ROOT
ATOM      1  C2' OXE d   1       0.499  -0.195   0.385  0.00  0.00     0.078 C 
ATOM      2  C1' OXE d   1       0.261   1.478  -1.857  0.00  0.00     0.078 C 
ATOM      3  C1  OXE d   1       1.073   1.978  -0.688  0.00  0.00    -0.078 A 
ATOM      4  C2  OXE d   1       1.146   1.173   0.423  0.00  0.00    -0.078 A 
ATOM      5  C3  OXE d   1       1.927   1.562   1.507  0.00  0.00     0.003 A 
ATOM      6  C4  OXE d   1       2.513   2.833   1.537  0.00  0.00    -0.002 A 
ATOM      7  C5  OXE d   1       2.419   3.686   0.432  0.00  0.00    -0.002 A 
ATOM      8  C6  OXE d   1       1.740   3.257  -0.703  0.00  0.00     0.003 A 
ENDROOT
TORSDOF 0
ENDMDL
