MODEL 1
REMARK minimizedAffinity -5.21595955
REMARK minimizedRMSD -1
REMARK  0 active torsions:
REMARK  status: ('A' for Active; 'I' for Inactive)
ROOT
ATOM      1  C2' OXE d   1      -1.942   0.331   1.547  0.00  0.00     0.078 C 
ATOM      2  C1' OXE d   1       0.188   1.559   0.193  0.00  0.00     0.078 C 
ATOM      3  C1  OXE d   1       0.141   0.052   0.211  0.00  0.00    -0.078 A 
ATOM      4  C2  OXE d   1      -0.879  -0.541   0.915  0.00  0.00    -0.078 A 
ATOM      5  C3  OXE d   1      -1.000  -1.928   0.918  0.00  0.00     0.003 A 
ATOM      6  C4  OXE d   1      -0.007  -2.727   0.340  0.00  0.00    -0.002 A 
ATOM      7  C5  OXE d   1       1.062  -2.144  -0.349  0.00  0.00    -0.002 A 
ATOM      8  C6  OXE d   1       1.128  -0.759  -0.459  0.00  0.00     0.003 A 
ENDROOT
TORSDOF 0
ENDMDL
