MODEL 1
REMARK minimizedAffinity -2.87172246
REMARK minimizedRMSD -1
REMARK  0 active torsions:
REMARK  status: ('A' for Active; 'I' for Inactive)
ROOT
ATOM      1  C2' OXE d   1       1.041  -1.294  -2.639  0.00  0.00     0.078 C 
ATOM      2  C1' OXE d   1       0.709  -2.002   0.058  0.00  0.00     0.078 C 
ATOM      3  C1  OXE d   1       0.478  -0.561  -0.325  0.00  0.00    -0.078 A 
ATOM      4  C2  OXE d   1       0.688  -0.215  -1.639  0.00  0.00    -0.078 A 
ATOM      5  C3  OXE d   1       0.436   1.089  -2.056  0.00  0.00     0.003 A 
ATOM      6  C4  OXE d   1       0.119   2.084  -1.123  0.00  0.00    -0.002 A 
ATOM      7  C5  OXE d   1      -0.061   1.760   0.226  0.00  0.00    -0.002 A 
ATOM      8  C6  OXE d   1       0.073   0.437   0.633  0.00  0.00     0.003 A 
ENDROOT
TORSDOF 0
ENDMDL
