MODEL 1
REMARK minimizedAffinity -4.62302113
REMARK minimizedRMSD -1
REMARK  0 active torsions:
REMARK  status: ('A' for Active; 'I' for Inactive)
ROOT
ATOM      1  C2' OXE d   1       0.156   1.053  -0.212  0.00  0.00     0.078 C 
ATOM      2  C1' OXE d   1      -2.092   0.110   1.180  0.00  0.00     0.078 C 
ATOM      3  C1  OXE d   1      -1.097  -0.907   0.679  0.00  0.00    -0.078 A 
ATOM      4  C2  OXE d   1      -0.024  -0.440  -0.041  0.00  0.00    -0.078 A 
ATOM      5  C3  OXE d   1       0.952  -1.330  -0.479  0.00  0.00     0.003 A 
ATOM      6  C4  OXE d   1       0.772  -2.710  -0.326  0.00  0.00    -0.002 A 
ATOM      7  C5  OXE d   1      -0.334  -3.210   0.370  0.00  0.00    -0.002 A 
ATOM      8  C6  OXE d   1      -1.254  -2.321   0.915  0.00  0.00     0.003 A 
ENDROOT
TORSDOF 0
ENDMDL
