MODEL 1
REMARK minimizedAffinity -3.36207771
REMARK minimizedRMSD -1
REMARK  0 active torsions:
REMARK  status: ('A' for Active; 'I' for Inactive)
ROOT
ATOM      1  C2' OXE d   1       0.134  -2.808   0.718  0.00  0.00     0.078 C 
ATOM      2  C1' OXE d   1      -1.393  -1.043   2.277  0.00  0.00     0.078 C 
ATOM      3  C1  OXE d   1      -0.796  -0.514   0.997  0.00  0.00    -0.078 A 
ATOM      4  C2  OXE d   1      -0.011  -1.372   0.264  0.00  0.00    -0.078 A 
ATOM      5  C3  OXE d   1       0.519  -0.952  -0.952  0.00  0.00     0.003 A 
ATOM      6  C4  OXE d   1       0.388   0.381  -1.360  0.00  0.00    -0.002 A 
ATOM      7  C5  OXE d   1      -0.374   1.282  -0.609  0.00  0.00    -0.002 A 
ATOM      8  C6  OXE d   1      -1.006   0.840   0.548  0.00  0.00     0.003 A 
ENDROOT
TORSDOF 0
ENDMDL
