MODEL 1
REMARK minimizedAffinity -5.89973354
REMARK minimizedRMSD -1
REMARK  0 active torsions:
REMARK  status: ('A' for Active; 'I' for Inactive)
ROOT
ATOM      1  C2' OXE d   1       0.526   0.222  -2.489  0.00  0.00     0.078 C 
ATOM      2  C1' OXE d   1       0.078   0.932   0.190  0.00  0.00     0.078 C 
ATOM      3  C1  OXE d   1       0.201  -0.535  -0.138  0.00  0.00    -0.078 A 
ATOM      4  C2  OXE d   1       0.374  -0.876  -1.458  0.00  0.00    -0.078 A 
ATOM      5  C3  OXE d   1       0.548  -2.211  -1.809  0.00  0.00     0.003 A 
ATOM      6  C4  OXE d   1       0.396  -3.221  -0.851  0.00  0.00    -0.002 A 
ATOM      7  C5  OXE d   1       0.180  -2.898   0.493  0.00  0.00    -0.002 A 
ATOM      8  C6  OXE d   1       0.123  -1.562   0.872  0.00  0.00     0.003 A 
ENDROOT
TORSDOF 0
ENDMDL
