MODEL 1
REMARK minimizedAffinity -2.98438668
REMARK minimizedRMSD -1
REMARK  0 active torsions:
REMARK  status: ('A' for Active; 'I' for Inactive)
ROOT
ATOM      1  C2' OXE d   1      -0.029   0.195   0.449  0.00  0.00     0.078 C 
ATOM      2  C1' OXE d   1      -0.193   1.902  -1.774  0.00  0.00     0.078 C 
ATOM      3  C1  OXE d   1       0.571   2.389  -0.568  0.00  0.00    -0.078 A 
ATOM      4  C2  OXE d   1       0.606   1.566   0.532  0.00  0.00    -0.078 A 
ATOM      5  C3  OXE d   1       1.344   1.943   1.651  0.00  0.00     0.003 A 
ATOM      6  C4  OXE d   1       1.920   3.217   1.724  0.00  0.00    -0.002 A 
ATOM      7  C5  OXE d   1       1.862   4.086   0.630  0.00  0.00    -0.002 A 
ATOM      8  C6  OXE d   1       1.229   3.672  -0.537  0.00  0.00     0.003 A 
ENDROOT
TORSDOF 0
ENDMDL
