MODEL 1
REMARK minimizedAffinity -4.28505611
REMARK minimizedRMSD -1
REMARK  0 active torsions:
REMARK  status: ('A' for Active; 'I' for Inactive)
ROOT
ATOM      1  C2' OXE d   1      -1.634  -0.025   1.866  0.00  0.00     0.078 C 
ATOM      2  C1' OXE d   1       0.135   1.285   0.123  0.00  0.00     0.078 C 
ATOM      3  C1  OXE d   1       0.059  -0.220   0.049  0.00  0.00    -0.078 A 
ATOM      4  C2  OXE d   1      -0.775  -0.855   0.938  0.00  0.00    -0.078 A 
ATOM      5  C3  OXE d   1      -0.924  -2.238   0.876  0.00  0.00     0.003 A 
ATOM      6  C4  OXE d   1      -0.118  -3.000   0.021  0.00  0.00    -0.002 A 
ATOM      7  C5  OXE d   1       0.767  -2.375  -0.864  0.00  0.00    -0.002 A 
ATOM      8  C6  OXE d   1       0.836  -0.987  -0.893  0.00  0.00     0.003 A 
ENDROOT
TORSDOF 0
ENDMDL
