MODEL 1
REMARK minimizedAffinity -1.89476168
REMARK minimizedRMSD -1
REMARK  0 active torsions:
REMARK  status: ('A' for Active; 'I' for Inactive)
ROOT
ATOM      1  C2' OXE d   1       0.058  -2.983   0.365  0.00  0.00     0.078 C 
ATOM      2  C1' OXE d   1       0.871  -1.663  -1.976  0.00  0.00     0.078 C 
ATOM      3  C1  OXE d   1       0.386  -0.818  -0.824  0.00  0.00    -0.078 A 
ATOM      4  C2  OXE d   1      -0.054  -1.475   0.300  0.00  0.00    -0.078 A 
ATOM      5  C3  OXE d   1      -0.459  -0.742   1.411  0.00  0.00     0.003 A 
ATOM      6  C4  OXE d   1      -0.569   0.652   1.340  0.00  0.00    -0.002 A 
ATOM      7  C5  OXE d   1      -0.164   1.338   0.190  0.00  0.00    -0.002 A 
ATOM      8  C6  OXE d   1       0.355   0.622  -0.883  0.00  0.00     0.003 A 
ENDROOT
TORSDOF 0
ENDMDL
