MODEL 1
REMARK minimizedAffinity -2.28743172
REMARK minimizedRMSD -1
REMARK  0 active torsions:
REMARK  status: ('A' for Active; 'I' for Inactive)
ROOT
ATOM      1  C2' OXE d   1       0.662  -1.564  -2.330  0.00  0.00     0.078 C 
ATOM      2  C1' OXE d   1      -0.284  -2.758   0.028  0.00  0.00     0.078 C 
ATOM      3  C1  OXE d   1      -0.251  -1.251  -0.033  0.00  0.00    -0.078 A 
ATOM      4  C2  OXE d   1       0.258  -0.676  -1.173  0.00  0.00    -0.078 A 
ATOM      5  C3  OXE d   1       0.261   0.710  -1.304  0.00  0.00     0.003 A 
ATOM      6  C4  OXE d   1      -0.105   1.524  -0.225  0.00  0.00    -0.002 A 
ATOM      7  C5  OXE d   1      -0.589   0.958   0.960  0.00  0.00    -0.002 A 
ATOM      8  C6  OXE d   1      -0.707  -0.424   1.056  0.00  0.00     0.003 A 
ENDROOT
TORSDOF 0
ENDMDL
