MODEL 1
REMARK minimizedAffinity -3.4027133
REMARK minimizedRMSD -1
REMARK  0 active torsions:
REMARK  status: ('A' for Active; 'I' for Inactive)
ROOT
ATOM      1  C2' OXE d   1       0.032  -3.500   0.143  0.00  0.00     0.078 C 
ATOM      2  C1' OXE d   1      -2.400  -2.496   1.121  0.00  0.00     0.078 C 
ATOM      3  C1  OXE d   1      -1.341  -1.502   0.713  0.00  0.00    -0.078 A 
ATOM      4  C2  OXE d   1      -0.137  -2.002   0.280  0.00  0.00    -0.078 A 
ATOM      5  C3  OXE d   1       0.855  -1.130  -0.160  0.00  0.00     0.003 A 
ATOM      6  C4  OXE d   1       0.694   0.254  -0.020  0.00  0.00    -0.002 A 
ATOM      7  C5  OXE d   1      -0.510   0.784   0.456  0.00  0.00    -0.002 A 
ATOM      8  C6  OXE d   1      -1.550  -0.077   0.787  0.00  0.00     0.003 A 
ENDROOT
TORSDOF 0
ENDMDL
