MODEL 1
REMARK minimizedAffinity -4.91166782
REMARK minimizedRMSD -1
REMARK  0 active torsions:
REMARK  status: ('A' for Active; 'I' for Inactive)
ROOT
ATOM      1  C2' OXE d   1      -0.018   2.017   0.261  0.00  0.00     0.078 C 
ATOM      2  C1' OXE d   1       2.353   3.518   0.178  0.00  0.00     0.078 C 
ATOM      3  C1  OXE d   1       1.342   3.858   1.244  0.00  0.00    -0.078 A 
ATOM      4  C2  OXE d   1       0.165   3.150   1.248  0.00  0.00    -0.078 A 
ATOM      5  C3  OXE d   1      -0.779   3.387   2.244  0.00  0.00     0.003 A 
ATOM      6  C4  OXE d   1      -0.607   4.443   3.147  0.00  0.00    -0.002 A 
ATOM      7  C5  OXE d   1       0.568   5.203   3.135  0.00  0.00    -0.002 A 
ATOM      8  C6  OXE d   1       1.568   4.897   2.219  0.00  0.00     0.003 A 
ENDROOT
TORSDOF 0
ENDMDL
