MODEL 1
REMARK minimizedAffinity -3.56589079
REMARK minimizedRMSD -1
REMARK  0 active torsions:
REMARK  status: ('A' for Active; 'I' for Inactive)
ROOT
ATOM      1  C2' OXE d   1       0.994   0.077  -1.128  0.00  0.00     0.078 C 
ATOM      2  C1' OXE d   1      -1.344   0.840   0.224  0.00  0.00     0.078 C 
ATOM      3  C1  OXE d   1      -0.161   1.775   0.282  0.00  0.00    -0.078 A 
ATOM      4  C2  OXE d   1       0.994   1.371  -0.343  0.00  0.00    -0.078 A 
ATOM      5  C3  OXE d   1       2.097   2.220  -0.367  0.00  0.00     0.003 A 
ATOM      6  C4  OXE d   1       2.092   3.410   0.370  0.00  0.00    -0.002 A 
ATOM      7  C5  OXE d   1       0.939   3.821   1.047  0.00  0.00    -0.002 A 
ATOM      8  C6  OXE d   1      -0.208   3.037   0.978  0.00  0.00     0.003 A 
ENDROOT
TORSDOF 0
ENDMDL
