MODEL 1
REMARK minimizedAffinity -5.24196577
REMARK minimizedRMSD -1
REMARK  0 active torsions:
REMARK  status: ('A' for Active; 'I' for Inactive)
ROOT
ATOM      1  C2' OXE d   1       0.779  -2.474  -2.582  0.00  0.00     0.078 C 
ATOM      2  C1' OXE d   1       0.294  -3.414   0.018  0.00  0.00     0.078 C 
ATOM      3  C1  OXE d   1       0.127  -1.937  -0.239  0.00  0.00    -0.078 A 
ATOM      4  C2  OXE d   1       0.412  -1.479  -1.502  0.00  0.00    -0.078 A 
ATOM      5  C3  OXE d   1       0.222  -0.134  -1.807  0.00  0.00     0.003 A 
ATOM      6  C4  OXE d   1      -0.108   0.781  -0.800  0.00  0.00    -0.002 A 
ATOM      7  C5  OXE d   1      -0.364   0.341   0.503  0.00  0.00    -0.002 A 
ATOM      8  C6  OXE d   1      -0.292  -1.017   0.790  0.00  0.00     0.003 A 
ENDROOT
TORSDOF 0
ENDMDL
