MODEL 1
REMARK minimizedAffinity -2.23269367
REMARK minimizedRMSD -1
REMARK  0 active torsions:
REMARK  status: ('A' for Active; 'I' for Inactive)
ROOT
ATOM      1  C2' OXE d   1      -0.472  -2.886   0.726  0.00  0.00     0.078 C 
ATOM      2  C1' OXE d   1       2.053  -1.908   1.463  0.00  0.00     0.078 C 
ATOM      3  C1  OXE d   1       1.013  -0.908   1.024  0.00  0.00    -0.078 A 
ATOM      4  C2  OXE d   1      -0.205  -1.400   0.620  0.00  0.00    -0.078 A 
ATOM      5  C3  OXE d   1      -1.219  -0.517   0.257  0.00  0.00     0.003 A 
ATOM      6  C4  OXE d   1      -0.960   0.855   0.153  0.00  0.00    -0.002 A 
ATOM      7  C5  OXE d   1       0.286   1.372   0.521  0.00  0.00    -0.002 A 
ATOM      8  C6  OXE d   1       1.268   0.511   0.998  0.00  0.00     0.003 A 
ENDROOT
TORSDOF 0
ENDMDL
