MODEL 1
REMARK minimizedAffinity -3.65959215
REMARK minimizedRMSD -1
REMARK  0 active torsions:
REMARK  status: ('A' for Active; 'I' for Inactive)
ROOT
ATOM      1  C2' OXE d   1      -1.174   1.803  -0.389  0.00  0.00     0.078 C 
ATOM      2  C1' OXE d   1       0.512   0.732  -2.361  0.00  0.00     0.078 C 
ATOM      3  C1  OXE d   1       0.292  -0.078  -1.109  0.00  0.00    -0.078 A 
ATOM      4  C2  OXE d   1      -0.497   0.474  -0.129  0.00  0.00    -0.078 A 
ATOM      5  C3  OXE d   1      -0.777  -0.255   1.024  0.00  0.00     0.003 A 
ATOM      6  C4  OXE d   1      -0.139  -1.478   1.261  0.00  0.00    -0.002 A 
ATOM      7  C5  OXE d   1       0.700  -2.041   0.293  0.00  0.00    -0.002 A 
ATOM      8  C6  OXE d   1       0.892  -1.375  -0.913  0.00  0.00     0.003 A 
ENDROOT
TORSDOF 0
ENDMDL
