MODEL 1
REMARK minimizedAffinity -2.86244249
REMARK minimizedRMSD -1
REMARK  0 active torsions:
REMARK  status: ('A' for Active; 'I' for Inactive)
ROOT
ATOM      1  C2' OXE d   1       2.602   3.793   0.374  0.00  0.00     0.078 C 
ATOM      2  C1' OXE d   1       0.379   2.080   0.373  0.00  0.00     0.078 C 
ATOM      3  C1  OXE d   1       0.206   3.456   0.966  0.00  0.00    -0.078 A 
ATOM      4  C2  OXE d   1       1.312   4.271   1.004  0.00  0.00    -0.078 A 
ATOM      5  C3  OXE d   1       1.194   5.570   1.491  0.00  0.00     0.003 A 
ATOM      6  C4  OXE d   1      -0.000   6.000   2.081  0.00  0.00    -0.002 A 
ATOM      7  C5  OXE d   1      -1.127   5.172   2.088  0.00  0.00    -0.002 A 
ATOM      8  C6  OXE d   1      -1.053   3.915   1.498  0.00  0.00     0.003 A 
ENDROOT
TORSDOF 0
ENDMDL
