MODEL 1
REMARK minimizedAffinity 5.49980593
REMARK minimizedRMSD -1
REMARK  0 active torsions:
REMARK  status: ('A' for Active; 'I' for Inactive)
ROOT
ATOM      1  N1  IND d   1       1.504  -2.205   2.203  0.00  0.00    -0.196 N 
ATOM      2  C2  IND d   1       1.926  -1.623   3.366  0.00  0.00     0.054 A 
ATOM      3  C3  IND d   1       1.108  -0.601   3.704  0.00  0.00    -0.031 A 
ATOM      4  C4  IND d   1      -1.039   0.227   2.549  0.00  0.00     0.051 A 
ATOM      5  C5  IND d   1      -1.806   0.033   1.435  0.00  0.00    -0.031 A 
ATOM      6  C6  IND d   1      -1.505  -0.939   0.502  0.00  0.00     0.015 A 
ATOM      7  C7  IND d   1      -0.426  -1.763   0.656  0.00  0.00    -0.016 A 
ATOM      8  C8  IND d   1       0.359  -1.564   1.782  0.00  0.00    -0.047 A 
ATOM      9  C9  IND d   1       0.082  -0.552   2.711  0.00  0.00    -0.096 A 
ATOM     10  HN1 IND d   1       1.889  -2.861   1.802  0.00  0.00     0.298 HD
ENDROOT
TORSDOF 0
ENDMDL
