MODEL 1
REMARK minimizedAffinity 6.60926056
REMARK minimizedRMSD -1
REMARK  0 active torsions:
REMARK  status: ('A' for Active; 'I' for Inactive)
ROOT
ATOM      1  N1  IND d   1      -2.682   1.392   2.468  0.00  0.00    -0.196 N 
ATOM      2  C2  IND d   1      -3.305   1.373   1.251  0.00  0.00     0.054 A 
ATOM      3  C3  IND d   1      -2.755   0.429   0.456  0.00  0.00    -0.031 A 
ATOM      4  C4  IND d   1      -0.892  -1.268   0.979  0.00  0.00     0.051 A 
ATOM      5  C5  IND d   1       0.009  -1.615   1.947  0.00  0.00    -0.031 A 
ATOM      6  C6  IND d   1       0.058  -0.965   3.163  0.00  0.00     0.015 A 
ATOM      7  C7  IND d   1      -0.803   0.052   3.463  0.00  0.00    -0.016 A 
ATOM      8  C8  IND d   1      -1.715   0.411   2.480  0.00  0.00    -0.047 A 
ATOM      9  C9  IND d   1      -1.741  -0.216   1.228  0.00  0.00    -0.096 A 
ATOM     10  HN1 IND d   1      -2.863   1.927   3.116  0.00  0.00     0.298 HD
ENDROOT
TORSDOF 0
ENDMDL
