MODEL 1
REMARK minimizedAffinity 2.77695155
REMARK minimizedRMSD -1
REMARK  0 active torsions:
REMARK  status: ('A' for Active; 'I' for Inactive)
ROOT
ATOM      1  N1  IND d   1      -0.349  -2.935  -2.782  0.00  0.00    -0.196 N 
ATOM      2  C2  IND d   1      -0.598  -2.244  -1.629  0.00  0.00     0.054 A 
ATOM      3  C3  IND d   1      -0.755  -0.928  -1.894  0.00  0.00    -0.031 A 
ATOM      4  C4  IND d   1      -0.745   0.297  -4.158  0.00  0.00     0.051 A 
ATOM      5  C5  IND d   1      -0.522   0.095  -5.491  0.00  0.00    -0.031 A 
ATOM      6  C6  IND d   1      -0.227  -1.153  -6.000  0.00  0.00     0.015 A 
ATOM      7  C7  IND d   1      -0.154  -2.253  -5.192  0.00  0.00    -0.016 A 
ATOM      8  C8  IND d   1      -0.373  -2.050  -3.837  0.00  0.00    -0.047 A 
ATOM      9  C9  IND d   1      -0.632  -0.778  -3.309  0.00  0.00    -0.096 A 
ATOM     10  HN1 IND d   1      -0.203  -3.781  -2.838  0.00  0.00     0.298 HD
ENDROOT
TORSDOF 0
ENDMDL
