MODEL 1
REMARK minimizedAffinity 3.52888441
REMARK minimizedRMSD -1
REMARK  0 active torsions:
REMARK  status: ('A' for Active; 'I' for Inactive)
ROOT
ATOM      1  N1  IND d   1       0.188  -2.327  -2.947  0.00  0.00    -0.196 N 
ATOM      2  C2  IND d   1      -0.359  -1.872  -1.779  0.00  0.00     0.054 A 
ATOM      3  C3  IND d   1      -0.917  -0.655  -1.965  0.00  0.00    -0.031 A 
ATOM      4  C4  IND d   1      -1.139   0.731  -4.123  0.00  0.00     0.051 A 
ATOM      5  C5  IND d   1      -0.763   0.746  -5.437  0.00  0.00    -0.031 A 
ATOM      6  C6  IND d   1      -0.039  -0.285  -6.000  0.00  0.00     0.015 A 
ATOM      7  C7  IND d   1       0.329  -1.379  -5.269  0.00  0.00    -0.016 A 
ATOM      8  C8  IND d   1      -0.045  -1.395  -3.933  0.00  0.00    -0.047 A 
ATOM      9  C9  IND d   1      -0.744  -0.332  -3.346  0.00  0.00    -0.096 A 
ATOM     10  HN1 IND d   1       0.606  -3.072  -3.048  0.00  0.00     0.298 HD
ENDROOT
TORSDOF 0
ENDMDL
