MODEL 1
REMARK minimizedAffinity 6.21807528
REMARK minimizedRMSD -1
REMARK  0 active torsions:
REMARK  status: ('A' for Active; 'I' for Inactive)
ROOT
ATOM      1  N1  IND d   1      -0.524  -0.568  -5.998  0.00  0.00    -0.196 N 
ATOM      2  C2  IND d   1      -1.358   0.514  -5.948  0.00  0.00     0.054 A 
ATOM      3  C3  IND d   1      -1.862   0.664  -4.703  0.00  0.00    -0.031 A 
ATOM      4  C4  IND d   1      -1.374  -0.691  -2.568  0.00  0.00     0.051 A 
ATOM      5  C5  IND d   1      -0.706  -1.797  -2.124  0.00  0.00    -0.031 A 
ATOM      6  C6  IND d   1       0.075  -2.564  -2.964  0.00  0.00     0.015 A 
ATOM      7  C7  IND d   1       0.227  -2.245  -4.284  0.00  0.00    -0.016 A 
ATOM      8  C8  IND d   1      -0.456  -1.127  -4.740  0.00  0.00    -0.047 A 
ATOM      9  C9  IND d   1      -1.284  -0.369  -3.902  0.00  0.00    -0.096 A 
ATOM     10  HN1 IND d   1      -0.112  -0.852  -6.697  0.00  0.00     0.298 HD
ENDROOT
TORSDOF 0
ENDMDL
