MODEL 1
REMARK minimizedAffinity -1.99725127
REMARK minimizedRMSD -1
REMARK  0 active torsions:
REMARK  status: ('A' for Active; 'I' for Inactive)
ROOT
ATOM      1  N1  IND d   1       0.125  -0.555  -5.796  0.00  0.00    -0.196 N 
ATOM      2  C2  IND d   1      -0.625   0.570  -6.000  0.00  0.00     0.054 A 
ATOM      3  C3  IND d   1      -1.556   0.696  -5.028  0.00  0.00    -0.031 A 
ATOM      4  C4  IND d   1      -1.962  -0.769  -2.950  0.00  0.00     0.051 A 
ATOM      5  C5  IND d   1      -1.552  -1.929  -2.353  0.00  0.00    -0.031 A 
ATOM      6  C6  IND d   1      -0.540  -2.703  -2.883  0.00  0.00     0.015 A 
ATOM      7  C7  IND d   1       0.110  -2.340  -4.028  0.00  0.00    -0.016 A 
ATOM      8  C8  IND d   1      -0.308  -1.167  -4.641  0.00  0.00    -0.047 A 
ATOM      9  C9  IND d   1      -1.363  -0.399  -4.131  0.00  0.00    -0.096 A 
ATOM     10  HN1 IND d   1       0.760  -0.833  -6.305  0.00  0.00     0.298 HD
ENDROOT
TORSDOF 0
ENDMDL
