MODEL 1
REMARK minimizedAffinity 4.20735979
REMARK minimizedRMSD -1
REMARK  0 active torsions:
REMARK  status: ('A' for Active; 'I' for Inactive)
ROOT
ATOM      1  N1  IND d   1      -0.004   0.708  -4.144  0.00  0.00    -0.196 N 
ATOM      2  C2  IND d   1       0.110   0.717  -5.506  0.00  0.00     0.054 A 
ATOM      3  C3  IND d   1      -0.046  -0.532  -5.999  0.00  0.00    -0.031 A 
ATOM      4  C4  IND d   1      -0.598  -2.722  -4.763  0.00  0.00     0.051 A 
ATOM      5  C5  IND d   1      -0.761  -3.239  -3.508  0.00  0.00    -0.031 A 
ATOM      6  C6  IND d   1      -0.681  -2.450  -2.379  0.00  0.00     0.015 A 
ATOM      7  C7  IND d   1      -0.445  -1.107  -2.463  0.00  0.00    -0.016 A 
ATOM      8  C8  IND d   1      -0.272  -0.580  -3.735  0.00  0.00    -0.047 A 
ATOM      9  C9  IND d   1      -0.310  -1.383  -4.882  0.00  0.00    -0.096 A 
ATOM     10  HN1 IND d   1       0.078   1.391  -3.629  0.00  0.00     0.298 HD
ENDROOT
TORSDOF 0
ENDMDL
