MODEL 1
REMARK minimizedAffinity 7.25599051
REMARK minimizedRMSD -1
REMARK  0 active torsions:
REMARK  status: ('A' for Active; 'I' for Inactive)
ROOT
ATOM      1  N1  IND d   1       5.255   2.374   5.656  0.00  0.00    -0.196 N 
ATOM      2  C2  IND d   1       5.902   1.220   5.999  0.00  0.00     0.054 A 
ATOM      3  C3  IND d   1       5.998   0.398   4.930  0.00  0.00    -0.031 A 
ATOM      4  C4  IND d   1       5.252   0.786   2.497  0.00  0.00     0.051 A 
ATOM      5  C5  IND d   1       4.581   1.674   1.705  0.00  0.00    -0.031 A 
ATOM      6  C6  IND d   1       4.093   2.867   2.198  0.00  0.00     0.015 A 
ATOM      7  C7  IND d   1       4.268   3.222   3.506  0.00  0.00    -0.016 A 
ATOM      8  C8  IND d   1       4.943   2.319   4.315  0.00  0.00    -0.047 A 
ATOM      9  C9  IND d   1       5.403   1.088   3.830  0.00  0.00    -0.096 A 
ATOM     10  HN1 IND d   1       5.073   3.025   6.187  0.00  0.00     0.298 HD
ENDROOT
TORSDOF 0
ENDMDL
