MODEL 1
REMARK minimizedAffinity 4.53661823
REMARK minimizedRMSD -1
REMARK  1 active torsions:
REMARK  status: ('A' for Active; 'I' for Inactive)
REMARK    1  A    between atoms: C3_4  and  O_7 
ROOT
ATOM      1  C   UNL d   1       3.882   2.417   0.772  0.00  0.00    -0.033 A 
ATOM      2  C1  UNL d   1       4.210   3.378  -0.187  0.00  0.00     0.039 A 
ATOM      3  C2  UNL d   1       4.109   3.074  -1.546  0.00  0.00    -0.080 A 
ATOM      4  C3  UNL d   1       3.678   1.808  -1.933  0.00  0.00     0.150 A 
ATOM      5  C4  UNL d   1       3.346   0.847  -0.983  0.00  0.00    -0.007 A 
ATOM      6  C5  UNL d   1       3.449   1.152   0.373  0.00  0.00     0.039 A 
ENDROOT
BRANCH   4   7
ATOM      7  O   UNL d   1       3.568   1.463  -3.247  0.00  0.00    -0.526 OA
ATOM      8  H5  UNL d   1       3.858   2.217  -3.788  0.00  0.00     0.418 HD
ENDBRANCH   4   7
TORSDOF 1
ENDMDL
