MODEL 1
REMARK minimizedAffinity 8.84801102
REMARK minimizedRMSD -1
REMARK  1 active torsions:
REMARK  status: ('A' for Active; 'I' for Inactive)
REMARK    1  A    between atoms: C3_4  and  O_7 
ROOT
ATOM      1  C   UNL d   1       2.356  -0.585   0.021  0.00  0.00    -0.033 A 
ATOM      2  C1  UNL d   1       3.051   0.338   0.804  0.00  0.00     0.039 A 
ATOM      3  C2  UNL d   1       3.720   1.405   0.201  0.00  0.00    -0.080 A 
ATOM      4  C3  UNL d   1       3.685   1.538  -1.184  0.00  0.00     0.150 A 
ATOM      5  C4  UNL d   1       2.991   0.624  -1.971  0.00  0.00    -0.007 A 
ATOM      6  C5  UNL d   1       2.325  -0.441  -1.367  0.00  0.00     0.039 A 
ENDROOT
BRANCH   4   7
ATOM      7  O   UNL d   1       4.326   2.560  -1.818  0.00  0.00    -0.526 OA
ATOM      8  H5  UNL d   1       4.787   3.096  -1.151  0.00  0.00     0.418 HD
ENDBRANCH   4   7
TORSDOF 1
ENDMDL
