MODEL 1
REMARK minimizedAffinity 6.17012978
REMARK minimizedRMSD -1
REMARK  1 active torsions:
REMARK  status: ('A' for Active; 'I' for Inactive)
REMARK    1  A    between atoms: C3_4  and  O_7 
ROOT
ATOM      1  C   UNL d   1       2.935   1.261  -1.085  0.00  0.00    -0.033 A 
ATOM      2  C1  UNL d   1       2.848   1.015   0.286  0.00  0.00     0.039 A 
ATOM      3  C2  UNL d   1       3.657   1.723   1.177  0.00  0.00    -0.080 A 
ATOM      4  C3  UNL d   1       4.546   2.674   0.685  0.00  0.00     0.150 A 
ATOM      5  C4  UNL d   1       4.636   2.927  -0.680  0.00  0.00    -0.007 A 
ATOM      6  C5  UNL d   1       3.828   2.218  -1.569  0.00  0.00     0.039 A 
ENDROOT
BRANCH   4   7
ATOM      7  O   UNL d   1       5.359   3.387   1.515  0.00  0.00    -0.526 OA
ATOM      8  H5  UNL d   1       5.209   3.085   2.426  0.00  0.00     0.418 HD
ENDBRANCH   4   7
TORSDOF 1
ENDMDL
