MODEL 1
REMARK minimizedAffinity 1.97855675
REMARK minimizedRMSD -1
REMARK  1 active torsions:
REMARK  status: ('A' for Active; 'I' for Inactive)
REMARK    1  A    between atoms: C3_4  and  O_7 
ROOT
ATOM      1  C   UNL d   1       2.578  -0.293   0.636  0.00  0.00    -0.033 A 
ATOM      2  C1  UNL d   1       2.179  -0.346  -0.702  0.00  0.00     0.039 A 
ATOM      3  C2  UNL d   1       2.513   0.693  -1.573  0.00  0.00    -0.080 A 
ATOM      4  C3  UNL d   1       3.245   1.776  -1.096  0.00  0.00     0.150 A 
ATOM      5  C4  UNL d   1       3.649   1.834   0.234  0.00  0.00    -0.007 A 
ATOM      6  C5  UNL d   1       3.314   0.796   1.103  0.00  0.00     0.039 A 
ENDROOT
BRANCH   4   7
ATOM      7  O   UNL d   1       3.590   2.816  -1.908  0.00  0.00    -0.526 OA
ATOM      8  H5  UNL d   1       3.219   2.653  -2.791  0.00  0.00     0.418 HD
ENDBRANCH   4   7
TORSDOF 1
ENDMDL
