MODEL 1
REMARK minimizedAffinity 6.60716391
REMARK minimizedRMSD -1
REMARK  1 active torsions:
REMARK  status: ('A' for Active; 'I' for Inactive)
REMARK    1  A    between atoms: C3_4  and  O_7 
ROOT
ATOM      1  C   UNL d   1      -2.201  -5.326   4.275  0.00  0.00    -0.033 A 
ATOM      2  C1  UNL d   1      -1.341  -4.399   3.683  0.00  0.00     0.039 A 
ATOM      3  C2  UNL d   1      -0.091  -4.141   4.250  0.00  0.00    -0.080 A 
ATOM      4  C3  UNL d   1       0.286  -4.818   5.407  0.00  0.00     0.150 A 
ATOM      5  C4  UNL d   1      -0.564  -5.745   6.000  0.00  0.00    -0.007 A 
ATOM      6  C5  UNL d   1      -1.812  -6.000   5.433  0.00  0.00     0.039 A 
ENDROOT
BRANCH   4   7
ATOM      7  O   UNL d   1       1.494  -4.597   5.999  0.00  0.00    -0.526 OA
ATOM      8  H5  UNL d   1       1.963  -3.910   5.496  0.00  0.00     0.418 HD
ENDBRANCH   4   7
TORSDOF 1
ENDMDL
