MODEL 1
REMARK minimizedAffinity 11.2580605
REMARK minimizedRMSD -1
REMARK  1 active torsions:
REMARK  status: ('A' for Active; 'I' for Inactive)
REMARK    1  A    between atoms: C3_4  and  O_7 
ROOT
ATOM      1  C   UNL d   1      -2.123   1.290  -1.433  0.00  0.00    -0.033 A 
ATOM      2  C1  UNL d   1      -2.817   0.341  -2.186  0.00  0.00     0.039 A 
ATOM      3  C2  UNL d   1      -4.108  -0.040  -1.815  0.00  0.00    -0.080 A 
ATOM      4  C3  UNL d   1      -4.693   0.536  -0.690  0.00  0.00     0.150 A 
ATOM      5  C4  UNL d   1      -4.009   1.485   0.063  0.00  0.00    -0.007 A 
ATOM      6  C5  UNL d   1      -2.719   1.863  -0.309  0.00  0.00     0.039 A 
ENDROOT
BRANCH   4   7
ATOM      7  O   UNL d   1      -5.949   0.192  -0.286  0.00  0.00    -0.526 OA
ATOM      8  H5  UNL d   1      -6.287  -0.494  -0.884  0.00  0.00     0.418 HD
ENDBRANCH   4   7
TORSDOF 1
ENDMDL
