MODEL 1
REMARK minimizedAffinity 6.23429155
REMARK minimizedRMSD -1
REMARK  1 active torsions:
REMARK  status: ('A' for Active; 'I' for Inactive)
REMARK    1  A    between atoms: C3_4  and  O_7 
ROOT
ATOM      1  C   UNL d   1       4.138   3.751  -2.369  0.00  0.00    -0.033 A 
ATOM      2  C1  UNL d   1       5.392   4.015  -2.924  0.00  0.00     0.039 A 
ATOM      3  C2  UNL d   1       6.000   3.075  -3.759  0.00  0.00    -0.080 A 
ATOM      4  C3  UNL d   1       5.344   1.878  -4.031  0.00  0.00     0.150 A 
ATOM      5  C4  UNL d   1       4.093   1.610  -3.485  0.00  0.00    -0.007 A 
ATOM      6  C5  UNL d   1       3.488   2.549  -2.651  0.00  0.00     0.039 A 
ENDROOT
BRANCH   4   7
ATOM      7  O   UNL d   1       5.900   0.928  -4.836  0.00  0.00    -0.526 OA
ATOM      8  H5  UNL d   1       6.777   1.239  -5.118  0.00  0.00     0.418 HD
ENDBRANCH   4   7
TORSDOF 1
ENDMDL
