MODEL 1
REMARK minimizedAffinity 16.0253868
REMARK minimizedRMSD -1
REMARK  1 active torsions:
REMARK  status: ('A' for Active; 'I' for Inactive)
REMARK    1  A    between atoms: C3_4  and  O_7 
ROOT
ATOM      1  C   UNL d   1      -4.745   0.531  -5.991  0.00  0.00    -0.033 A 
ATOM      2  C1  UNL d   1      -5.542   1.678  -5.995  0.00  0.00     0.039 A 
ATOM      3  C2  UNL d   1      -4.949   2.942  -5.999  0.00  0.00    -0.080 A 
ATOM      4  C3  UNL d   1      -3.561   3.046  -6.000  0.00  0.00     0.150 A 
ATOM      5  C4  UNL d   1      -2.761   1.908  -5.999  0.00  0.00    -0.007 A 
ATOM      6  C5  UNL d   1      -3.354   0.647  -5.995  0.00  0.00     0.039 A 
ENDROOT
BRANCH   4   7
ATOM      7  O   UNL d   1      -2.937   4.258  -5.998  0.00  0.00    -0.526 OA
ATOM      8  H5  UNL d   1      -3.616   4.953  -5.970  0.00  0.00     0.418 HD
ENDBRANCH   4   7
TORSDOF 1
ENDMDL
