MODEL 1
REMARK minimizedAffinity -4.4510746
REMARK minimizedRMSD -1
REMARK  0 active torsions:
REMARK  status: ('A' for Active; 'I' for Inactive)
ROOT
ATOM      1  C   UNL d   1      -1.869  -0.512  -2.641  0.00  0.00     0.124 A 
ATOM      2  C1  UNL d   1      -2.168  -0.150  -1.334  0.00  0.00     0.062 A 
ATOM      3  C2  UNL d   1      -1.147   0.194  -0.453  0.00  0.00     0.162 A 
ATOM      4  C3  UNL d   1       0.183   0.177  -0.874  0.00  0.00    -0.034 A 
ATOM      5  C4  UNL d   1       0.475  -0.189  -2.189  0.00  0.00     0.162 A 
ATOM      6  C5  UNL d   1      -0.549  -0.531  -3.067  0.00  0.00     0.062 A 
ATOM      7  F   UNL d   1      -0.258  -0.881  -4.328  0.00  0.00    -0.097 F 
ATOM      8  F1  UNL d   1       1.742  -0.215  -2.627  0.00  0.00    -0.096 F 
ATOM      9  I   UNL d   1       1.712   0.690   0.442  0.00  0.00    -0.060 I 
ATOM     10  F2  UNL d   1      -1.465   0.540   0.804  0.00  0.00    -0.096 F 
ATOM     11  F3  UNL d   1      -3.443  -0.131  -0.920  0.00  0.00    -0.097 F 
ATOM     12  F4  UNL d   1      -2.853  -0.843  -3.487  0.00  0.00    -0.092 F 
ENDROOT
TORSDOF 0
ENDMDL
