MODEL 1
REMARK minimizedAffinity -3.33764434
REMARK minimizedRMSD -1
REMARK  0 active torsions:
REMARK  status: ('A' for Active; 'I' for Inactive)
ROOT
ATOM      1  C   UNL d   1       2.025   0.958   0.409  0.00  0.00     0.124 A 
ATOM      2  C1  UNL d   1       1.892  -0.390   0.715  0.00  0.00     0.062 A 
ATOM      3  C2  UNL d   1       0.646  -1.004   0.644  0.00  0.00     0.162 A 
ATOM      4  C3  UNL d   1      -0.480  -0.272   0.266  0.00  0.00    -0.034 A 
ATOM      5  C4  UNL d   1      -0.339   1.083  -0.039  0.00  0.00     0.162 A 
ATOM      6  C5  UNL d   1       0.909   1.693   0.033  0.00  0.00     0.062 A 
ATOM      7  F   UNL d   1       1.035   2.995  -0.262  0.00  0.00    -0.097 F 
ATOM      8  F1  UNL d   1      -1.400   1.817  -0.406  0.00  0.00    -0.096 F 
ATOM      9  I   UNL d   1      -2.346  -1.187   0.159  0.00  0.00    -0.060 I 
ATOM     10  F2  UNL d   1       0.547  -2.308   0.945  0.00  0.00    -0.096 F 
ATOM     11  F3  UNL d   1       2.968  -1.102   1.079  0.00  0.00    -0.097 F 
ATOM     12  F4  UNL d   1       3.226   1.547   0.479  0.00  0.00    -0.092 F 
ENDROOT
TORSDOF 0
ENDMDL
