MODEL 1
REMARK minimizedAffinity 0.132982701
REMARK minimizedRMSD -1
REMARK  0 active torsions:
REMARK  status: ('A' for Active; 'I' for Inactive)
ROOT
ATOM      1  C   UNL d   1      -1.618  -0.325   0.164  0.00  0.00     0.124 A 
ATOM      2  C1  UNL d   1      -0.974  -1.434   0.694  0.00  0.00     0.062 A 
ATOM      3  C2  UNL d   1       0.414  -1.459   0.789  0.00  0.00     0.162 A 
ATOM      4  C3  UNL d   1       1.169  -0.370   0.354  0.00  0.00    -0.034 A 
ATOM      5  C4  UNL d   1       0.514   0.742  -0.179  0.00  0.00     0.162 A 
ATOM      6  C5  UNL d   1      -0.874   0.762  -0.272  0.00  0.00     0.062 A 
ATOM      7  F   UNL d   1      -1.494   1.835  -0.784  0.00  0.00    -0.097 F 
ATOM      8  F1  UNL d   1       1.209   1.807  -0.607  0.00  0.00    -0.096 F 
ATOM      9  I   UNL d   1       3.245  -0.403   0.494  0.00  0.00    -0.060 I 
ATOM     10  F2  UNL d   1       1.009  -2.544   1.305  0.00  0.00    -0.096 F 
ATOM     11  F3  UNL d   1      -1.692  -2.486   1.115  0.00  0.00    -0.097 F 
ATOM     12  F4  UNL d   1      -2.954  -0.304   0.073  0.00  0.00    -0.092 F 
ENDROOT
TORSDOF 0
ENDMDL
