MODEL 1
REMARK minimizedAffinity -4.50786591
REMARK minimizedRMSD -1
REMARK  0 active torsions:
REMARK  status: ('A' for Active; 'I' for Inactive)
ROOT
ATOM      1  C   UNL d   1       2.384  -1.101   1.806  0.00  0.00     0.124 A 
ATOM      2  C1  UNL d   1       2.171   0.130   1.203  0.00  0.00     0.062 A 
ATOM      3  C2  UNL d   1       0.949   0.411   0.598  0.00  0.00     0.162 A 
ATOM      4  C3  UNL d   1      -0.070  -0.542   0.594  0.00  0.00    -0.034 A 
ATOM      5  C4  UNL d   1       0.153  -1.779   1.203  0.00  0.00     0.162 A 
ATOM      6  C5  UNL d   1       1.376  -2.054   1.806  0.00  0.00     0.062 A 
ATOM      7  F   UNL d   1       1.580  -3.245   2.388  0.00  0.00    -0.097 F 
ATOM      8  F1  UNL d   1      -0.805  -2.718   1.217  0.00  0.00    -0.096 F 
ATOM      9  I   UNL d   1      -1.898  -0.127  -0.309  0.00  0.00    -0.060 I 
ATOM     10  F2  UNL d   1       0.770   1.609   0.022  0.00  0.00    -0.096 F 
ATOM     11  F3  UNL d   1       3.144   1.052   1.201  0.00  0.00    -0.097 F 
ATOM     12  F4  UNL d   1       3.561  -1.369   2.387  0.00  0.00    -0.092 F 
ENDROOT
TORSDOF 0
ENDMDL
