MODEL 1
REMARK minimizedAffinity -1.8562938
REMARK minimizedRMSD -1
REMARK  0 active torsions:
REMARK  status: ('A' for Active; 'I' for Inactive)
ROOT
ATOM      1  C   UNL d   1       1.899  -0.339   0.530  0.00  0.00     0.124 A 
ATOM      2  C1  UNL d   1       0.775  -1.152   0.481  0.00  0.00     0.062 A 
ATOM      3  C2  UNL d   1      -0.400  -0.687  -0.102  0.00  0.00     0.162 A 
ATOM      4  C3  UNL d   1      -0.458   0.598  -0.641  0.00  0.00    -0.034 A 
ATOM      5  C4  UNL d   1       0.676   1.411  -0.587  0.00  0.00     0.162 A 
ATOM      6  C5  UNL d   1       1.849   0.941  -0.004  0.00  0.00     0.062 A 
ATOM      7  F   UNL d   1       2.934   1.728   0.043  0.00  0.00    -0.097 F 
ATOM      8  F1  UNL d   1       0.656   2.651  -1.095  0.00  0.00    -0.096 F 
ATOM      9  I   UNL d   1      -2.214   1.298  -1.512  0.00  0.00    -0.060 I 
ATOM     10  F2  UNL d   1      -1.471  -1.494  -0.135  0.00  0.00    -0.096 F 
ATOM     11  F3  UNL d   1       0.821  -2.389   0.996  0.00  0.00    -0.097 F 
ATOM     12  F4  UNL d   1       3.029  -0.789   1.092  0.00  0.00    -0.092 F 
ENDROOT
TORSDOF 0
ENDMDL
