MODEL 1
REMARK minimizedAffinity 0.817318261
REMARK minimizedRMSD -1
REMARK  0 active torsions:
REMARK  status: ('A' for Active; 'I' for Inactive)
ROOT
ATOM      1  C   UNL d   1       2.426  -0.134   0.838  0.00  0.00     0.124 A 
ATOM      2  C1  UNL d   1       1.545  -1.198   0.707  0.00  0.00     0.062 A 
ATOM      3  C2  UNL d   1       0.277  -0.996   0.170  0.00  0.00     0.162 A 
ATOM      4  C3  UNL d   1      -0.118   0.278  -0.241  0.00  0.00    -0.034 A 
ATOM      5  C4  UNL d   1       0.773   1.344  -0.105  0.00  0.00     0.162 A 
ATOM      6  C5  UNL d   1       2.040   1.136   0.432  0.00  0.00     0.062 A 
ATOM      7  F   UNL d   1       2.889   2.166   0.558  0.00  0.00    -0.097 F 
ATOM      8  F1  UNL d   1       0.426   2.581  -0.491  0.00  0.00    -0.096 F 
ATOM      9  I   UNL d   1      -2.013   0.585  -1.045  0.00  0.00    -0.060 I 
ATOM     10  F2  UNL d   1      -0.553  -2.043   0.055  0.00  0.00    -0.096 F 
ATOM     11  F3  UNL d   1       1.916  -2.425   1.100  0.00  0.00    -0.097 F 
ATOM     12  F4  UNL d   1       3.645  -0.331   1.356  0.00  0.00    -0.092 F 
ENDROOT
TORSDOF 0
ENDMDL
