MODEL 1
REMARK minimizedAffinity -3.13572788
REMARK minimizedRMSD -1
REMARK  0 active torsions:
REMARK  status: ('A' for Active; 'I' for Inactive)
ROOT
ATOM      1  C   UNL d   1       2.454  -0.483   1.431  0.00  0.00     0.124 A 
ATOM      2  C1  UNL d   1       2.011   0.764   1.013  0.00  0.00     0.062 A 
ATOM      3  C2  UNL d   1       0.718   0.920   0.523  0.00  0.00     0.162 A 
ATOM      4  C3  UNL d   1      -0.143  -0.175   0.447  0.00  0.00    -0.034 A 
ATOM      5  C4  UNL d   1       0.310  -1.426   0.868  0.00  0.00     0.162 A 
ATOM      6  C5  UNL d   1       1.603  -1.577   1.357  0.00  0.00     0.062 A 
ATOM      7  F   UNL d   1       2.029  -2.783   1.760  0.00  0.00    -0.097 F 
ATOM      8  F1  UNL d   1      -0.492  -2.500   0.809  0.00  0.00    -0.096 F 
ATOM      9  I   UNL d   1      -2.077   0.054  -0.286  0.00  0.00    -0.060 I 
ATOM     10  F2  UNL d   1       0.317   2.138   0.126  0.00  0.00    -0.096 F 
ATOM     11  F3  UNL d   1       2.831   1.823   1.082  0.00  0.00    -0.097 F 
ATOM     12  F4  UNL d   1       3.699  -0.631   1.901  0.00  0.00    -0.092 F 
ENDROOT
TORSDOF 0
ENDMDL
