MODEL 1
REMARK minimizedAffinity -3.25920367
REMARK minimizedRMSD -1
REMARK  0 active torsions:
REMARK  status: ('A' for Active; 'I' for Inactive)
ROOT
ATOM      1  C   UNL d   1       2.630  -1.151   1.260  0.00  0.00     0.124 A 
ATOM      2  C1  UNL d   1       2.467   0.013   0.521  0.00  0.00     0.062 A 
ATOM      3  C2  UNL d   1       1.212   0.361   0.031  0.00  0.00     0.162 A 
ATOM      4  C3  UNL d   1       0.108  -0.455   0.280  0.00  0.00    -0.034 A 
ATOM      5  C4  UNL d   1       0.280  -1.624   1.023  0.00  0.00     0.162 A 
ATOM      6  C5  UNL d   1       1.536  -1.968   1.510  0.00  0.00     0.062 A 
ATOM      7  F   UNL d   1       1.692  -3.093   2.224  0.00  0.00    -0.097 F 
ATOM      8  F1  UNL d   1      -0.760  -2.432   1.281  0.00  0.00    -0.096 F 
ATOM      9  I   UNL d   1      -1.771   0.062  -0.450  0.00  0.00    -0.060 I 
ATOM     10  F2  UNL d   1       1.083   1.491  -0.680  0.00  0.00    -0.096 F 
ATOM     11  F3  UNL d   1       3.522   0.803   0.277  0.00  0.00    -0.097 F 
ATOM     12  F4  UNL d   1       3.839  -1.484   1.729  0.00  0.00    -0.092 F 
ENDROOT
TORSDOF 0
ENDMDL
