MODEL 1
REMARK minimizedAffinity 1.17270851
REMARK minimizedRMSD -1
REMARK  0 active torsions:
REMARK  status: ('A' for Active; 'I' for Inactive)
ROOT
ATOM      1  C   UNL d   1       1.975  -0.811   0.912  0.00  0.00     0.124 A 
ATOM      2  C1  UNL d   1       1.940   0.519   0.518  0.00  0.00     0.062 A 
ATOM      3  C2  UNL d   1       0.802   1.038  -0.093  0.00  0.00     0.162 A 
ATOM      4  C3  UNL d   1      -0.312   0.226  -0.312  0.00  0.00    -0.034 A 
ATOM      5  C4  UNL d   1      -0.268  -1.111   0.087  0.00  0.00     0.162 A 
ATOM      6  C5  UNL d   1       0.872  -1.625   0.697  0.00  0.00     0.062 A 
ATOM      7  F   UNL d   1       0.904  -2.910   1.077  0.00  0.00    -0.097 F 
ATOM      8  F1  UNL d   1      -1.320  -1.919  -0.109  0.00  0.00    -0.096 F 
ATOM      9  I   UNL d   1      -2.015   0.998  -1.225  0.00  0.00    -0.060 I 
ATOM     10  F2  UNL d   1       0.795   2.327  -0.464  0.00  0.00    -0.096 F 
ATOM     11  F3  UNL d   1       3.005   1.307   0.724  0.00  0.00    -0.097 F 
ATOM     12  F4  UNL d   1       3.072  -1.308   1.499  0.00  0.00    -0.092 F 
ENDROOT
TORSDOF 0
ENDMDL
