MODEL 1
REMARK minimizedAffinity -1.95821512
REMARK minimizedRMSD -1
REMARK  0 active torsions:
REMARK  status: ('A' for Active; 'I' for Inactive)
ROOT
ATOM      1  C   UNL d   1       1.427   1.164  -0.124  0.00  0.00     0.124 A 
ATOM      2  C1  UNL d   1       0.153   0.649   0.071  0.00  0.00     0.062 A 
ATOM      3  C2  UNL d   1      -0.021  -0.543   0.769  0.00  0.00     0.162 A 
ATOM      4  C3  UNL d   1       1.082  -1.228   1.278  0.00  0.00    -0.034 A 
ATOM      5  C4  UNL d   1       2.361  -0.704   1.077  0.00  0.00     0.162 A 
ATOM      6  C5  UNL d   1       2.529   0.488   0.379  0.00  0.00     0.062 A 
ATOM      7  F   UNL d   1       3.761   0.984   0.191  0.00  0.00    -0.097 F 
ATOM      8  F1  UNL d   1       3.443  -1.336   1.554  0.00  0.00    -0.096 F 
ATOM      9  I   UNL d   1       0.827  -3.010   2.323  0.00  0.00    -0.060 I 
ATOM     10  F2  UNL d   1      -1.264  -1.017   0.943  0.00  0.00    -0.096 F 
ATOM     11  F3  UNL d   1      -0.914   1.300  -0.415  0.00  0.00    -0.097 F 
ATOM     12  F4  UNL d   1       1.591   2.310  -0.797  0.00  0.00    -0.092 F 
ENDROOT
TORSDOF 0
ENDMDL
