MODEL 1
REMARK minimizedAffinity -3.84261441
REMARK minimizedRMSD -1
REMARK  0 active torsions:
REMARK  status: ('A' for Active; 'I' for Inactive)
ROOT
ATOM      1  O1  BZF d   1      -1.348  -0.686   1.029  0.00  0.00    -0.204 OA
ATOM      2  C2  BZF d   1      -0.415  -1.654   0.710  0.00  0.00     0.174 A 
ATOM      3  C3  BZF d   1       0.658  -1.104   0.106  0.00  0.00    -0.012 A 
ATOM      4  C3A BZF d   1       0.419   0.307   0.127  0.00  0.00    -0.107 A 
ATOM      5  C4  BZF d   1       1.132   1.386  -0.311  0.00  0.00     0.055 A 
ATOM      6  C5  BZF d   1       0.585   2.626  -0.205  0.00  0.00    -0.016 A 
ATOM      7  C6  BZF d   1      -0.672   2.822   0.327  0.00  0.00     0.022 A 
ATOM      8  C7  BZF d   1      -1.415   1.782   0.779  0.00  0.00     0.029 A 
ATOM      9  C7A BZF d   1      -0.852   0.532   0.704  0.00  0.00     0.058 A 
ENDROOT
TORSDOF 0
ENDMDL
