MODEL 1
REMARK minimizedAffinity -4.00324297
REMARK minimizedRMSD -1
REMARK  0 active torsions:
REMARK  status: ('A' for Active; 'I' for Inactive)
ROOT
ATOM      1  O1  BZF d   1       2.059   0.733   0.839  0.00  0.00    -0.204 OA
ATOM      2  C2  BZF d   1       1.941  -0.593   0.472  0.00  0.00     0.174 A 
ATOM      3  C3  BZF d   1       0.648  -0.923   0.277  0.00  0.00    -0.012 A 
ATOM      4  C3A BZF d   1      -0.081   0.296   0.448  0.00  0.00    -0.107 A 
ATOM      5  C4  BZF d   1      -1.406   0.618   0.364  0.00  0.00     0.055 A 
ATOM      6  C5  BZF d   1      -1.798   1.885   0.660  0.00  0.00    -0.016 A 
ATOM      7  C6  BZF d   1      -0.894   2.852   1.047  0.00  0.00     0.022 A 
ATOM      8  C7  BZF d   1       0.431   2.583   1.140  0.00  0.00     0.029 A 
ATOM      9  C7A BZF d   1       0.834   1.312   0.809  0.00  0.00     0.058 A 
ENDROOT
TORSDOF 0
ENDMDL
