MODEL 1
REMARK minimizedAffinity -3.83487725
REMARK minimizedRMSD -1
REMARK  0 active torsions:
REMARK  status: ('A' for Active; 'I' for Inactive)
ROOT
ATOM      1  O1  BZF d   1      -0.728   3.282   0.291  0.00  0.00    -0.204 OA
ATOM      2  C2  BZF d   1       0.447   3.539  -0.389  0.00  0.00     0.174 A 
ATOM      3  C3  BZF d   1       1.094   2.392  -0.677  0.00  0.00    -0.012 A 
ATOM      4  C3A BZF d   1       0.226   1.347  -0.226  0.00  0.00    -0.107 A 
ATOM      5  C4  BZF d   1       0.307  -0.016  -0.248  0.00  0.00     0.055 A 
ATOM      6  C5  BZF d   1      -0.676  -0.746   0.342  0.00  0.00    -0.016 A 
ATOM      7  C6  BZF d   1      -1.750  -0.146   0.966  0.00  0.00     0.022 A 
ATOM      8  C7  BZF d   1      -1.877   1.203   1.009  0.00  0.00     0.029 A 
ATOM      9  C7A BZF d   1      -0.902   1.942   0.385  0.00  0.00     0.058 A 
ENDROOT
TORSDOF 0
ENDMDL
