MODEL 1
REMARK minimizedAffinity -4.43457508
REMARK minimizedRMSD -1
REMARK  0 active torsions:
REMARK  status: ('A' for Active; 'I' for Inactive)
ROOT
ATOM      1  O1  BZF d   1      -1.605   3.218   0.897  0.00  0.00    -0.204 OA
ATOM      2  C2  BZF d   1      -2.593   2.255   0.841  0.00  0.00     0.174 A 
ATOM      3  C3  BZF d   1      -2.081   1.064   0.470  0.00  0.00    -0.012 A 
ATOM      4  C3A BZF d   1      -0.669   1.276   0.372  0.00  0.00    -0.107 A 
ATOM      5  C4  BZF d   1       0.382   0.464   0.058  0.00  0.00     0.055 A 
ATOM      6  C5  BZF d   1       1.629   0.998  -0.020  0.00  0.00    -0.016 A 
ATOM      7  C6  BZF d   1       1.860   2.339   0.205  0.00  0.00     0.022 A 
ATOM      8  C7  BZF d   1       0.849   3.184   0.524  0.00  0.00     0.029 A 
ATOM      9  C7A BZF d   1      -0.407   2.640   0.636  0.00  0.00     0.058 A 
ENDROOT
TORSDOF 0
ENDMDL
