MODEL 1
REMARK minimizedAffinity -2.30319214
REMARK minimizedRMSD -1
REMARK  0 active torsions:
REMARK  status: ('A' for Active; 'I' for Inactive)
ROOT
ATOM      1  O1  BZF d   1       0.620  -1.826   0.254  0.00  0.00    -0.204 OA
ATOM      2  C2  BZF d   1      -0.030  -0.608   0.208  0.00  0.00     0.174 A 
ATOM      3  C3  BZF d   1      -0.711  -0.473  -0.948  0.00  0.00    -0.012 A 
ATOM      4  C3A BZF d   1      -0.546  -1.719  -1.630  0.00  0.00    -0.107 A 
ATOM      5  C4  BZF d   1      -1.000  -2.204  -2.824  0.00  0.00     0.055 A 
ATOM      6  C5  BZF d   1      -0.598  -3.436  -3.233  0.00  0.00    -0.016 A 
ATOM      7  C6  BZF d   1       0.260  -4.207  -2.477  0.00  0.00     0.022 A 
ATOM      8  C7  BZF d   1       0.733  -3.771  -1.284  0.00  0.00     0.029 A 
ATOM      9  C7A BZF d   1       0.302  -2.541  -0.853  0.00  0.00     0.058 A 
ENDROOT
TORSDOF 0
ENDMDL
