MODEL 1
REMARK minimizedAffinity -3.61806369
REMARK minimizedRMSD -1
REMARK  0 active torsions:
REMARK  status: ('A' for Active; 'I' for Inactive)
ROOT
ATOM      1  O1  BZF d   1       1.841   0.762   0.880  0.00  0.00    -0.204 OA
ATOM      2  C2  BZF d   1       2.725   1.632   1.490  0.00  0.00     0.174 A 
ATOM      3  C3  BZF d   1       2.097   2.766   1.866  0.00  0.00    -0.012 A 
ATOM      4  C3A BZF d   1       0.718   2.555   1.550  0.00  0.00    -0.107 A 
ATOM      5  C4  BZF d   1      -0.407   3.314   1.702  0.00  0.00     0.055 A 
ATOM      6  C5  BZF d   1      -1.589   2.846   1.223  0.00  0.00    -0.016 A 
ATOM      7  C6  BZF d   1      -1.682   1.628   0.582  0.00  0.00     0.022 A 
ATOM      8  C7  BZF d   1      -0.595   0.838   0.411  0.00  0.00     0.029 A 
ATOM      9  C7A BZF d   1       0.595   1.292   0.924  0.00  0.00     0.058 A 
ENDROOT
TORSDOF 0
ENDMDL
