MODEL 1
REMARK minimizedAffinity -4.77289581
REMARK minimizedRMSD -1
REMARK  0 active torsions:
REMARK  status: ('A' for Active; 'I' for Inactive)
ROOT
ATOM      1  O1  BZF d   1       0.380  -1.247   0.475  0.00  0.00    -0.204 OA
ATOM      2  C2  BZF d   1      -0.106  -0.051  -0.018  0.00  0.00     0.174 A 
ATOM      3  C3  BZF d   1      -1.183   0.353   0.685  0.00  0.00    -0.012 A 
ATOM      4  C3A BZF d   1      -1.328  -0.606   1.737  0.00  0.00    -0.107 A 
ATOM      5  C4  BZF d   1      -2.208  -0.738   2.773  0.00  0.00     0.055 A 
ATOM      6  C5  BZF d   1      -2.121  -1.828   3.579  0.00  0.00    -0.016 A 
ATOM      7  C6  BZF d   1      -1.171  -2.807   3.376  0.00  0.00     0.022 A 
ATOM      8  C7  BZF d   1      -0.273  -2.718   2.365  0.00  0.00     0.029 A 
ATOM      9  C7A BZF d   1      -0.337  -1.601   1.568  0.00  0.00     0.058 A 
ENDROOT
TORSDOF 0
ENDMDL
