MODEL 1
REMARK minimizedAffinity -2.76393461
REMARK minimizedRMSD -1
REMARK  0 active torsions:
REMARK  status: ('A' for Active; 'I' for Inactive)
ROOT
ATOM      1  O1  BZF d   1       0.958  -0.781  -0.795  0.00  0.00    -0.204 OA
ATOM      2  C2  BZF d   1       0.358  -0.175   0.292  0.00  0.00     0.174 A 
ATOM      3  C3  BZF d   1      -0.936  -0.543   0.391  0.00  0.00    -0.012 A 
ATOM      4  C3A BZF d   1      -1.134  -1.506  -0.649  0.00  0.00    -0.107 A 
ATOM      5  C4  BZF d   1      -2.208  -2.247  -1.050  0.00  0.00     0.055 A 
ATOM      6  C5  BZF d   1      -2.091  -3.041  -2.147  0.00  0.00    -0.016 A 
ATOM      7  C6  BZF d   1      -0.917  -3.113  -2.868  0.00  0.00     0.022 A 
ATOM      8  C7  BZF d   1       0.177  -2.400  -2.506  0.00  0.00     0.029 A 
ATOM      9  C7A BZF d   1       0.072  -1.623  -1.379  0.00  0.00     0.058 A 
ENDROOT
TORSDOF 0
ENDMDL
