MODEL 1
REMARK minimizedAffinity 10.672121
REMARK minimizedRMSD -1
REMARK  0 active torsions:
REMARK  status: ('A' for Active; 'I' for Inactive)
ROOT
ATOM      1  O1  BZF d   1       3.173   1.143  -3.845  0.00  0.00    -0.204 OA
ATOM      2  C2  BZF d   1       2.350   1.280  -2.745  0.00  0.00     0.174 A 
ATOM      3  C3  BZF d   1       2.785   2.272  -1.942  0.00  0.00    -0.012 A 
ATOM      4  C3A BZF d   1       3.901   2.849  -2.627  0.00  0.00    -0.107 A 
ATOM      5  C4  BZF d   1       4.745   3.884  -2.342  0.00  0.00     0.055 A 
ATOM      6  C5  BZF d   1       5.778   4.145  -3.185  0.00  0.00    -0.016 A 
ATOM      7  C6  BZF d   1       6.000   3.389  -4.318  0.00  0.00     0.022 A 
ATOM      8  C7  BZF d   1       5.186   2.355  -4.645  0.00  0.00     0.029 A 
ATOM      9  C7A BZF d   1       4.122   2.110  -3.812  0.00  0.00     0.058 A 
ENDROOT
TORSDOF 0
ENDMDL
