MODEL 1
REMARK minimizedAffinity -3.62631893
REMARK minimizedRMSD -1
REMARK  0 active torsions:
REMARK  status: ('A' for Active; 'I' for Inactive)
ROOT
ATOM      1  O1  BZF d   1       0.499   2.590   2.422  0.00  0.00    -0.204 OA
ATOM      2  C2  BZF d   1       1.196   3.763   2.640  0.00  0.00     0.174 A 
ATOM      3  C3  BZF d   1       1.512   4.356   1.471  0.00  0.00    -0.012 A 
ATOM      4  C3A BZF d   1       0.900   3.548   0.461  0.00  0.00    -0.107 A 
ATOM      5  C4  BZF d   1       0.843   3.630  -0.901  0.00  0.00     0.055 A 
ATOM      6  C5  BZF d   1       0.226   2.640  -1.597  0.00  0.00    -0.016 A 
ATOM      7  C6  BZF d   1      -0.339   1.551  -0.965  0.00  0.00     0.022 A 
ATOM      8  C7  BZF d   1      -0.312   1.428   0.384  0.00  0.00     0.029 A 
ATOM      9  C7A BZF d   1       0.282   2.444   1.093  0.00  0.00     0.058 A 
ENDROOT
TORSDOF 0
ENDMDL
