MODEL 1
REMARK minimizedAffinity 1.41057849
REMARK minimizedRMSD -1
REMARK  0 active torsions:
REMARK  status: ('A' for Active; 'I' for Inactive)
ROOT
ATOM      1  O1  BZF d   1       1.242   1.996   2.320  0.00  0.00    -0.204 OA
ATOM      2  C2  BZF d   1       2.251   2.245   1.409  0.00  0.00     0.174 A 
ATOM      3  C3  BZF d   1       2.715   3.504   1.542  0.00  0.00    -0.012 A 
ATOM      4  C3A BZF d   1       2.012   4.048   2.663  0.00  0.00    -0.107 A 
ATOM      5  C4  BZF d   1       2.047   5.257   3.297  0.00  0.00     0.055 A 
ATOM      6  C5  BZF d   1       1.180   5.494   4.316  0.00  0.00    -0.016 A 
ATOM      7  C6  BZF d   1       0.262   4.549   4.723  0.00  0.00     0.022 A 
ATOM      8  C7  BZF d   1       0.192   3.333   4.128  0.00  0.00     0.029 A 
ATOM      9  C7A BZF d   1       1.090   3.078   3.120  0.00  0.00     0.058 A 
ENDROOT
TORSDOF 0
ENDMDL
