MODEL 1
REMARK minimizedAffinity -3.10003161
REMARK minimizedRMSD -1
REMARK  0 active torsions:
REMARK  status: ('A' for Active; 'I' for Inactive)
ROOT
ATOM      1  O1  BZF d   1       0.232   2.985  -3.782  0.00  0.00    -0.204 OA
ATOM      2  C2  BZF d   1      -0.517   3.004  -4.943  0.00  0.00     0.174 A 
ATOM      3  C3  BZF d   1       0.229   2.622  -6.000  0.00  0.00    -0.012 A 
ATOM      4  C3A BZF d   1       1.500   2.260  -5.452  0.00  0.00    -0.107 A 
ATOM      5  C4  BZF d   1       2.658   1.786  -6.000  0.00  0.00     0.055 A 
ATOM      6  C5  BZF d   1       3.741   1.603  -5.199  0.00  0.00    -0.016 A 
ATOM      7  C6  BZF d   1       3.702   1.887  -3.850  0.00  0.00     0.022 A 
ATOM      8  C7  BZF d   1       2.575   2.354  -3.260  0.00  0.00     0.029 A 
ATOM      9  C7A BZF d   1       1.469   2.509  -4.060  0.00  0.00     0.058 A 
ENDROOT
TORSDOF 0
ENDMDL
