MODEL 1
REMARK minimizedAffinity 1.1001581
REMARK minimizedRMSD -1
REMARK  0 active torsions:
REMARK  status: ('A' for Active; 'I' for Inactive)
ROOT
ATOM      1  O1  BZF d   1       0.458   3.986  -5.968  0.00  0.00    -0.204 OA
ATOM      2  C2  BZF d   1      -0.788   3.389  -5.954  0.00  0.00     0.174 A 
ATOM      3  C3  BZF d   1      -0.675   2.046  -6.000  0.00  0.00    -0.012 A 
ATOM      4  C3A BZF d   1       0.731   1.784  -5.952  0.00  0.00    -0.107 A 
ATOM      5  C4  BZF d   1       1.473   0.638  -5.950  0.00  0.00     0.055 A 
ATOM      6  C5  BZF d   1       2.829   0.729  -5.970  0.00  0.00    -0.016 A 
ATOM      7  C6  BZF d   1       3.474   1.948  -5.999  0.00  0.00     0.022 A 
ATOM      8  C7  BZF d   1       2.781   3.113  -5.997  0.00  0.00     0.029 A 
ATOM      9  C7A BZF d   1       1.411   3.024  -5.943  0.00  0.00     0.058 A 
ENDROOT
TORSDOF 0
ENDMDL
