MODEL 1
REMARK minimizedAffinity 0.692762196
REMARK minimizedRMSD -1
REMARK  0 active torsions:
REMARK  status: ('A' for Active; 'I' for Inactive)
ROOT
ATOM      1  O1  BZF d   1      -2.131   5.550  -3.837  0.00  0.00    -0.204 OA
ATOM      2  C2  BZF d   1      -1.536   4.397  -3.362  0.00  0.00     0.174 A 
ATOM      3  C3  BZF d   1      -2.219   3.306  -3.763  0.00  0.00    -0.012 A 
ATOM      4  C3A BZF d   1      -3.256   3.803  -4.614  0.00  0.00    -0.107 A 
ATOM      5  C4  BZF d   1      -4.252   3.202  -5.329  0.00  0.00     0.055 A 
ATOM      6  C5  BZF d   1      -5.144   3.977  -6.000  0.00  0.00    -0.016 A 
ATOM      7  C6  BZF d   1      -5.073   5.355  -5.972  0.00  0.00     0.022 A 
ATOM      8  C7  BZF d   1      -4.100   5.996  -5.281  0.00  0.00     0.029 A 
ATOM      9  C7A BZF d   1      -3.177   5.214  -4.630  0.00  0.00     0.058 A 
ENDROOT
TORSDOF 0
ENDMDL
