MODEL 1
REMARK minimizedAffinity 11.9769926
REMARK minimizedRMSD -1
REMARK  0 active torsions:
REMARK  status: ('A' for Active; 'I' for Inactive)
ROOT
ATOM      1  O1  BZF d   1       0.325   2.900  -5.999  0.00  0.00    -0.204 OA
ATOM      2  C2  BZF d   1       1.296   3.024  -5.023  0.00  0.00     0.174 A 
ATOM      3  C3  BZF d   1       0.745   3.371  -3.842  0.00  0.00    -0.012 A 
ATOM      4  C3A BZF d   1      -0.667   3.380  -4.074  0.00  0.00    -0.107 A 
ATOM      5  C4  BZF d   1      -1.747   3.635  -3.278  0.00  0.00     0.055 A 
ATOM      6  C5  BZF d   1      -2.989   3.632  -3.829  0.00  0.00    -0.016 A 
ATOM      7  C6  BZF d   1      -3.187   3.384  -5.172  0.00  0.00     0.022 A 
ATOM      8  C7  BZF d   1      -2.147   3.121  -6.000  0.00  0.00     0.029 A 
ATOM      9  C7A BZF d   1      -0.893   3.091  -5.439  0.00  0.00     0.058 A 
ENDROOT
TORSDOF 0
ENDMDL
