MODEL 1
REMARK minimizedAffinity -3.39311862
REMARK minimizedRMSD -1
REMARK  0 active torsions:
REMARK  status: ('A' for Active; 'I' for Inactive)
ROOT
ATOM      1  O1  BZF d   1       0.693  -0.417   0.322  0.00  0.00    -0.204 OA
ATOM      2  C2  BZF d   1       2.041  -0.113   0.342  0.00  0.00     0.174 A 
ATOM      3  C3  BZF d   1       2.232   1.220   0.257  0.00  0.00    -0.012 A 
ATOM      4  C3A BZF d   1       0.920   1.790   0.273  0.00  0.00    -0.107 A 
ATOM      5  C4  BZF d   1       0.452   3.072   0.231  0.00  0.00     0.055 A 
ATOM      6  C5  BZF d   1      -0.889   3.286   0.190  0.00  0.00    -0.016 A 
ATOM      7  C6  BZF d   1      -1.790   2.241   0.183  0.00  0.00     0.022 A 
ATOM      8  C7  BZF d   1      -1.375   0.952   0.229  0.00  0.00     0.029 A 
ATOM      9  C7A BZF d   1      -0.021   0.734   0.305  0.00  0.00     0.058 A 
ENDROOT
TORSDOF 0
ENDMDL
