MODEL 1
REMARK minimizedAffinity -5.85109472
REMARK minimizedRMSD -1
REMARK  0 active torsions:
REMARK  status: ('A' for Active; 'I' for Inactive)
ROOT
ATOM      1  C2' OXE d   1      -1.607   0.500  -1.951  0.00  0.00     0.078 C 
ATOM      2  C1' OXE d   1      -3.147  -0.756   0.031  0.00  0.00     0.078 C 
ATOM      3  C1  OXE d   1      -1.647  -0.889   0.116  0.00  0.00    -0.078 A 
ATOM      4  C2  OXE d   1      -0.904  -0.311  -0.884  0.00  0.00    -0.078 A 
ATOM      5  C3  OXE d   1       0.486  -0.357  -0.825  0.00  0.00     0.003 A 
ATOM      6  C4  OXE d   1       1.129  -1.118   0.160  0.00  0.00    -0.002 A 
ATOM      7  C5  OXE d   1       0.388  -1.748   1.166  0.00  0.00    -0.002 A 
ATOM      8  C6  OXE d   1      -0.995  -1.609   1.182  0.00  0.00     0.003 A 
ENDROOT
TORSDOF 0
ENDMDL
