MODEL 1
REMARK minimizedAffinity -5.34291935
REMARK minimizedRMSD -1
REMARK  0 active torsions:
REMARK  status: ('A' for Active; 'I' for Inactive)
ROOT
ATOM      1  C2' OXE d   1       0.176  -0.062  -2.613  0.00  0.00     0.078 C 
ATOM      2  C1' OXE d   1       1.281   0.154  -0.042  0.00  0.00     0.078 C 
ATOM      3  C1  OXE d   1      -0.190  -0.160  -0.151  0.00  0.00    -0.078 A 
ATOM      4  C2  OXE d   1      -0.732  -0.218  -1.412  0.00  0.00    -0.078 A 
ATOM      5  C3  OXE d   1      -2.073  -0.559  -1.572  0.00  0.00     0.003 A 
ATOM      6  C4  OXE d   1      -2.908  -0.691  -0.456  0.00  0.00    -0.002 A 
ATOM      7  C5  OXE d   1      -2.385  -0.597   0.838  0.00  0.00    -0.002 A 
ATOM      8  C6  OXE d   1      -1.022  -0.375   1.007  0.00  0.00     0.003 A 
ENDROOT
TORSDOF 0
ENDMDL
