MODEL 1
REMARK minimizedAffinity -1.19278955
REMARK minimizedRMSD -1
REMARK  0 active torsions:
REMARK  status: ('A' for Active; 'I' for Inactive)
ROOT
ATOM      1  C2' OXE d   1      -3.074  -0.759  -0.385  0.00  0.00     0.078 C 
ATOM      2  C1' OXE d   1      -1.514  -1.445   1.846  0.00  0.00     0.078 C 
ATOM      3  C1  OXE d   1      -0.827  -0.762   0.690  0.00  0.00    -0.078 A 
ATOM      4  C2  OXE d   1      -1.588  -0.472  -0.416  0.00  0.00    -0.078 A 
ATOM      5  C3  OXE d   1      -1.016   0.207  -1.488  0.00  0.00     0.003 A 
ATOM      6  C4  OXE d   1       0.361   0.459  -1.513  0.00  0.00    -0.002 A 
ATOM      7  C5  OXE d   1       1.163   0.136  -0.413  0.00  0.00    -0.002 A 
ATOM      8  C6  OXE d   1       0.578  -0.435   0.712  0.00  0.00     0.003 A 
ENDROOT
TORSDOF 0
ENDMDL
