MODEL 1
REMARK minimizedAffinity -2.28342986
REMARK minimizedRMSD -1
REMARK  0 active torsions:
REMARK  status: ('A' for Active; 'I' for Inactive)
ROOT
ATOM      1  C2' OXE d   1       2.276   2.979   1.839  0.00  0.00     0.078 C 
ATOM      2  C1' OXE d   1       1.827   0.962  -0.061  0.00  0.00     0.078 C 
ATOM      3  C1  OXE d   1       2.772   2.079  -0.430  0.00  0.00    -0.078 A 
ATOM      4  C2  OXE d   1       2.949   3.086   0.488  0.00  0.00    -0.078 A 
ATOM      5  C3  OXE d   1       3.851   4.112   0.220  0.00  0.00     0.003 A 
ATOM      6  C4  OXE d   1       4.462   4.209  -1.036  0.00  0.00    -0.002 A 
ATOM      7  C5  OXE d   1       4.264   3.214  -2.000  0.00  0.00    -0.002 A 
ATOM      8  C6  OXE d   1       3.457   2.123  -1.698  0.00  0.00     0.003 A 
ENDROOT
TORSDOF 0
ENDMDL
