MODEL 1
REMARK minimizedAffinity -5.68376827
REMARK minimizedRMSD -1
REMARK  0 active torsions:
REMARK  status: ('A' for Active; 'I' for Inactive)
ROOT
ATOM      1  C2' OXE d   1      -1.879   0.353  -1.795  0.00  0.00     0.078 C 
ATOM      2  C1' OXE d   1      -3.266  -1.307  -0.007  0.00  0.00     0.078 C 
ATOM      3  C1  OXE d   1      -1.769  -1.207   0.144  0.00  0.00    -0.078 A 
ATOM      4  C2  OXE d   1      -1.093  -0.428  -0.764  0.00  0.00    -0.078 A 
ATOM      5  C3  OXE d   1       0.283  -0.258  -0.637  0.00  0.00     0.003 A 
ATOM      6  C4  OXE d   1       1.003  -0.992   0.313  0.00  0.00    -0.002 A 
ATOM      7  C5  OXE d   1       0.339  -1.821   1.223  0.00  0.00    -0.002 A 
ATOM      8  C6  OXE d   1      -1.048  -1.906   1.179  0.00  0.00     0.003 A 
ENDROOT
TORSDOF 0
ENDMDL
