MODEL 1
REMARK minimizedAffinity -2.64934969
REMARK minimizedRMSD -1
REMARK  0 active torsions:
REMARK  status: ('A' for Active; 'I' for Inactive)
ROOT
ATOM      1  C2' OXE d   1       0.167   0.039  -2.714  0.00  0.00     0.078 C 
ATOM      2  C1' OXE d   1       1.001   0.382  -0.056  0.00  0.00     0.078 C 
ATOM      3  C1  OXE d   1      -0.440   0.009  -0.298  0.00  0.00    -0.078 A 
ATOM      4  C2  OXE d   1      -0.851  -0.111  -1.604  0.00  0.00    -0.078 A 
ATOM      5  C3  OXE d   1      -2.156  -0.506  -1.883  0.00  0.00     0.003 A 
ATOM      6  C4  OXE d   1      -3.094  -0.633  -0.851  0.00  0.00    -0.002 A 
ATOM      7  C5  OXE d   1      -2.707  -0.476   0.484  0.00  0.00    -0.002 A 
ATOM      8  C6  OXE d   1      -1.377  -0.198   0.779  0.00  0.00     0.003 A 
ENDROOT
TORSDOF 0
ENDMDL
