MODEL 1
REMARK minimizedAffinity -5.28878689
REMARK minimizedRMSD -1
REMARK  0 active torsions:
REMARK  status: ('A' for Active; 'I' for Inactive)
ROOT
ATOM      1  C2' OXE d   1      -0.270   0.663  -2.554  0.00  0.00     0.078 C 
ATOM      2  C1' OXE d   1       1.029   0.375  -0.082  0.00  0.00     0.078 C 
ATOM      3  C1  OXE d   1      -0.440   0.038  -0.149  0.00  0.00    -0.078 A 
ATOM      4  C2  OXE d   1      -1.078   0.226  -1.351  0.00  0.00    -0.078 A 
ATOM      5  C3  OXE d   1      -2.420  -0.121  -1.481  0.00  0.00     0.003 A 
ATOM      6  C4  OXE d   1      -3.162  -0.514  -0.361  0.00  0.00    -0.002 A 
ATOM      7  C5  OXE d   1      -2.541  -0.674   0.882  0.00  0.00    -0.002 A 
ATOM      8  C6  OXE d   1      -1.174  -0.443   0.995  0.00  0.00     0.003 A 
ENDROOT
TORSDOF 0
ENDMDL
