MODEL 1
REMARK minimizedAffinity -3.57119489
REMARK minimizedRMSD -1
REMARK  0 active torsions:
REMARK  status: ('A' for Active; 'I' for Inactive)
ROOT
ATOM      1  C2' OXE d   1       3.638   3.542  -0.676  0.00  0.00     0.078 C 
ATOM      2  C1' OXE d   1       3.552   3.530   2.129  0.00  0.00     0.078 C 
ATOM      3  C1  OXE d   1       2.944   2.357   1.402  0.00  0.00    -0.078 A 
ATOM      4  C2  OXE d   1       2.949   2.393   0.028  0.00  0.00    -0.078 A 
ATOM      5  C3  OXE d   1       2.451   1.311  -0.692  0.00  0.00     0.003 A 
ATOM      6  C4  OXE d   1       1.807   0.258  -0.033  0.00  0.00    -0.002 A 
ATOM      7  C5  OXE d   1       1.755   0.220   1.365  0.00  0.00    -0.002 A 
ATOM      8  C6  OXE d   1       2.356   1.238   2.096  0.00  0.00     0.003 A 
ENDROOT
TORSDOF 0
ENDMDL
