MODEL 1
REMARK minimizedAffinity 0.875273347
REMARK minimizedRMSD -1
REMARK  0 active torsions:
REMARK  status: ('A' for Active; 'I' for Inactive)
ROOT
ATOM      1  C2' OXE d   1      -1.673  -1.483   1.913  0.00  0.00     0.078 C 
ATOM      2  C1' OXE d   1      -2.274  -1.563  -0.828  0.00  0.00     0.078 C 
ATOM      3  C1  OXE d   1      -1.043  -0.804  -0.399  0.00  0.00    -0.078 A 
ATOM      4  C2  OXE d   1      -0.782  -0.731   0.948  0.00  0.00    -0.078 A 
ATOM      5  C3  OXE d   1       0.370  -0.090   1.394  0.00  0.00     0.003 A 
ATOM      6  C4  OXE d   1       1.184   0.611   0.496  0.00  0.00    -0.002 A 
ATOM      7  C5  OXE d   1       0.914   0.583  -0.877  0.00  0.00    -0.002 A 
ATOM      8  C6  OXE d   1      -0.168  -0.154  -1.344  0.00  0.00     0.003 A 
ENDROOT
TORSDOF 0
ENDMDL
