MODEL 1
REMARK minimizedAffinity -1.66713834
REMARK minimizedRMSD -1
REMARK  0 active torsions:
REMARK  status: ('A' for Active; 'I' for Inactive)
ROOT
ATOM      1  C2' OXE d   1       2.118  -0.748   0.282  0.00  0.00     0.078 C 
ATOM      2  C1' OXE d   1       0.061   0.861  -0.748  0.00  0.00     0.078 C 
ATOM      3  C1  OXE d   1       1.196   1.545  -0.027  0.00  0.00    -0.078 A 
ATOM      4  C2  OXE d   1       2.174   0.746   0.514  0.00  0.00    -0.078 A 
ATOM      5  C3  OXE d   1       3.271   1.329   1.141  0.00  0.00     0.003 A 
ATOM      6  C4  OXE d   1       3.311   2.712   1.360  0.00  0.00    -0.002 A 
ATOM      7  C5  OXE d   1       2.304   3.540   0.852  0.00  0.00    -0.002 A 
ATOM      8  C6  OXE d   1       1.264   2.978   0.120  0.00  0.00     0.003 A 
ENDROOT
TORSDOF 0
ENDMDL
