MODEL 1
REMARK minimizedAffinity -3.54240608
REMARK minimizedRMSD -1
REMARK  0 active torsions:
REMARK  status: ('A' for Active; 'I' for Inactive)
ROOT
ATOM      1  C2' OXE d   1      -1.150   1.359  -1.876  0.00  0.00     0.078 C 
ATOM      2  C1' OXE d   1      -2.692  -0.478  -0.417  0.00  0.00     0.078 C 
ATOM      3  C1  OXE d   1      -1.215  -0.406  -0.120  0.00  0.00    -0.078 A 
ATOM      4  C2  OXE d   1      -0.460   0.463  -0.871  0.00  0.00    -0.078 A 
ATOM      5  C3  OXE d   1       0.897   0.609  -0.600  0.00  0.00     0.003 A 
ATOM      6  C4  OXE d   1       1.529  -0.231   0.325  0.00  0.00    -0.002 A 
ATOM      7  C5  OXE d   1       0.786  -1.151   1.073  0.00  0.00    -0.002 A 
ATOM      8  C6  OXE d   1      -0.591  -1.220   0.893  0.00  0.00     0.003 A 
ENDROOT
TORSDOF 0
ENDMDL
