MODEL 1
REMARK minimizedAffinity -0.872839034
REMARK minimizedRMSD -1
REMARK  0 active torsions:
REMARK  status: ('A' for Active; 'I' for Inactive)
ROOT
ATOM      1  C2' OXE d   1      -0.857  -1.784   1.582  0.00  0.00     0.078 C 
ATOM      2  C1' OXE d   1      -2.483  -1.108  -0.605  0.00  0.00     0.078 C 
ATOM      3  C1  OXE d   1      -1.099  -0.511  -0.546  0.00  0.00    -0.078 A 
ATOM      4  C2  OXE d   1      -0.327  -0.811   0.551  0.00  0.00    -0.078 A 
ATOM      5  C3  OXE d   1       0.977  -0.331   0.628  0.00  0.00     0.003 A 
ATOM      6  C4  OXE d   1       1.455   0.577  -0.324  0.00  0.00    -0.002 A 
ATOM      7  C5  OXE d   1       0.672   0.927  -1.429  0.00  0.00    -0.002 A 
ATOM      8  C6  OXE d   1      -0.589   0.359  -1.576  0.00  0.00     0.003 A 
ENDROOT
TORSDOF 0
ENDMDL
