MODEL 1
REMARK minimizedAffinity -4.18828344
REMARK minimizedRMSD -1
REMARK  0 active torsions:
REMARK  status: ('A' for Active; 'I' for Inactive)
ROOT
ATOM      1  C2' OXE d   1      -0.016   0.754  -2.547  0.00  0.00     0.078 C 
ATOM      2  C1' OXE d   1       1.155   0.469  -0.012  0.00  0.00     0.078 C 
ATOM      3  C1  OXE d   1      -0.287   0.056  -0.171  0.00  0.00    -0.078 A 
ATOM      4  C2  OXE d   1      -0.866   0.243  -1.403  0.00  0.00    -0.078 A 
ATOM      5  C3  OXE d   1      -2.177  -0.171  -1.619  0.00  0.00     0.003 A 
ATOM      6  C4  OXE d   1      -2.958  -0.634  -0.553  0.00  0.00    -0.002 A 
ATOM      7  C5  OXE d   1      -2.400  -0.794   0.720  0.00  0.00    -0.002 A 
ATOM      8  C6  OXE d   1      -1.056  -0.495   0.917  0.00  0.00     0.003 A 
ENDROOT
TORSDOF 0
ENDMDL
