MODEL 1
REMARK minimizedAffinity -3.18099117
REMARK minimizedRMSD -1
REMARK  0 active torsions:
REMARK  status: ('A' for Active; 'I' for Inactive)
ROOT
ATOM      1  C2' OXE d   1       0.319   0.562  -2.744  0.00  0.00     0.078 C 
ATOM      2  C1' OXE d   1       1.425   0.645  -0.165  0.00  0.00     0.078 C 
ATOM      3  C1  OXE d   1      -0.000   0.172  -0.304  0.00  0.00    -0.078 A 
ATOM      4  C2  OXE d   1      -0.549   0.179  -1.564  0.00  0.00    -0.078 A 
ATOM      5  C3  OXE d   1      -1.842  -0.298  -1.756  0.00  0.00     0.003 A 
ATOM      6  C4  OXE d   1      -2.641  -0.641  -0.659  0.00  0.00    -0.002 A 
ATOM      7  C5  OXE d   1      -2.115  -0.617   0.638  0.00  0.00    -0.002 A 
ATOM      8  C6  OXE d   1      -0.786  -0.255   0.827  0.00  0.00     0.003 A 
ENDROOT
TORSDOF 0
ENDMDL
