MODEL 1
REMARK minimizedAffinity -4.70216751
REMARK minimizedRMSD -1
REMARK  0 active torsions:
REMARK  status: ('A' for Active; 'I' for Inactive)
ROOT
ATOM      1  C2' OXE d   1      -0.251   0.588  -2.178  0.00  0.00     0.078 C 
ATOM      2  C1' OXE d   1       1.120   0.191   0.240  0.00  0.00     0.078 C 
ATOM      3  C1  OXE d   1      -0.342  -0.174   0.192  0.00  0.00    -0.078 A 
ATOM      4  C2  OXE d   1      -1.016   0.067  -0.981  0.00  0.00    -0.078 A 
ATOM      5  C3  OXE d   1      -2.354  -0.302  -1.095  0.00  0.00     0.003 A 
ATOM      6  C4  OXE d   1      -3.057  -0.774   0.019  0.00  0.00    -0.002 A 
ATOM      7  C5  OXE d   1      -2.399  -0.989   1.235  0.00  0.00    -0.002 A 
ATOM      8  C6  OXE d   1      -1.035  -0.735   1.326  0.00  0.00     0.003 A 
ENDROOT
TORSDOF 0
ENDMDL
