MODEL 1
REMARK minimizedAffinity -2.86889315
REMARK minimizedRMSD -1
REMARK  0 active torsions:
REMARK  status: ('A' for Active; 'I' for Inactive)
ROOT
ATOM      1  C2' OXE d   1      -0.079   0.716  -2.523  0.00  0.00     0.078 C 
ATOM      2  C1' OXE d   1       0.949   0.499   0.080  0.00  0.00     0.078 C 
ATOM      3  C1  OXE d   1      -0.433  -0.045  -0.178  0.00  0.00    -0.078 A 
ATOM      4  C2  OXE d   1      -0.947   0.107  -1.443  0.00  0.00    -0.078 A 
ATOM      5  C3  OXE d   1      -2.196  -0.426  -1.749  0.00  0.00     0.003 A 
ATOM      6  C4  OXE d   1      -2.996  -0.979  -0.742  0.00  0.00    -0.002 A 
ATOM      7  C5  OXE d   1      -2.508  -1.108   0.562  0.00  0.00    -0.002 A 
ATOM      8  C6  OXE d   1      -1.215  -0.686   0.851  0.00  0.00     0.003 A 
ENDROOT
TORSDOF 0
ENDMDL
