MODEL 1
REMARK minimizedAffinity -3.59179187
REMARK minimizedRMSD -1
REMARK  0 active torsions:
REMARK  status: ('A' for Active; 'I' for Inactive)
ROOT
ATOM      1  C2' OXE d   1      -3.166  -0.524  -0.123  0.00  0.00     0.078 C 
ATOM      2  C1' OXE d   1      -1.459  -1.152   2.015  0.00  0.00     0.078 C 
ATOM      3  C1  OXE d   1      -0.842  -0.561   0.772  0.00  0.00    -0.078 A 
ATOM      4  C2  OXE d   1      -1.678  -0.300  -0.286  0.00  0.00    -0.078 A 
ATOM      5  C3  OXE d   1      -1.169   0.296  -1.436  0.00  0.00     0.003 A 
ATOM      6  C4  OXE d   1       0.210   0.491  -1.583  0.00  0.00    -0.002 A 
ATOM      7  C5  OXE d   1       1.084   0.195  -0.532  0.00  0.00    -0.002 A 
ATOM      8  C6  OXE d   1       0.571  -0.290   0.665  0.00  0.00     0.003 A 
ENDROOT
TORSDOF 0
ENDMDL
