MODEL 1
REMARK minimizedAffinity -3.11133909
REMARK minimizedRMSD -1
REMARK  0 active torsions:
REMARK  status: ('A' for Active; 'I' for Inactive)
ROOT
ATOM      1  C2' OXE d   1      -2.826  -0.623  -0.847  0.00  0.00     0.078 C 
ATOM      2  C1' OXE d   1      -1.071   0.951  -2.370  0.00  0.00     0.078 C 
ATOM      3  C1  OXE d   1      -0.525   0.286  -1.131  0.00  0.00    -0.078 A 
ATOM      4  C2  OXE d   1      -1.402  -0.444  -0.366  0.00  0.00    -0.078 A 
ATOM      5  C3  OXE d   1      -0.938  -1.123   0.757  0.00  0.00     0.003 A 
ATOM      6  C4  OXE d   1       0.378  -0.943   1.200  0.00  0.00    -0.002 A 
ATOM      7  C5  OXE d   1       1.278  -0.171   0.457  0.00  0.00    -0.002 A 
ATOM      8  C6  OXE d   1       0.855   0.414  -0.731  0.00  0.00     0.003 A 
ENDROOT
TORSDOF 0
ENDMDL
