MODEL 1
REMARK minimizedAffinity -2.46103668
REMARK minimizedRMSD -1
REMARK  0 active torsions:
REMARK  status: ('A' for Active; 'I' for Inactive)
ROOT
ATOM      1  C2' OXE d   1       0.202  -0.012  -2.351  0.00  0.00     0.078 C 
ATOM      2  C1' OXE d   1       0.917   0.189   0.356  0.00  0.00     0.078 C 
ATOM      3  C1  OXE d   1      -0.521  -0.129   0.030  0.00  0.00    -0.078 A 
ATOM      4  C2  OXE d   1      -0.872  -0.179  -1.298  0.00  0.00    -0.078 A 
ATOM      5  C3  OXE d   1      -2.173  -0.522  -1.654  0.00  0.00     0.003 A 
ATOM      6  C4  OXE d   1      -3.162  -0.665  -0.674  0.00  0.00    -0.002 A 
ATOM      7  C5  OXE d   1      -2.834  -0.579   0.683  0.00  0.00    -0.002 A 
ATOM      8  C6  OXE d   1      -1.513  -0.354   1.052  0.00  0.00     0.003 A 
ENDROOT
TORSDOF 0
ENDMDL
