MODEL 1
REMARK minimizedAffinity -4.89011908
REMARK minimizedRMSD -1
REMARK  0 active torsions:
REMARK  status: ('A' for Active; 'I' for Inactive)
ROOT
ATOM      1  C4' PXY d   1      -0.827  -0.395  -0.256  0.00  0.00     0.077 C 
ATOM      2  C1' PXY d   1      -3.609   3.173  -3.853  0.00  0.00     0.077 C 
ATOM      3  C1  PXY d   1      -2.880   2.228  -2.919  0.00  0.00    -0.082 A 
ATOM      4  C2  PXY d   1      -2.919   2.439  -1.613  0.00  0.00     0.003 A 
ATOM      5  C3  PXY d   1      -2.239   1.612  -0.756  0.00  0.00     0.003 A 
ATOM      6  C4  PXY d   1      -1.556   0.528  -1.236  0.00  0.00    -0.082 A 
ATOM      7  C5  PXY d   1      -1.520   0.299  -2.566  0.00  0.00     0.003 A 
ATOM      8  C6  PXY d   1      -2.182   1.173  -3.423  0.00  0.00     0.003 A 
ENDROOT
TORSDOF 0
ENDMDL
