MODEL 1
REMARK minimizedAffinity 2.55959821
REMARK minimizedRMSD -1
REMARK  0 active torsions:
REMARK  status: ('A' for Active; 'I' for Inactive)
ROOT
ATOM      1  C4' PXY d   1      -0.085   2.278  -0.012  0.00  0.00     0.077 C 
ATOM      2  C1' PXY d   1       0.110  -3.410   0.997  0.00  0.00     0.077 C 
ATOM      3  C1  PXY d   1       0.072  -1.917   0.736  0.00  0.00    -0.082 A 
ATOM      4  C2  PXY d   1      -1.087  -1.279   0.762  0.00  0.00     0.003 A 
ATOM      5  C3  PXY d   1      -1.144   0.065   0.497  0.00  0.00     0.003 A 
ATOM      6  C4  PXY d   1       0.003   0.773   0.255  0.00  0.00    -0.082 A 
ATOM      7  C5  PXY d   1       1.190   0.131   0.238  0.00  0.00     0.003 A 
ATOM      8  C6  PXY d   1       1.222  -1.242   0.469  0.00  0.00     0.003 A 
ENDROOT
TORSDOF 0
ENDMDL
