MODEL 1
REMARK minimizedAffinity -0.0917221457
REMARK minimizedRMSD -1
REMARK  0 active torsions:
REMARK  status: ('A' for Active; 'I' for Inactive)
ROOT
ATOM      1  C4' PXY d   1      -2.556   0.053  -3.500  0.00  0.00     0.077 C 
ATOM      2  C1' PXY d   1       0.481  -1.374   1.206  0.00  0.00     0.077 C 
ATOM      3  C1  PXY d   1      -0.320  -1.013  -0.029  0.00  0.00    -0.082 A 
ATOM      4  C2  PXY d   1       0.036   0.034  -0.756  0.00  0.00     0.003 A 
ATOM      5  C3  PXY d   1      -0.696   0.395  -1.858  0.00  0.00     0.003 A 
ATOM      6  C4  PXY d   1      -1.772  -0.355  -2.251  0.00  0.00    -0.082 A 
ATOM      7  C5  PXY d   1      -2.135  -1.431  -1.521  0.00  0.00     0.003 A 
ATOM      8  C6  PXY d   1      -1.403  -1.756  -0.382  0.00  0.00     0.003 A 
ENDROOT
TORSDOF 0
ENDMDL
