MODEL 1
REMARK minimizedAffinity -0.708445907
REMARK minimizedRMSD -1
REMARK  0 active torsions:
REMARK  status: ('A' for Active; 'I' for Inactive)
ROOT
ATOM      1  C4' PXY d   1      -1.707  -0.376  -1.378  0.00  0.00     0.077 C 
ATOM      2  C1' PXY d   1       3.343   0.165   1.382  0.00  0.00     0.077 C 
ATOM      3  C1  PXY d   1       2.016   0.035   0.662  0.00  0.00    -0.082 A 
ATOM      4  C2  PXY d   1       1.485  -1.163   0.479  0.00  0.00     0.003 A 
ATOM      5  C3  PXY d   1       0.301  -1.301  -0.199  0.00  0.00     0.003 A 
ATOM      6  C4  PXY d   1      -0.373  -0.197  -0.648  0.00  0.00    -0.082 A 
ATOM      7  C5  PXY d   1       0.156   1.030  -0.455  0.00  0.00     0.003 A 
ATOM      8  C6  PXY d   1       1.380   1.145   0.199  0.00  0.00     0.003 A 
ENDROOT
TORSDOF 0
ENDMDL
