MODEL 1
REMARK minimizedAffinity -3.49138856
REMARK minimizedRMSD -1
REMARK  0 active torsions:
REMARK  status: ('A' for Active; 'I' for Inactive)
ROOT
ATOM      1  C4' PXY d   1      -0.915   0.210  -0.550  0.00  0.00     0.077 C 
ATOM      2  C1' PXY d   1       4.327  -1.234   1.412  0.00  0.00     0.077 C 
ATOM      3  C1  PXY d   1       2.951  -0.846   0.907  0.00  0.00    -0.082 A 
ATOM      4  C2  PXY d   1       2.233  -1.724   0.225  0.00  0.00     0.003 A 
ATOM      5  C3  PXY d   1       1.001  -1.380  -0.267  0.00  0.00     0.003 A 
ATOM      6  C4  PXY d   1       0.475  -0.141  -0.013  0.00  0.00    -0.082 A 
ATOM      7  C5  PXY d   1       1.197   0.756   0.691  0.00  0.00     0.003 A 
ATOM      8  C6  PXY d   1       2.463   0.401   1.146  0.00  0.00     0.003 A 
ENDROOT
TORSDOF 0
ENDMDL
