MODEL 1
REMARK minimizedAffinity 0.448408633
REMARK minimizedRMSD -1
REMARK  0 active torsions:
REMARK  status: ('A' for Active; 'I' for Inactive)
ROOT
ATOM      1  C4' PXY d   1      -2.098   3.164   0.817  0.00  0.00     0.077 C 
ATOM      2  C1' PXY d   1       1.436  -1.264  -0.330  0.00  0.00     0.077 C 
ATOM      3  C1  PXY d   1       0.502  -0.106  -0.040  0.00  0.00    -0.082 A 
ATOM      4  C2  PXY d   1       0.935   0.919   0.676  0.00  0.00     0.003 A 
ATOM      5  C3  PXY d   1       0.094   1.960   0.975  0.00  0.00     0.003 A 
ATOM      6  C4  PXY d   1      -1.187   1.977   0.492  0.00  0.00    -0.082 A 
ATOM      7  C5  PXY d   1      -1.632   0.940  -0.249  0.00  0.00     0.003 A 
ATOM      8  C6  PXY d   1      -0.775  -0.126  -0.507  0.00  0.00     0.003 A 
ENDROOT
TORSDOF 0
ENDMDL
