MODEL 1
REMARK minimizedAffinity -4.51186895
REMARK minimizedRMSD -1
REMARK  0 active torsions:
REMARK  status: ('A' for Active; 'I' for Inactive)
ROOT
ATOM      1  C4' PXY d   1       0.261   3.368   0.385  0.00  0.00     0.077 C 
ATOM      2  C1' PXY d   1       1.658  -2.231   0.722  0.00  0.00     0.077 C 
ATOM      3  C1  PXY d   1       1.300  -0.760   0.642  0.00  0.00    -0.082 A 
ATOM      4  C2  PXY d   1       0.099  -0.400   0.222  0.00  0.00     0.003 A 
ATOM      5  C3  PXY d   1      -0.230   0.926   0.113  0.00  0.00     0.003 A 
ATOM      6  C4  PXY d   1       0.662   1.894   0.490  0.00  0.00    -0.082 A 
ATOM      7  C5  PXY d   1       1.886   1.535   0.930  0.00  0.00     0.003 A 
ATOM      8  C6  PXY d   1       2.215   0.184   0.994  0.00  0.00     0.003 A 
ENDROOT
TORSDOF 0
ENDMDL
