MODEL 1
REMARK minimizedAffinity -2.38506293
REMARK minimizedRMSD -1
REMARK  0 active torsions:
REMARK  status: ('A' for Active; 'I' for Inactive)
ROOT
ATOM      1  C4' PXY d   1      -1.989  -0.551  -1.631  0.00  0.00     0.077 C 
ATOM      2  C1' PXY d   1       2.763   0.546   1.472  0.00  0.00     0.077 C 
ATOM      3  C1  PXY d   1       1.523   0.249   0.652  0.00  0.00    -0.082 A 
ATOM      4  C2  PXY d   1       0.587   1.176   0.522  0.00  0.00     0.003 A 
ATOM      5  C3  PXY d   1      -0.555   0.913  -0.190  0.00  0.00     0.003 A 
ATOM      6  C4  PXY d   1      -0.717  -0.292  -0.820  0.00  0.00    -0.082 A 
ATOM      7  C5  PXY d   1       0.239  -1.238  -0.701  0.00  0.00     0.003 A 
ATOM      8  C6  PXY d   1       1.372  -0.967   0.060  0.00  0.00     0.003 A 
ENDROOT
TORSDOF 0
ENDMDL
