MODEL 1
REMARK minimizedAffinity 7.73203897
REMARK minimizedRMSD -1
REMARK  2 active torsions:
REMARK  status: ('A' for Active; 'I' for Inactive)
REMARK    1  A    between atoms: C1_2  and  C2_3 
REMARK    2  A    between atoms: C2_3  and  C3_4 
ROOT
ATOM      1  C3  UNL d   1       3.558  -5.983  -1.815  0.00  0.00    -0.075 A 
ATOM      2  C4  UNL d   1       4.838  -5.978  -2.388  0.00  0.00     0.002 A 
ATOM      3  C5  UNL d   1       4.993  -5.936  -3.774  0.00  0.00     0.002 A 
ATOM      4  C6  UNL d   1       3.874  -5.908  -4.603  0.00  0.00    -0.004 A 
ATOM      5  C7  UNL d   1       2.598  -5.929  -4.045  0.00  0.00     0.002 A 
ATOM      6  C8  UNL d   1       2.439  -5.967  -2.659  0.00  0.00     0.002 A 
ENDROOT
BRANCH   1   7
ATOM      7  C2  UNL d   1       3.383  -5.998  -0.315  0.00  0.00     0.056 C 
BRANCH   7   8
ATOM      8  C1  UNL d   1       1.920  -5.992   0.142  0.00  0.00     0.007 C 
ATOM      9  C   UNL d   1       1.764  -5.892   1.654  0.00  0.00     0.009 C 
ENDBRANCH   7   8
ENDBRANCH   1   7
TORSDOF 2
ENDMDL
