MODEL 1
REMARK minimizedAffinity -0.859521747
REMARK minimizedRMSD -1
REMARK  2 active torsions:
REMARK  status: ('A' for Active; 'I' for Inactive)
REMARK    1  A    between atoms: C1_2  and  C2_3 
REMARK    2  A    between atoms: C2_3  and  C3_4 
ROOT
ATOM      1  C3  UNL d   1       2.379  -1.837   2.829  0.00  0.00    -0.075 A 
ATOM      2  C4  UNL d   1       2.241  -3.209   2.573  0.00  0.00     0.002 A 
ATOM      3  C5  UNL d   1       2.223  -4.128   3.623  0.00  0.00     0.002 A 
ATOM      4  C6  UNL d   1       2.352  -3.689   4.938  0.00  0.00    -0.004 A 
ATOM      5  C7  UNL d   1       2.505  -2.330   5.204  0.00  0.00     0.002 A 
ATOM      6  C8  UNL d   1       2.519  -1.408   4.155  0.00  0.00     0.002 A 
ENDROOT
BRANCH   1   7
ATOM      7  C2  UNL d   1       2.369  -0.835   1.699  0.00  0.00     0.056 C 
BRANCH   7   8
ATOM      8  C1  UNL d   1       3.479   0.218   1.791  0.00  0.00     0.007 C 
ATOM      9  C   UNL d   1       3.135   1.516   1.071  0.00  0.00     0.009 C 
ENDBRANCH   7   8
ENDBRANCH   1   7
TORSDOF 2
ENDMDL
