MODEL 1
REMARK minimizedAffinity -3.51256514
REMARK minimizedRMSD -1
REMARK  2 active torsions:
REMARK  status: ('A' for Active; 'I' for Inactive)
REMARK    1  A    between atoms: C1_2  and  C2_3 
REMARK    2  A    between atoms: C2_3  and  C3_4 
ROOT
ATOM      1  C3  UNL d   1      -2.394   3.689  -2.077  0.00  0.00    -0.075 A 
ATOM      2  C4  UNL d   1      -2.818   3.985  -0.773  0.00  0.00     0.002 A 
ATOM      3  C5  UNL d   1      -1.954   3.815   0.308  0.00  0.00     0.002 A 
ATOM      4  C6  UNL d   1      -0.661   3.339   0.103  0.00  0.00    -0.004 A 
ATOM      5  C7  UNL d   1      -0.234   3.026  -1.186  0.00  0.00     0.002 A 
ATOM      6  C8  UNL d   1      -1.096   3.200  -2.271  0.00  0.00     0.002 A 
ENDROOT
BRANCH   1   7
ATOM      7  C2  UNL d   1      -3.315   3.899  -3.255  0.00  0.00     0.056 C 
BRANCH   7   8
ATOM      8  C1  UNL d   1      -3.467   5.365  -3.675  0.00  0.00     0.007 C 
ATOM      9  C   UNL d   1      -4.917   5.786  -3.872  0.00  0.00     0.009 C 
ENDBRANCH   7   8
ENDBRANCH   1   7
TORSDOF 2
ENDMDL
