MODEL 1
REMARK minimizedAffinity -0.14986673
REMARK minimizedRMSD -1
REMARK  2 active torsions:
REMARK  status: ('A' for Active; 'I' for Inactive)
REMARK    1  A    between atoms: C1_2  and  C2_3 
REMARK    2  A    between atoms: C2_3  and  C3_4 
ROOT
ATOM      1  C3  UNL d   1      -1.311  -1.121  -1.823  0.00  0.00    -0.075 A 
ATOM      2  C4  UNL d   1       0.005  -0.853  -2.230  0.00  0.00     0.002 A 
ATOM      3  C5  UNL d   1       0.510   0.447  -2.181  0.00  0.00     0.002 A 
ATOM      4  C6  UNL d   1      -0.294   1.494  -1.736  0.00  0.00    -0.004 A 
ATOM      5  C7  UNL d   1      -1.607   1.242  -1.346  0.00  0.00     0.002 A 
ATOM      6  C8  UNL d   1      -2.114  -0.058  -1.389  0.00  0.00     0.002 A 
ENDROOT
BRANCH   1   7
ATOM      7  C2  UNL d   1      -1.854  -2.529  -1.845  0.00  0.00     0.056 C 
BRANCH   7   8
ATOM      8  C1  UNL d   1      -0.833  -3.585  -2.280  0.00  0.00     0.007 C 
ATOM      9  C   UNL d   1      -0.003  -4.131  -1.125  0.00  0.00     0.009 C 
ENDBRANCH   7   8
ENDBRANCH   1   7
TORSDOF 2
ENDMDL
