MODEL 1
REMARK minimizedAffinity 8.99430847
REMARK minimizedRMSD -1
REMARK  2 active torsions:
REMARK  status: ('A' for Active; 'I' for Inactive)
REMARK    1  A    between atoms: C1_2  and  C2_3 
REMARK    2  A    between atoms: C2_3  and  C3_4 
ROOT
ATOM      1  C3  UNL d   1       0.219   1.562   1.249  0.00  0.00    -0.075 A 
ATOM      2  C4  UNL d   1       1.031   0.495   1.657  0.00  0.00     0.002 A 
ATOM      3  C5  UNL d   1       1.000   0.046   2.978  0.00  0.00     0.002 A 
ATOM      4  C6  UNL d   1       0.167   0.664   3.908  0.00  0.00    -0.004 A 
ATOM      5  C7  UNL d   1      -0.632   1.736   3.517  0.00  0.00     0.002 A 
ATOM      6  C8  UNL d   1      -0.606   2.184   2.195  0.00  0.00     0.002 A 
ENDROOT
BRANCH   1   7
ATOM      7  C2  UNL d   1       0.226   2.034  -0.186  0.00  0.00     0.056 C 
BRANCH   7   8
ATOM      8  C1  UNL d   1      -0.697   1.233  -1.110  0.00  0.00     0.007 C 
ATOM      9  C   UNL d   1       0.029   0.623  -2.302  0.00  0.00     0.009 C 
ENDBRANCH   7   8
ENDBRANCH   1   7
TORSDOF 2
ENDMDL
