MODEL 1
REMARK minimizedAffinity -1.08992362
REMARK minimizedRMSD -1
REMARK  2 active torsions:
REMARK  status: ('A' for Active; 'I' for Inactive)
REMARK    1  A    between atoms: C1_2  and  C2_3 
REMARK    2  A    between atoms: C2_3  and  C3_4 
ROOT
ATOM      1  C3  UNL d   1       0.055   0.595  -0.053  0.00  0.00    -0.075 A 
ATOM      2  C4  UNL d   1       0.250  -0.318   0.993  0.00  0.00     0.002 A 
ATOM      3  C5  UNL d   1       0.418   0.131   2.303  0.00  0.00     0.002 A 
ATOM      4  C6  UNL d   1       0.404   1.496   2.582  0.00  0.00    -0.004 A 
ATOM      5  C7  UNL d   1       0.228   2.413   1.548  0.00  0.00     0.002 A 
ATOM      6  C8  UNL d   1       0.055   1.966   0.237  0.00  0.00     0.002 A 
ENDROOT
BRANCH   1   7
ATOM      7  C2  UNL d   1      -0.157   0.114  -1.469  0.00  0.00     0.056 C 
BRANCH   7   8
ATOM      8  C1  UNL d   1      -1.342  -0.843  -1.632  0.00  0.00     0.007 C 
ATOM      9  C   UNL d   1      -2.612  -0.151  -2.109  0.00  0.00     0.009 C 
ENDBRANCH   7   8
ENDBRANCH   1   7
TORSDOF 2
ENDMDL
