MODEL 1
REMARK minimizedAffinity -2.02490187
REMARK minimizedRMSD -1
REMARK  2 active torsions:
REMARK  status: ('A' for Active; 'I' for Inactive)
REMARK    1  A    between atoms: C1_2  and  C2_3 
REMARK    2  A    between atoms: C2_3  and  C3_4 
ROOT
ATOM      1  C3  UNL d   1       0.518   1.076  -0.675  0.00  0.00    -0.075 A 
ATOM      2  C4  UNL d   1       0.619   0.067   0.293  0.00  0.00     0.002 A 
ATOM      3  C5  UNL d   1       0.669   0.388   1.650  0.00  0.00     0.002 A 
ATOM      4  C6  UNL d   1       0.629   1.721   2.055  0.00  0.00    -0.004 A 
ATOM      5  C7  UNL d   1       0.545   2.733   1.101  0.00  0.00     0.002 A 
ATOM      6  C8  UNL d   1       0.491   2.413  -0.257  0.00  0.00     0.002 A 
ENDROOT
BRANCH   1   7
ATOM      7  C2  UNL d   1       0.434   0.733  -2.143  0.00  0.00     0.056 C 
BRANCH   7   8
ATOM      8  C1  UNL d   1      -0.683  -0.257  -2.489  0.00  0.00     0.007 C 
ATOM      9  C   UNL d   1      -1.952   0.420  -2.989  0.00  0.00     0.009 C 
ENDBRANCH   7   8
ENDBRANCH   1   7
TORSDOF 2
ENDMDL
