MODEL 1
REMARK minimizedAffinity -3.09523058
REMARK minimizedRMSD -1
REMARK  1 active torsions:
REMARK  status: ('A' for Active; 'I' for Inactive)
REMARK    1  A    between atoms: C1_2  and  C2_3 
ROOT
ATOM      1  C2  UNL d   1       0.804  -1.175  -1.474  0.00  0.00    -0.077 A 
ATOM      2  C3  UNL d   1      -0.357  -1.122  -0.690  0.00  0.00     0.002 A 
ATOM      3  C4  UNL d   1      -0.742   0.073  -0.079  0.00  0.00     0.002 A 
ATOM      4  C5  UNL d   1       0.025   1.224  -0.249  0.00  0.00    -0.004 A 
ATOM      5  C6  UNL d   1       1.183   1.180  -1.025  0.00  0.00     0.002 A 
ATOM      6  C7  UNL d   1       1.570  -0.013  -1.636  0.00  0.00     0.002 A 
ENDROOT
BRANCH   1   7
ATOM      7  C1  UNL d   1       1.195  -2.451  -2.174  0.00  0.00     0.055 C 
ATOM      8  C   UNL d   1       1.195  -3.631  -1.214  0.00  0.00     0.019 C 
ENDBRANCH   1   7
TORSDOF 1
ENDMDL
