MODEL 1
REMARK minimizedAffinity -3.6559937
REMARK minimizedRMSD -1
REMARK  1 active torsions:
REMARK  status: ('A' for Active; 'I' for Inactive)
REMARK    1  A    between atoms: C1_2  and  C2_3 
ROOT
ATOM      1  C2  UNL d   1      -0.848   1.081   0.661  0.00  0.00    -0.077 A 
ATOM      2  C3  UNL d   1      -0.319  -0.175   0.992  0.00  0.00     0.002 A 
ATOM      3  C4  UNL d   1       0.520  -0.845   0.099  0.00  0.00     0.002 A 
ATOM      4  C5  UNL d   1       0.840  -0.265  -1.127  0.00  0.00    -0.004 A 
ATOM      5  C6  UNL d   1       0.317   0.982  -1.465  0.00  0.00     0.002 A 
ATOM      6  C7  UNL d   1      -0.522   1.652  -0.575  0.00  0.00     0.002 A 
ENDROOT
BRANCH   1   7
ATOM      7  C1  UNL d   1      -1.714   1.826   1.643  0.00  0.00     0.055 C 
ATOM      8  C   UNL d   1      -0.929   2.217   2.887  0.00  0.00     0.019 C 
ENDBRANCH   1   7
TORSDOF 1
ENDMDL
