MODEL 1
REMARK minimizedAffinity -3.35489011
REMARK minimizedRMSD -1
REMARK  1 active torsions:
REMARK  status: ('A' for Active; 'I' for Inactive)
REMARK    1  A    between atoms: C1_2  and  C2_3 
ROOT
ATOM      1  C2  UNL d   1       0.376  -0.483  -0.223  0.00  0.00    -0.077 A 
ATOM      2  C3  UNL d   1      -0.245   0.687  -0.682  0.00  0.00     0.002 A 
ATOM      3  C4  UNL d   1      -1.123   1.391   0.144  0.00  0.00     0.002 A 
ATOM      4  C5  UNL d   1      -1.386   0.935   1.434  0.00  0.00    -0.004 A 
ATOM      5  C6  UNL d   1      -0.775  -0.229   1.899  0.00  0.00     0.002 A 
ATOM      6  C7  UNL d   1       0.102  -0.934   1.075  0.00  0.00     0.002 A 
ENDROOT
BRANCH   1   7
ATOM      7  C1  UNL d   1       1.362  -1.217  -1.094  0.00  0.00     0.055 C 
ATOM      8  C   UNL d   1       0.662  -2.227  -1.992  0.00  0.00     0.019 C 
ENDBRANCH   1   7
TORSDOF 1
ENDMDL
