MODEL 1
REMARK minimizedAffinity -1.93142867
REMARK minimizedRMSD -1
REMARK  1 active torsions:
REMARK  status: ('A' for Active; 'I' for Inactive)
REMARK    1  A    between atoms: C1_2  and  C2_3 
ROOT
ATOM      1  C2  UNL d   1       1.070  -1.372  -0.623  0.00  0.00    -0.077 A 
ATOM      2  C3  UNL d   1       0.774  -0.708  -1.821  0.00  0.00     0.002 A 
ATOM      3  C4  UNL d   1       0.711  -1.414  -3.023  0.00  0.00     0.002 A 
ATOM      4  C5  UNL d   1       0.938  -2.789  -3.039  0.00  0.00    -0.004 A 
ATOM      5  C6  UNL d   1       1.235  -3.459  -1.852  0.00  0.00     0.002 A 
ATOM      6  C7  UNL d   1       1.300  -2.754  -0.650  0.00  0.00     0.002 A 
ENDROOT
BRANCH   1   7
ATOM      7  C1  UNL d   1       1.090  -0.620   0.683  0.00  0.00     0.055 C 
ATOM      8  C   UNL d   1      -0.260  -0.689   1.382  0.00  0.00     0.019 C 
ENDBRANCH   1   7
TORSDOF 1
ENDMDL
