MODEL 1
REMARK minimizedAffinity -3.85776019
REMARK minimizedRMSD -1
REMARK  1 active torsions:
REMARK  status: ('A' for Active; 'I' for Inactive)
REMARK    1  A    between atoms: C1_2  and  C2_3 
ROOT
ATOM      1  C2  UNL d   1      -0.614   0.433   0.994  0.00  0.00    -0.077 A 
ATOM      2  C3  UNL d   1      -0.003  -0.805   1.235  0.00  0.00     0.002 A 
ATOM      3  C4  UNL d   1       0.823  -1.385   0.270  0.00  0.00     0.002 A 
ATOM      4  C5  UNL d   1       1.048  -0.733  -0.940  0.00  0.00    -0.004 A 
ATOM      5  C6  UNL d   1       0.444   0.498  -1.190  0.00  0.00     0.002 A 
ATOM      6  C7  UNL d   1      -0.383   1.079  -0.227  0.00  0.00     0.002 A 
ENDROOT
BRANCH   1   7
ATOM      7  C1  UNL d   1      -1.465   1.084   2.053  0.00  0.00     0.055 C 
ATOM      8  C   UNL d   1      -2.250   2.258   1.488  0.00  0.00     0.019 C 
ENDBRANCH   1   7
TORSDOF 1
ENDMDL
