MODEL 1
REMARK minimizedAffinity -3.32432199
REMARK minimizedRMSD -1
REMARK  1 active torsions:
REMARK  status: ('A' for Active; 'I' for Inactive)
REMARK    1  A    between atoms: C1_2  and  C2_3 
ROOT
ATOM      1  C2  UNL d   1      -0.664   1.683   0.560  0.00  0.00    -0.077 A 
ATOM      2  C3  UNL d   1       0.040   2.181  -0.546  0.00  0.00     0.002 A 
ATOM      3  C4  UNL d   1       0.976   1.381  -1.205  0.00  0.00     0.002 A 
ATOM      4  C5  UNL d   1       1.213   0.079  -0.769  0.00  0.00    -0.004 A 
ATOM      5  C6  UNL d   1       0.519  -0.424   0.331  0.00  0.00     0.002 A 
ATOM      6  C7  UNL d   1      -0.415   0.374   0.992  0.00  0.00     0.002 A 
ENDROOT
BRANCH   1   7
ATOM      7  C1  UNL d   1      -1.709   2.527   1.242  0.00  0.00     0.055 C 
ATOM      8  C   UNL d   1      -1.261   2.943   2.636  0.00  0.00     0.019 C 
ENDBRANCH   1   7
TORSDOF 1
ENDMDL
