MODEL 1
REMARK minimizedAffinity -3.89725637
REMARK minimizedRMSD -1
REMARK  1 active torsions:
REMARK  status: ('A' for Active; 'I' for Inactive)
REMARK    1  A    between atoms: C1_2  and  C2_3 
ROOT
ATOM      1  C2  UNL d   1      -0.443   0.811   0.829  0.00  0.00    -0.077 A 
ATOM      2  C3  UNL d   1       0.174  -0.432   1.030  0.00  0.00     0.002 A 
ATOM      3  C4  UNL d   1       0.953  -1.005   0.023  0.00  0.00     0.002 A 
ATOM      4  C5  UNL d   1       1.125  -0.342  -1.190  0.00  0.00    -0.004 A 
ATOM      5  C6  UNL d   1       0.514   0.893  -1.401  0.00  0.00     0.002 A 
ATOM      6  C7  UNL d   1      -0.265   1.468  -0.396  0.00  0.00     0.002 A 
ENDROOT
BRANCH   1   7
ATOM      7  C1  UNL d   1      -1.242   1.455   1.931  0.00  0.00     0.055 C 
ATOM      8  C   UNL d   1      -2.450   2.197   1.378  0.00  0.00     0.019 C 
ENDBRANCH   1   7
TORSDOF 1
ENDMDL
