MODEL 1
REMARK minimizedAffinity -5.22680664
REMARK minimizedRMSD -1
REMARK  1 active torsions:
REMARK  status: ('A' for Active; 'I' for Inactive)
REMARK    1  A    between atoms: C1_2  and  C2_3 
ROOT
ATOM      1  C2  UNL d   1      -0.007   0.954  -0.364  0.00  0.00    -0.077 A 
ATOM      2  C3  UNL d   1      -0.109   2.337  -0.570  0.00  0.00     0.002 A 
ATOM      3  C4  UNL d   1      -1.038   3.092   0.150  0.00  0.00     0.002 A 
ATOM      4  C5  UNL d   1      -1.867   2.474   1.083  0.00  0.00    -0.004 A 
ATOM      5  C6  UNL d   1      -1.775   1.099   1.294  0.00  0.00     0.002 A 
ATOM      6  C7  UNL d   1      -0.848   0.342   0.574  0.00  0.00     0.002 A 
ENDROOT
BRANCH   1   7
ATOM      7  C1  UNL d   1       1.027   0.147  -1.103  0.00  0.00     0.055 C 
ATOM      8  C   UNL d   1       0.909  -1.335  -0.778  0.00  0.00     0.019 C 
ENDBRANCH   1   7
TORSDOF 1
ENDMDL
