MODEL 1
REMARK minimizedAffinity -4.31367111
REMARK minimizedRMSD -1
REMARK  1 active torsions:
REMARK  status: ('A' for Active; 'I' for Inactive)
REMARK    1  A    between atoms: C1_2  and  C2_3 
ROOT
ATOM      1  C2  UNL d   1      -0.335   2.043   0.705  0.00  0.00    -0.077 A 
ATOM      2  C3  UNL d   1      -0.735   1.047   1.608  0.00  0.00     0.002 A 
ATOM      3  C4  UNL d   1      -0.339  -0.278   1.419  0.00  0.00     0.002 A 
ATOM      4  C5  UNL d   1       0.461  -0.619   0.331  0.00  0.00    -0.004 A 
ATOM      5  C6  UNL d   1       0.863   0.363  -0.573  0.00  0.00     0.002 A 
ATOM      6  C7  UNL d   1       0.467   1.688  -0.387  0.00  0.00     0.002 A 
ENDROOT
BRANCH   1   7
ATOM      7  C1  UNL d   1      -0.720   3.481   0.935  0.00  0.00     0.055 C 
ATOM      8  C   UNL d   1       0.120   4.421   0.083  0.00  0.00     0.019 C 
ENDBRANCH   1   7
TORSDOF 1
ENDMDL
