MODEL 1
REMARK minimizedAffinity -5.02198887
REMARK minimizedRMSD -1
REMARK  1 active torsions:
REMARK  status: ('A' for Active; 'I' for Inactive)
REMARK    1  A    between atoms: C1_2  and  C2_3 
ROOT
ATOM      1  C2  UNL d   1       0.034   0.165   0.082  0.00  0.00    -0.077 A 
ATOM      2  C3  UNL d   1      -0.918   0.996  -0.525  0.00  0.00     0.002 A 
ATOM      3  C4  UNL d   1      -1.924   1.593   0.238  0.00  0.00     0.002 A 
ATOM      4  C5  UNL d   1      -1.985   1.368   1.612  0.00  0.00    -0.004 A 
ATOM      5  C6  UNL d   1      -1.044   0.541   2.224  0.00  0.00     0.002 A 
ATOM      6  C7  UNL d   1      -0.039  -0.057   1.463  0.00  0.00     0.002 A 
ENDROOT
BRANCH   1   7
ATOM      7  C1  UNL d   1       1.148  -0.440  -0.731  0.00  0.00     0.055 C 
ATOM      8  C   UNL d   1       0.693  -1.709  -1.437  0.00  0.00     0.019 C 
ENDBRANCH   1   7
TORSDOF 1
ENDMDL
