MODEL 1
REMARK minimizedAffinity -5.7219286
REMARK minimizedRMSD -1
REMARK  1 active torsions:
REMARK  status: ('A' for Active; 'I' for Inactive)
REMARK    1  A    between atoms: C1_2  and  C2_3 
ROOT
ATOM      1  C2  UNL d   1       0.231   0.703  -0.181  0.00  0.00    -0.077 A 
ATOM      2  C3  UNL d   1       0.059   1.956  -0.787  0.00  0.00     0.002 A 
ATOM      3  C4  UNL d   1      -0.847   2.878  -0.257  0.00  0.00     0.002 A 
ATOM      4  C5  UNL d   1      -1.583   2.558   0.882  0.00  0.00    -0.004 A 
ATOM      5  C6  UNL d   1      -1.421   1.314   1.490  0.00  0.00     0.002 A 
ATOM      6  C7  UNL d   1      -0.517   0.391   0.961  0.00  0.00     0.002 A 
ENDROOT
BRANCH   1   7
ATOM      7  C1  UNL d   1       1.243  -0.273  -0.722  0.00  0.00     0.055 C 
ATOM      8  C   UNL d   1       0.564  -1.462  -1.387  0.00  0.00     0.019 C 
ENDBRANCH   1   7
TORSDOF 1
ENDMDL
