MODEL 1
REMARK minimizedAffinity -4.9580965
REMARK minimizedRMSD -1
REMARK  1 active torsions:
REMARK  status: ('A' for Active; 'I' for Inactive)
REMARK    1  A    between atoms: C1_2  and  C2_3 
ROOT
ATOM      1  C2  UNL d   1      -0.821   1.754   0.515  0.00  0.00    -0.077 A 
ATOM      2  C3  UNL d   1      -1.266   1.271   1.754  0.00  0.00     0.002 A 
ATOM      3  C4  UNL d   1      -0.848   0.022   2.217  0.00  0.00     0.002 A 
ATOM      4  C5  UNL d   1       0.019  -0.753   1.449  0.00  0.00    -0.004 A 
ATOM      5  C6  UNL d   1       0.465  -0.283   0.215  0.00  0.00     0.002 A 
ATOM      6  C7  UNL d   1       0.048   0.965  -0.250  0.00  0.00     0.002 A 
ENDROOT
BRANCH   1   7
ATOM      7  C1  UNL d   1      -1.231   3.122   0.036  0.00  0.00     0.055 C 
ATOM      8  C   UNL d   1      -0.221   3.689  -0.951  0.00  0.00     0.019 C 
ENDBRANCH   1   7
TORSDOF 1
ENDMDL
