MODEL 1
REMARK minimizedAffinity -5.79603577
REMARK minimizedRMSD -1
REMARK  1 active torsions:
REMARK  status: ('A' for Active; 'I' for Inactive)
REMARK    1  A    between atoms: C1_2  and  C2_3 
ROOT
ATOM      1  C2  UNL d   1      -0.036   0.689  -0.091  0.00  0.00    -0.077 A 
ATOM      2  C3  UNL d   1      -0.167   1.975  -0.636  0.00  0.00     0.002 A 
ATOM      3  C4  UNL d   1      -1.010   2.913  -0.037  0.00  0.00     0.002 A 
ATOM      4  C5  UNL d   1      -1.724   2.578   1.111  0.00  0.00    -0.004 A 
ATOM      5  C6  UNL d   1      -1.603   1.301   1.659  0.00  0.00     0.002 A 
ATOM      6  C7  UNL d   1      -0.762   0.362   1.061  0.00  0.00     0.002 A 
ENDROOT
BRANCH   1   7
ATOM      7  C1  UNL d   1       0.910  -0.308  -0.707  0.00  0.00     0.055 C 
ATOM      8  C   UNL d   1       0.154  -1.437  -1.393  0.00  0.00     0.019 C 
ENDBRANCH   1   7
TORSDOF 1
ENDMDL
