MODEL 1
REMARK minimizedAffinity 6.90743446
REMARK minimizedRMSD -1
REMARK  0 active torsions:
REMARK  status: ('A' for Active; 'I' for Inactive)
ROOT
ATOM      1  C1  BNZ d   1       1.124   0.830   0.377  0.00  0.00     0.000 A 
ATOM      2  C2  BNZ d   1       2.373   1.334   0.629  0.00  0.00     0.000 A 
ATOM      3  C3  BNZ d   1       2.534   2.620   1.065  0.00  0.00     0.000 A 
ATOM      4  C4  BNZ d   1       1.451   3.411   1.212  0.00  0.00     0.000 A 
ATOM      5  C5  BNZ d   1       0.187   2.920   0.953  0.00  0.00     0.000 A 
ATOM      6  C6  BNZ d   1       0.025   1.614   0.551  0.00  0.00     0.000 A 
ENDROOT
TORSDOF 0
ENDMDL
