MODEL 1
REMARK minimizedAffinity 1.55037868
REMARK minimizedRMSD -1
REMARK  0 active torsions:
REMARK  status: ('A' for Active; 'I' for Inactive)
ROOT
ATOM      1  C1  BNZ d   1       2.893  -2.807   1.352  0.00  0.00     0.000 A 
ATOM      2  C2  BNZ d   1       3.695  -1.719   1.574  0.00  0.00     0.000 A 
ATOM      3  C3  BNZ d   1       3.802  -0.727   0.640  0.00  0.00     0.000 A 
ATOM      4  C4  BNZ d   1       3.141  -0.843  -0.530  0.00  0.00     0.000 A 
ATOM      5  C5  BNZ d   1       2.336  -1.938  -0.772  0.00  0.00     0.000 A 
ATOM      6  C6  BNZ d   1       2.199  -2.916   0.186  0.00  0.00     0.000 A 
ENDROOT
TORSDOF 0
ENDMDL
