MODEL 1
REMARK minimizedAffinity -1.00443077
REMARK minimizedRMSD -1
REMARK  0 active torsions:
REMARK  status: ('A' for Active; 'I' for Inactive)
ROOT
ATOM      1  C1  BNZ d   1       1.991   0.254   0.040  0.00  0.00     0.000 A 
ATOM      2  C2  BNZ d   1       2.730   1.394  -0.129  0.00  0.00     0.000 A 
ATOM      3  C3  BNZ d   1       3.966   1.348  -0.711  0.00  0.00     0.000 A 
ATOM      4  C4  BNZ d   1       4.478   0.158  -1.086  0.00  0.00     0.000 A 
ATOM      5  C5  BNZ d   1       3.750  -1.002  -0.914  0.00  0.00     0.000 A 
ATOM      6  C6  BNZ d   1       2.490  -0.947  -0.364  0.00  0.00     0.000 A 
ENDROOT
TORSDOF 0
ENDMDL
