MODEL 1
REMARK minimizedAffinity -0.531509876
REMARK minimizedRMSD -1
REMARK  0 active torsions:
REMARK  status: ('A' for Active; 'I' for Inactive)
ROOT
ATOM      1  C1  BNZ d   1      -1.529   2.065   1.495  0.00  0.00     0.000 A 
ATOM      2  C2  BNZ d   1      -0.781   2.276   0.367  0.00  0.00     0.000 A 
ATOM      3  C3  BNZ d   1       0.546   1.953   0.337  0.00  0.00     0.000 A 
ATOM      4  C4  BNZ d   1       1.134   1.458   1.446  0.00  0.00     0.000 A 
ATOM      5  C5  BNZ d   1       0.395   1.248   2.593  0.00  0.00     0.000 A 
ATOM      6  C6  BNZ d   1      -0.950   1.537   2.608  0.00  0.00     0.000 A 
ENDROOT
TORSDOF 0
ENDMDL
