MODEL 1
REMARK minimizedAffinity 4.19519329
REMARK minimizedRMSD -1
REMARK  0 active torsions:
REMARK  status: ('A' for Active; 'I' for Inactive)
ROOT
ATOM      1  C1  BNZ d   1       3.807  -1.341  -2.460  0.00  0.00     0.000 A 
ATOM      2  C2  BNZ d   1       3.753  -0.882  -1.171  0.00  0.00     0.000 A 
ATOM      3  C3  BNZ d   1       2.940  -1.479  -0.249  0.00  0.00     0.000 A 
ATOM      4  C4  BNZ d   1       2.154  -2.508  -0.626  0.00  0.00     0.000 A 
ATOM      5  C5  BNZ d   1       2.190  -2.977  -1.924  0.00  0.00     0.000 A 
ATOM      6  C6  BNZ d   1       3.039  -2.398  -2.840  0.00  0.00     0.000 A 
ENDROOT
TORSDOF 0
ENDMDL
