MODEL 1
REMARK minimizedAffinity -3.2379899
REMARK minimizedRMSD -1
REMARK  0 active torsions:
REMARK  status: ('A' for Active; 'I' for Inactive)
ROOT
ATOM      1  C1  BNZ d   1       1.204  -2.170  -1.026  0.00  0.00     0.000 A 
ATOM      2  C2  BNZ d   1      -0.081  -1.843  -1.368  0.00  0.00     0.000 A 
ATOM      3  C3  BNZ d   1      -0.503  -0.543  -1.343  0.00  0.00     0.000 A 
ATOM      4  C4  BNZ d   1       0.347   0.422  -0.936  0.00  0.00     0.000 A 
ATOM      5  C5  BNZ d   1       1.643   0.107  -0.579  0.00  0.00     0.000 A 
ATOM      6  C6  BNZ d   1       2.076  -1.197  -0.643  0.00  0.00     0.000 A 
ENDROOT
TORSDOF 0
ENDMDL
