MODEL 1
REMARK minimizedAffinity 0.582823575
REMARK minimizedRMSD -1
REMARK  0 active torsions:
REMARK  status: ('A' for Active; 'I' for Inactive)
ROOT
ATOM      1  C1  BNZ d   1      -1.094  -4.662   5.998  0.00  0.00     0.000 A 
ATOM      2  C2  BNZ d   1      -0.325  -3.529   5.988  0.00  0.00     0.000 A 
ATOM      3  C3  BNZ d   1       0.841  -3.481   5.277  0.00  0.00     0.000 A 
ATOM      4  C4  BNZ d   1       1.256  -4.577   4.609  0.00  0.00     0.000 A 
ATOM      5  C5  BNZ d   1       0.496  -5.729   4.617  0.00  0.00     0.000 A 
ATOM      6  C6  BNZ d   1      -0.696  -5.762   5.302  0.00  0.00     0.000 A 
ENDROOT
TORSDOF 0
ENDMDL
