MODEL 1
REMARK minimizedAffinity 4.40621948
REMARK minimizedRMSD -1
REMARK  0 active torsions:
REMARK  status: ('A' for Active; 'I' for Inactive)
ROOT
ATOM      1  O1  BZF d   1       5.068  -1.883   5.999  0.00  0.00    -0.204 OA
ATOM      2  C2  BZF d   1       5.858  -3.016   6.000  0.00  0.00     0.174 A 
ATOM      3  C3  BZF d   1       5.358  -3.948   5.162  0.00  0.00    -0.012 A 
ATOM      4  C3A BZF d   1       4.234  -3.324   4.533  0.00  0.00    -0.107 A 
ATOM      5  C4  BZF d   1       3.337  -3.737   3.590  0.00  0.00     0.055 A 
ATOM      6  C5  BZF d   1       2.314  -2.912   3.245  0.00  0.00    -0.016 A 
ATOM      7  C6  BZF d   1       2.155  -1.671   3.826  0.00  0.00     0.022 A 
ATOM      8  C7  BZF d   1       3.022  -1.216   4.763  0.00  0.00     0.029 A 
ATOM      9  C7A BZF d   1       4.076  -2.034   5.089  0.00  0.00     0.058 A 
ENDROOT
TORSDOF 0
ENDMDL
