MODEL 1
REMARK minimizedAffinity -1.05639279
REMARK minimizedRMSD -1
REMARK  0 active torsions:
REMARK  status: ('A' for Active; 'I' for Inactive)
ROOT
ATOM      1  O1  BZF d   1      -2.839  -1.871  -2.092  0.00  0.00    -0.204 OA
ATOM      2  C2  BZF d   1      -3.364  -2.178  -0.852  0.00  0.00     0.174 A 
ATOM      3  C3  BZF d   1      -2.401  -2.632  -0.024  0.00  0.00    -0.012 A 
ATOM      4  C3A BZF d   1      -1.183  -2.521  -0.766  0.00  0.00    -0.107 A 
ATOM      5  C4  BZF d   1       0.122  -2.801  -0.477  0.00  0.00     0.055 A 
ATOM      6  C5  BZF d   1       1.061  -2.649  -1.447  0.00  0.00    -0.016 A 
ATOM      7  C6  BZF d   1       0.730  -2.223  -2.717  0.00  0.00     0.022 A 
ATOM      8  C7  BZF d   1      -0.550  -1.928  -3.050  0.00  0.00     0.029 A 
ATOM      9  C7A BZF d   1      -1.497  -2.050  -2.062  0.00  0.00     0.058 A 
ENDROOT
TORSDOF 0
ENDMDL
