MODEL 1
REMARK minimizedAffinity 1.58471036
REMARK minimizedRMSD -1
REMARK  0 active torsions:
REMARK  status: ('A' for Active; 'I' for Inactive)
ROOT
ATOM      1  O1  BZF d   1      -1.907  -2.431  -0.510  0.00  0.00    -0.204 OA
ATOM      2  C2  BZF d   1      -1.207  -2.633   0.664  0.00  0.00     0.174 A 
ATOM      3  C3  BZF d   1       0.116  -2.725   0.422  0.00  0.00    -0.012 A 
ATOM      4  C3A BZF d   1       0.260  -2.478  -0.980  0.00  0.00    -0.107 A 
ATOM      5  C4  BZF d   1       1.338  -2.418  -1.817  0.00  0.00     0.055 A 
ATOM      6  C5  BZF d   1       1.131  -2.230  -3.147  0.00  0.00    -0.016 A 
ATOM      7  C6  BZF d   1      -0.137  -2.104  -3.674  0.00  0.00     0.022 A 
ATOM      8  C7  BZF d   1      -1.236  -2.151  -2.883  0.00  0.00     0.029 A 
ATOM      9  C7A BZF d   1      -1.029  -2.308  -1.534  0.00  0.00     0.058 A 
ENDROOT
TORSDOF 0
ENDMDL
