MODEL 1
REMARK minimizedAffinity 6.76983452
REMARK minimizedRMSD -1
REMARK  0 active torsions:
REMARK  status: ('A' for Active; 'I' for Inactive)
ROOT
ATOM      1  O1  BZF d   1       6.000   4.176  -1.594  0.00  0.00    -0.204 OA
ATOM      2  C2  BZF d   1       5.984   5.110  -0.577  0.00  0.00     0.174 A 
ATOM      3  C3  BZF d   1       4.986   5.999  -0.758  0.00  0.00    -0.012 A 
ATOM      4  C3A BZF d   1       4.280   5.540  -1.915  0.00  0.00    -0.107 A 
ATOM      5  C4  BZF d   1       3.180   5.995  -2.585  0.00  0.00     0.055 A 
ATOM      6  C5  BZF d   1       2.790   5.360  -3.721  0.00  0.00    -0.016 A 
ATOM      7  C6  BZF d   1       3.478   4.272  -4.218  0.00  0.00     0.022 A 
ATOM      8  C7  BZF d   1       4.571   3.782  -3.585  0.00  0.00     0.029 A 
ATOM      9  C7A BZF d   1       4.949   4.401  -2.419  0.00  0.00     0.058 A 
ENDROOT
TORSDOF 0
ENDMDL
