MODEL 1
REMARK minimizedAffinity -0.402352363
REMARK minimizedRMSD -1
REMARK  0 active torsions:
REMARK  status: ('A' for Active; 'I' for Inactive)
ROOT
ATOM      1  O1  BZF d   1       3.148  -4.962   4.927  0.00  0.00    -0.204 OA
ATOM      2  C2  BZF d   1       3.842  -5.992   5.532  0.00  0.00     0.174 A 
ATOM      3  C3  BZF d   1       5.030  -5.559   6.000  0.00  0.00    -0.012 A 
ATOM      4  C3A BZF d   1       5.042  -4.150   5.748  0.00  0.00    -0.107 A 
ATOM      5  C4  BZF d   1       5.948  -3.159   6.000  0.00  0.00     0.055 A 
ATOM      6  C5  BZF d   1       5.687  -1.900   5.561  0.00  0.00    -0.016 A 
ATOM      7  C6  BZF d   1       4.536  -1.597   4.863  0.00  0.00     0.022 A 
ATOM      8  C7  BZF d   1       3.607  -2.546   4.594  0.00  0.00     0.029 A 
ATOM      9  C7A BZF d   1       3.851  -3.813   5.065  0.00  0.00     0.058 A 
ENDROOT
TORSDOF 0
ENDMDL
