MODEL 1
REMARK minimizedAffinity 1.81314969
REMARK minimizedRMSD -1
REMARK  0 active torsions:
REMARK  status: ('A' for Active; 'I' for Inactive)
ROOT
ATOM      1  O1  BZF d   1       4.100   5.983  -2.211  0.00  0.00    -0.204 OA
ATOM      2  C2  BZF d   1       5.125   5.454  -1.451  0.00  0.00     0.174 A 
ATOM      3  C3  BZF d   1       6.000   4.783  -2.229  0.00  0.00    -0.012 A 
ATOM      4  C3A BZF d   1       5.539   4.978  -3.569  0.00  0.00    -0.107 A 
ATOM      5  C4  BZF d   1       5.998   4.570  -4.789  0.00  0.00     0.055 A 
ATOM      6  C5  BZF d   1       5.275   4.869  -5.900  0.00  0.00    -0.016 A 
ATOM      7  C6  BZF d   1       4.088   5.568  -5.828  0.00  0.00     0.022 A 
ATOM      8  C7  BZF d   1       3.595   5.998  -4.641  0.00  0.00     0.029 A 
ATOM      9  C7A BZF d   1       4.340   5.726  -3.520  0.00  0.00     0.058 A 
ENDROOT
TORSDOF 0
ENDMDL
