MODEL 1
REMARK minimizedAffinity 10.1311321
REMARK minimizedRMSD -1
REMARK  0 active torsions:
REMARK  status: ('A' for Active; 'I' for Inactive)
ROOT
ATOM      1  O1  BZF d   1       5.864   1.988  -3.302  0.00  0.00    -0.204 OA
ATOM      2  C2  BZF d   1       5.748   1.862  -4.673  0.00  0.00     0.174 A 
ATOM      3  C3  BZF d   1       5.645   3.074  -5.257  0.00  0.00    -0.012 A 
ATOM      4  C3A BZF d   1       5.794   4.019  -4.193  0.00  0.00    -0.107 A 
ATOM      5  C4  BZF d   1       5.800   5.383  -4.144  0.00  0.00     0.055 A 
ATOM      6  C5  BZF d   1       5.894   6.000  -2.936  0.00  0.00    -0.016 A 
ATOM      7  C6  BZF d   1       5.978   5.284  -1.760  0.00  0.00     0.022 A 
ATOM      8  C7  BZF d   1       5.981   3.929  -1.759  0.00  0.00     0.029 A 
ATOM      9  C7A BZF d   1       5.919   3.303  -2.980  0.00  0.00     0.058 A 
ENDROOT
TORSDOF 0
ENDMDL
