MODEL 1
REMARK minimizedAffinity 10.4102125
REMARK minimizedRMSD -1
REMARK  0 active torsions:
REMARK  status: ('A' for Active; 'I' for Inactive)
ROOT
ATOM      1  O1  BZF d   1       4.365   5.993  -2.421  0.00  0.00    -0.204 OA
ATOM      2  C2  BZF d   1       5.256   5.336  -1.594  0.00  0.00     0.174 A 
ATOM      3  C3  BZF d   1       5.998   4.455  -2.295  0.00  0.00    -0.012 A 
ATOM      4  C3A BZF d   1       5.606   4.634  -3.660  0.00  0.00    -0.107 A 
ATOM      5  C4  BZF d   1       5.999   4.056  -4.833  0.00  0.00     0.055 A 
ATOM      6  C5  BZF d   1       5.367   4.404  -5.985  0.00  0.00    -0.016 A 
ATOM      7  C6  BZF d   1       4.336   5.320  -5.999  0.00  0.00     0.022 A 
ATOM      8  C7  BZF d   1       3.915   5.924  -4.861  0.00  0.00     0.029 A 
ATOM      9  C7A BZF d   1       4.574   5.599  -3.700  0.00  0.00     0.058 A 
ENDROOT
TORSDOF 0
ENDMDL
