MODEL 1
REMARK minimizedAffinity 10.4597712
REMARK minimizedRMSD -1
REMARK  0 active torsions:
REMARK  status: ('A' for Active; 'I' for Inactive)
ROOT
ATOM      1  O1  BZF d   1       4.142   5.619  -1.397  0.00  0.00    -0.204 OA
ATOM      2  C2  BZF d   1       5.460   5.224  -1.272  0.00  0.00     0.174 A 
ATOM      3  C3  BZF d   1       6.000   4.969  -2.481  0.00  0.00    -0.012 A 
ATOM      4  C3A BZF d   1       4.982   5.309  -3.427  0.00  0.00    -0.107 A 
ATOM      5  C4  BZF d   1       4.922   5.288  -4.791  0.00  0.00     0.055 A 
ATOM      6  C5  BZF d   1       3.755   5.613  -5.407  0.00  0.00    -0.016 A 
ATOM      7  C6  BZF d   1       2.629   5.959  -4.690  0.00  0.00     0.022 A 
ATOM      8  C7  BZF d   1       2.640   6.000  -3.336  0.00  0.00     0.029 A 
ATOM      9  C7A BZF d   1       3.827   5.703  -2.712  0.00  0.00     0.058 A 
ENDROOT
TORSDOF 0
ENDMDL
