MODEL 1
REMARK minimizedAffinity -1.44650292
REMARK minimizedRMSD -1
REMARK  0 active torsions:
REMARK  status: ('A' for Active; 'I' for Inactive)
ROOT
ATOM      1  O1  BZF d   1       5.625   2.823  -4.864  0.00  0.00    -0.204 OA
ATOM      2  C2  BZF d   1       5.411   3.581  -6.000  0.00  0.00     0.174 A 
ATOM      3  C3  BZF d   1       5.328   4.891  -5.692  0.00  0.00    -0.012 A 
ATOM      4  C3A BZF d   1       5.593   4.965  -4.288  0.00  0.00    -0.107 A 
ATOM      5  C4  BZF d   1       5.667   6.000  -3.400  0.00  0.00     0.055 A 
ATOM      6  C5  BZF d   1       5.871   5.728  -2.084  0.00  0.00    -0.016 A 
ATOM      7  C6  BZF d   1       5.999   4.434  -1.621  0.00  0.00     0.022 A 
ATOM      8  C7  BZF d   1       5.937   3.375  -2.465  0.00  0.00     0.029 A 
ATOM      9  C7A BZF d   1       5.764   3.649  -3.800  0.00  0.00     0.058 A 
ENDROOT
TORSDOF 0
ENDMDL
