MODEL 1
REMARK minimizedAffinity 5.05280399
REMARK minimizedRMSD -1
REMARK  0 active torsions:
REMARK  status: ('A' for Active; 'I' for Inactive)
ROOT
ATOM      1  O1  BZF d   1      -1.688  -1.978  -1.837  0.00  0.00    -0.204 OA
ATOM      2  C2  BZF d   1      -0.324  -1.766  -1.803  0.00  0.00     0.174 A 
ATOM      3  C3  BZF d   1       0.167  -2.005  -0.570  0.00  0.00    -0.012 A 
ATOM      4  C3A BZF d   1      -0.946  -2.481   0.193  0.00  0.00    -0.107 A 
ATOM      5  C4  BZF d   1      -1.089  -2.900   1.485  0.00  0.00     0.055 A 
ATOM      6  C5  BZF d   1      -2.327  -3.232   1.938  0.00  0.00    -0.016 A 
ATOM      7  C6  BZF d   1      -3.442  -3.151   1.130  0.00  0.00     0.022 A 
ATOM      8  C7  BZF d   1      -3.349  -2.746  -0.160  0.00  0.00     0.029 A 
ATOM      9  C7A BZF d   1      -2.095  -2.442  -0.631  0.00  0.00     0.058 A 
ENDROOT
TORSDOF 0
ENDMDL
