MODEL 1
REMARK minimizedAffinity 0.878244162
REMARK minimizedRMSD -1
REMARK  0 active torsions:
REMARK  status: ('A' for Active; 'I' for Inactive)
ROOT
ATOM      1  O1  BZF d   1       4.897  -3.443   2.326  0.00  0.00    -0.204 OA
ATOM      2  C2  BZF d   1       4.065  -2.620   1.592  0.00  0.00     0.174 A 
ATOM      3  C3  BZF d   1       3.451  -1.725   2.391  0.00  0.00    -0.012 A 
ATOM      4  C3A BZF d   1       4.000  -1.945   3.694  0.00  0.00    -0.107 A 
ATOM      5  C4  BZF d   1       3.799  -1.356   4.910  0.00  0.00     0.055 A 
ATOM      6  C5  BZF d   1       4.438  -1.856   6.000  0.00  0.00    -0.016 A 
ATOM      7  C6  BZF d   1       5.280  -2.945   5.912  0.00  0.00     0.022 A 
ATOM      8  C7  BZF d   1       5.514  -3.560   4.727  0.00  0.00     0.029 A 
ATOM      9  C7A BZF d   1       4.896  -3.037   3.618  0.00  0.00     0.058 A 
ENDROOT
TORSDOF 0
ENDMDL
