MODEL 1
REMARK minimizedAffinity 4.29606915
REMARK minimizedRMSD -1
REMARK  0 active torsions:
REMARK  status: ('A' for Active; 'I' for Inactive)
ROOT
ATOM      1  O1  BZF d   1       2.655  -2.049   4.012  0.00  0.00    -0.204 OA
ATOM      2  C2  BZF d   1       2.457  -1.144   5.036  0.00  0.00     0.174 A 
ATOM      3  C3  BZF d   1       3.389  -1.298   5.998  0.00  0.00    -0.012 A 
ATOM      4  C3A BZF d   1       4.277  -2.305   5.504  0.00  0.00    -0.107 A 
ATOM      5  C4  BZF d   1       5.411  -2.882   5.999  0.00  0.00     0.055 A 
ATOM      6  C5  BZF d   1       6.000  -3.888   5.300  0.00  0.00    -0.016 A 
ATOM      7  C6  BZF d   1       5.480  -4.344   4.107  0.00  0.00     0.022 A 
ATOM      8  C7  BZF d   1       4.360  -3.799   3.573  0.00  0.00     0.029 A 
ATOM      9  C7A BZF d   1       3.781  -2.760   4.260  0.00  0.00     0.058 A 
ENDROOT
TORSDOF 0
ENDMDL
