MODEL 1
REMARK minimizedAffinity 4.22508907
REMARK minimizedRMSD -1
REMARK  0 active torsions:
REMARK  status: ('A' for Active; 'I' for Inactive)
ROOT
ATOM      1  O1  BZF d   1      -0.439  -4.087  -0.045  0.00  0.00    -0.204 OA
ATOM      2  C2  BZF d   1      -0.517  -2.809   0.474  0.00  0.00     0.174 A 
ATOM      3  C3  BZF d   1      -0.270  -1.889  -0.481  0.00  0.00    -0.012 A 
ATOM      4  C3A BZF d   1      -0.113  -2.636  -1.691  0.00  0.00    -0.107 A 
ATOM      5  C4  BZF d   1       0.134  -2.282  -2.987  0.00  0.00     0.055 A 
ATOM      6  C5  BZF d   1       0.304  -3.259  -3.917  0.00  0.00    -0.016 A 
ATOM      7  C6  BZF d   1       0.237  -4.596  -3.586  0.00  0.00     0.022 A 
ATOM      8  C7  BZF d   1      -0.011  -4.996  -2.315  0.00  0.00     0.029 A 
ATOM      9  C7A BZF d   1      -0.215  -4.011  -1.379  0.00  0.00     0.058 A 
ENDROOT
TORSDOF 0
ENDMDL
