MODEL 1
REMARK minimizedAffinity 4.45535946
REMARK minimizedRMSD -1
REMARK  0 active torsions:
REMARK  status: ('A' for Active; 'I' for Inactive)
ROOT
ATOM      1  O1  BZF d   1      -2.402  -2.447  -1.964  0.00  0.00    -0.204 OA
ATOM      2  C2  BZF d   1      -2.830  -2.278  -0.661  0.00  0.00     0.174 A 
ATOM      3  C3  BZF d   1      -1.793  -1.986   0.150  0.00  0.00    -0.012 A 
ATOM      4  C3A BZF d   1      -0.658  -1.880  -0.715  0.00  0.00    -0.107 A 
ATOM      5  C4  BZF d   1       0.661  -1.593  -0.502  0.00  0.00     0.055 A 
ATOM      6  C5  BZF d   1       1.524  -1.642  -1.551  0.00  0.00    -0.016 A 
ATOM      7  C6  BZF d   1       1.105  -1.978  -2.821  0.00  0.00     0.022 A 
ATOM      8  C7  BZF d   1      -0.193  -2.265  -3.082  0.00  0.00     0.029 A 
ATOM      9  C7A BZF d   1      -1.074  -2.185  -2.031  0.00  0.00     0.058 A 
ENDROOT
TORSDOF 0
ENDMDL
