MODEL 1
REMARK minimizedAffinity 9.09740257
REMARK minimizedRMSD -1
REMARK  0 active torsions:
REMARK  status: ('A' for Active; 'I' for Inactive)
ROOT
ATOM      1  O1  BZF d   1      -0.750  -1.768   0.747  0.00  0.00    -0.204 OA
ATOM      2  C2  BZF d   1      -1.711  -2.625   1.247  0.00  0.00     0.174 A 
ATOM      3  C3  BZF d   1      -2.123  -3.489   0.298  0.00  0.00    -0.012 A 
ATOM      4  C3A BZF d   1      -1.307  -3.211  -0.844  0.00  0.00    -0.107 A 
ATOM      5  C4  BZF d   1      -1.230  -3.749  -2.097  0.00  0.00     0.055 A 
ATOM      6  C5  BZF d   1      -0.375  -3.201  -3.000  0.00  0.00    -0.016 A 
ATOM      7  C6  BZF d   1       0.412  -2.112  -2.686  0.00  0.00     0.022 A 
ATOM      8  C7  BZF d   1       0.374  -1.547  -1.455  0.00  0.00     0.029 A 
ATOM      9  C7A BZF d   1      -0.464  -2.119  -0.530  0.00  0.00     0.058 A 
ENDROOT
TORSDOF 0
ENDMDL
