MODEL 1
REMARK minimizedAffinity -0.30412969
REMARK minimizedRMSD -1
REMARK  0 active torsions:
REMARK  status: ('A' for Active; 'I' for Inactive)
ROOT
ATOM      1  O1  BZF d   1      -0.870  -1.215  -0.502  0.00  0.00    -0.204 OA
ATOM      2  C2  BZF d   1      -1.430  -1.952   0.524  0.00  0.00     0.174 A 
ATOM      3  C3  BZF d   1      -1.355  -3.272   0.260  0.00  0.00    -0.012 A 
ATOM      4  C3A BZF d   1      -0.625  -3.370  -0.966  0.00  0.00    -0.107 A 
ATOM      5  C4  BZF d   1      -0.213  -4.423  -1.733  0.00  0.00     0.055 A 
ATOM      6  C5  BZF d   1       0.417  -4.176  -2.911  0.00  0.00    -0.016 A 
ATOM      7  C6  BZF d   1       0.647  -2.890  -3.356  0.00  0.00     0.022 A 
ATOM      8  C7  BZF d   1       0.262  -1.814  -2.628  0.00  0.00     0.029 A 
ATOM      9  C7A BZF d   1      -0.346  -2.060  -1.421  0.00  0.00     0.058 A 
ENDROOT
TORSDOF 0
ENDMDL
