MODEL 1
REMARK minimizedAffinity 9.93043995
REMARK minimizedRMSD -1
REMARK  3 active torsions:
REMARK  status: ('A' for Active; 'I' for Inactive)
REMARK    1  A    between atoms: C3'_2  and  C2'_3 
REMARK    2  A    between atoms: C2'_3  and  C1'_4 
REMARK    3  A    between atoms: C1'_4  and  C1_5 
ROOT
ATOM      1  C1  N4B d   1      -4.655  -0.296   3.988  0.00  0.00    -0.075 A 
ATOM      2  C2  N4B d   1      -4.309  -0.564   2.645  0.00  0.00     0.002 A 
ATOM      3  C3  N4B d   1      -4.437  -1.836   2.144  0.00  0.00     0.002 A 
ATOM      4  C4  N4B d   1      -4.889  -2.855   2.968  0.00  0.00    -0.004 A 
ATOM      5  C5  N4B d   1      -5.246  -2.583   4.256  0.00  0.00     0.002 A 
ATOM      6  C6  N4B d   1      -5.126  -1.308   4.772  0.00  0.00     0.002 A 
ENDROOT
BRANCH   1   7
ATOM      7  C1' N4B d   1      -4.451   1.061   4.605  0.00  0.00     0.057 C 
BRANCH   7   8
ATOM      8  C2' N4B d   1      -3.482   0.937   5.777  0.00  0.00     0.009 C 
BRANCH   8   9
ATOM      9  C3' N4B d   1      -2.043   0.797   5.311  0.00  0.00     0.004 C 
ATOM     10  C4' N4B d   1      -1.879   1.058   3.844  0.00  0.00     0.003 C 
ENDBRANCH   8   9
ENDBRANCH   7   8
ENDBRANCH   1   7
TORSDOF 3
ENDMDL
