MODEL 1
REMARK minimizedAffinity 12.7933874
REMARK minimizedRMSD -1
REMARK  3 active torsions:
REMARK  status: ('A' for Active; 'I' for Inactive)
REMARK    1  A    between atoms: C3'_2  and  C2'_3 
REMARK    2  A    between atoms: C2'_3  and  C1'_4 
REMARK    3  A    between atoms: C1'_4  and  C1_5 
ROOT
ATOM      1  C1  N4B d   1      -4.872  -0.154   2.855  0.00  0.00    -0.075 A 
ATOM      2  C2  N4B d   1      -4.924   0.460   4.125  0.00  0.00     0.002 A 
ATOM      3  C3  N4B d   1      -5.337  -0.261   5.219  0.00  0.00     0.002 A 
ATOM      4  C4  N4B d   1      -5.719  -1.585   5.064  0.00  0.00    -0.004 A 
ATOM      5  C5  N4B d   1      -5.642  -2.177   3.838  0.00  0.00     0.002 A 
ATOM      6  C6  N4B d   1      -5.225  -1.467   2.730  0.00  0.00     0.002 A 
ENDROOT
BRANCH   1   7
ATOM      7  C1' N4B d   1      -4.509   0.617   1.615  0.00  0.00     0.057 C 
BRANCH   7   8
ATOM      8  C2' N4B d   1      -4.540   2.110   1.926  0.00  0.00     0.009 C 
BRANCH   8   9
ATOM      9  C3' N4B d   1      -4.970   2.933   0.724  0.00  0.00     0.004 C 
ATOM     10  C4' N4B d   1      -3.996   4.022   0.387  0.00  0.00     0.003 C 
ENDBRANCH   8   9
ENDBRANCH   7   8
ENDBRANCH   1   7
TORSDOF 3
ENDMDL
