MODEL 1
REMARK minimizedAffinity -3.53793287
REMARK minimizedRMSD -1
REMARK  3 active torsions:
REMARK  status: ('A' for Active; 'I' for Inactive)
REMARK    1  A    between atoms: C3'_2  and  C2'_3 
REMARK    2  A    between atoms: C2'_3  and  C1'_4 
REMARK    3  A    between atoms: C1'_4  and  C1_5 
ROOT
ATOM      1  C1  N4B d   1       2.251  -2.924  -0.219  0.00  0.00    -0.075 A 
ATOM      2  C2  N4B d   1       1.838  -1.807   0.540  0.00  0.00     0.002 A 
ATOM      3  C3  N4B d   1       0.811  -1.933   1.443  0.00  0.00     0.002 A 
ATOM      4  C4  N4B d   1       0.173  -3.155   1.590  0.00  0.00    -0.004 A 
ATOM      5  C5  N4B d   1       0.595  -4.235   0.871  0.00  0.00     0.002 A 
ATOM      6  C6  N4B d   1       1.629  -4.124  -0.037  0.00  0.00     0.002 A 
ENDROOT
BRANCH   1   7
ATOM      7  C1' N4B d   1       3.312  -2.814  -1.281  0.00  0.00     0.057 C 
BRANCH   7   8
ATOM      8  C2' N4B d   1       3.892  -4.198  -1.555  0.00  0.00     0.009 C 
BRANCH   8   9
ATOM      9  C3' N4B d   1       5.407  -4.209  -1.456  0.00  0.00     0.004 C 
ATOM     10  C4' N4B d   1       5.991  -5.578  -1.640  0.00  0.00     0.003 C 
ENDBRANCH   8   9
ENDBRANCH   7   8
ENDBRANCH   1   7
TORSDOF 3
ENDMDL
