MODEL 1
REMARK minimizedAffinity 8.78171349
REMARK minimizedRMSD -1
REMARK  3 active torsions:
REMARK  status: ('A' for Active; 'I' for Inactive)
REMARK    1  A    between atoms: C3'_2  and  C2'_3 
REMARK    2  A    between atoms: C2'_3  and  C1'_4 
REMARK    3  A    between atoms: C1'_4  and  C1_5 
ROOT
ATOM      1  C1  N4B d   1      -2.790  -1.947   1.519  0.00  0.00    -0.075 A 
ATOM      2  C2  N4B d   1      -2.174  -0.753   1.956  0.00  0.00     0.002 A 
ATOM      3  C3  N4B d   1      -0.804  -0.649   1.960  0.00  0.00     0.002 A 
ATOM      4  C4  N4B d   1      -0.033  -1.727   1.552  0.00  0.00    -0.004 A 
ATOM      5  C5  N4B d   1      -0.637  -2.867   1.108  0.00  0.00     0.002 A 
ATOM      6  C6  N4B d   1      -2.012  -2.984   1.094  0.00  0.00     0.002 A 
ENDROOT
BRANCH   1   7
ATOM      7  C1' N4B d   1      -4.281  -2.138   1.577  0.00  0.00     0.057 C 
BRANCH   7   8
ATOM      8  C2' N4B d   1      -4.593  -3.631   1.596  0.00  0.00     0.009 C 
BRANCH   8   9
ATOM      9  C3' N4B d   1      -5.994  -3.912   2.113  0.00  0.00     0.004 C 
ATOM     10  C4' N4B d   1      -6.000  -4.791   3.328  0.00  0.00     0.003 C 
ENDBRANCH   8   9
ENDBRANCH   7   8
ENDBRANCH   1   7
TORSDOF 3
ENDMDL
