MODEL 1
REMARK minimizedAffinity -3.63437057
REMARK minimizedRMSD -1
REMARK  3 active torsions:
REMARK  status: ('A' for Active; 'I' for Inactive)
REMARK    1  A    between atoms: C3'_2  and  C2'_3 
REMARK    2  A    between atoms: C2'_3  and  C1'_4 
REMARK    3  A    between atoms: C1'_4  and  C1_5 
ROOT
ATOM      1  C1  N4B d   1       2.434  -3.828  -0.095  0.00  0.00    -0.075 A 
ATOM      2  C2  N4B d   1       1.324  -4.129   0.725  0.00  0.00     0.002 A 
ATOM      3  C3  N4B d   1       0.432  -3.141   1.063  0.00  0.00     0.002 A 
ATOM      4  C4  N4B d   1       0.638  -1.847   0.611  0.00  0.00    -0.004 A 
ATOM      5  C5  N4B d   1       1.698  -1.569  -0.202  0.00  0.00     0.002 A 
ATOM      6  C6  N4B d   1       2.601  -2.553  -0.553  0.00  0.00     0.002 A 
ENDROOT
BRANCH   1   7
ATOM      7  C1' N4B d   1       3.483  -4.855  -0.422  0.00  0.00     0.057 C 
BRANCH   7   8
ATOM      8  C2' N4B d   1       4.637  -4.178  -1.154  0.00  0.00     0.009 C 
BRANCH   8   9
ATOM      9  C3' N4B d   1       5.985  -4.732  -0.725  0.00  0.00     0.004 C 
ATOM     10  C4' N4B d   1       5.867  -5.997   0.071  0.00  0.00     0.003 C 
ENDBRANCH   8   9
ENDBRANCH   7   8
ENDBRANCH   1   7
TORSDOF 3
ENDMDL
