MODEL 1
REMARK minimizedAffinity -5.26559114
REMARK minimizedRMSD -1
REMARK  3 active torsions:
REMARK  status: ('A' for Active; 'I' for Inactive)
REMARK    1  A    between atoms: C3'_2  and  C2'_3 
REMARK    2  A    between atoms: C2'_3  and  C1'_4 
REMARK    3  A    between atoms: C1'_4  and  C1_5 
ROOT
ATOM      1  C1  N4B d   1       3.063  -4.363  -0.041  0.00  0.00    -0.075 A 
ATOM      2  C2  N4B d   1       3.814  -5.414   0.529  0.00  0.00     0.002 A 
ATOM      3  C3  N4B d   1       5.060  -5.715   0.034  0.00  0.00     0.002 A 
ATOM      4  C4  N4B d   1       5.564  -4.994  -1.037  0.00  0.00    -0.004 A 
ATOM      5  C5  N4B d   1       4.843  -3.964  -1.566  0.00  0.00     0.002 A 
ATOM      6  C6  N4B d   1       3.592  -3.648  -1.076  0.00  0.00     0.002 A 
ENDROOT
BRANCH   1   7
ATOM      7  C1' N4B d   1       1.662  -4.053   0.410  0.00  0.00     0.057 C 
BRANCH   7   8
ATOM      8  C2' N4B d   1       1.321  -2.615   0.032  0.00  0.00     0.009 C 
BRANCH   8   9
ATOM      9  C3' N4B d   1       1.045  -1.756   1.254  0.00  0.00     0.004 C 
ATOM     10  C4' N4B d   1      -0.420  -1.596   1.533  0.00  0.00     0.003 C 
ENDBRANCH   8   9
ENDBRANCH   7   8
ENDBRANCH   1   7
TORSDOF 3
ENDMDL
