MODEL 1
REMARK minimizedAffinity -4.71081734
REMARK minimizedRMSD -1
REMARK  3 active torsions:
REMARK  status: ('A' for Active; 'I' for Inactive)
REMARK    1  A    between atoms: C3'_2  and  C2'_3 
REMARK    2  A    between atoms: C2'_3  and  C1'_4 
REMARK    3  A    between atoms: C1'_4  and  C1_5 
ROOT
ATOM      1  C1  N4B d   1       3.404  -3.453  -0.829  0.00  0.00    -0.075 A 
ATOM      2  C2  N4B d   1       4.107  -3.505  -2.053  0.00  0.00     0.002 A 
ATOM      3  C3  N4B d   1       5.318  -4.148  -2.122  0.00  0.00     0.002 A 
ATOM      4  C4  N4B d   1       5.854  -4.726  -0.982  0.00  0.00    -0.004 A 
ATOM      5  C5  N4B d   1       5.157  -4.694   0.191  0.00  0.00     0.002 A 
ATOM      6  C6  N4B d   1       3.936  -4.055   0.274  0.00  0.00     0.002 A 
ENDROOT
BRANCH   1   7
ATOM      7  C1' N4B d   1       2.117  -2.688  -0.685  0.00  0.00     0.057 C 
BRANCH   7   8
ATOM      8  C2' N4B d   1       1.631  -2.793   0.758  0.00  0.00     0.009 C 
BRANCH   8   9
ATOM      9  C3' N4B d   1       0.123  -2.955   0.840  0.00  0.00     0.004 C 
ATOM     10  C4' N4B d   1      -0.370  -4.177   0.122  0.00  0.00     0.003 C 
ENDBRANCH   8   9
ENDBRANCH   7   8
ENDBRANCH   1   7
TORSDOF 3
ENDMDL
