MODEL 1
REMARK minimizedAffinity -2.31517959
REMARK minimizedRMSD -1
REMARK  3 active torsions:
REMARK  status: ('A' for Active; 'I' for Inactive)
REMARK    1  A    between atoms: C3'_2  and  C2'_3 
REMARK    2  A    between atoms: C2'_3  and  C1'_4 
REMARK    3  A    between atoms: C1'_4  and  C1_5 
ROOT
ATOM      1  C1  N4B d   1       2.286  -3.028  -0.196  0.00  0.00    -0.075 A 
ATOM      2  C2  N4B d   1       3.136  -4.008  -0.753  0.00  0.00     0.002 A 
ATOM      3  C3  N4B d   1       3.963  -3.685  -1.801  0.00  0.00     0.002 A 
ATOM      4  C4  N4B d   1       3.943  -2.398  -2.319  0.00  0.00    -0.004 A 
ATOM      5  C5  N4B d   1       3.137  -1.451  -1.759  0.00  0.00     0.002 A 
ATOM      6  C6  N4B d   1       2.304  -1.760  -0.702  0.00  0.00     0.002 A 
ENDROOT
BRANCH   1   7
ATOM      7  C1' N4B d   1       1.303  -3.356   0.894  0.00  0.00     0.057 C 
BRANCH   7   8
ATOM      8  C2' N4B d   1       0.638  -2.069   1.373  0.00  0.00     0.009 C 
BRANCH   8   9
ATOM      9  C3' N4B d   1      -0.824  -2.282   1.724  0.00  0.00     0.004 C 
ATOM     10  C4' N4B d   1      -1.494  -1.029   2.205  0.00  0.00     0.003 C 
ENDBRANCH   8   9
ENDBRANCH   7   8
ENDBRANCH   1   7
TORSDOF 3
ENDMDL
