MODEL 1
REMARK minimizedAffinity 2.98572803
REMARK minimizedRMSD -1
REMARK  3 active torsions:
REMARK  status: ('A' for Active; 'I' for Inactive)
REMARK    1  A    between atoms: C3'_2  and  C2'_3 
REMARK    2  A    between atoms: C2'_3  and  C1'_4 
REMARK    3  A    between atoms: C1'_4  and  C1_5 
ROOT
ATOM      1  C1  N4B d   1      -1.837  -0.816   1.096  0.00  0.00    -0.075 A 
ATOM      2  C2  N4B d   1      -2.212  -0.676  -0.259  0.00  0.00     0.002 A 
ATOM      3  C3  N4B d   1      -2.874   0.453  -0.674  0.00  0.00     0.002 A 
ATOM      4  C4  N4B d   1      -3.187   1.443   0.246  0.00  0.00    -0.004 A 
ATOM      5  C5  N4B d   1      -2.799   1.311   1.547  0.00  0.00     0.002 A 
ATOM      6  C6  N4B d   1      -2.129   0.183   1.978  0.00  0.00     0.002 A 
ENDROOT
BRANCH   1   7
ATOM      7  C1' N4B d   1      -1.188  -2.071   1.614  0.00  0.00     0.057 C 
BRANCH   7   8
ATOM      8  C2' N4B d   1      -0.659  -2.884   0.436  0.00  0.00     0.009 C 
BRANCH   8   9
ATOM      9  C3' N4B d   1      -0.587  -4.367   0.757  0.00  0.00     0.004 C 
ATOM     10  C4' N4B d   1       0.697  -4.997   0.306  0.00  0.00     0.003 C 
ENDBRANCH   8   9
ENDBRANCH   7   8
ENDBRANCH   1   7
TORSDOF 3
ENDMDL
