MODEL 1
REMARK minimizedAffinity 5.65557432
REMARK minimizedRMSD -1
REMARK  3 active torsions:
REMARK  status: ('A' for Active; 'I' for Inactive)
REMARK    1  A    between atoms: C3'_2  and  C2'_3 
REMARK    2  A    between atoms: C2'_3  and  C1'_4 
REMARK    3  A    between atoms: C1'_4  and  C1_5 
ROOT
ATOM      1  C1  N4B d   1       2.179  -3.782   0.420  0.00  0.00    -0.075 A 
ATOM      2  C2  N4B d   1       1.639  -3.032   1.488  0.00  0.00     0.002 A 
ATOM      3  C3  N4B d   1       0.319  -2.655   1.463  0.00  0.00     0.002 A 
ATOM      4  C4  N4B d   1      -0.472  -2.999   0.378  0.00  0.00    -0.004 A 
ATOM      5  C5  N4B d   1       0.050  -3.746  -0.637  0.00  0.00     0.002 A 
ATOM      6  C6  N4B d   1       1.375  -4.135  -0.624  0.00  0.00     0.002 A 
ENDROOT
BRANCH   1   7
ATOM      7  C1' N4B d   1       3.639  -4.143   0.362  0.00  0.00     0.057 C 
BRANCH   7   8
ATOM      8  C2' N4B d   1       3.855  -5.177  -0.739  0.00  0.00     0.009 C 
BRANCH   8   9
ATOM      9  C3' N4B d   1       5.111  -6.000  -0.507  0.00  0.00     0.004 C 
ATOM     10  C4' N4B d   1       5.549  -6.000   0.927  0.00  0.00     0.003 C 
ENDBRANCH   8   9
ENDBRANCH   7   8
ENDBRANCH   1   7
TORSDOF 3
ENDMDL
