MODEL 1
REMARK minimizedAffinity -1.74530113
REMARK minimizedRMSD -1
REMARK  1 active torsions:
REMARK  status: ('A' for Active; 'I' for Inactive)
REMARK    1  A    between atoms: C1_2  and  C2_3 
ROOT
ATOM      1  C2  UNL d   1       0.950   1.244   0.048  0.00  0.00    -0.076 A 
ATOM      2  C3  UNL d   1       0.964   2.624  -0.221  0.00  0.00     0.004 A 
ATOM      3  C4  UNL d   1       1.871   3.470   0.414  0.00  0.00    -0.003 A 
ATOM      4  C5  UNL d   1       2.780   2.949   1.329  0.00  0.00     0.000 A 
ATOM      5  C6  UNL d   1       2.793   1.581   1.595  0.00  0.00     0.000 A 
ATOM      6  C7  UNL d   1       1.895   0.711   0.950  0.00  0.00    -0.073 A 
ATOM      7  C8  UNL d   1       1.949  -0.755   1.279  0.00  0.00     0.078 C 
ENDROOT
BRANCH   1   8
ATOM      8  C1  UNL d   1      -0.075   0.380  -0.652  0.00  0.00     0.053 C 
ATOM      9  C   UNL d   1      -1.056   1.195  -1.480  0.00  0.00     0.018 C 
ENDBRANCH   1   8
TORSDOF 1
ENDMDL
