MODEL 1
REMARK minimizedAffinity -1.60570395
REMARK minimizedRMSD -1
REMARK  1 active torsions:
REMARK  status: ('A' for Active; 'I' for Inactive)
REMARK    1  A    between atoms: C1_2  and  C2_3 
ROOT
ATOM      1  C2  UNL d   1      -0.802  -0.779  -0.150  0.00  0.00    -0.076 A 
ATOM      2  C3  UNL d   1      -1.550  -0.273  -1.227  0.00  0.00     0.004 A 
ATOM      3  C4  UNL d   1      -2.610  -0.999  -1.768  0.00  0.00    -0.003 A 
ATOM      4  C5  UNL d   1      -2.939  -2.243  -1.240  0.00  0.00     0.000 A 
ATOM      5  C6  UNL d   1      -2.218  -2.752  -0.161  0.00  0.00     0.000 A 
ATOM      6  C7  UNL d   1      -1.157  -2.026   0.407  0.00  0.00    -0.073 A 
ATOM      7  C8  UNL d   1      -0.411  -2.626   1.567  0.00  0.00     0.078 C 
ENDROOT
BRANCH   1   8
ATOM      8  C1  UNL d   1       0.354   0.041   0.378  0.00  0.00     0.053 C 
ATOM      9  C   UNL d   1       1.658  -0.255  -0.347  0.00  0.00     0.018 C 
ENDBRANCH   1   8
TORSDOF 1
ENDMDL
