MODEL 1
REMARK minimizedAffinity -3.53372765
REMARK minimizedRMSD -1
REMARK  1 active torsions:
REMARK  status: ('A' for Active; 'I' for Inactive)
REMARK    1  A    between atoms: C1_2  and  C2_3 
ROOT
ATOM      1  C2  UNL d   1       0.196  -0.335  -0.059  0.00  0.00    -0.076 A 
ATOM      2  C3  UNL d   1      -0.036   0.640  -1.046  0.00  0.00     0.004 A 
ATOM      3  C4  UNL d   1      -1.211   0.635  -1.796  0.00  0.00    -0.003 A 
ATOM      4  C5  UNL d   1      -2.173  -0.344  -1.571  0.00  0.00     0.000 A 
ATOM      5  C6  UNL d   1      -1.966  -1.308  -0.585  0.00  0.00     0.000 A 
ATOM      6  C7  UNL d   1      -0.795  -1.308   0.191  0.00  0.00    -0.073 A 
ATOM      7  C8  UNL d   1      -0.622  -2.375   1.237  0.00  0.00     0.078 C 
ENDROOT
BRANCH   1   8
ATOM      8  C1  UNL d   1       1.501  -0.296   0.704  0.00  0.00     0.053 C 
ATOM      9  C   UNL d   1       1.935   1.121   1.044  0.00  0.00     0.018 C 
ENDBRANCH   1   8
TORSDOF 1
ENDMDL
