MODEL 1
REMARK minimizedAffinity -4.12255859
REMARK minimizedRMSD -1
REMARK  1 active torsions:
REMARK  status: ('A' for Active; 'I' for Inactive)
REMARK    1  A    between atoms: C1_2  and  C2_3 
ROOT
ATOM      1  C2  UNL d   1      -0.733  -1.306   0.274  0.00  0.00    -0.076 A 
ATOM      2  C3  UNL d   1      -1.874  -1.674  -0.459  0.00  0.00     0.004 A 
ATOM      3  C4  UNL d   1      -2.281  -0.938  -1.571  0.00  0.00    -0.003 A 
ATOM      4  C5  UNL d   1      -1.552   0.178  -1.967  0.00  0.00     0.000 A 
ATOM      5  C6  UNL d   1      -0.407   0.547  -1.262  0.00  0.00     0.000 A 
ATOM      6  C7  UNL d   1       0.026  -0.194  -0.149  0.00  0.00    -0.073 A 
ATOM      7  C8  UNL d   1       1.265   0.252   0.578  0.00  0.00     0.078 C 
ENDROOT
BRANCH   1   8
ATOM      8  C1  UNL d   1      -0.356  -2.127   1.487  0.00  0.00     0.053 C 
ATOM      9  C   UNL d   1      -1.131  -3.433   1.571  0.00  0.00     0.018 C 
ENDBRANCH   1   8
TORSDOF 1
ENDMDL
