MODEL 1
REMARK minimizedAffinity -0.957190871
REMARK minimizedRMSD -1
REMARK  1 active torsions:
REMARK  status: ('A' for Active; 'I' for Inactive)
REMARK    1  A    between atoms: C1_2  and  C2_3 
ROOT
ATOM      1  C2  UNL d   1      -1.403  -1.310  -0.326  0.00  0.00    -0.076 A 
ATOM      2  C3  UNL d   1      -0.601  -1.019   0.792  0.00  0.00     0.004 A 
ATOM      3  C4  UNL d   1       0.514  -0.191   0.678  0.00  0.00    -0.003 A 
ATOM      4  C5  UNL d   1       0.846   0.359  -0.555  0.00  0.00     0.000 A 
ATOM      5  C6  UNL d   1       0.052   0.095  -1.670  0.00  0.00     0.000 A 
ATOM      6  C7  UNL d   1      -1.085  -0.724  -1.570  0.00  0.00    -0.073 A 
ATOM      7  C8  UNL d   1      -1.902  -0.981  -2.806  0.00  0.00     0.078 C 
ENDROOT
BRANCH   1   8
ATOM      8  C1  UNL d   1      -2.585  -2.236  -0.147  0.00  0.00     0.053 C 
ATOM      9  C   UNL d   1      -2.259  -3.434   0.731  0.00  0.00     0.018 C 
ENDBRANCH   1   8
TORSDOF 1
ENDMDL
