MODEL 1
REMARK minimizedAffinity -1.54524994
REMARK minimizedRMSD -1
REMARK  1 active torsions:
REMARK  status: ('A' for Active; 'I' for Inactive)
REMARK    1  A    between atoms: C1_2  and  C2_3 
ROOT
ATOM      1  C2  UNL d   1       1.565   1.144   0.358  0.00  0.00    -0.076 A 
ATOM      2  C3  UNL d   1       2.769   1.639  -0.172  0.00  0.00     0.004 A 
ATOM      3  C4  UNL d   1       3.301   2.851   0.264  0.00  0.00    -0.003 A 
ATOM      4  C5  UNL d   1       2.637   3.588   1.239  0.00  0.00     0.000 A 
ATOM      5  C6  UNL d   1       1.451   3.103   1.789  0.00  0.00     0.000 A 
ATOM      6  C7  UNL d   1       0.910   1.875   1.372  0.00  0.00    -0.073 A 
ATOM      7  C8  UNL d   1      -0.376   1.404   1.994  0.00  0.00     0.078 C 
ENDROOT
BRANCH   1   8
ATOM      8  C1  UNL d   1       1.022  -0.163  -0.174  0.00  0.00     0.053 C 
ATOM      9  C   UNL d   1       0.068   0.034  -1.342  0.00  0.00     0.018 C 
ENDBRANCH   1   8
TORSDOF 1
ENDMDL
