MODEL 1
REMARK minimizedAffinity -2.96138072
REMARK minimizedRMSD -1
REMARK  1 active torsions:
REMARK  status: ('A' for Active; 'I' for Inactive)
REMARK    1  A    between atoms: C1_2  and  C2_3 
ROOT
ATOM      1  C2  UNL d   1       0.465   1.133   0.333  0.00  0.00    -0.076 A 
ATOM      2  C3  UNL d   1      -0.224   2.254   0.826  0.00  0.00     0.004 A 
ATOM      3  C4  UNL d   1       0.456   3.293   1.459  0.00  0.00    -0.003 A 
ATOM      4  C5  UNL d   1       1.837   3.227   1.610  0.00  0.00     0.000 A 
ATOM      5  C6  UNL d   1       2.539   2.130   1.111  0.00  0.00     0.000 A 
ATOM      6  C7  UNL d   1       1.870   1.082   0.455  0.00  0.00    -0.073 A 
ATOM      7  C8  UNL d   1       2.676  -0.080  -0.058  0.00  0.00     0.078 C 
ENDROOT
BRANCH   1   8
ATOM      8  C1  UNL d   1      -0.329   0.024  -0.321  0.00  0.00     0.053 C 
ATOM      9  C   UNL d   1      -1.499   0.550  -1.138  0.00  0.00     0.018 C 
ENDBRANCH   1   8
TORSDOF 1
ENDMDL
