MODEL 1
REMARK minimizedAffinity -4.1745677
REMARK minimizedRMSD -1
REMARK  1 active torsions:
REMARK  status: ('A' for Active; 'I' for Inactive)
REMARK    1  A    between atoms: C1_2  and  C2_3 
ROOT
ATOM      1  C2  UNL d   1      -1.543  -0.925   0.381  0.00  0.00    -0.076 A 
ATOM      2  C3  UNL d   1      -1.163  -1.763   1.443  0.00  0.00     0.004 A 
ATOM      3  C4  UNL d   1       0.138  -1.742   1.943  0.00  0.00    -0.003 A 
ATOM      4  C5  UNL d   1       1.080  -0.882   1.389  0.00  0.00     0.000 A 
ATOM      5  C6  UNL d   1       0.715  -0.031   0.346  0.00  0.00     0.000 A 
ATOM      6  C7  UNL d   1      -0.597  -0.028  -0.159  0.00  0.00    -0.073 A 
ATOM      7  C8  UNL d   1      -0.933   0.906  -1.289  0.00  0.00     0.078 C 
ENDROOT
BRANCH   1   8
ATOM      8  C1  UNL d   1      -2.961  -1.011  -0.138  0.00  0.00     0.053 C 
ATOM      9  C   UNL d   1      -3.140  -2.120  -1.164  0.00  0.00     0.018 C 
ENDBRANCH   1   8
TORSDOF 1
ENDMDL
