MODEL 1
REMARK minimizedAffinity -2.19157672
REMARK minimizedRMSD -1
REMARK  1 active torsions:
REMARK  status: ('A' for Active; 'I' for Inactive)
REMARK    1  A    between atoms: C1_2  and  C2_3 
ROOT
ATOM      1  C2  UNL d   1      -0.682  -1.063  -0.038  0.00  0.00    -0.076 A 
ATOM      2  C3  UNL d   1      -0.206  -1.628   1.158  0.00  0.00     0.004 A 
ATOM      3  C4  UNL d   1      -0.736  -2.820   1.650  0.00  0.00    -0.003 A 
ATOM      4  C5  UNL d   1      -1.751  -3.466   0.953  0.00  0.00     0.000 A 
ATOM      5  C6  UNL d   1      -2.224  -2.929  -0.244  0.00  0.00     0.000 A 
ATOM      6  C7  UNL d   1      -1.689  -1.738  -0.762  0.00  0.00    -0.073 A 
ATOM      7  C8  UNL d   1      -2.240  -1.201  -2.055  0.00  0.00     0.078 C 
ENDROOT
BRANCH   1   8
ATOM      8  C1  UNL d   1      -0.087   0.245  -0.509  0.00  0.00     0.053 C 
ATOM      9  C   UNL d   1       0.737   0.931   0.569  0.00  0.00     0.018 C 
ENDBRANCH   1   8
TORSDOF 1
ENDMDL
