MODEL 1
REMARK minimizedAffinity -1.73064387
REMARK minimizedRMSD -1
REMARK  1 active torsions:
REMARK  status: ('A' for Active; 'I' for Inactive)
REMARK    1  A    between atoms: C1_2  and  C2_3 
ROOT
ATOM      1  C2  UNL d   1      -0.558  -0.821   0.673  0.00  0.00    -0.076 A 
ATOM      2  C3  UNL d   1      -0.520  -1.902   1.571  0.00  0.00     0.004 A 
ATOM      3  C4  UNL d   1      -1.382  -2.987   1.424  0.00  0.00    -0.003 A 
ATOM      4  C5  UNL d   1      -2.295  -3.010   0.376  0.00  0.00     0.000 A 
ATOM      5  C6  UNL d   1      -2.334  -1.955  -0.535  0.00  0.00     0.000 A 
ATOM      6  C7  UNL d   1      -1.461  -0.860  -0.410  0.00  0.00    -0.073 A 
ATOM      7  C8  UNL d   1      -1.551   0.253  -1.417  0.00  0.00     0.078 C 
ENDROOT
BRANCH   1   8
ATOM      8  C1  UNL d   1       0.382   0.341   0.899  0.00  0.00     0.053 C 
ATOM      9  C   UNL d   1       1.815   0.018   0.502  0.00  0.00     0.018 C 
ENDBRANCH   1   8
TORSDOF 1
ENDMDL
