MODEL 1
REMARK minimizedAffinity -4.12258387
REMARK minimizedRMSD -1
REMARK  1 active torsions:
REMARK  status: ('A' for Active; 'I' for Inactive)
REMARK    1  A    between atoms: C1_2  and  C2_3 
ROOT
ATOM      1  C2  UNL d   1      -0.373  -0.740   0.122  0.00  0.00    -0.076 A 
ATOM      2  C3  UNL d   1      -0.470  -1.747   1.098  0.00  0.00     0.004 A 
ATOM      3  C4  UNL d   1      -1.596  -2.565   1.175  0.00  0.00    -0.003 A 
ATOM      4  C5  UNL d   1      -2.642  -2.391   0.277  0.00  0.00     0.000 A 
ATOM      5  C6  UNL d   1      -2.555  -1.409  -0.709  0.00  0.00     0.000 A 
ATOM      6  C7  UNL d   1      -1.420  -0.586  -0.811  0.00  0.00    -0.073 A 
ATOM      7  C8  UNL d   1      -1.382   0.461  -1.890  0.00  0.00     0.078 C 
ENDROOT
BRANCH   1   8
ATOM      8  C1  UNL d   1       0.860   0.134   0.104  0.00  0.00     0.053 C 
ATOM      9  C   UNL d   1       1.144   0.770   1.457  0.00  0.00     0.018 C 
ENDBRANCH   1   8
TORSDOF 1
ENDMDL
