MODEL 1
REMARK minimizedAffinity -2.42414141
REMARK minimizedRMSD -1
REMARK  0 active torsions:
REMARK  status: ('A' for Active; 'I' for Inactive)
ROOT
ATOM      1  C   UNL d   1      -0.773   0.943   2.273  0.00  0.00    -0.002 A 
ATOM      2  C1  UNL d   1      -1.489   1.812   1.463  0.00  0.00     0.010 A 
ATOM      3  C2  UNL d   1      -1.247   1.863   0.089  0.00  0.00     0.041 A 
ATOM      4  C3  UNL d   1      -0.266   1.016  -0.463  0.00  0.00    -0.075 A 
ATOM      5  S   UNL d   1       0.199   0.905  -2.120  0.00  0.00     0.015 SA
ATOM      6  C4  UNL d   1       1.358  -0.300  -1.790  0.00  0.00     0.022 A 
ATOM      7  C5  UNL d   1       1.403  -0.622  -0.455  0.00  0.00     0.026 A 
ATOM      8  C6  UNL d   1       0.467   0.131   0.332  0.00  0.00    -0.082 A 
ATOM      9  C7  UNL d   1       0.199   0.104   1.722  0.00  0.00     0.045 A 
ENDROOT
TORSDOF 0
ENDMDL
