MODEL 1
REMARK minimizedAffinity -2.65129089
REMARK minimizedRMSD -1
REMARK  0 active torsions:
REMARK  status: ('A' for Active; 'I' for Inactive)
ROOT
ATOM      1  C   UNL d   1      -1.059   2.295   1.803  0.00  0.00    -0.002 A 
ATOM      2  C1  UNL d   1      -1.630   2.662   0.592  0.00  0.00     0.010 A 
ATOM      3  C2  UNL d   1      -1.486   1.851  -0.536  0.00  0.00     0.041 A 
ATOM      4  C3  UNL d   1      -0.754   0.653  -0.425  0.00  0.00    -0.075 A 
ATOM      5  S   UNL d   1      -0.448  -0.498  -1.672  0.00  0.00     0.015 SA
ATOM      6  C4  UNL d   1       0.447  -1.504  -0.627  0.00  0.00     0.022 A 
ATOM      7  C5  UNL d   1       0.520  -0.990   0.646  0.00  0.00     0.026 A 
ATOM      8  C6  UNL d   1      -0.171   0.261   0.784  0.00  0.00    -0.082 A 
ATOM      9  C7  UNL d   1      -0.334   1.105   1.909  0.00  0.00     0.045 A 
ENDROOT
TORSDOF 0
ENDMDL
