MODEL 1
REMARK minimizedAffinity -0.102145053
REMARK minimizedRMSD -1
REMARK  0 active torsions:
REMARK  status: ('A' for Active; 'I' for Inactive)
ROOT
ATOM      1  C   UNL d   1      -0.819  -3.918  -0.746  0.00  0.00    -0.002 A 
ATOM      2  C1  UNL d   1      -0.761  -3.374  -2.022  0.00  0.00     0.010 A 
ATOM      3  C2  UNL d   1      -0.454  -2.025  -2.205  0.00  0.00     0.041 A 
ATOM      4  C3  UNL d   1      -0.203  -1.223  -1.074  0.00  0.00    -0.075 A 
ATOM      5  S   UNL d   1       0.192   0.455  -1.057  0.00  0.00     0.015 SA
ATOM      6  C4  UNL d   1       0.294   0.490   0.644  0.00  0.00     0.022 A 
ATOM      7  C5  UNL d   1       0.035  -0.740   1.201  0.00  0.00     0.026 A 
ATOM      8  C6  UNL d   1      -0.255  -1.748   0.220  0.00  0.00    -0.082 A 
ATOM      9  C7  UNL d   1      -0.570  -3.119   0.373  0.00  0.00     0.045 A 
ENDROOT
TORSDOF 0
ENDMDL
