MODEL 1
REMARK minimizedAffinity -1.5715344
REMARK minimizedRMSD -1
REMARK  0 active torsions:
REMARK  status: ('A' for Active; 'I' for Inactive)
ROOT
ATOM      1  C   UNL d   1      -1.912   2.257   0.793  0.00  0.00    -0.002 A 
ATOM      2  C1  UNL d   1      -1.266   2.379   2.015  0.00  0.00     0.010 A 
ATOM      3  C2  UNL d   1      -0.160   1.582   2.317  0.00  0.00     0.041 A 
ATOM      4  C3  UNL d   1       0.291   0.652   1.360  0.00  0.00    -0.075 A 
ATOM      5  S   UNL d   1       1.626  -0.429   1.510  0.00  0.00     0.015 SA
ATOM      6  C4  UNL d   1       1.371  -1.078  -0.045  0.00  0.00     0.022 A 
ATOM      7  C5  UNL d   1       0.298  -0.495  -0.677  0.00  0.00     0.026 A 
ATOM      8  C6  UNL d   1      -0.342   0.511   0.122  0.00  0.00    -0.082 A 
ATOM      9  C7  UNL d   1      -1.461   1.334  -0.154  0.00  0.00     0.045 A 
ENDROOT
TORSDOF 0
ENDMDL
