MODEL 1
REMARK minimizedAffinity -4.29067755
REMARK minimizedRMSD -1
REMARK  3 active torsions:
REMARK  status: ('A' for Active; 'I' for Inactive)
REMARK    1  A    between atoms: C3'_2  and  C2'_3 
REMARK    2  A    between atoms: C2'_3  and  C1'_4 
REMARK    3  A    between atoms: C1'_4  and  C1_5 
ROOT
ATOM      1  C1  N4B d   1      -0.398  -1.265  -0.836  0.00  0.00    -0.075 A 
ATOM      2  C2  N4B d   1      -1.592  -1.403  -1.578  0.00  0.00     0.002 A 
ATOM      3  C3  N4B d   1      -1.763  -2.480  -2.412  0.00  0.00     0.002 A 
ATOM      4  C4  N4B d   1      -0.749  -3.419  -2.534  0.00  0.00    -0.004 A 
ATOM      5  C5  N4B d   1       0.391  -3.293  -1.796  0.00  0.00     0.002 A 
ATOM      6  C6  N4B d   1       0.574  -2.217  -0.951  0.00  0.00     0.002 A 
ENDROOT
BRANCH   1   7
ATOM      7  C1' N4B d   1      -0.131  -0.060   0.023  0.00  0.00     0.057 C 
BRANCH   7   8
ATOM      8  C2' N4B d   1      -1.436   0.393   0.670  0.00  0.00     0.009 C 
BRANCH   8   9
ATOM      9  C3' N4B d   1      -1.577   1.906   0.668  0.00  0.00     0.004 C 
ATOM     10  C4' N4B d   1      -0.259   2.611   0.793  0.00  0.00     0.003 C 
ENDBRANCH   8   9
ENDBRANCH   7   8
ENDBRANCH   1   7
TORSDOF 3
ENDMDL
