MODEL 1
REMARK minimizedAffinity -5.43942022
REMARK minimizedRMSD -1
REMARK  3 active torsions:
REMARK  status: ('A' for Active; 'I' for Inactive)
REMARK    1  A    between atoms: C3'_2  and  C2'_3 
REMARK    2  A    between atoms: C2'_3  and  C1'_4 
REMARK    3  A    between atoms: C1'_4  and  C1_5 
ROOT
ATOM      1  C1  N4B d   1      -0.649  -0.741   0.130  0.00  0.00    -0.075 A 
ATOM      2  C2  N4B d   1      -1.941  -0.244  -0.152  0.00  0.00     0.002 A 
ATOM      3  C3  N4B d   1      -2.257   1.058   0.149  0.00  0.00     0.002 A 
ATOM      4  C4  N4B d   1      -1.307   1.873   0.747  0.00  0.00    -0.004 A 
ATOM      5  C5  N4B d   1      -0.054   1.393   0.993  0.00  0.00     0.002 A 
ATOM      6  C6  N4B d   1       0.278   0.088   0.692  0.00  0.00     0.002 A 
ENDROOT
BRANCH   1   7
ATOM      7  C1' N4B d   1      -0.284  -2.181  -0.103  0.00  0.00     0.057 C 
BRANCH   7   8
ATOM      8  C2' N4B d   1      -1.509  -2.931  -0.617  0.00  0.00     0.009 C 
BRANCH   8   9
ATOM      9  C3' N4B d   1      -1.342  -3.369  -2.062  0.00  0.00     0.004 C 
ATOM     10  C4' N4B d   1       0.096  -3.485  -2.471  0.00  0.00     0.003 C 
ENDBRANCH   8   9
ENDBRANCH   7   8
ENDBRANCH   1   7
TORSDOF 3
ENDMDL
