MODEL 1
REMARK minimizedAffinity -2.0590589
REMARK minimizedRMSD -1
REMARK  3 active torsions:
REMARK  status: ('A' for Active; 'I' for Inactive)
REMARK    1  A    between atoms: C3'_2  and  C2'_3 
REMARK    2  A    between atoms: C2'_3  and  C1'_4 
REMARK    3  A    between atoms: C1'_4  and  C1_5 
ROOT
ATOM      1  C1  N4B d   1      -0.255  -1.541  -0.610  0.00  0.00    -0.075 A 
ATOM      2  C2  N4B d   1       0.518  -1.717  -1.778  0.00  0.00     0.002 A 
ATOM      3  C3  N4B d   1       0.229  -2.743  -2.644  0.00  0.00     0.002 A 
ATOM      4  C4  N4B d   1      -0.812  -3.613  -2.354  0.00  0.00    -0.004 A 
ATOM      5  C5  N4B d   1      -1.569  -3.420  -1.236  0.00  0.00     0.002 A 
ATOM      6  C6  N4B d   1      -1.293  -2.391  -0.359  0.00  0.00     0.002 A 
ENDROOT
BRANCH   1   7
ATOM      7  C1' N4B d   1       0.077  -0.486   0.410  0.00  0.00     0.057 C 
BRANCH   7   8
ATOM      8  C2' N4B d   1      -1.189  -0.116   1.178  0.00  0.00     0.009 C 
BRANCH   8   9
ATOM      9  C3' N4B d   1      -1.744   1.230   0.745  0.00  0.00     0.004 C 
ATOM     10  C4' N4B d   1      -0.752   2.344   0.902  0.00  0.00     0.003 C 
ENDBRANCH   8   9
ENDBRANCH   7   8
ENDBRANCH   1   7
TORSDOF 3
ENDMDL
