MODEL 1
REMARK minimizedAffinity -2.74575973
REMARK minimizedRMSD -1
REMARK  3 active torsions:
REMARK  status: ('A' for Active; 'I' for Inactive)
REMARK    1  A    between atoms: C3'_2  and  C2'_3 
REMARK    2  A    between atoms: C2'_3  and  C1'_4 
REMARK    3  A    between atoms: C1'_4  and  C1_5 
ROOT
ATOM      1  C1  N4B d   1      -0.130  -2.221  -0.853  0.00  0.00    -0.075 A 
ATOM      2  C2  N4B d   1      -1.444  -2.720  -0.719  0.00  0.00     0.002 A 
ATOM      3  C3  N4B d   1      -2.063  -3.322  -1.787  0.00  0.00     0.002 A 
ATOM      4  C4  N4B d   1      -1.397  -3.419  -3.000  0.00  0.00    -0.004 A 
ATOM      5  C5  N4B d   1      -0.119  -2.957  -3.114  0.00  0.00     0.002 A 
ATOM      6  C6  N4B d   1       0.517  -2.354  -2.048  0.00  0.00     0.002 A 
ENDROOT
BRANCH   1   7
ATOM      7  C1' N4B d   1       0.556  -1.479   0.261  0.00  0.00     0.057 C 
BRANCH   7   8
ATOM      8  C2' N4B d   1       0.357   0.020   0.061  0.00  0.00     0.009 C 
BRANCH   8   9
ATOM      9  C3' N4B d   1      -1.056   0.458   0.408  0.00  0.00     0.004 C 
ATOM     10  C4' N4B d   1      -1.146   1.917   0.741  0.00  0.00     0.003 C 
ENDBRANCH   8   9
ENDBRANCH   7   8
ENDBRANCH   1   7
TORSDOF 3
ENDMDL
