MODEL 1
REMARK minimizedAffinity -2.37721801
REMARK minimizedRMSD -1
REMARK  3 active torsions:
REMARK  status: ('A' for Active; 'I' for Inactive)
REMARK    1  A    between atoms: C3'_2  and  C2'_3 
REMARK    2  A    between atoms: C2'_3  and  C1'_4 
REMARK    3  A    between atoms: C1'_4  and  C1_5 
ROOT
ATOM      1  C1  N4B d   1       0.291  -0.088   0.345  0.00  0.00    -0.075 A 
ATOM      2  C2  N4B d   1       1.551   0.542   0.236  0.00  0.00     0.002 A 
ATOM      3  C3  N4B d   1       1.640   1.911   0.289  0.00  0.00     0.002 A 
ATOM      4  C4  N4B d   1       0.487   2.669   0.430  0.00  0.00    -0.004 A 
ATOM      5  C5  N4B d   1      -0.723   2.052   0.559  0.00  0.00     0.002 A 
ATOM      6  C6  N4B d   1      -0.827   0.676   0.512  0.00  0.00     0.002 A 
ENDROOT
BRANCH   1   7
ATOM      7  C1' N4B d   1       0.134  -1.578   0.207  0.00  0.00     0.057 C 
BRANCH   7   8
ATOM      8  C2' N4B d   1      -1.133  -1.876  -0.590  0.00  0.00     0.009 C 
BRANCH   8   9
ATOM      9  C3' N4B d   1      -1.291  -3.360  -0.871  0.00  0.00     0.004 C 
ATOM     10  C4' N4B d   1      -1.346  -3.671  -2.337  0.00  0.00     0.003 C 
ENDBRANCH   8   9
ENDBRANCH   7   8
ENDBRANCH   1   7
TORSDOF 3
ENDMDL
