MODEL 1
REMARK minimizedAffinity -4.24399567
REMARK minimizedRMSD -1
REMARK  3 active torsions:
REMARK  status: ('A' for Active; 'I' for Inactive)
REMARK    1  A    between atoms: C3'_2  and  C2'_3 
REMARK    2  A    between atoms: C2'_3  and  C1'_4 
REMARK    3  A    between atoms: C1'_4  and  C1_5 
ROOT
ATOM      1  C1  N4B d   1      -0.185  -0.219   0.703  0.00  0.00    -0.075 A 
ATOM      2  C2  N4B d   1      -1.437   0.259   1.147  0.00  0.00     0.002 A 
ATOM      3  C3  N4B d   1      -1.659   1.611   1.249  0.00  0.00     0.002 A 
ATOM      4  C4  N4B d   1      -0.642   2.499   0.931  0.00  0.00    -0.004 A 
ATOM      5  C5  N4B d   1       0.557   2.029   0.478  0.00  0.00     0.002 A 
ATOM      6  C6  N4B d   1       0.792   0.673   0.368  0.00  0.00     0.002 A 
ENDROOT
BRANCH   1   7
ATOM      7  C1' N4B d   1       0.133  -1.689   0.658  0.00  0.00     0.057 C 
BRANCH   7   8
ATOM      8  C2' N4B d   1       0.643  -2.048  -0.735  0.00  0.00     0.009 C 
BRANCH   8   9
ATOM      9  C3' N4B d   1      -0.290  -3.009  -1.451  0.00  0.00     0.004 C 
ATOM     10  C4' N4B d   1       0.185  -3.361  -2.829  0.00  0.00     0.003 C 
ENDBRANCH   8   9
ENDBRANCH   7   8
ENDBRANCH   1   7
TORSDOF 3
ENDMDL
