MODEL 1
REMARK minimizedAffinity -5.19010162
REMARK minimizedRMSD -1
REMARK  3 active torsions:
REMARK  status: ('A' for Active; 'I' for Inactive)
REMARK    1  A    between atoms: C3'_2  and  C2'_3 
REMARK    2  A    between atoms: C2'_3  and  C1'_4 
REMARK    3  A    between atoms: C1'_4  and  C1_5 
ROOT
ATOM      1  C1  N4B d   1       0.287  -1.614  -0.324  0.00  0.00    -0.075 A 
ATOM      2  C2  N4B d   1      -0.805  -2.458  -0.026  0.00  0.00     0.002 A 
ATOM      3  C3  N4B d   1      -1.045  -3.569  -0.796  0.00  0.00     0.002 A 
ATOM      4  C4  N4B d   1      -0.221  -3.844  -1.877  0.00  0.00    -0.004 A 
ATOM      5  C5  N4B d   1       0.847  -3.038  -2.143  0.00  0.00     0.002 A 
ATOM      6  C6  N4B d   1       1.102  -1.921  -1.375  0.00  0.00     0.002 A 
ENDROOT
BRANCH   1   7
ATOM      7  C1' N4B d   1       0.538  -0.341   0.438  0.00  0.00     0.057 C 
BRANCH   7   8
ATOM      8  C2' N4B d   1      -0.789   0.198   0.965  0.00  0.00     0.009 C 
BRANCH   8   9
ATOM      9  C3' N4B d   1      -1.370   1.265   0.054  0.00  0.00     0.004 C 
ATOM     10  C4' N4B d   1      -1.050   2.657   0.511  0.00  0.00     0.003 C 
ENDBRANCH   8   9
ENDBRANCH   7   8
ENDBRANCH   1   7
TORSDOF 3
ENDMDL
