MODEL 1
REMARK minimizedAffinity -2.49437737
REMARK minimizedRMSD -1
REMARK  3 active torsions:
REMARK  status: ('A' for Active; 'I' for Inactive)
REMARK    1  A    between atoms: C3'_2  and  C2'_3 
REMARK    2  A    between atoms: C2'_3  and  C1'_4 
REMARK    3  A    between atoms: C1'_4  and  C1_5 
ROOT
ATOM      1  C1  N4B d   1      -0.522  -0.642   0.169  0.00  0.00    -0.075 A 
ATOM      2  C2  N4B d   1       0.694   0.059   0.014  0.00  0.00     0.002 A 
ATOM      3  C3  N4B d   1       0.769   1.387   0.356  0.00  0.00     0.002 A 
ATOM      4  C4  N4B d   1      -0.358   2.036   0.836  0.00  0.00    -0.004 A 
ATOM      5  C5  N4B d   1      -1.522   1.345   1.007  0.00  0.00     0.002 A 
ATOM      6  C6  N4B d   1      -1.611   0.009   0.671  0.00  0.00     0.002 A 
ENDROOT
BRANCH   1   7
ATOM      7  C1' N4B d   1      -0.676  -2.072  -0.272  0.00  0.00     0.057 C 
BRANCH   7   8
ATOM      8  C2' N4B d   1       0.284  -2.346  -1.426  0.00  0.00     0.009 C 
BRANCH   8   9
ATOM      9  C3' N4B d   1      -0.286  -3.352  -2.412  0.00  0.00     0.004 C 
ATOM     10  C4' N4B d   1      -1.769  -3.220  -2.585  0.00  0.00     0.003 C 
ENDBRANCH   8   9
ENDBRANCH   7   8
ENDBRANCH   1   7
TORSDOF 3
ENDMDL
