MODEL 1
REMARK minimizedAffinity -5.12648964
REMARK minimizedRMSD -1
REMARK  3 active torsions:
REMARK  status: ('A' for Active; 'I' for Inactive)
REMARK    1  A    between atoms: C3'_2  and  C2'_3 
REMARK    2  A    between atoms: C2'_3  and  C1'_4 
REMARK    3  A    between atoms: C1'_4  and  C1_5 
ROOT
ATOM      1  C1  N4B d   1      -0.404  -1.170  -0.956  0.00  0.00    -0.075 A 
ATOM      2  C2  N4B d   1      -0.759  -2.496  -0.625  0.00  0.00     0.002 A 
ATOM      3  C3  N4B d   1      -0.914  -3.433  -1.618  0.00  0.00     0.002 A 
ATOM      4  C4  N4B d   1      -0.738  -3.064  -2.943  0.00  0.00    -0.004 A 
ATOM      5  C5  N4B d   1      -0.370  -1.787  -3.252  0.00  0.00     0.002 A 
ATOM      6  C6  N4B d   1      -0.207  -0.836  -2.265  0.00  0.00     0.002 A 
ENDROOT
BRANCH   1   7
ATOM      7  C1' N4B d   1      -0.307  -0.091   0.087  0.00  0.00     0.057 C 
BRANCH   7   8
ATOM      8  C2' N4B d   1      -1.684   0.534   0.291  0.00  0.00     0.009 C 
BRANCH   8   9
ATOM      9  C3' N4B d   1      -1.596   2.025   0.569  0.00  0.00     0.004 C 
ATOM     10  C4' N4B d   1      -0.295   2.422   1.200  0.00  0.00     0.003 C 
ENDBRANCH   8   9
ENDBRANCH   7   8
ENDBRANCH   1   7
TORSDOF 3
ENDMDL
