MODEL 1
REMARK minimizedAffinity -5.06177092
REMARK minimizedRMSD -1
REMARK  3 active torsions:
REMARK  status: ('A' for Active; 'I' for Inactive)
REMARK    1  A    between atoms: C3'_2  and  C2'_3 
REMARK    2  A    between atoms: C2'_3  and  C1'_4 
REMARK    3  A    between atoms: C1'_4  and  C1_5 
ROOT
ATOM      1  C1  N4B d   1      -0.171  -1.248  -0.909  0.00  0.00    -0.075 A 
ATOM      2  C2  N4B d   1      -1.205  -2.210  -0.889  0.00  0.00     0.002 A 
ATOM      3  C3  N4B d   1      -1.375  -3.058  -1.956  0.00  0.00     0.002 A 
ATOM      4  C4  N4B d   1      -0.539  -2.951  -3.057  0.00  0.00    -0.004 A 
ATOM      5  C5  N4B d   1       0.473  -2.036  -3.058  0.00  0.00     0.002 A 
ATOM      6  C6  N4B d   1       0.658  -1.180  -1.991  0.00  0.00     0.002 A 
ENDROOT
BRANCH   1   7
ATOM      7  C1' N4B d   1       0.000  -0.243   0.196  0.00  0.00     0.057 C 
BRANCH   7   8
ATOM      8  C2' N4B d   1      -1.354   0.021   0.848  0.00  0.00     0.009 C 
BRANCH   8   9
ATOM      9  C3' N4B d   1      -2.033   1.251   0.270  0.00  0.00     0.004 C 
ATOM     10  C4' N4B d   1      -1.232   2.503   0.466  0.00  0.00     0.003 C 
ENDBRANCH   8   9
ENDBRANCH   7   8
ENDBRANCH   1   7
TORSDOF 3
ENDMDL
