MODEL 1
REMARK minimizedAffinity -2.48284864
REMARK minimizedRMSD -1
REMARK  3 active torsions:
REMARK  status: ('A' for Active; 'I' for Inactive)
REMARK    1  A    between atoms: C3'_2  and  C2'_3 
REMARK    2  A    between atoms: C2'_3  and  C1'_4 
REMARK    3  A    between atoms: C1'_4  and  C1_5 
ROOT
ATOM      1  C1  N4B d   1      -0.124   0.044   0.306  0.00  0.00    -0.075 A 
ATOM      2  C2  N4B d   1      -1.384   0.603   0.615  0.00  0.00     0.002 A 
ATOM      3  C3  N4B d   1      -1.481   1.928   0.959  0.00  0.00     0.002 A 
ATOM      4  C4  N4B d   1      -0.335   2.707   1.020  0.00  0.00    -0.004 A 
ATOM      5  C5  N4B d   1       0.874   2.166   0.695  0.00  0.00     0.002 A 
ATOM      6  C6  N4B d   1       0.986   0.836   0.343  0.00  0.00     0.002 A 
ENDROOT
BRANCH   1   7
ATOM      7  C1' N4B d   1       0.043  -1.421   0.007  0.00  0.00     0.057 C 
BRANCH   7   8
ATOM      8  C2' N4B d   1      -0.151  -1.652  -1.488  0.00  0.00     0.009 C 
BRANCH   8   9
ATOM      9  C3' N4B d   1      -1.038  -2.854  -1.767  0.00  0.00     0.004 C 
ATOM     10  C4' N4B d   1      -1.008  -3.277  -3.205  0.00  0.00     0.003 C 
ENDBRANCH   8   9
ENDBRANCH   7   8
ENDBRANCH   1   7
TORSDOF 3
ENDMDL
