MODEL 1
REMARK minimizedAffinity 6.13253593
REMARK minimizedRMSD -1
REMARK  0 active torsions:
REMARK  status: ('A' for Active; 'I' for Inactive)
ROOT
ATOM      1  C   UNL d   1      -1.622   5.988   2.379  0.00  0.00     0.077 C 
ATOM      2  C1  UNL d   1      -0.832   5.281   1.317  0.00  0.00    -0.074 A 
ATOM      3  C2  UNL d   1      -0.080   6.000   0.383  0.00  0.00    -0.005 A 
ATOM      4  C3  UNL d   1       0.657   5.329  -0.593  0.00  0.00     0.006 A 
ATOM      5  C4  UNL d   1       0.649   3.934  -0.644  0.00  0.00    -0.005 A 
ATOM      6  C5  UNL d   1      -0.096   3.199   0.283  0.00  0.00    -0.074 A 
ATOM      7  C6  UNL d   1      -0.108   1.699   0.248  0.00  0.00     0.077 C 
ATOM      8  C7  UNL d   1      -0.829   3.880   1.264  0.00  0.00    -0.001 A 
ENDROOT
TORSDOF 0
ENDMDL
