MODEL 1
REMARK minimizedAffinity 9.38510036
REMARK minimizedRMSD -1
REMARK  0 active torsions:
REMARK  status: ('A' for Active; 'I' for Inactive)
ROOT
ATOM      1  C   UNL d   1       1.151   5.121  -0.499  0.00  0.00     0.077 C 
ATOM      2  C1  UNL d   1       0.994   4.341   0.772  0.00  0.00    -0.074 A 
ATOM      3  C2  UNL d   1      -0.186   3.641   1.045  0.00  0.00    -0.005 A 
ATOM      4  C3  UNL d   1      -0.314   2.912   2.227  0.00  0.00     0.006 A 
ATOM      5  C4  UNL d   1       0.735   2.876   3.147  0.00  0.00    -0.005 A 
ATOM      6  C5  UNL d   1       1.923   3.568   2.891  0.00  0.00    -0.074 A 
ATOM      7  C6  UNL d   1       3.063   3.532   3.864  0.00  0.00     0.077 C 
ATOM      8  C7  UNL d   1       2.046   4.293   1.698  0.00  0.00    -0.001 A 
ENDROOT
TORSDOF 0
ENDMDL
