MODEL 1
REMARK minimizedAffinity 6.81853724
REMARK minimizedRMSD -1
REMARK  0 active torsions:
REMARK  status: ('A' for Active; 'I' for Inactive)
ROOT
ATOM      1  C   UNL d   1       5.481  -1.498  -2.784  0.00  0.00     0.077 C 
ATOM      2  C1  UNL d   1       5.076  -2.310  -1.590  0.00  0.00    -0.074 A 
ATOM      3  C2  UNL d   1       4.075  -1.862  -0.722  0.00  0.00    -0.005 A 
ATOM      4  C3  UNL d   1       3.702  -2.633   0.379  0.00  0.00     0.006 A 
ATOM      5  C4  UNL d   1       4.325  -3.858   0.623  0.00  0.00    -0.005 A 
ATOM      6  C5  UNL d   1       5.327  -4.323  -0.235  0.00  0.00    -0.074 A 
ATOM      7  C6  UNL d   1       6.000  -5.641   0.007  0.00  0.00     0.077 C 
ATOM      8  C7  UNL d   1       5.691  -3.545  -1.343  0.00  0.00    -0.001 A 
ENDROOT
TORSDOF 0
ENDMDL
