MODEL 1
REMARK minimizedAffinity 11.0677872
REMARK minimizedRMSD -1
REMARK  0 active torsions:
REMARK  status: ('A' for Active; 'I' for Inactive)
ROOT
ATOM      1  C   UNL d   1      -4.844  -1.038   4.271  0.00  0.00     0.077 C 
ATOM      2  C1  UNL d   1      -3.945  -0.044   3.598  0.00  0.00    -0.074 A 
ATOM      3  C2  UNL d   1      -3.040   0.724   4.339  0.00  0.00    -0.005 A 
ATOM      4  C3  UNL d   1      -2.204   1.637   3.698  0.00  0.00     0.006 A 
ATOM      5  C4  UNL d   1      -2.263   1.793   2.312  0.00  0.00    -0.005 A 
ATOM      6  C5  UNL d   1      -3.161   1.033   1.555  0.00  0.00    -0.074 A 
ATOM      7  C6  UNL d   1      -3.231   1.181   0.064  0.00  0.00     0.077 C 
ATOM      8  C7  UNL d   1      -3.993   0.112   2.206  0.00  0.00    -0.001 A 
ENDROOT
TORSDOF 0
ENDMDL
