MODEL 1
REMARK minimizedAffinity 6.87682486
REMARK minimizedRMSD -1
REMARK  0 active torsions:
REMARK  status: ('A' for Active; 'I' for Inactive)
ROOT
ATOM      1  C   UNL d   1       6.000  -1.493  -2.472  0.00  0.00     0.077 C 
ATOM      2  C1  UNL d   1       5.469  -2.006  -1.166  0.00  0.00    -0.074 A 
ATOM      3  C2  UNL d   1       4.481  -1.304  -0.467  0.00  0.00    -0.005 A 
ATOM      4  C3  UNL d   1       3.990  -1.798   0.741  0.00  0.00     0.006 A 
ATOM      5  C4  UNL d   1       4.481  -2.996   1.262  0.00  0.00    -0.005 A 
ATOM      6  C5  UNL d   1       5.468  -3.711   0.577  0.00  0.00    -0.074 A 
ATOM      7  C6  UNL d   1       5.999  -5.005   1.118  0.00  0.00     0.077 C 
ATOM      8  C7  UNL d   1       5.951  -3.212  -0.640  0.00  0.00    -0.001 A 
ENDROOT
TORSDOF 0
ENDMDL
