MODEL 1
REMARK minimizedAffinity 6.89100027
REMARK minimizedRMSD -1
REMARK  0 active torsions:
REMARK  status: ('A' for Active; 'I' for Inactive)
ROOT
ATOM      1  C   UNL d   1      -1.931   6.000   2.320  0.00  0.00     0.077 C 
ATOM      2  C1  UNL d   1      -1.223   5.425   1.129  0.00  0.00    -0.074 A 
ATOM      3  C2  UNL d   1      -0.327   4.360   1.270  0.00  0.00    -0.005 A 
ATOM      4  C3  UNL d   1       0.316   3.830   0.152  0.00  0.00     0.006 A 
ATOM      5  C4  UNL d   1       0.071   4.358  -1.117  0.00  0.00    -0.005 A 
ATOM      6  C5  UNL d   1      -0.823   5.422  -1.277  0.00  0.00    -0.074 A 
ATOM      7  C6  UNL d   1      -1.106   5.994  -2.634  0.00  0.00     0.077 C 
ATOM      8  C7  UNL d   1      -1.471   5.945  -0.150  0.00  0.00    -0.001 A 
ENDROOT
TORSDOF 0
ENDMDL
