MODEL 1
REMARK minimizedAffinity 0.686102033
REMARK minimizedRMSD -1
REMARK  0 active torsions:
REMARK  status: ('A' for Active; 'I' for Inactive)
ROOT
ATOM      1  C1  BNZ d   1       2.820  -6.000   3.406  0.00  0.00     0.000 A 
ATOM      2  C2  BNZ d   1       3.675  -5.995   4.475  0.00  0.00     0.000 A 
ATOM      3  C3  BNZ d   1       3.195  -5.999   5.755  0.00  0.00     0.000 A 
ATOM      4  C4  BNZ d   1       1.863  -5.966   5.964  0.00  0.00     0.000 A 
ATOM      5  C5  BNZ d   1       0.988  -5.961   4.896  0.00  0.00     0.000 A 
ATOM      6  C6  BNZ d   1       1.475  -5.997   3.609  0.00  0.00     0.000 A 
ENDROOT
TORSDOF 0
ENDMDL
