MODEL 1
REMARK minimizedAffinity 4.41037226
REMARK minimizedRMSD -1
REMARK  0 active torsions:
REMARK  status: ('A' for Active; 'I' for Inactive)
ROOT
ATOM      1  C1  BNZ d   1      -1.002  -5.835   0.707  0.00  0.00     0.000 A 
ATOM      2  C2  BNZ d   1      -1.710  -5.820   1.879  0.00  0.00     0.000 A 
ATOM      3  C3  BNZ d   1      -1.068  -5.863   3.085  0.00  0.00     0.000 A 
ATOM      4  C4  BNZ d   1       0.276  -5.961   3.117  0.00  0.00     0.000 A 
ATOM      5  C5  BNZ d   1       1.004  -5.986   1.944  0.00  0.00     0.000 A 
ATOM      6  C6  BNZ d   1       0.357  -5.904   0.732  0.00  0.00     0.000 A 
ENDROOT
TORSDOF 0
ENDMDL
