MODEL 1
REMARK minimizedAffinity 4.25539398
REMARK minimizedRMSD -1
REMARK  0 active torsions:
REMARK  status: ('A' for Active; 'I' for Inactive)
ROOT
ATOM      1  C1  BNZ d   1      -5.966   1.161   3.252  0.00  0.00     0.000 A 
ATOM      2  C2  BNZ d   1      -5.959   0.053   4.058  0.00  0.00     0.000 A 
ATOM      3  C3  BNZ d   1      -5.996   0.178   5.418  0.00  0.00     0.000 A 
ATOM      4  C4  BNZ d   1      -6.000   1.408   5.972  0.00  0.00     0.000 A 
ATOM      5  C5  BNZ d   1      -5.998   2.534   5.173  0.00  0.00     0.000 A 
ATOM      6  C6  BNZ d   1      -6.000   2.404   3.803  0.00  0.00     0.000 A 
ENDROOT
TORSDOF 0
ENDMDL
