MODEL 1
REMARK minimizedAffinity 2.44039488
REMARK minimizedRMSD -1
REMARK  0 active torsions:
REMARK  status: ('A' for Active; 'I' for Inactive)
ROOT
ATOM      1  C1  BNZ d   1      -0.427   1.524   2.444  0.00  0.00     0.000 A 
ATOM      2  C2  BNZ d   1      -1.274   0.725   3.166  0.00  0.00     0.000 A 
ATOM      3  C3  BNZ d   1      -1.419  -0.599   2.859  0.00  0.00     0.000 A 
ATOM      4  C4  BNZ d   1      -0.750  -1.112   1.806  0.00  0.00     0.000 A 
ATOM      5  C5  BNZ d   1       0.100  -0.318   1.063  0.00  0.00     0.000 A 
ATOM      6  C6  BNZ d   1       0.273   1.005   1.399  0.00  0.00     0.000 A 
ENDROOT
TORSDOF 0
ENDMDL
