MODEL 1
REMARK minimizedAffinity 4.59905815
REMARK minimizedRMSD -1
REMARK  0 active torsions:
REMARK  status: ('A' for Active; 'I' for Inactive)
ROOT
ATOM      1  C1  BNZ d   1      -2.623  -3.616  -4.172  0.00  0.00     0.000 A 
ATOM      2  C2  BNZ d   1      -1.452  -3.535  -4.877  0.00  0.00     0.000 A 
ATOM      3  C3  BNZ d   1      -0.645  -2.437  -4.769  0.00  0.00     0.000 A 
ATOM      4  C4  BNZ d   1      -1.028  -1.406  -3.990  0.00  0.00     0.000 A 
ATOM      5  C5  BNZ d   1      -2.211  -1.468  -3.281  0.00  0.00     0.000 A 
ATOM      6  C6  BNZ d   1      -3.002  -2.591  -3.361  0.00  0.00     0.000 A 
ENDROOT
TORSDOF 0
ENDMDL
