MODEL 1
REMARK minimizedAffinity 0.659101725
REMARK minimizedRMSD -1
REMARK  0 active torsions:
REMARK  status: ('A' for Active; 'I' for Inactive)
ROOT
ATOM      1  C1  BNZ d   1       1.445  -5.967   2.222  0.00  0.00     0.000 A 
ATOM      2  C2  BNZ d   1       2.124  -5.973   3.411  0.00  0.00     0.000 A 
ATOM      3  C3  BNZ d   1       1.451  -5.999   4.601  0.00  0.00     0.000 A 
ATOM      4  C4  BNZ d   1       0.102  -5.978   4.600  0.00  0.00     0.000 A 
ATOM      5  C5  BNZ d   1      -0.596  -5.963   3.409  0.00  0.00     0.000 A 
ATOM      6  C6  BNZ d   1       0.084  -5.976   2.213  0.00  0.00     0.000 A 
ENDROOT
TORSDOF 0
ENDMDL
