MODEL 1
REMARK minimizedAffinity -2.7718854
REMARK minimizedRMSD -1
REMARK  0 active torsions:
REMARK  status: ('A' for Active; 'I' for Inactive)
ROOT
ATOM      1  C1  BNZ d   1      -0.736  -6.000   3.509  0.00  0.00     0.000 A 
ATOM      2  C2  BNZ d   1       0.242  -5.971   4.467  0.00  0.00     0.000 A 
ATOM      3  C3  BNZ d   1       1.563  -5.932   4.117  0.00  0.00     0.000 A 
ATOM      4  C4  BNZ d   1       1.904  -5.962   2.813  0.00  0.00     0.000 A 
ATOM      5  C5  BNZ d   1       0.930  -6.000   1.836  0.00  0.00     0.000 A 
ATOM      6  C6  BNZ d   1      -0.400  -6.000   2.191  0.00  0.00     0.000 A 
ENDROOT
TORSDOF 0
ENDMDL
