MODEL 1
REMARK minimizedAffinity 3.4990015
REMARK minimizedRMSD -1
REMARK  0 active torsions:
REMARK  status: ('A' for Active; 'I' for Inactive)
ROOT
ATOM      1  C1  BNZ d   1      -2.119  -3.275  -4.220  0.00  0.00     0.000 A 
ATOM      2  C2  BNZ d   1      -3.083  -2.904  -3.321  0.00  0.00     0.000 A 
ATOM      3  C3  BNZ d   1      -3.083  -1.652  -2.772  0.00  0.00     0.000 A 
ATOM      4  C4  BNZ d   1      -2.099  -0.788  -3.092  0.00  0.00     0.000 A 
ATOM      5  C5  BNZ d   1      -1.114  -1.150  -3.990  0.00  0.00     0.000 A 
ATOM      6  C6  BNZ d   1      -1.139  -2.398  -4.570  0.00  0.00     0.000 A 
ENDROOT
TORSDOF 0
ENDMDL
