MODEL 1
REMARK minimizedAffinity 4.07314587
REMARK minimizedRMSD -1
REMARK  0 active torsions:
REMARK  status: ('A' for Active; 'I' for Inactive)
ROOT
ATOM      1  C1  BNZ d   1       0.141  -5.984   4.555  0.00  0.00     0.000 A 
ATOM      2  C2  BNZ d   1       0.248  -5.978   3.190  0.00  0.00     0.000 A 
ATOM      3  C3  BNZ d   1       1.472  -6.000   2.583  0.00  0.00     0.000 A 
ATOM      4  C4  BNZ d   1       2.588  -5.986   3.341  0.00  0.00     0.000 A 
ATOM      5  C5  BNZ d   1       2.497  -5.982   4.718  0.00  0.00     0.000 A 
ATOM      6  C6  BNZ d   1       1.263  -6.000   5.326  0.00  0.00     0.000 A 
ENDROOT
TORSDOF 0
ENDMDL
