MODEL 1
REMARK minimizedAffinity -1.24390125
REMARK minimizedRMSD -1
REMARK  0 active torsions:
REMARK  status: ('A' for Active; 'I' for Inactive)
ROOT
ATOM      1  C1  BNZ d   1      -1.862  -3.318  -3.927  0.00  0.00     0.000 A 
ATOM      2  C2  BNZ d   1      -0.588  -3.046  -4.348  0.00  0.00     0.000 A 
ATOM      3  C3  BNZ d   1      -0.077  -1.781  -4.263  0.00  0.00     0.000 A 
ATOM      4  C4  BNZ d   1      -0.854  -0.783  -3.796  0.00  0.00     0.000 A 
ATOM      5  C5  BNZ d   1      -2.144  -1.039  -3.377  0.00  0.00     0.000 A 
ATOM      6  C6  BNZ d   1      -2.641  -2.321  -3.427  0.00  0.00     0.000 A 
ENDROOT
TORSDOF 0
ENDMDL
