MODEL 1
REMARK minimizedAffinity 1.75109279
REMARK minimizedRMSD -1
REMARK  0 active torsions:
REMARK  status: ('A' for Active; 'I' for Inactive)
ROOT
ATOM      1  C1  BNZ d   1      -1.483  -5.974   2.414  0.00  0.00     0.000 A 
ATOM      2  C2  BNZ d   1      -0.555  -5.968   1.407  0.00  0.00     0.000 A 
ATOM      3  C3  BNZ d   1       0.783  -5.999   1.688  0.00  0.00     0.000 A 
ATOM      4  C4  BNZ d   1       1.191  -5.995   2.973  0.00  0.00     0.000 A 
ATOM      5  C5  BNZ d   1       0.268  -5.991   4.000  0.00  0.00     0.000 A 
ATOM      6  C6  BNZ d   1      -1.078  -6.000   3.713  0.00  0.00     0.000 A 
ENDROOT
TORSDOF 0
ENDMDL
