MODEL 1
REMARK minimizedAffinity 0.445713222
REMARK minimizedRMSD -1
REMARK  0 active torsions:
REMARK  status: ('A' for Active; 'I' for Inactive)
ROOT
ATOM      1  C1  BNZ d   1      -0.152  -5.986   4.203  0.00  0.00     0.000 A 
ATOM      2  C2  BNZ d   1      -1.500  -5.981   3.962  0.00  0.00     0.000 A 
ATOM      3  C3  BNZ d   1      -1.983  -5.999   2.683  0.00  0.00     0.000 A 
ATOM      4  C4  BNZ d   1      -1.118  -5.981   1.648  0.00  0.00     0.000 A 
ATOM      5  C5  BNZ d   1       0.244  -5.976   1.874  0.00  0.00     0.000 A 
ATOM      6  C6  BNZ d   1       0.726  -5.997   3.163  0.00  0.00     0.000 A 
ENDROOT
TORSDOF 0
ENDMDL
