MODEL 1
REMARK minimizedAffinity -1.60397184
REMARK minimizedRMSD -1
REMARK  0 active torsions:
REMARK  status: ('A' for Active; 'I' for Inactive)
ROOT
ATOM      1  C1  BNZ d   1       2.907  -5.994   4.946  0.00  0.00     0.000 A 
ATOM      2  C2  BNZ d   1       3.370  -6.000   3.657  0.00  0.00     0.000 A 
ATOM      3  C3  BNZ d   1       2.501  -5.980   2.602  0.00  0.00     0.000 A 
ATOM      4  C4  BNZ d   1       1.173  -5.996   2.835  0.00  0.00     0.000 A 
ATOM      5  C5  BNZ d   1       0.691  -6.000   4.129  0.00  0.00     0.000 A 
ATOM      6  C6  BNZ d   1       1.568  -5.980   5.189  0.00  0.00     0.000 A 
ENDROOT
TORSDOF 0
ENDMDL
