MODEL 1
REMARK minimizedAffinity 5.9203372
REMARK minimizedRMSD -1
REMARK  0 active torsions:
REMARK  status: ('A' for Active; 'I' for Inactive)
ROOT
ATOM      1  C4' PXY d   1       3.473  -1.678  -0.400  0.00  0.00     0.077 C 
ATOM      2  C1' PXY d   1      -1.856  -1.464  -2.629  0.00  0.00     0.077 C 
ATOM      3  C1  PXY d   1      -0.462  -1.531  -2.038  0.00  0.00    -0.082 A 
ATOM      4  C2  PXY d   1       0.238  -0.419  -1.886  0.00  0.00     0.003 A 
ATOM      5  C3  PXY d   1       1.513  -0.466  -1.383  0.00  0.00     0.003 A 
ATOM      6  C4  PXY d   1       2.057  -1.657  -0.983  0.00  0.00    -0.082 A 
ATOM      7  C5  PXY d   1       1.345  -2.795  -1.125  0.00  0.00     0.003 A 
ATOM      8  C6  PXY d   1       0.068  -2.731  -1.676  0.00  0.00     0.003 A 
ENDROOT
TORSDOF 0
ENDMDL
