MODEL 1
REMARK minimizedAffinity 15.9724216
REMARK minimizedRMSD -1
REMARK  0 active torsions:
REMARK  status: ('A' for Active; 'I' for Inactive)
ROOT
ATOM      1  C4' PXY d   1      -0.381   2.247   2.245  0.00  0.00     0.077 C 
ATOM      2  C1' PXY d   1      -0.670   4.693  -2.985  0.00  0.00     0.077 C 
ATOM      3  C1  PXY d   1      -0.603   4.042  -1.617  0.00  0.00    -0.082 A 
ATOM      4  C2  PXY d   1      -0.277   4.770  -0.562  0.00  0.00     0.003 A 
ATOM      5  C3  PXY d   1      -0.180   4.191   0.677  0.00  0.00     0.003 A 
ATOM      6  C4  PXY d   1      -0.471   2.864   0.846  0.00  0.00    -0.082 A 
ATOM      7  C5  PXY d   1      -0.815   2.116  -0.224  0.00  0.00     0.003 A 
ATOM      8  C6  PXY d   1      -0.867   2.714  -1.480  0.00  0.00     0.003 A 
ENDROOT
TORSDOF 0
ENDMDL
