MODEL 1
REMARK minimizedAffinity 5.28344297
REMARK minimizedRMSD -1
REMARK  0 active torsions:
REMARK  status: ('A' for Active; 'I' for Inactive)
ROOT
ATOM      1  C4' PXY d   1      -0.835  -1.768  -2.217  0.00  0.00     0.077 C 
ATOM      2  C1' PXY d   1      -5.113   2.037  -1.423  0.00  0.00     0.077 C 
ATOM      3  C1  PXY d   1      -4.000   1.030  -1.632  0.00  0.00    -0.082 A 
ATOM      4  C2  PXY d   1      -2.782   1.299  -1.190  0.00  0.00     0.003 A 
ATOM      5  C3  PXY d   1      -1.757   0.413  -1.399  0.00  0.00     0.003 A 
ATOM      6  C4  PXY d   1      -1.992  -0.784  -2.020  0.00  0.00    -0.082 A 
ATOM      7  C5  PXY d   1      -3.234  -1.071  -2.464  0.00  0.00     0.003 A 
ATOM      8  C6  PXY d   1      -4.252  -0.141  -2.278  0.00  0.00     0.003 A 
ENDROOT
TORSDOF 0
ENDMDL
