MODEL 1
REMARK minimizedAffinity 12.674387
REMARK minimizedRMSD -1
REMARK  0 active torsions:
REMARK  status: ('A' for Active; 'I' for Inactive)
ROOT
ATOM      1  C4' PXY d   1      -3.291  -0.043  -1.089  0.00  0.00     0.077 C 
ATOM      2  C1' PXY d   1       0.730  -2.532  -4.415  0.00  0.00     0.077 C 
ATOM      3  C1  PXY d   1      -0.317  -1.880  -3.532  0.00  0.00    -0.082 A 
ATOM      4  C2  PXY d   1      -1.587  -1.894  -3.904  0.00  0.00     0.003 A 
ATOM      5  C3  PXY d   1      -2.542  -1.282  -3.134  0.00  0.00     0.003 A 
ATOM      6  C4  PXY d   1      -2.201  -0.696  -1.944  0.00  0.00    -0.082 A 
ATOM      7  C5  PXY d   1      -0.910  -0.687  -1.552  0.00  0.00     0.003 A 
ATOM      8  C6  PXY d   1       0.051  -1.278  -2.369  0.00  0.00     0.003 A 
ENDROOT
TORSDOF 0
ENDMDL
