MODEL 1
REMARK minimizedAffinity 10.2284279
REMARK minimizedRMSD -1
REMARK  0 active torsions:
REMARK  status: ('A' for Active; 'I' for Inactive)
ROOT
ATOM      1  C4' PXY d   1      -0.035  -2.015  -4.631  0.00  0.00     0.077 C 
ATOM      2  C1' PXY d   1      -3.149  -0.343  -0.057  0.00  0.00     0.077 C 
ATOM      3  C1  PXY d   1      -2.322  -0.774  -1.253  0.00  0.00    -0.082 A 
ATOM      4  C2  PXY d   1      -2.925  -1.282  -2.315  0.00  0.00     0.003 A 
ATOM      5  C3  PXY d   1      -2.191  -1.705  -3.393  0.00  0.00     0.003 A 
ATOM      6  C4  PXY d   1      -0.829  -1.558  -3.404  0.00  0.00    -0.082 A 
ATOM      7  C5  PXY d   1      -0.208  -1.031  -2.328  0.00  0.00     0.003 A 
ATOM      8  C6  PXY d   1      -0.968  -0.645  -1.228  0.00  0.00     0.003 A 
ENDROOT
TORSDOF 0
ENDMDL
