MODEL 1
REMARK minimizedAffinity 7.29112148
REMARK minimizedRMSD -1
REMARK  0 active torsions:
REMARK  status: ('A' for Active; 'I' for Inactive)
ROOT
ATOM      1  C4' PXY d   1       2.282  -4.126   1.049  0.00  0.00     0.077 C 
ATOM      2  C1' PXY d   1       6.000  -1.128  -2.208  0.00  0.00     0.077 C 
ATOM      3  C1  PXY d   1       5.021  -1.903  -1.348  0.00  0.00    -0.082 A 
ATOM      4  C2  PXY d   1       5.215  -3.196  -1.140  0.00  0.00     0.003 A 
ATOM      5  C3  PXY d   1       4.322  -3.918  -0.391  0.00  0.00     0.003 A 
ATOM      6  C4  PXY d   1       3.249  -3.301   0.195  0.00  0.00    -0.082 A 
ATOM      7  C5  PXY d   1       3.051  -1.981  -0.004  0.00  0.00     0.003 A 
ATOM      8  C6  PXY d   1       3.946  -1.274  -0.801  0.00  0.00     0.003 A 
ENDROOT
TORSDOF 0
ENDMDL
