MODEL 1
REMARK minimizedAffinity 10.7240219
REMARK minimizedRMSD -1
REMARK  0 active torsions:
REMARK  status: ('A' for Active; 'I' for Inactive)
ROOT
ATOM      1  C4' PXY d   1      -2.648  -1.556  -1.477  0.00  0.00     0.077 C 
ATOM      2  C1' PXY d   1       0.099   3.479  -0.758  0.00  0.00     0.077 C 
ATOM      3  C1  PXY d   1      -0.632   2.164  -0.943  0.00  0.00    -0.082 A 
ATOM      4  C2  PXY d   1       0.043   1.027  -0.896  0.00  0.00     0.003 A 
ATOM      5  C3  PXY d   1      -0.597  -0.169  -1.093  0.00  0.00     0.003 A 
ATOM      6  C4  PXY d   1      -1.952  -0.206  -1.287  0.00  0.00    -0.082 A 
ATOM      7  C5  PXY d   1      -2.650   0.949  -1.325  0.00  0.00     0.003 A 
ATOM      8  C6  PXY d   1      -1.975   2.156  -1.164  0.00  0.00     0.003 A 
ENDROOT
TORSDOF 0
ENDMDL
