MODEL 1
REMARK minimizedAffinity 10.9734774
REMARK minimizedRMSD -1
REMARK  0 active torsions:
REMARK  status: ('A' for Active; 'I' for Inactive)
ROOT
ATOM      1  C   UNL d   1      -3.052   2.451  -3.281  0.00  0.00     0.124 A 
ATOM      2  C1  UNL d   1      -4.126   3.161  -2.765  0.00  0.00     0.062 A 
ATOM      3  C2  UNL d   1      -4.969   2.572  -1.827  0.00  0.00     0.162 A 
ATOM      4  C3  UNL d   1      -4.741   1.264  -1.399  0.00  0.00    -0.034 A 
ATOM      5  C4  UNL d   1      -3.659   0.555  -1.924  0.00  0.00     0.162 A 
ATOM      6  C5  UNL d   1      -2.819   1.149  -2.861  0.00  0.00     0.062 A 
ATOM      7  F   UNL d   1      -1.781   0.461  -3.359  0.00  0.00    -0.097 F 
ATOM      8  F1  UNL d   1      -3.410  -0.704  -1.534  0.00  0.00    -0.096 F 
ATOM      9  I   UNL d   1      -5.999   0.379   0.003  0.00  0.00    -0.060 I 
ATOM     10  F2  UNL d   1      -6.000   3.282  -1.344  0.00  0.00    -0.096 F 
ATOM     11  F3  UNL d   1      -4.354   4.419  -3.170  0.00  0.00    -0.097 F 
ATOM     12  F4  UNL d   1      -2.243   3.020  -4.184  0.00  0.00    -0.092 F 
ENDROOT
TORSDOF 0
ENDMDL
