MODEL 1
REMARK minimizedAffinity 6.64162493
REMARK minimizedRMSD -1
REMARK  0 active torsions:
REMARK  status: ('A' for Active; 'I' for Inactive)
ROOT
ATOM      1  C   UNL d   1       2.414   0.678   0.243  0.00  0.00     0.124 A 
ATOM      2  C1  UNL d   1       3.043  -0.455   0.740  0.00  0.00     0.062 A 
ATOM      3  C2  UNL d   1       2.479  -1.712   0.543  0.00  0.00     0.162 A 
ATOM      4  C3  UNL d   1       1.279  -1.844  -0.155  0.00  0.00    -0.034 A 
ATOM      5  C4  UNL d   1       0.652  -0.699  -0.651  0.00  0.00     0.162 A 
ATOM      6  C5  UNL d   1       1.219   0.555  -0.452  0.00  0.00     0.062 A 
ATOM      7  F   UNL d   1       0.610   1.648  -0.933  0.00  0.00    -0.097 F 
ATOM      8  F1  UNL d   1      -0.503  -0.790  -1.327  0.00  0.00    -0.096 F 
ATOM      9  I   UNL d   1       0.433  -3.722  -0.452  0.00  0.00    -0.060 I 
ATOM     10  F2  UNL d   1       3.109  -2.790   1.035  0.00  0.00    -0.096 F 
ATOM     11  F3  UNL d   1       4.197  -0.339   1.413  0.00  0.00    -0.097 F 
ATOM     12  F4  UNL d   1       2.958   1.886   0.435  0.00  0.00    -0.092 F 
ENDROOT
TORSDOF 0
ENDMDL
