MODEL 1
REMARK minimizedAffinity 15.526968
REMARK minimizedRMSD -1
REMARK  0 active torsions:
REMARK  status: ('A' for Active; 'I' for Inactive)
ROOT
ATOM      1  C   UNL d   1      -4.238   0.473  -1.744  0.00  0.00     0.124 A 
ATOM      2  C1  UNL d   1      -4.099   1.545  -0.873  0.00  0.00     0.062 A 
ATOM      3  C2  UNL d   1      -4.601   2.797  -1.216  0.00  0.00     0.162 A 
ATOM      4  C3  UNL d   1      -5.248   2.984  -2.438  0.00  0.00    -0.034 A 
ATOM      5  C4  UNL d   1      -5.383   1.902  -3.309  0.00  0.00     0.162 A 
ATOM      6  C5  UNL d   1      -4.880   0.653  -2.961  0.00  0.00     0.062 A 
ATOM      7  F   UNL d   1      -5.015  -0.381  -3.804  0.00  0.00    -0.097 F 
ATOM      8  F1  UNL d   1      -6.000   2.047  -4.492  0.00  0.00    -0.096 F 
ATOM      9  I   UNL d   1      -6.000   4.854  -2.956  0.00  0.00    -0.060 I 
ATOM     10  F2  UNL d   1      -4.452   3.814  -0.355  0.00  0.00    -0.096 F 
ATOM     11  F3  UNL d   1      -3.478   1.374   0.304  0.00  0.00    -0.097 F 
ATOM     12  F4  UNL d   1      -3.753  -0.730  -1.411  0.00  0.00    -0.092 F 
ENDROOT
TORSDOF 0
ENDMDL
