MODEL 1
REMARK minimizedAffinity 14.6871653
REMARK minimizedRMSD -1
REMARK  0 active torsions:
REMARK  status: ('A' for Active; 'I' for Inactive)
ROOT
ATOM      1  C   UNL d   1       0.863  -3.258   0.282  0.00  0.00     0.124 A 
ATOM      2  C1  UNL d   1       0.472  -2.393  -0.730  0.00  0.00     0.062 A 
ATOM      3  C2  UNL d   1       1.150  -1.193  -0.926  0.00  0.00     0.162 A 
ATOM      4  C3  UNL d   1       2.227  -0.852  -0.109  0.00  0.00    -0.034 A 
ATOM      5  C4  UNL d   1       2.614  -1.727   0.908  0.00  0.00     0.162 A 
ATOM      6  C5  UNL d   1       1.933  -2.925   1.100  0.00  0.00     0.062 A 
ATOM      7  F   UNL d   1       2.312  -3.759   2.079  0.00  0.00    -0.097 F 
ATOM      8  F1  UNL d   1       3.645  -1.430   1.712  0.00  0.00    -0.096 F 
ATOM      9  I   UNL d   1       3.244   0.941  -0.398  0.00  0.00    -0.060 I 
ATOM     10  F2  UNL d   1       0.750  -0.376  -1.912  0.00  0.00    -0.096 F 
ATOM     11  F3  UNL d   1      -0.563  -2.712  -1.521  0.00  0.00    -0.097 F 
ATOM     12  F4  UNL d   1       0.208  -4.411   0.469  0.00  0.00    -0.092 F 
ENDROOT
TORSDOF 0
ENDMDL
