MODEL 1
REMARK minimizedAffinity 14.3557024
REMARK minimizedRMSD -1
REMARK  0 active torsions:
REMARK  status: ('A' for Active; 'I' for Inactive)
ROOT
ATOM      1  C   UNL d   1       2.154  -2.291   0.025  0.00  0.00     0.124 A 
ATOM      2  C1  UNL d   1       1.324  -1.471  -0.726  0.00  0.00     0.062 A 
ATOM      3  C2  UNL d   1       1.258  -0.107  -0.457  0.00  0.00     0.162 A 
ATOM      4  C3  UNL d   1       2.026   0.447   0.567  0.00  0.00    -0.034 A 
ATOM      5  C4  UNL d   1       2.859  -0.385   1.319  0.00  0.00     0.162 A 
ATOM      6  C5  UNL d   1       2.921  -1.748   1.047  0.00  0.00     0.062 A 
ATOM      7  F   UNL d   1       3.723  -2.539   1.773  0.00  0.00    -0.097 F 
ATOM      8  F1  UNL d   1       3.610   0.114   2.311  0.00  0.00    -0.096 F 
ATOM      9  I   UNL d   1       1.931   2.486   0.972  0.00  0.00    -0.060 I 
ATOM     10  F2  UNL d   1       0.447   0.662  -1.199  0.00  0.00    -0.096 F 
ATOM     11  F3  UNL d   1       0.582  -1.993  -1.713  0.00  0.00    -0.097 F 
ATOM     12  F4  UNL d   1       2.215  -3.603  -0.235  0.00  0.00    -0.092 F 
ENDROOT
TORSDOF 0
ENDMDL
