MODEL 1
REMARK minimizedAffinity 15.6109438
REMARK minimizedRMSD -1
REMARK  0 active torsions:
REMARK  status: ('A' for Active; 'I' for Inactive)
ROOT
ATOM      1  C   UNL d   1       3.261  -0.098   0.972  0.00  0.00     0.124 A 
ATOM      2  C1  UNL d   1       2.660  -0.994   0.099  0.00  0.00     0.062 A 
ATOM      3  C2  UNL d   1       1.550  -0.608  -0.646  0.00  0.00     0.162 A 
ATOM      4  C3  UNL d   1       1.033   0.682  -0.522  0.00  0.00    -0.034 A 
ATOM      5  C4  UNL d   1       1.643   1.577   0.359  0.00  0.00     0.162 A 
ATOM      6  C5  UNL d   1       2.752   1.186   1.101  0.00  0.00     0.062 A 
ATOM      7  F   UNL d   1       3.331   2.053   1.945  0.00  0.00    -0.097 F 
ATOM      8  F1  UNL d   1       1.172   2.825   0.503  0.00  0.00    -0.096 F 
ATOM      9  I   UNL d   1      -0.627   1.263  -1.634  0.00  0.00    -0.060 I 
ATOM     10  F2  UNL d   1       0.990  -1.495  -1.482  0.00  0.00    -0.096 F 
ATOM     11  F3  UNL d   1       3.150  -2.236  -0.027  0.00  0.00    -0.097 F 
ATOM     12  F4  UNL d   1       4.329  -0.473   1.689  0.00  0.00    -0.092 F 
ENDROOT
TORSDOF 0
ENDMDL
