MODEL 1
REMARK minimizedAffinity 14.5117989
REMARK minimizedRMSD -1
REMARK  0 active torsions:
REMARK  status: ('A' for Active; 'I' for Inactive)
ROOT
ATOM      1  C   UNL d   1       4.842  -0.090   1.160  0.00  0.00     0.124 A 
ATOM      2  C1  UNL d   1       3.742   0.351   0.436  0.00  0.00     0.062 A 
ATOM      3  C2  UNL d   1       2.653  -0.491   0.236  0.00  0.00     0.162 A 
ATOM      4  C3  UNL d   1       2.656  -1.783   0.761  0.00  0.00    -0.034 A 
ATOM      5  C4  UNL d   1       3.766  -2.220   1.487  0.00  0.00     0.162 A 
ATOM      6  C5  UNL d   1       4.852  -1.374   1.684  0.00  0.00     0.062 A 
ATOM      7  F   UNL d   1       5.914  -1.802   2.383  0.00  0.00    -0.097 F 
ATOM      8  F1  UNL d   1       3.802  -3.456   2.005  0.00  0.00    -0.096 F 
ATOM      9  I   UNL d   1       1.029  -3.046   0.463  0.00  0.00    -0.060 I 
ATOM     10  F2  UNL d   1       1.604  -0.039  -0.468  0.00  0.00    -0.096 F 
ATOM     11  F3  UNL d   1       3.730   1.592  -0.073  0.00  0.00    -0.097 F 
ATOM     12  F4  UNL d   1       5.889   0.723   1.350  0.00  0.00    -0.092 F 
ENDROOT
TORSDOF 0
ENDMDL
