MODEL 1
REMARK minimizedAffinity 11.6300859
REMARK minimizedRMSD -1
REMARK  0 active torsions:
REMARK  status: ('A' for Active; 'I' for Inactive)
ROOT
ATOM      1  C   UNL d   1       4.317  -0.354  -1.815  0.00  0.00     0.124 A 
ATOM      2  C1  UNL d   1       4.343   0.696  -0.907  0.00  0.00     0.062 A 
ATOM      3  C2  UNL d   1       3.727   0.564   0.334  0.00  0.00     0.162 A 
ATOM      4  C3  UNL d   1       3.080  -0.623   0.676  0.00  0.00    -0.034 A 
ATOM      5  C4  UNL d   1       3.057  -1.675  -0.243  0.00  0.00     0.162 A 
ATOM      6  C5  UNL d   1       3.675  -1.538  -1.482  0.00  0.00     0.062 A 
ATOM      7  F   UNL d   1       3.648  -2.554  -2.357  0.00  0.00    -0.097 F 
ATOM      8  F1  UNL d   1       2.444  -2.830   0.054  0.00  0.00    -0.096 F 
ATOM      9  I   UNL d   1       2.157  -0.824   2.530  0.00  0.00    -0.060 I 
ATOM     10  F2  UNL d   1       3.768   1.595   1.191  0.00  0.00    -0.096 F 
ATOM     11  F3  UNL d   1       4.963   1.841  -1.227  0.00  0.00    -0.097 F 
ATOM     12  F4  UNL d   1       4.910  -0.224  -3.008  0.00  0.00    -0.092 F 
ENDROOT
TORSDOF 0
ENDMDL
