MODEL 1
REMARK minimizedAffinity 11.2569809
REMARK minimizedRMSD -1
REMARK  0 active torsions:
REMARK  status: ('A' for Active; 'I' for Inactive)
ROOT
ATOM      1  C   UNL d   1       3.287  -1.095  -1.048  0.00  0.00     0.124 A 
ATOM      2  C1  UNL d   1       2.048  -0.761  -0.520  0.00  0.00     0.062 A 
ATOM      3  C2  UNL d   1       0.900  -0.881  -1.297  0.00  0.00     0.162 A 
ATOM      4  C3  UNL d   1       0.985  -1.338  -2.612  0.00  0.00    -0.034 A 
ATOM      5  C4  UNL d   1       2.235  -1.672  -3.137  0.00  0.00     0.162 A 
ATOM      6  C5  UNL d   1       3.379  -1.551  -2.356  0.00  0.00     0.062 A 
ATOM      7  F   UNL d   1       4.576  -1.874  -2.868  0.00  0.00    -0.097 F 
ATOM      8  F1  UNL d   1       2.353  -2.116  -4.397  0.00  0.00    -0.096 F 
ATOM      9  I   UNL d   1      -0.729  -1.519  -3.779  0.00  0.00    -0.060 I 
ATOM     10  F2  UNL d   1      -0.284  -0.550  -0.761  0.00  0.00    -0.096 F 
ATOM     11  F3  UNL d   1       1.956  -0.320   0.743  0.00  0.00    -0.097 F 
ATOM     12  F4  UNL d   1       4.390  -0.978  -0.298  0.00  0.00    -0.092 F 
ENDROOT
TORSDOF 0
ENDMDL
