MODEL 1
REMARK minimizedAffinity 1.41356802
REMARK minimizedRMSD -1
REMARK  0 active torsions:
REMARK  status: ('A' for Active; 'I' for Inactive)
ROOT
ATOM      1  C   UNL d   1       5.015   5.087   1.884  0.00  0.00     0.023 A 
ATOM      2  C1  UNL d   1       4.327   4.324   2.827  0.00  0.00     0.003 A 
ATOM      3  C2  UNL d   1       3.999   2.996   2.547  0.00  0.00     0.048 A 
ATOM      4  C3  UNL d   1       4.362   2.437   1.322  0.00  0.00     0.023 A 
ATOM      5  C4  UNL d   1       5.052   3.197   0.375  0.00  0.00     0.048 A 
ATOM      6  C5  UNL d   1       5.377   4.525   0.660  0.00  0.00     0.003 A 
ATOM      7  I   UNL d   1       3.875   0.461   0.903  0.00  0.00    -0.146 I 
ENDROOT
TORSDOF 0
ENDMDL
