MODEL 1
REMARK minimizedAffinity 3.18589497
REMARK minimizedRMSD -1
REMARK  0 active torsions:
REMARK  status: ('A' for Active; 'I' for Inactive)
ROOT
ATOM      1  C   UNL d   1       1.340  -1.793   0.764  0.00  0.00     0.023 A 
ATOM      2  C1  UNL d   1       1.691  -0.708  -0.039  0.00  0.00     0.003 A 
ATOM      3  C2  UNL d   1       0.734   0.250  -0.378  0.00  0.00     0.048 A 
ATOM      4  C3  UNL d   1      -0.573   0.118   0.089  0.00  0.00     0.023 A 
ATOM      5  C4  UNL d   1      -0.929  -0.966   0.893  0.00  0.00     0.048 A 
ATOM      6  C5  UNL d   1       0.031  -1.922   1.229  0.00  0.00     0.003 A 
ATOM      7  I   UNL d   1      -2.000   1.543  -0.415  0.00  0.00    -0.146 I 
ENDROOT
TORSDOF 0
ENDMDL
