MODEL 1
REMARK minimizedAffinity 6.1246295
REMARK minimizedRMSD -1
REMARK  0 active torsions:
REMARK  status: ('A' for Active; 'I' for Inactive)
ROOT
ATOM      1  C   UNL d   1      -2.126  -0.965   0.455  0.00  0.00     0.023 A 
ATOM      2  C1  UNL d   1      -1.736  -2.225  -0.001  0.00  0.00     0.003 A 
ATOM      3  C2  UNL d   1      -0.393  -2.604   0.053  0.00  0.00     0.048 A 
ATOM      4  C3  UNL d   1       0.555  -1.719   0.565  0.00  0.00     0.023 A 
ATOM      5  C4  UNL d   1       0.170  -0.458   1.024  0.00  0.00     0.048 A 
ATOM      6  C5  UNL d   1      -1.174  -0.083   0.967  0.00  0.00     0.003 A 
ATOM      7  I   UNL d   1       2.554  -2.281   0.647  0.00  0.00    -0.146 I 
ENDROOT
TORSDOF 0
ENDMDL
