MODEL 1
REMARK minimizedAffinity 6.87192583
REMARK minimizedRMSD -1
REMARK  0 active torsions:
REMARK  status: ('A' for Active; 'I' for Inactive)
ROOT
ATOM      1  C   UNL d   1      -4.055   0.508  -3.113  0.00  0.00     0.023 A 
ATOM      2  C1  UNL d   1      -5.439   0.333  -3.125  0.00  0.00     0.003 A 
ATOM      3  C2  UNL d   1      -5.998  -0.783  -3.750  0.00  0.00     0.048 A 
ATOM      4  C3  UNL d   1      -5.167  -1.722  -4.361  0.00  0.00     0.023 A 
ATOM      5  C4  UNL d   1      -3.782  -1.552  -4.351  0.00  0.00     0.048 A 
ATOM      6  C5  UNL d   1      -3.228  -0.434  -3.725  0.00  0.00     0.003 A 
ATOM      7  I   UNL d   1      -5.997  -3.384  -5.292  0.00  0.00    -0.146 I 
ENDROOT
TORSDOF 0
ENDMDL
