MODEL 1
REMARK minimizedAffinity 7.5826726
REMARK minimizedRMSD -1
REMARK  0 active torsions:
REMARK  status: ('A' for Active; 'I' for Inactive)
ROOT
ATOM      1  C   UNL d   1      -2.610  -0.400   0.895  0.00  0.00     0.023 A 
ATOM      2  C1  UNL d   1      -2.395  -1.468   0.024  0.00  0.00     0.003 A 
ATOM      3  C2  UNL d   1      -1.097  -1.923  -0.217  0.00  0.00     0.048 A 
ATOM      4  C3  UNL d   1      -0.019  -1.306   0.417  0.00  0.00     0.023 A 
ATOM      5  C4  UNL d   1      -0.230  -0.238   1.290  0.00  0.00     0.048 A 
ATOM      6  C5  UNL d   1      -1.529   0.215   1.527  0.00  0.00     0.003 A 
ATOM      7  I   UNL d   1       1.914  -1.982   0.061  0.00  0.00    -0.146 I 
ENDROOT
TORSDOF 0
ENDMDL
