MODEL 1
REMARK minimizedAffinity 10.9445295
REMARK minimizedRMSD -1
REMARK  0 active torsions:
REMARK  status: ('A' for Active; 'I' for Inactive)
ROOT
ATOM      1  C   UNL d   1      -2.054  -1.437   0.360  0.00  0.00     0.023 A 
ATOM      2  C1  UNL d   1      -1.836  -0.305   1.145  0.00  0.00     0.003 A 
ATOM      3  C2  UNL d   1      -0.588   0.321   1.140  0.00  0.00     0.048 A 
ATOM      4  C3  UNL d   1       0.438  -0.191   0.346  0.00  0.00     0.023 A 
ATOM      5  C4  UNL d   1       0.225  -1.324  -0.441  0.00  0.00     0.048 A 
ATOM      6  C5  UNL d   1      -1.025  -1.946  -0.432  0.00  0.00     0.003 A 
ATOM      7  I   UNL d   1       2.298   0.738   0.337  0.00  0.00    -0.146 I 
ENDROOT
TORSDOF 0
ENDMDL
