MODEL 1
REMARK minimizedAffinity 12.4212523
REMARK minimizedRMSD -1
REMARK  0 active torsions:
REMARK  status: ('A' for Active; 'I' for Inactive)
ROOT
ATOM      1  C   UNL d   1       3.463   0.462  -3.806  0.00  0.00     0.023 A 
ATOM      2  C1  UNL d   1       4.137   0.319  -2.594  0.00  0.00     0.003 A 
ATOM      3  C2  UNL d   1       4.612   1.446  -1.920  0.00  0.00     0.048 A 
ATOM      4  C3  UNL d   1       4.408   2.713  -2.464  0.00  0.00     0.023 A 
ATOM      5  C4  UNL d   1       3.733   2.862  -3.677  0.00  0.00     0.048 A 
ATOM      6  C5  UNL d   1       3.261   1.732  -4.347  0.00  0.00     0.003 A 
ATOM      7  I   UNL d   1       5.114   4.393  -1.463  0.00  0.00    -0.146 I 
ENDROOT
TORSDOF 0
ENDMDL
