MODEL 1
REMARK minimizedAffinity 10.3417149
REMARK minimizedRMSD -1
REMARK  0 active torsions:
REMARK  status: ('A' for Active; 'I' for Inactive)
ROOT
ATOM      1  C   UNL d   1      -3.006  -0.106  -0.023  0.00  0.00     0.023 A 
ATOM      2  C1  UNL d   1      -2.272   0.571   0.951  0.00  0.00     0.003 A 
ATOM      3  C2  UNL d   1      -1.089   0.018   1.446  0.00  0.00     0.048 A 
ATOM      4  C3  UNL d   1      -0.645  -1.212   0.961  0.00  0.00     0.023 A 
ATOM      5  C4  UNL d   1      -1.375  -1.892  -0.015  0.00  0.00     0.048 A 
ATOM      6  C5  UNL d   1      -2.558  -1.336  -0.505  0.00  0.00     0.003 A 
ATOM      7  I   UNL d   1       1.116  -2.036   1.695  0.00  0.00    -0.146 I 
ENDROOT
TORSDOF 0
ENDMDL
