MODEL 1
REMARK minimizedAffinity 7.44409084
REMARK minimizedRMSD -1
REMARK  0 active torsions:
REMARK  status: ('A' for Active; 'I' for Inactive)
ROOT
ATOM      1  C   UNL d   1      -0.252  -1.461   1.547  0.00  0.00     0.023 A 
ATOM      2  C1  UNL d   1      -1.255  -2.111   0.829  0.00  0.00     0.003 A 
ATOM      3  C2  UNL d   1      -2.304  -1.376   0.270  0.00  0.00     0.048 A 
ATOM      4  C3  UNL d   1      -2.342   0.008   0.433  0.00  0.00     0.023 A 
ATOM      5  C4  UNL d   1      -1.339   0.663   1.151  0.00  0.00     0.048 A 
ATOM      6  C5  UNL d   1      -0.294  -0.076   1.708  0.00  0.00     0.003 A 
ATOM      7  I   UNL d   1      -3.900   1.103  -0.397  0.00  0.00    -0.146 I 
ENDROOT
TORSDOF 0
ENDMDL
