MODEL 1
REMARK minimizedAffinity -0.826340139
REMARK minimizedRMSD -1
REMARK  0 active torsions:
REMARK  status: ('A' for Active; 'I' for Inactive)
ROOT
ATOM      1  C   UNL d   1      -4.132   0.291  -3.738  0.00  0.00     0.023 A 
ATOM      2  C1  UNL d   1      -5.460  -0.061  -3.501  0.00  0.00     0.003 A 
ATOM      3  C2  UNL d   1      -5.998  -1.203  -4.097  0.00  0.00     0.048 A 
ATOM      4  C3  UNL d   1      -5.201  -1.990  -4.928  0.00  0.00     0.023 A 
ATOM      5  C4  UNL d   1      -3.871  -1.642  -5.168  0.00  0.00     0.048 A 
ATOM      6  C5  UNL d   1      -3.338  -0.498  -4.571  0.00  0.00     0.003 A 
ATOM      7  I   UNL d   1      -6.000  -3.691  -5.816  0.00  0.00    -0.146 I 
ENDROOT
TORSDOF 0
ENDMDL
