MODEL 1
REMARK minimizedAffinity 2.12350726
REMARK minimizedRMSD -1
REMARK  0 active torsions:
REMARK  status: ('A' for Active; 'I' for Inactive)
ROOT
ATOM      1  C   UNL d   1      -2.829  -0.092   0.867  0.00  0.00     0.023 A 
ATOM      2  C1  UNL d   1      -1.779   0.534   1.539  0.00  0.00     0.003 A 
ATOM      3  C2  UNL d   1      -0.505  -0.037   1.533  0.00  0.00     0.048 A 
ATOM      4  C3  UNL d   1      -0.287  -1.234   0.850  0.00  0.00     0.023 A 
ATOM      5  C4  UNL d   1      -1.334  -1.863   0.175  0.00  0.00     0.048 A 
ATOM      6  C5  UNL d   1      -2.607  -1.288   0.185  0.00  0.00     0.003 A 
ATOM      7  I   UNL d   1       1.609  -2.086   0.839  0.00  0.00    -0.146 I 
ENDROOT
TORSDOF 0
ENDMDL
