MODEL 1
REMARK minimizedAffinity 5.07214689
REMARK minimizedRMSD -1
REMARK  0 active torsions:
REMARK  status: ('A' for Active; 'I' for Inactive)
ROOT
ATOM      1  C   UNL d   1       4.150   1.414   1.710  0.00  0.00     0.023 A 
ATOM      2  C1  UNL d   1       3.487   0.325   1.144  0.00  0.00     0.003 A 
ATOM      3  C2  UNL d   1       3.173   0.327  -0.217  0.00  0.00     0.048 A 
ATOM      4  C3  UNL d   1       3.526   1.422  -1.006  0.00  0.00     0.023 A 
ATOM      5  C4  UNL d   1       4.190   2.513  -0.444  0.00  0.00     0.048 A 
ATOM      6  C5  UNL d   1       4.501   2.507   0.918  0.00  0.00     0.003 A 
ATOM      7  I   UNL d   1       3.060   1.428  -3.031  0.00  0.00    -0.146 I 
ENDROOT
TORSDOF 0
ENDMDL
