MODEL 1
REMARK minimizedAffinity 0.534718931
REMARK minimizedRMSD -1
REMARK  0 active torsions:
REMARK  status: ('A' for Active; 'I' for Inactive)
ROOT
ATOM      1  C   UNL d   1      -0.540   2.277  -0.725  0.00  0.00     0.023 A 
ATOM      2  C1  UNL d   1      -1.347   1.486  -1.542  0.00  0.00     0.003 A 
ATOM      3  C2  UNL d   1      -1.568   0.145  -1.219  0.00  0.00     0.048 A 
ATOM      4  C3  UNL d   1      -0.980  -0.397  -0.078  0.00  0.00     0.023 A 
ATOM      5  C4  UNL d   1      -0.172   0.391   0.744  0.00  0.00     0.048 A 
ATOM      6  C5  UNL d   1       0.047   1.730   0.417  0.00  0.00     0.003 A 
ATOM      7  I   UNL d   1      -1.308  -2.392   0.405  0.00  0.00    -0.146 I 
ENDROOT
TORSDOF 0
ENDMDL
