MODEL 1
REMARK minimizedAffinity 8.88877392
REMARK minimizedRMSD -1
REMARK  0 active torsions:
REMARK  status: ('A' for Active; 'I' for Inactive)
ROOT
ATOM      1  C   UNL d   1      -2.862  -0.934   0.530  0.00  0.00     0.023 A 
ATOM      2  C1  UNL d   1      -2.242  -2.171   0.351  0.00  0.00     0.003 A 
ATOM      3  C2  UNL d   1      -0.978  -2.405   0.895  0.00  0.00     0.048 A 
ATOM      4  C3  UNL d   1      -0.339  -1.398   1.618  0.00  0.00     0.023 A 
ATOM      5  C4  UNL d   1      -0.955  -0.159   1.800  0.00  0.00     0.048 A 
ATOM      6  C5  UNL d   1      -2.219   0.071   1.254  0.00  0.00     0.003 A 
ATOM      7  I   UNL d   1       1.543  -1.744   2.430  0.00  0.00    -0.146 I 
ENDROOT
TORSDOF 0
ENDMDL
