MODEL 1
REMARK minimizedAffinity 22.1132927
REMARK minimizedRMSD -1
REMARK  0 active torsions:
REMARK  status: ('A' for Active; 'I' for Inactive)
ROOT
ATOM      1  C   UNL d   1       0.585  -2.246   4.199  0.00  0.00     0.023 A 
ATOM      2  C1  UNL d   1       0.199  -1.537   3.062  0.00  0.00     0.003 A 
ATOM      3  C2  UNL d   1       1.112  -1.324   2.026  0.00  0.00     0.048 A 
ATOM      4  C3  UNL d   1       2.409  -1.824   2.135  0.00  0.00     0.023 A 
ATOM      5  C4  UNL d   1       2.800  -2.535   3.271  0.00  0.00     0.048 A 
ATOM      6  C5  UNL d   1       1.884  -2.744   4.304  0.00  0.00     0.003 A 
ATOM      7  I   UNL d   1       3.769  -1.510   0.595  0.00  0.00    -0.146 I 
ENDROOT
TORSDOF 0
ENDMDL
