MODEL 1
REMARK minimizedAffinity 11.2026176
REMARK minimizedRMSD -1
REMARK  0 active torsions:
REMARK  status: ('A' for Active; 'I' for Inactive)
ROOT
ATOM      1  C   UNL d   1      -3.035  -1.101   0.512  0.00  0.00     0.023 A 
ATOM      2  C1  UNL d   1      -2.535  -0.141   1.391  0.00  0.00     0.003 A 
ATOM      3  C2  UNL d   1      -1.326  -0.362   2.054  0.00  0.00     0.048 A 
ATOM      4  C3  UNL d   1      -0.621  -1.544   1.831  0.00  0.00     0.023 A 
ATOM      5  C4  UNL d   1      -1.117  -2.507   0.950  0.00  0.00     0.048 A 
ATOM      6  C5  UNL d   1      -2.327  -2.283   0.291  0.00  0.00     0.003 A 
ATOM      7  I   UNL d   1       1.179  -1.874   2.815  0.00  0.00    -0.146 I 
ENDROOT
TORSDOF 0
ENDMDL
