MODEL 1
REMARK minimizedAffinity 5.95275927
REMARK minimizedRMSD -1
REMARK  0 active torsions:
REMARK  status: ('A' for Active; 'I' for Inactive)
ROOT
ATOM      1  C   UNL d   1      -0.707  -0.540   0.953  0.00  0.00     0.023 A 
ATOM      2  C1  UNL d   1      -1.892  -0.339   0.244  0.00  0.00     0.003 A 
ATOM      3  C2  UNL d   1      -3.080  -0.076   0.929  0.00  0.00     0.048 A 
ATOM      4  C3  UNL d   1      -3.076  -0.013   2.322  0.00  0.00     0.023 A 
ATOM      5  C4  UNL d   1      -1.893  -0.213   3.035  0.00  0.00     0.048 A 
ATOM      6  C5  UNL d   1      -0.708  -0.477   2.346  0.00  0.00     0.003 A 
ATOM      7  I   UNL d   1      -4.844   0.379   3.343  0.00  0.00    -0.146 I 
ENDROOT
TORSDOF 0
ENDMDL
