MODEL 1
REMARK minimizedAffinity 10.0242863
REMARK minimizedRMSD -1
REMARK  0 active torsions:
REMARK  status: ('A' for Active; 'I' for Inactive)
ROOT
ATOM      1  C   UNL d   1       2.966  -2.910   0.182  0.00  0.00     0.023 A 
ATOM      2  C1  UNL d   1       1.846  -2.084   0.285  0.00  0.00     0.003 A 
ATOM      3  C2  UNL d   1       2.004  -0.699   0.365  0.00  0.00     0.048 A 
ATOM      4  C3  UNL d   1       3.284  -0.147   0.341  0.00  0.00     0.023 A 
ATOM      5  C4  UNL d   1       4.407  -0.969   0.238  0.00  0.00     0.048 A 
ATOM      6  C5  UNL d   1       4.244  -2.354   0.159  0.00  0.00     0.003 A 
ATOM      7  I   UNL d   1       3.522   1.915   0.460  0.00  0.00    -0.146 I 
ENDROOT
TORSDOF 0
ENDMDL
