MODEL 1
REMARK minimizedAffinity -0.270800352
REMARK minimizedRMSD -1
REMARK  0 active torsions:
REMARK  status: ('A' for Active; 'I' for Inactive)
ROOT
ATOM      1  C   UNL d   1      -0.384   0.548   0.524  0.00  0.00     0.023 A 
ATOM      2  C1  UNL d   1      -0.027   1.853   0.183  0.00  0.00     0.003 A 
ATOM      3  C2  UNL d   1       1.281   2.140  -0.211  0.00  0.00     0.048 A 
ATOM      4  C3  UNL d   1       2.228   1.118  -0.263  0.00  0.00     0.023 A 
ATOM      5  C4  UNL d   1       1.876  -0.190   0.077  0.00  0.00     0.048 A 
ATOM      6  C5  UNL d   1       0.566  -0.472   0.471  0.00  0.00     0.003 A 
ATOM      7  I   UNL d   1       4.176   1.543  -0.849  0.00  0.00    -0.146 I 
ENDROOT
TORSDOF 0
ENDMDL
