MODEL 1
REMARK minimizedAffinity 2.85550499
REMARK minimizedRMSD -1
REMARK  0 active torsions:
REMARK  status: ('A' for Active; 'I' for Inactive)
ROOT
ATOM      1  C   UNL d   1      -0.498  -0.709   0.903  0.00  0.00     0.023 A 
ATOM      2  C1  UNL d   1      -0.333  -0.594   2.284  0.00  0.00     0.003 A 
ATOM      3  C2  UNL d   1      -1.373  -0.101   3.074  0.00  0.00     0.048 A 
ATOM      4  C3  UNL d   1      -2.576   0.275   2.478  0.00  0.00     0.023 A 
ATOM      5  C4  UNL d   1      -2.746   0.162   1.097  0.00  0.00     0.048 A 
ATOM      6  C5  UNL d   1      -1.703  -0.331   0.311  0.00  0.00     0.003 A 
ATOM      7  I   UNL d   1      -4.125   1.010   3.652  0.00  0.00    -0.146 I 
ENDROOT
TORSDOF 0
ENDMDL
