MODEL 1
REMARK minimizedAffinity 2.49291825
REMARK minimizedRMSD -1
REMARK  0 active torsions:
REMARK  status: ('A' for Active; 'I' for Inactive)
ROOT
ATOM      1  C1  DEN d   1       1.581  -0.900   2.359  0.00  0.00     0.130 A 
ATOM      2  C2  DEN d   1       0.127  -0.823   2.478  0.00  0.00    -0.031 A 
ATOM      3  C3  DEN d   1      -0.461  -1.754   1.494  0.00  0.00     0.027 A 
ATOM      4  C4  DEN d   1       0.731  -3.303  -0.188  0.00  0.00     0.027 A 
ATOM      5  C5  DEN d   1       1.957  -3.707  -0.668  0.00  0.00    -0.003 A 
ATOM      6  C6  DEN d   1       3.133  -3.184  -0.200  0.00  0.00     0.001 A 
ATOM      7  C7  DEN d   1       3.109  -2.258   0.809  0.00  0.00     0.017 A 
ATOM      8  C8  DEN d   1       1.877  -1.840   1.293  0.00  0.00    -0.094 A 
ATOM      9  C9  DEN d   1       0.699  -2.390   0.815  0.00  0.00    -0.072 A 
ENDROOT
TORSDOF 0
ENDMDL
