MODEL 1
REMARK minimizedAffinity -2.07495832
REMARK minimizedRMSD -1
REMARK  0 active torsions:
REMARK  status: ('A' for Active; 'I' for Inactive)
ROOT
ATOM      1  C1  DEN d   1       1.492  -0.514   1.130  0.00  0.00     0.130 A 
ATOM      2  C2  DEN d   1       0.093  -0.198   0.853  0.00  0.00    -0.031 A 
ATOM      3  C3  DEN d   1      -0.508  -1.357   0.162  0.00  0.00     0.027 A 
ATOM      4  C4  DEN d   1       0.583  -3.599  -0.497  0.00  0.00     0.027 A 
ATOM      5  C5  DEN d   1       1.753  -4.325  -0.481  0.00  0.00    -0.003 A 
ATOM      6  C6  DEN d   1       2.917  -3.823   0.038  0.00  0.00     0.001 A 
ATOM      7  C7  DEN d   1       2.926  -2.576   0.604  0.00  0.00     0.017 A 
ATOM      8  C8  DEN d   1       1.752  -1.834   0.585  0.00  0.00    -0.094 A 
ATOM      9  C9  DEN d   1       0.582  -2.364   0.067  0.00  0.00    -0.072 A 
ENDROOT
TORSDOF 0
ENDMDL
