MODEL 1
REMARK minimizedAffinity 1.46228099
REMARK minimizedRMSD -1
REMARK  0 active torsions:
REMARK  status: ('A' for Active; 'I' for Inactive)
ROOT
ATOM      1  C1  DEN d   1      -1.054  -1.308   0.770  0.00  0.00     0.130 A 
ATOM      2  C2  DEN d   1      -1.379  -0.936   2.144  0.00  0.00    -0.031 A 
ATOM      3  C3  DEN d   1      -0.277  -0.102   2.664  0.00  0.00     0.027 A 
ATOM      4  C4  DEN d   1       1.888   0.649   1.480  0.00  0.00     0.027 A 
ATOM      5  C5  DEN d   1       2.612   0.572   0.311  0.00  0.00    -0.003 A 
ATOM      6  C6  DEN d   1       2.186  -0.159  -0.766  0.00  0.00     0.001 A 
ATOM      7  C7  DEN d   1       0.979  -0.806  -0.712  0.00  0.00     0.017 A 
ATOM      8  C8  DEN d   1       0.247  -0.739   0.466  0.00  0.00    -0.094 A 
ATOM      9  C9  DEN d   1       0.689   0.015   1.539  0.00  0.00    -0.072 A 
ENDROOT
TORSDOF 0
ENDMDL
