MODEL 1
REMARK minimizedAffinity 1.12447846
REMARK minimizedRMSD -1
REMARK  0 active torsions:
REMARK  status: ('A' for Active; 'I' for Inactive)
ROOT
ATOM      1  C1  DEN d   1       0.130  -0.494   0.898  0.00  0.00     0.130 A 
ATOM      2  C2  DEN d   1      -0.974  -1.443   1.013  0.00  0.00    -0.031 A 
ATOM      3  C3  DEN d   1      -0.458  -2.786   0.681  0.00  0.00     0.027 A 
ATOM      4  C4  DEN d   1       1.931  -3.486   0.007  0.00  0.00     0.027 A 
ATOM      5  C5  DEN d   1       3.207  -3.030  -0.237  0.00  0.00    -0.003 A 
ATOM      6  C6  DEN d   1       3.537  -1.703  -0.154  0.00  0.00     0.001 A 
ATOM      7  C7  DEN d   1       2.589  -0.791   0.226  0.00  0.00     0.017 A 
ATOM      8  C8  DEN d   1       1.298  -1.242   0.467  0.00  0.00    -0.094 A 
ATOM      9  C9  DEN d   1       0.987  -2.589   0.389  0.00  0.00    -0.072 A 
ENDROOT
TORSDOF 0
ENDMDL
