MODEL 1
REMARK minimizedAffinity -0.18623203
REMARK minimizedRMSD -1
REMARK  0 active torsions:
REMARK  status: ('A' for Active; 'I' for Inactive)
ROOT
ATOM      1  C1  DEN d   1       2.355  -4.324  -0.095  0.00  0.00     0.130 A 
ATOM      2  C2  DEN d   1       3.751  -3.896  -0.055  0.00  0.00    -0.031 A 
ATOM      3  C3  DEN d   1       3.775  -2.442   0.206  0.00  0.00     0.027 A 
ATOM      4  C4  DEN d   1       1.798  -0.823   0.556  0.00  0.00     0.027 A 
ATOM      5  C5  DEN d   1       0.425  -0.721   0.599  0.00  0.00    -0.003 A 
ATOM      6  C6  DEN d   1      -0.395  -1.797   0.383  0.00  0.00     0.001 A 
ATOM      7  C7  DEN d   1       0.152  -3.032   0.157  0.00  0.00     0.017 A 
ATOM      8  C8  DEN d   1       1.536  -3.142   0.104  0.00  0.00    -0.094 A 
ATOM      9  C9  DEN d   1       2.347  -2.045   0.338  0.00  0.00    -0.072 A 
ENDROOT
TORSDOF 0
ENDMDL
