MODEL 1
REMARK minimizedAffinity 6.11568451
REMARK minimizedRMSD -1
REMARK  0 active torsions:
REMARK  status: ('A' for Active; 'I' for Inactive)
ROOT
ATOM      1  C1  DEN d   1       2.705  -4.803  -0.478  0.00  0.00     0.130 A 
ATOM      2  C2  DEN d   1       3.919  -4.253   0.119  0.00  0.00    -0.031 A 
ATOM      3  C3  DEN d   1       3.579  -2.949   0.724  0.00  0.00     0.027 A 
ATOM      4  C4  DEN d   1       1.303  -1.739   0.798  0.00  0.00     0.027 A 
ATOM      5  C5  DEN d   1      -0.019  -1.809   0.417  0.00  0.00    -0.003 A 
ATOM      6  C6  DEN d   1      -0.514  -2.857  -0.313  0.00  0.00     0.001 A 
ATOM      7  C7  DEN d   1       0.309  -3.900  -0.646  0.00  0.00     0.017 A 
ATOM      8  C8  DEN d   1       1.645  -3.833  -0.271  0.00  0.00    -0.094 A 
ATOM      9  C9  DEN d   1       2.123  -2.771   0.477  0.00  0.00    -0.072 A 
ENDROOT
TORSDOF 0
ENDMDL
