MODEL 1
REMARK minimizedAffinity -0.131989524
REMARK minimizedRMSD -1
REMARK  0 active torsions:
REMARK  status: ('A' for Active; 'I' for Inactive)
ROOT
ATOM      1  C1  DEN d   1       0.444  -3.896   0.354  0.00  0.00     0.130 A 
ATOM      2  C2  DEN d   1       1.870  -4.172   0.205  0.00  0.00    -0.031 A 
ATOM      3  C3  DEN d   1       2.603  -2.903   0.389  0.00  0.00     0.027 A 
ATOM      4  C4  DEN d   1       1.672  -0.551   0.892  0.00  0.00     0.027 A 
ATOM      5  C5  DEN d   1       0.524   0.182   1.095  0.00  0.00    -0.003 A 
ATOM      6  C6  DEN d   1      -0.723  -0.381   1.032  0.00  0.00     0.001 A 
ATOM      7  C7  DEN d   1      -0.849  -1.726   0.804  0.00  0.00     0.017 A 
ATOM      8  C8  DEN d   1       0.304  -2.471   0.591  0.00  0.00    -0.094 A 
ATOM      9  C9  DEN d   1       1.556  -1.885   0.671  0.00  0.00    -0.072 A 
ENDROOT
TORSDOF 0
ENDMDL
