MODEL 1
REMARK minimizedAffinity 0.970744491
REMARK minimizedRMSD -1
REMARK  0 active torsions:
REMARK  status: ('A' for Active; 'I' for Inactive)
ROOT
ATOM      1  C1  DEN d   1       2.751  -3.377   0.480  0.00  0.00     0.130 A 
ATOM      2  C2  DEN d   1       1.661  -4.323   0.258  0.00  0.00    -0.031 A 
ATOM      3  C3  DEN d   1       0.386  -3.613   0.484  0.00  0.00     0.027 A 
ATOM      4  C4  DEN d   1      -0.005  -1.152   1.147  0.00  0.00     0.027 A 
ATOM      5  C5  DEN d   1       0.614   0.039   1.459  0.00  0.00    -0.003 A 
ATOM      6  C6  DEN d   1       1.977   0.164   1.500  0.00  0.00     0.001 A 
ATOM      7  C7  DEN d   1       2.768  -0.908   1.179  0.00  0.00     0.017 A 
ATOM      8  C8  DEN d   1       2.151  -2.113   0.871  0.00  0.00    -0.094 A 
ATOM      9  C9  DEN d   1       0.771  -2.217   0.823  0.00  0.00    -0.072 A 
ENDROOT
TORSDOF 0
ENDMDL
