MODEL 1
REMARK minimizedAffinity 3.09345889
REMARK minimizedRMSD -1
REMARK  0 active torsions:
REMARK  status: ('A' for Active; 'I' for Inactive)
ROOT
ATOM      1  C1  DEN d   1       5.378  -4.496  -0.394  0.00  0.00     0.130 A 
ATOM      2  C2  DEN d   1       5.081  -5.898  -0.114  0.00  0.00    -0.031 A 
ATOM      3  C3  DEN d   1       3.653  -5.999   0.249  0.00  0.00     0.027 A 
ATOM      4  C4  DEN d   1       1.882  -4.130   0.399  0.00  0.00     0.027 A 
ATOM      5  C5  DEN d   1       1.664  -2.777   0.263  0.00  0.00    -0.003 A 
ATOM      6  C6  DEN d   1       2.667  -1.904  -0.065  0.00  0.00     0.001 A 
ATOM      7  C7  DEN d   1       3.927  -2.382  -0.313  0.00  0.00     0.017 A 
ATOM      8  C8  DEN d   1       4.157  -3.744  -0.171  0.00  0.00    -0.094 A 
ATOM      9  C9  DEN d   1       3.126  -4.611   0.149  0.00  0.00    -0.072 A 
ENDROOT
TORSDOF 0
ENDMDL
