MODEL 1
REMARK minimizedAffinity -3.94712353
REMARK minimizedRMSD -1
REMARK  0 active torsions:
REMARK  status: ('A' for Active; 'I' for Inactive)
ROOT
ATOM      1  C1  DEN d   1      -0.712  -1.792   1.072  0.00  0.00     0.130 A 
ATOM      2  C2  DEN d   1      -0.543  -0.367   1.342  0.00  0.00    -0.031 A 
ATOM      3  C3  DEN d   1       0.863  -0.013   1.062  0.00  0.00     0.027 A 
ATOM      4  C4  DEN d   1       2.783  -1.524   0.235  0.00  0.00     0.027 A 
ATOM      5  C5  DEN d   1       3.125  -2.809  -0.123  0.00  0.00    -0.003 A 
ATOM      6  C6  DEN d   1       2.229  -3.843  -0.076  0.00  0.00     0.001 A 
ATOM      7  C7  DEN d   1       0.932  -3.602   0.296  0.00  0.00     0.017 A 
ATOM      8  C8  DEN d   1       0.582  -2.310   0.665  0.00  0.00    -0.094 A 
ATOM      9  C9  DEN d   1       1.499  -1.275   0.599  0.00  0.00    -0.072 A 
ENDROOT
TORSDOF 0
ENDMDL
