MODEL 1
REMARK minimizedAffinity -2.34175491
REMARK minimizedRMSD -1
REMARK  0 active torsions:
REMARK  status: ('A' for Active; 'I' for Inactive)
ROOT
ATOM      1  C1  DEN d   1       0.996  -0.296   1.449  0.00  0.00     0.130 A 
ATOM      2  C2  DEN d   1      -0.459  -0.330   1.330  0.00  0.00    -0.031 A 
ATOM      3  C3  DEN d   1      -0.834  -1.592   0.662  0.00  0.00     0.027 A 
ATOM      4  C4  DEN d   1       0.689  -3.490  -0.193  0.00  0.00     0.027 A 
ATOM      5  C5  DEN d   1       1.995  -3.907  -0.326  0.00  0.00    -0.003 A 
ATOM      6  C6  DEN d   1       3.053  -3.142   0.089  0.00  0.00     0.001 A 
ATOM      7  C7  DEN d   1       2.820  -1.937   0.699  0.00  0.00     0.017 A 
ATOM      8  C8  DEN d   1       1.507  -1.506   0.830  0.00  0.00    -0.094 A 
ATOM      9  C9  DEN d   1       0.451  -2.300   0.415  0.00  0.00    -0.072 A 
ENDROOT
TORSDOF 0
ENDMDL
