MODEL 1
REMARK minimizedAffinity 1.86334729
REMARK minimizedRMSD -1
REMARK  0 active torsions:
REMARK  status: ('A' for Active; 'I' for Inactive)
ROOT
ATOM      1  C1  DEN d   1       3.153  -5.315  -0.199  0.00  0.00     0.130 A 
ATOM      2  C2  DEN d   1       4.574  -4.980  -0.251  0.00  0.00    -0.031 A 
ATOM      3  C3  DEN d   1       4.702  -3.515  -0.113  0.00  0.00     0.027 A 
ATOM      4  C4  DEN d   1       2.850  -1.744   0.181  0.00  0.00     0.027 A 
ATOM      5  C5  DEN d   1       1.490  -1.547   0.272  0.00  0.00    -0.003 A 
ATOM      6  C6  DEN d   1       0.595  -2.579   0.179  0.00  0.00     0.001 A 
ATOM      7  C7  DEN d   1       1.051  -3.863   0.035  0.00  0.00     0.017 A 
ATOM      8  C8  DEN d   1       2.421  -4.069  -0.065  0.00  0.00    -0.094 A 
ATOM      9  C9  DEN d   1       3.311  -3.014   0.043  0.00  0.00    -0.072 A 
ENDROOT
TORSDOF 0
ENDMDL
