MODEL 1
REMARK minimizedAffinity -1.02032542
REMARK minimizedRMSD -1
REMARK  0 active torsions:
REMARK  status: ('A' for Active; 'I' for Inactive)
ROOT
ATOM      1  C1  DEN d   1      -0.598  -1.883   0.941  0.00  0.00     0.130 A 
ATOM      2  C2  DEN d   1      -0.387  -0.479   1.283  0.00  0.00    -0.031 A 
ATOM      3  C3  DEN d   1       1.039  -0.166   1.067  0.00  0.00     0.027 A 
ATOM      4  C4  DEN d   1       2.931  -1.709   0.235  0.00  0.00     0.027 A 
ATOM      5  C5  DEN d   1       3.239  -2.988  -0.172  0.00  0.00    -0.003 A 
ATOM      6  C6  DEN d   1       2.305  -3.989  -0.203  0.00  0.00     0.001 A 
ATOM      7  C7  DEN d   1       1.006  -3.716   0.135  0.00  0.00     0.017 A 
ATOM      8  C8  DEN d   1       0.689  -2.430   0.554  0.00  0.00    -0.094 A 
ATOM      9  C9  DEN d   1       1.646  -1.429   0.567  0.00  0.00    -0.072 A 
ENDROOT
TORSDOF 0
ENDMDL
