MODEL 1
REMARK minimizedAffinity 9.63734055
REMARK minimizedRMSD -1
REMARK  0 active torsions:
REMARK  status: ('A' for Active; 'I' for Inactive)
ROOT
ATOM      1  C1  DEN d   1      -1.380   2.820   1.945  0.00  0.00     0.130 A 
ATOM      2  C2  DEN d   1      -1.773   4.008   1.192  0.00  0.00    -0.031 A 
ATOM      3  C3  DEN d   1      -2.767   3.599   0.180  0.00  0.00     0.027 A 
ATOM      4  C4  DEN d   1      -3.733   1.254  -0.290  0.00  0.00     0.027 A 
ATOM      5  C5  DEN d   1      -3.695  -0.071   0.083  0.00  0.00    -0.003 A 
ATOM      6  C6  DEN d   1      -2.864  -0.528   1.071  0.00  0.00     0.001 A 
ATOM      7  C7  DEN d   1      -2.070   0.356   1.753  0.00  0.00     0.017 A 
ATOM      8  C8  DEN d   1      -2.098   1.693   1.377  0.00  0.00    -0.094 A 
ATOM      9  C9  DEN d   1      -2.954   2.137   0.384  0.00  0.00    -0.072 A 
ENDROOT
TORSDOF 0
ENDMDL
