MODEL 1
REMARK minimizedAffinity -3.74168444
REMARK minimizedRMSD -1
REMARK  0 active torsions:
REMARK  status: ('A' for Active; 'I' for Inactive)
ROOT
ATOM      1  C1  DEN d   1      -0.802  -3.001   0.345  0.00  0.00     0.130 A 
ATOM      2  C2  DEN d   1      -1.352  -1.691   0.684  0.00  0.00    -0.031 A 
ATOM      3  C3  DEN d   1      -0.227  -0.746   0.825  0.00  0.00     0.027 A 
ATOM      4  C4  DEN d   1       2.301  -1.179   0.547  0.00  0.00     0.027 A 
ATOM      5  C5  DEN d   1       3.252  -2.136   0.273  0.00  0.00    -0.003 A 
ATOM      6  C6  DEN d   1       2.924  -3.445   0.038  0.00  0.00     0.001 A 
ATOM      7  C7  DEN d   1       1.607  -3.824   0.029  0.00  0.00     0.017 A 
ATOM      8  C8  DEN d   1       0.643  -2.866   0.313  0.00  0.00    -0.094 A 
ATOM      9  C9  DEN d   1       0.994  -1.545   0.535  0.00  0.00    -0.072 A 
ENDROOT
TORSDOF 0
ENDMDL
