MODEL 1
REMARK minimizedAffinity -3.02108073
REMARK minimizedRMSD -1
REMARK  0 active torsions:
REMARK  status: ('A' for Active; 'I' for Inactive)
ROOT
ATOM      1  C1  DEN d   1      -1.006  -1.699   1.036  0.00  0.00     0.130 A 
ATOM      2  C2  DEN d   1      -0.581  -0.337   1.347  0.00  0.00    -0.031 A 
ATOM      3  C3  DEN d   1       0.860  -0.228   1.045  0.00  0.00     0.027 A 
ATOM      4  C4  DEN d   1       2.465  -2.025   0.125  0.00  0.00     0.027 A 
ATOM      5  C5  DEN d   1       2.567  -3.337  -0.282  0.00  0.00    -0.003 A 
ATOM      6  C6  DEN d   1       1.502  -4.197  -0.247  0.00  0.00     0.001 A 
ATOM      7  C7  DEN d   1       0.276  -3.743   0.163  0.00  0.00     0.017 A 
ATOM      8  C8  DEN d   1       0.167  -2.423   0.582  0.00  0.00    -0.094 A 
ATOM      9  C9  DEN d   1       1.253  -1.566   0.528  0.00  0.00    -0.072 A 
ENDROOT
TORSDOF 0
ENDMDL
