MODEL 1
REMARK minimizedAffinity -0.366359502
REMARK minimizedRMSD -1
REMARK  0 active torsions:
REMARK  status: ('A' for Active; 'I' for Inactive)
ROOT
ATOM      1  C1  DEN d   1      -0.070   0.104   0.760  0.00  0.00     0.130 A 
ATOM      2  C2  DEN d   1      -1.336  -0.581   1.005  0.00  0.00    -0.031 A 
ATOM      3  C3  DEN d   1      -1.126  -2.024   0.773  0.00  0.00     0.027 A 
ATOM      4  C4  DEN d   1       1.025  -3.259   0.066  0.00  0.00     0.027 A 
ATOM      5  C5  DEN d   1       2.351  -3.100  -0.271  0.00  0.00    -0.003 A 
ATOM      6  C6  DEN d   1       2.950  -1.869  -0.320  0.00  0.00     0.001 A 
ATOM      7  C7  DEN d   1       2.232  -0.751   0.016  0.00  0.00     0.017 A 
ATOM      8  C8  DEN d   1       0.893  -0.903   0.349  0.00  0.00    -0.094 A 
ATOM      9  C9  DEN d   1       0.309  -2.157   0.406  0.00  0.00    -0.072 A 
ENDROOT
TORSDOF 0
ENDMDL
