MODEL 1
REMARK minimizedAffinity -0.75226742
REMARK minimizedRMSD -1
REMARK  0 active torsions:
REMARK  status: ('A' for Active; 'I' for Inactive)
ROOT
ATOM      1  N1  IND d   1      -5.175   6.000  -3.345  0.00  0.00    -0.196 N 
ATOM      2  C2  IND d   1      -4.794   5.987  -2.032  0.00  0.00     0.054 A 
ATOM      3  C3  IND d   1      -3.446   5.947  -1.934  0.00  0.00    -0.031 A 
ATOM      4  C4  IND d   1      -1.669   6.000  -3.795  0.00  0.00     0.051 A 
ATOM      5  C5  IND d   1      -1.531   5.976  -5.155  0.00  0.00    -0.031 A 
ATOM      6  C6  IND d   1      -2.624   5.961  -5.998  0.00  0.00     0.015 A 
ATOM      7  C7  IND d   1      -3.900   5.981  -5.510  0.00  0.00    -0.016 A 
ATOM      8  C8  IND d   1      -4.043   5.999  -4.130  0.00  0.00    -0.047 A 
ATOM      9  C9  IND d   1      -2.939   5.971  -3.269  0.00  0.00    -0.096 A 
ATOM     10  HN1 IND d   1      -5.986   6.008  -3.632  0.00  0.00     0.298 HD
ENDROOT
TORSDOF 0
ENDMDL
