MODEL 1
REMARK minimizedAffinity 6.14427185
REMARK minimizedRMSD -1
REMARK  0 active torsions:
REMARK  status: ('A' for Active; 'I' for Inactive)
ROOT
ATOM      1  N1  IND d   1      -1.870   0.910   3.368  0.00  0.00    -0.196 N 
ATOM      2  C2  IND d   1      -1.952   1.276   4.683  0.00  0.00     0.054 A 
ATOM      3  C3  IND d   1      -2.967   0.622   5.290  0.00  0.00    -0.031 A 
ATOM      4  C4  IND d   1      -4.557  -1.169   4.346  0.00  0.00     0.051 A 
ATOM      5  C5  IND d   1      -4.893  -1.807   3.184  0.00  0.00    -0.031 A 
ATOM      6  C6  IND d   1      -4.223  -1.569   2.002  0.00  0.00     0.015 A 
ATOM      7  C7  IND d   1      -3.180  -0.689   1.939  0.00  0.00    -0.016 A 
ATOM      8  C8  IND d   1      -2.841  -0.034   3.114  0.00  0.00    -0.047 A 
ATOM      9  C9  IND d   1      -3.544  -0.240   4.308  0.00  0.00    -0.096 A 
ATOM     10  HN1 IND d   1      -1.306   1.217   2.796  0.00  0.00     0.298 HD
ENDROOT
TORSDOF 0
ENDMDL
