MODEL 1
REMARK minimizedAffinity 8.4050951
REMARK minimizedRMSD -1
REMARK  0 active torsions:
REMARK  status: ('A' for Active; 'I' for Inactive)
ROOT
ATOM      1  N1  IND d   1      -3.642   0.468   5.968  0.00  0.00    -0.196 N 
ATOM      2  C2  IND d   1      -2.602   1.156   5.407  0.00  0.00     0.054 A 
ATOM      3  C3  IND d   1      -2.475   0.833   4.100  0.00  0.00    -0.031 A 
ATOM      4  C4  IND d   1      -3.928  -0.722   2.651  0.00  0.00     0.051 A 
ATOM      5  C5  IND d   1      -4.971  -1.602   2.727  0.00  0.00    -0.031 A 
ATOM      6  C6  IND d   1      -5.639  -1.839   3.911  0.00  0.00     0.015 A 
ATOM      7  C7  IND d   1      -5.295  -1.195   5.065  0.00  0.00    -0.016 A 
ATOM      8  C8  IND d   1      -4.232  -0.306   4.993  0.00  0.00    -0.047 A 
ATOM      9  C9  IND d   1      -3.523  -0.092   3.805  0.00  0.00    -0.096 A 
ATOM     10  HN1 IND d   1      -3.886   0.511   6.792  0.00  0.00     0.298 HD
ENDROOT
TORSDOF 0
ENDMDL
