MODEL 1
REMARK minimizedAffinity 16.9446564
REMARK minimizedRMSD -1
REMARK  0 active torsions:
REMARK  status: ('A' for Active; 'I' for Inactive)
ROOT
ATOM      1  N1  IND d   1      -5.994   0.403  -3.771  0.00  0.00    -0.196 N 
ATOM      2  C2  IND d   1      -5.998  -0.962  -3.839  0.00  0.00     0.054 A 
ATOM      3  C3  IND d   1      -5.800  -1.494  -2.612  0.00  0.00    -0.031 A 
ATOM      4  C4  IND d   1      -5.546  -0.313  -0.338  0.00  0.00     0.051 A 
ATOM      5  C5  IND d   1      -5.440   0.928   0.225  0.00  0.00    -0.031 A 
ATOM      6  C6  IND d   1      -5.516   2.080  -0.530  0.00  0.00     0.015 A 
ATOM      7  C7  IND d   1      -5.715   2.035  -1.881  0.00  0.00    -0.016 A 
ATOM      8  C8  IND d   1      -5.817   0.777  -2.457  0.00  0.00    -0.047 A 
ATOM      9  C9  IND d   1      -5.697  -0.397  -1.702  0.00  0.00    -0.096 A 
ATOM     10  HN1 IND d   1      -6.086   0.939  -4.438  0.00  0.00     0.298 HD
ENDROOT
TORSDOF 0
ENDMDL
