MODEL 1
REMARK minimizedAffinity 17.1279278
REMARK minimizedRMSD -1
REMARK  0 active torsions:
REMARK  status: ('A' for Active; 'I' for Inactive)
ROOT
ATOM      1  N1  IND d   1       3.387   2.495  -3.236  0.00  0.00    -0.196 N 
ATOM      2  C2  IND d   1       2.232   3.117  -3.620  0.00  0.00     0.054 A 
ATOM      3  C3  IND d   1       1.287   2.988  -2.662  0.00  0.00    -0.031 A 
ATOM      4  C4  IND d   1       1.450   1.886  -0.341  0.00  0.00     0.051 A 
ATOM      5  C5  IND d   1       2.293   1.153   0.446  0.00  0.00    -0.031 A 
ATOM      6  C6  IND d   1       3.570   0.825   0.039  0.00  0.00     0.015 A 
ATOM      7  C7  IND d   1       4.058   1.230  -1.171  0.00  0.00    -0.016 A 
ATOM      8  C8  IND d   1       3.203   1.969  -1.976  0.00  0.00    -0.047 A 
ATOM      9  C9  IND d   1       1.891   2.268  -1.586  0.00  0.00    -0.096 A 
ATOM     10  HN1 IND d   1       4.107   2.442  -3.702  0.00  0.00     0.298 HD
ENDROOT
TORSDOF 0
ENDMDL
