MODEL 1
REMARK minimizedAffinity 15.6754408
REMARK minimizedRMSD -1
REMARK  0 active torsions:
REMARK  status: ('A' for Active; 'I' for Inactive)
ROOT
ATOM      1  N1  IND d   1      -0.724   0.473   4.141  0.00  0.00    -0.196 N 
ATOM      2  C2  IND d   1      -1.963   0.976   4.428  0.00  0.00     0.054 A 
ATOM      3  C3  IND d   1      -2.865   0.551   3.515  0.00  0.00    -0.031 A 
ATOM      4  C4  IND d   1      -2.549  -1.055   1.528  0.00  0.00     0.051 A 
ATOM      5  C5  IND d   1      -1.589  -1.744   0.842  0.00  0.00    -0.031 A 
ATOM      6  C6  IND d   1      -0.265  -1.731   1.230  0.00  0.00     0.015 A 
ATOM      7  C7  IND d   1       0.148  -1.035   2.331  0.00  0.00    -0.016 A 
ATOM      8  C8  IND d   1      -0.823  -0.328   3.025  0.00  0.00    -0.047 A 
ATOM      9  C9  IND d   1      -2.161  -0.303   2.611  0.00  0.00    -0.096 A 
ATOM     10  HN1 IND d   1      -0.004   0.631   4.584  0.00  0.00     0.298 HD
ENDROOT
TORSDOF 0
ENDMDL
