MODEL 1
REMARK minimizedAffinity 5.33301163
REMARK minimizedRMSD -1
REMARK  0 active torsions:
REMARK  status: ('A' for Active; 'I' for Inactive)
ROOT
ATOM      1  N1  IND d   1      -4.907  -2.765   2.917  0.00  0.00    -0.196 N 
ATOM      2  C2  IND d   1      -4.499  -3.503   1.841  0.00  0.00     0.054 A 
ATOM      3  C3  IND d   1      -4.562  -4.823   2.126  0.00  0.00    -0.031 A 
ATOM      4  C4  IND d   1      -5.402  -5.999   4.256  0.00  0.00     0.051 A 
ATOM      5  C5  IND d   1      -5.842  -5.745   5.525  0.00  0.00    -0.031 A 
ATOM      6  C6  IND d   1      -5.999  -4.458   5.998  0.00  0.00     0.015 A 
ATOM      7  C7  IND d   1      -5.731  -3.373   5.212  0.00  0.00    -0.016 A 
ATOM      8  C8  IND d   1      -5.277  -3.628   3.926  0.00  0.00    -0.047 A 
ATOM      9  C9  IND d   1      -5.076  -4.931   3.454  0.00  0.00    -0.096 A 
ATOM     10  HN1 IND d   1      -4.929  -1.906   2.957  0.00  0.00     0.298 HD
ENDROOT
TORSDOF 0
ENDMDL
