MODEL 1
REMARK minimizedAffinity 19.9381733
REMARK minimizedRMSD -1
REMARK  0 active torsions:
REMARK  status: ('A' for Active; 'I' for Inactive)
ROOT
ATOM      1  N1  IND d   1       4.249   3.732   1.615  0.00  0.00    -0.196 N 
ATOM      2  C2  IND d   1       5.612   3.632   1.610  0.00  0.00     0.054 A 
ATOM      3  C3  IND d   1       6.000   2.517   0.949  0.00  0.00    -0.031 A 
ATOM      4  C4  IND d   1       4.570   0.771  -0.290  0.00  0.00     0.051 A 
ATOM      5  C5  IND d   1       3.273   0.417  -0.532  0.00  0.00    -0.031 A 
ATOM      6  C6  IND d   1       2.213   1.167  -0.064  0.00  0.00     0.015 A 
ATOM      7  C7  IND d   1       2.412   2.309   0.658  0.00  0.00    -0.016 A 
ATOM      8  C8  IND d   1       3.729   2.668   0.912  0.00  0.00    -0.047 A 
ATOM      9  C9  IND d   1       4.808   1.888   0.476  0.00  0.00    -0.096 A 
ATOM     10  HN1 IND d   1       3.793   4.355   1.994  0.00  0.00     0.298 HD
ENDROOT
TORSDOF 0
ENDMDL
