MODEL 1
REMARK minimizedAffinity 6.18741941
REMARK minimizedRMSD -1
REMARK  0 active torsions:
REMARK  status: ('A' for Active; 'I' for Inactive)
ROOT
ATOM      1  N1  IND d   1       1.509  -1.346   4.198  0.00  0.00    -0.196 N 
ATOM      2  C2  IND d   1       2.104  -2.324   3.453  0.00  0.00     0.054 A 
ATOM      3  C3  IND d   1       1.343  -2.626   2.377  0.00  0.00    -0.031 A 
ATOM      4  C4  IND d   1      -0.867  -1.566   1.590  0.00  0.00     0.051 A 
ATOM      5  C5  IND d   1      -1.820  -0.660   1.962  0.00  0.00    -0.031 A 
ATOM      6  C6  IND d   1      -1.709   0.081   3.121  0.00  0.00     0.015 A 
ATOM      7  C7  IND d   1      -0.629  -0.049   3.948  0.00  0.00    -0.016 A 
ATOM      8  C8  IND d   1       0.337  -0.974   3.577  0.00  0.00    -0.047 A 
ATOM      9  C9  IND d   1       0.208  -1.759   2.424  0.00  0.00    -0.096 A 
ATOM     10  HN1 IND d   1       1.814  -1.018   4.932  0.00  0.00     0.298 HD
ENDROOT
TORSDOF 0
ENDMDL
