MODEL 1
REMARK minimizedAffinity 6.04957771
REMARK minimizedRMSD -1
REMARK  0 active torsions:
REMARK  status: ('A' for Active; 'I' for Inactive)
ROOT
ATOM      1  N1  IND d   1       0.071  -1.358   4.264  0.00  0.00    -0.196 N 
ATOM      2  C2  IND d   1       0.951  -2.389   4.435  0.00  0.00     0.054 A 
ATOM      3  C3  IND d   1       0.880  -3.247   3.393  0.00  0.00    -0.031 A 
ATOM      4  C4  IND d   1      -0.537  -3.100   1.248  0.00  0.00     0.051 A 
ATOM      5  C5  IND d   1      -1.520  -2.358   0.656  0.00  0.00    -0.031 A 
ATOM      6  C6  IND d   1      -2.031  -1.220   1.246  0.00  0.00     0.015 A 
ATOM      7  C7  IND d   1      -1.569  -0.774   2.451  0.00  0.00    -0.016 A 
ATOM      8  C8  IND d   1      -0.576  -1.528   3.060  0.00  0.00    -0.047 A 
ATOM      9  C9  IND d   1      -0.083  -2.707   2.485  0.00  0.00    -0.096 A 
ATOM     10  HN1 IND d   1      -0.058  -0.711   4.816  0.00  0.00     0.298 HD
ENDROOT
TORSDOF 0
ENDMDL
