MODEL 1
REMARK minimizedAffinity 11.0376062
REMARK minimizedRMSD -1
REMARK  0 active torsions:
REMARK  status: ('A' for Active; 'I' for Inactive)
ROOT
ATOM      1  N1  IND d   1      -4.372   0.150  -0.930  0.00  0.00    -0.196 N 
ATOM      2  C2  IND d   1      -3.793  -0.488  -1.992  0.00  0.00     0.054 A 
ATOM      3  C3  IND d   1      -2.576  -0.965  -1.646  0.00  0.00    -0.031 A 
ATOM      4  C4  IND d   1      -1.382  -0.903   0.634  0.00  0.00     0.051 A 
ATOM      5  C5  IND d   1      -1.499  -0.397   1.898  0.00  0.00    -0.031 A 
ATOM      6  C6  IND d   1      -2.604   0.330   2.292  0.00  0.00     0.015 A 
ATOM      7  C7  IND d   1      -3.642   0.569   1.437  0.00  0.00    -0.016 A 
ATOM      8  C8  IND d   1      -3.523   0.063   0.151  0.00  0.00    -0.047 A 
ATOM      9  C9  IND d   1      -2.386  -0.639  -0.268  0.00  0.00    -0.096 A 
ATOM     10  HN1 IND d   1      -5.138   0.541  -0.937  0.00  0.00     0.298 HD
ENDROOT
TORSDOF 0
ENDMDL
