MODEL 1
REMARK minimizedAffinity 15.6281652
REMARK minimizedRMSD -1
REMARK  0 active torsions:
REMARK  status: ('A' for Active; 'I' for Inactive)
ROOT
ATOM      1  N1  IND d   1      -2.242   1.279   2.275  0.00  0.00    -0.196 N 
ATOM      2  C2  IND d   1      -3.551   0.978   2.019  0.00  0.00     0.054 A 
ATOM      3  C3  IND d   1      -3.650  -0.248   1.456  0.00  0.00    -0.031 A 
ATOM      4  C4  IND d   1      -1.806  -1.973   0.959  0.00  0.00     0.051 A 
ATOM      5  C5  IND d   1      -0.449  -2.138   0.985  0.00  0.00    -0.031 A 
ATOM      6  C6  IND d   1       0.396  -1.153   1.455  0.00  0.00     0.015 A 
ATOM      7  C7  IND d   1      -0.087   0.034   1.928  0.00  0.00    -0.016 A 
ATOM      8  C8  IND d   1      -1.464   0.207   1.897  0.00  0.00    -0.047 A 
ATOM      9  C9  IND d   1      -2.323  -0.772   1.382  0.00  0.00    -0.096 A 
ATOM     10  HN1 IND d   1      -1.954   2.014   2.615  0.00  0.00     0.298 HD
ENDROOT
TORSDOF 0
ENDMDL
