MODEL 1
REMARK minimizedAffinity 18.5807056
REMARK minimizedRMSD -1
REMARK  0 active torsions:
REMARK  status: ('A' for Active; 'I' for Inactive)
ROOT
ATOM      1  N1  IND d   1      -2.107  -5.994  -5.868  0.00  0.00    -0.196 N 
ATOM      2  C2  IND d   1      -3.465  -5.999  -5.720  0.00  0.00     0.054 A 
ATOM      3  C3  IND d   1      -3.828  -5.218  -4.677  0.00  0.00    -0.031 A 
ATOM      4  C4  IND d   1      -2.366  -3.759  -3.141  0.00  0.00     0.051 A 
ATOM      5  C5  IND d   1      -1.062  -3.456  -2.864  0.00  0.00    -0.031 A 
ATOM      6  C6  IND d   1      -0.019  -3.992  -3.592  0.00  0.00     0.015 A 
ATOM      7  C7  IND d   1      -0.242  -4.846  -4.634  0.00  0.00    -0.016 A 
ATOM      8  C8  IND d   1      -1.565  -5.162  -4.913  0.00  0.00    -0.047 A 
ATOM      9  C9  IND d   1      -2.625  -4.654  -4.152  0.00  0.00    -0.096 A 
ATOM     10  HN1 IND d   1      -1.665  -6.436  -6.459  0.00  0.00     0.298 HD
ENDROOT
TORSDOF 0
ENDMDL
