MODEL 1
REMARK minimizedAffinity 4.58001661
REMARK minimizedRMSD -1
REMARK  0 active torsions:
REMARK  status: ('A' for Active; 'I' for Inactive)
ROOT
ATOM      1  N1  IND d   1      -6.000  -5.986   4.732  0.00  0.00    -0.196 N 
ATOM      2  C2  IND d   1      -5.972  -5.471   5.998  0.00  0.00     0.054 A 
ATOM      3  C3  IND d   1      -5.396  -4.248   5.996  0.00  0.00    -0.031 A 
ATOM      4  C4  IND d   1      -4.520  -2.856   4.015  0.00  0.00     0.051 A 
ATOM      5  C5  IND d   1      -4.297  -2.920   2.669  0.00  0.00    -0.031 A 
ATOM      6  C6  IND d   1      -4.640  -4.031   1.925  0.00  0.00     0.015 A 
ATOM      7  C7  IND d   1      -5.231  -5.119   2.502  0.00  0.00    -0.016 A 
ATOM      8  C8  IND d   1      -5.452  -5.060   3.870  0.00  0.00    -0.047 A 
ATOM      9  C9  IND d   1      -5.068  -3.953   4.637  0.00  0.00    -0.096 A 
ATOM     10  HN1 IND d   1      -6.307  -6.758   4.511  0.00  0.00     0.298 HD
ENDROOT
TORSDOF 0
ENDMDL
