MODEL 1
REMARK minimizedAffinity 16.5137577
REMARK minimizedRMSD -1
REMARK  0 active torsions:
REMARK  status: ('A' for Active; 'I' for Inactive)
ROOT
ATOM      1  N1  IND d   1      -2.729   1.067   3.588  0.00  0.00    -0.196 N 
ATOM      2  C2  IND d   1      -3.782   1.209   2.728  0.00  0.00     0.054 A 
ATOM      3  C3  IND d   1      -3.668   0.340   1.698  0.00  0.00    -0.031 A 
ATOM      4  C4  IND d   1      -1.890  -1.473   1.277  0.00  0.00     0.051 A 
ATOM      5  C5  IND d   1      -0.710  -1.959   1.766  0.00  0.00    -0.031 A 
ATOM      6  C6  IND d   1      -0.133  -1.453   2.913  0.00  0.00     0.015 A 
ATOM      7  C7  IND d   1      -0.723  -0.445   3.622  0.00  0.00    -0.016 A 
ATOM      8  C8  IND d   1      -1.917   0.056   3.124  0.00  0.00    -0.047 A 
ATOM      9  C9  IND d   1      -2.486  -0.425   1.937  0.00  0.00    -0.096 A 
ATOM     10  HN1 IND d   1      -2.596   1.532   4.299  0.00  0.00     0.298 HD
ENDROOT
TORSDOF 0
ENDMDL
