MODEL 1
REMARK minimizedAffinity 15.0673037
REMARK minimizedRMSD -1
REMARK  0 active torsions:
REMARK  status: ('A' for Active; 'I' for Inactive)
ROOT
ATOM      1  N1  IND d   1       0.157   4.895  -2.680  0.00  0.00    -0.196 N 
ATOM      2  C2  IND d   1       0.377   5.889  -1.767  0.00  0.00     0.054 A 
ATOM      3  C3  IND d   1       1.698   6.000  -1.502  0.00  0.00    -0.031 A 
ATOM      4  C4  IND d   1       3.685   4.724  -2.527  0.00  0.00     0.051 A 
ATOM      5  C5  IND d   1       3.982   3.695  -3.376  0.00  0.00    -0.031 A 
ATOM      6  C6  IND d   1       2.999   3.002  -4.053  0.00  0.00     0.015 A 
ATOM      7  C7  IND d   1       1.678   3.320  -3.913  0.00  0.00    -0.016 A 
ATOM      8  C8  IND d   1       1.373   4.360  -3.046  0.00  0.00    -0.047 A 
ATOM      9  C9  IND d   1       2.362   5.039  -2.324  0.00  0.00    -0.096 A 
ATOM     10  HN1 IND d   1      -0.611   4.647  -2.976  0.00  0.00     0.298 HD
ENDROOT
TORSDOF 0
ENDMDL
