MODEL 1
REMARK minimizedAffinity 14.1498957
REMARK minimizedRMSD -1
REMARK  0 active torsions:
REMARK  status: ('A' for Active; 'I' for Inactive)
ROOT
ATOM      1  N1  IND d   1      -0.780  -2.550   1.906  0.00  0.00    -0.196 N 
ATOM      2  C2  IND d   1      -0.360  -1.257   1.760  0.00  0.00     0.054 A 
ATOM      3  C3  IND d   1      -1.328  -0.511   1.183  0.00  0.00    -0.031 A 
ATOM      4  C4  IND d   1      -3.714  -1.181   0.487  0.00  0.00     0.051 A 
ATOM      5  C5  IND d   1      -4.544  -2.262   0.390  0.00  0.00    -0.031 A 
ATOM      6  C6  IND d   1      -4.155  -3.520   0.803  0.00  0.00     0.015 A 
ATOM      7  C7  IND d   1      -2.920  -3.741   1.343  0.00  0.00    -0.016 A 
ATOM      8  C8  IND d   1      -2.072  -2.647   1.437  0.00  0.00    -0.047 A 
ATOM      9  C9  IND d   1      -2.446  -1.377   0.980  0.00  0.00    -0.096 A 
ATOM     10  HN1 IND d   1      -0.315  -3.194   2.235  0.00  0.00     0.298 HD
ENDROOT
TORSDOF 0
ENDMDL
