MODEL 1
REMARK minimizedAffinity 13.5371313
REMARK minimizedRMSD -1
REMARK  0 active torsions:
REMARK  status: ('A' for Active; 'I' for Inactive)
ROOT
ATOM      1  N1  IND d   1       4.936   3.307  -5.170  0.00  0.00    -0.196 N 
ATOM      2  C2  IND d   1       6.000   4.101  -4.843  0.00  0.00     0.054 A 
ATOM      3  C3  IND d   1       5.722   4.827  -3.737  0.00  0.00    -0.031 A 
ATOM      4  C4  IND d   1       3.625   4.796  -2.244  0.00  0.00     0.051 A 
ATOM      5  C5  IND d   1       2.371   4.260  -2.159  0.00  0.00    -0.031 A 
ATOM      6  C6  IND d   1       1.899   3.358  -3.091  0.00  0.00     0.015 A 
ATOM      7  C7  IND d   1       2.672   2.948  -4.141  0.00  0.00    -0.016 A 
ATOM      8  C8  IND d   1       3.943   3.497  -4.234  0.00  0.00    -0.047 A 
ATOM      9  C9  IND d   1       4.412   4.445  -3.315  0.00  0.00    -0.096 A 
ATOM     10  HN1 IND d   1       4.894   2.778  -5.847  0.00  0.00     0.298 HD
ENDROOT
TORSDOF 0
ENDMDL
