MODEL 1
REMARK minimizedAffinity 6.92631483
REMARK minimizedRMSD -1
REMARK  0 active torsions:
REMARK  status: ('A' for Active; 'I' for Inactive)
ROOT
ATOM      1  N1  IND d   1      -0.562  -0.229   2.419  0.00  0.00    -0.196 N 
ATOM      2  C2  IND d   1       0.719  -0.689   2.283  0.00  0.00     0.054 A 
ATOM      3  C3  IND d   1       1.312  -0.119   1.210  0.00  0.00    -0.031 A 
ATOM      4  C4  IND d   1       0.403   1.669  -0.403  0.00  0.00     0.051 A 
ATOM      5  C5  IND d   1      -0.730   2.372  -0.704  0.00  0.00    -0.031 A 
ATOM      6  C6  IND d   1      -1.887   2.244   0.037  0.00  0.00     0.015 A 
ATOM      7  C7  IND d   1      -1.951   1.412   1.119  0.00  0.00    -0.016 A 
ATOM      8  C8  IND d   1      -0.805   0.691   1.423  0.00  0.00    -0.047 A 
ATOM      9  C9  IND d   1       0.359   0.785   0.649  0.00  0.00    -0.096 A 
ATOM     10  HN1 IND d   1      -1.121  -0.474   3.025  0.00  0.00     0.298 HD
ENDROOT
TORSDOF 0
ENDMDL
