MODEL 1
REMARK minimizedAffinity 11.5288401
REMARK minimizedRMSD -1
REMARK  0 active torsions:
REMARK  status: ('A' for Active; 'I' for Inactive)
ROOT
ATOM      1  N1  IND d   1      -3.078  -0.652  -0.398  0.00  0.00    -0.196 N 
ATOM      2  C2  IND d   1      -3.174  -1.963  -0.022  0.00  0.00     0.054 A 
ATOM      3  C3  IND d   1      -2.116  -2.311   0.744  0.00  0.00    -0.031 A 
ATOM      4  C4  IND d   1      -0.161  -0.864   1.589  0.00  0.00     0.051 A 
ATOM      5  C5  IND d   1       0.379   0.386   1.478  0.00  0.00    -0.031 A 
ATOM      6  C6  IND d   1      -0.218   1.375   0.724  0.00  0.00     0.015 A 
ATOM      7  C7  IND d   1      -1.390   1.152   0.058  0.00  0.00    -0.016 A 
ATOM      8  C8  IND d   1      -1.938  -0.118   0.162  0.00  0.00    -0.047 A 
ATOM      9  C9  IND d   1      -1.314  -1.138   0.891  0.00  0.00    -0.096 A 
ATOM     10  HN1 IND d   1      -3.635  -0.233  -0.900  0.00  0.00     0.298 HD
ENDROOT
TORSDOF 0
ENDMDL
