MODEL 1
REMARK minimizedAffinity -2.33859611
REMARK minimizedRMSD -1
REMARK  0 active torsions:
REMARK  status: ('A' for Active; 'I' for Inactive)
ROOT
ATOM      1  N1  IND d   1      -2.783  -1.651  -3.468  0.00  0.00    -0.196 N 
ATOM      2  C2  IND d   1      -2.990  -0.398  -2.962  0.00  0.00     0.054 A 
ATOM      3  C3  IND d   1      -3.083  -0.445  -1.614  0.00  0.00    -0.031 A 
ATOM      4  C4  IND d   1      -2.825  -2.454  -0.026  0.00  0.00     0.051 A 
ATOM      5  C5  IND d   1      -2.663  -3.812  -0.023  0.00  0.00    -0.031 A 
ATOM      6  C6  IND d   1      -2.528  -4.532  -1.192  0.00  0.00     0.015 A 
ATOM      7  C7  IND d   1      -2.538  -3.918  -2.412  0.00  0.00    -0.016 A 
ATOM      8  C8  IND d   1      -2.709  -2.541  -2.419  0.00  0.00    -0.047 A 
ATOM      9  C9  IND d   1      -2.889  -1.810  -1.238  0.00  0.00    -0.096 A 
ATOM     10  HN1 IND d   1      -2.711  -1.850  -4.302  0.00  0.00     0.298 HD
ENDROOT
TORSDOF 0
ENDMDL
