MODEL 1
REMARK minimizedAffinity 11.3968744
REMARK minimizedRMSD -1
REMARK  0 active torsions:
REMARK  status: ('A' for Active; 'I' for Inactive)
ROOT
ATOM      1  N1  IND d   1      -1.989  -3.426   0.611  0.00  0.00    -0.196 N 
ATOM      2  C2  IND d   1      -2.534  -4.320  -0.268  0.00  0.00     0.054 A 
ATOM      3  C3  IND d   1      -3.233  -3.671  -1.226  0.00  0.00    -0.031 A 
ATOM      4  C4  IND d   1      -3.530  -1.142  -1.604  0.00  0.00     0.051 A 
ATOM      5  C5  IND d   1      -3.250   0.071  -1.041  0.00  0.00    -0.031 A 
ATOM      6  C6  IND d   1      -2.518   0.183   0.124  0.00  0.00     0.015 A 
ATOM      7  C7  IND d   1      -2.027  -0.919   0.765  0.00  0.00    -0.016 A 
ATOM      8  C8  IND d   1      -2.316  -2.153   0.200  0.00  0.00    -0.047 A 
ATOM      9  C9  IND d   1      -3.094  -2.275  -0.958  0.00  0.00    -0.096 A 
ATOM     10  HN1 IND d   1      -1.522  -3.626   1.305  0.00  0.00     0.298 HD
ENDROOT
TORSDOF 0
ENDMDL
