MODEL 1
REMARK minimizedAffinity 6.66692543
REMARK minimizedRMSD -1
REMARK  0 active torsions:
REMARK  status: ('A' for Active; 'I' for Inactive)
ROOT
ATOM      1  N1  IND d   1       1.044  -3.395   1.302  0.00  0.00    -0.196 N 
ATOM      2  C2  IND d   1       2.257  -2.871   1.656  0.00  0.00     0.054 A 
ATOM      3  C3  IND d   1       2.157  -1.535   1.836  0.00  0.00    -0.031 A 
ATOM      4  C4  IND d   1       0.083  -0.016   1.703  0.00  0.00     0.051 A 
ATOM      5  C5  IND d   1      -1.244  -0.032   1.377  0.00  0.00    -0.031 A 
ATOM      6  C6  IND d   1      -1.890  -1.193   1.005  0.00  0.00     0.015 A 
ATOM      7  C7  IND d   1      -1.232  -2.389   0.955  0.00  0.00    -0.016 A 
ATOM      8  C8  IND d   1       0.117  -2.376   1.279  0.00  0.00    -0.047 A 
ATOM      9  C9  IND d   1       0.788  -1.194   1.616  0.00  0.00    -0.096 A 
ATOM     10  HN1 IND d   1       0.887  -4.221   1.124  0.00  0.00     0.298 HD
ENDROOT
TORSDOF 0
ENDMDL
