MODEL 1
REMARK minimizedAffinity 6.41418695
REMARK minimizedRMSD -1
REMARK  0 active torsions:
REMARK  status: ('A' for Active; 'I' for Inactive)
ROOT
ATOM      1  N1  IND d   1      -5.690   3.967  -3.958  0.00  0.00    -0.196 N 
ATOM      2  C2  IND d   1      -5.768   5.307  -4.215  0.00  0.00     0.054 A 
ATOM      3  C3  IND d   1      -5.931   5.998  -3.064  0.00  0.00    -0.031 A 
ATOM      4  C4  IND d   1      -5.995   5.142  -0.638  0.00  0.00     0.051 A 
ATOM      5  C5  IND d   1      -5.999   3.990   0.099  0.00  0.00    -0.031 A 
ATOM      6  C6  IND d   1      -5.896   2.747  -0.492  0.00  0.00     0.015 A 
ATOM      7  C7  IND d   1      -5.773   2.609  -1.845  0.00  0.00    -0.016 A 
ATOM      8  C8  IND d   1      -5.775   3.776  -2.596  0.00  0.00    -0.047 A 
ATOM      9  C9  IND d   1      -5.922   5.038  -2.007  0.00  0.00    -0.096 A 
ATOM     10  HN1 IND d   1      -5.603   3.347  -4.548  0.00  0.00     0.298 HD
ENDROOT
TORSDOF 0
ENDMDL
