MODEL 1
REMARK minimizedAffinity 8.5492506
REMARK minimizedRMSD -1
REMARK  0 active torsions:
REMARK  status: ('A' for Active; 'I' for Inactive)
ROOT
ATOM      1  N1  IND d   1       1.291   0.823   2.224  0.00  0.00    -0.196 N 
ATOM      2  C2  IND d   1       1.146   1.304   3.496  0.00  0.00     0.054 A 
ATOM      3  C3  IND d   1       1.485   0.357   4.399  0.00  0.00    -0.031 A 
ATOM      4  C4  IND d   1       2.403  -2.017   4.013  0.00  0.00     0.051 A 
ATOM      5  C5  IND d   1       2.673  -2.920   3.023  0.00  0.00    -0.031 A 
ATOM      6  C6  IND d   1       2.496  -2.614   1.689  0.00  0.00     0.015 A 
ATOM      7  C7  IND d   1       2.050  -1.385   1.294  0.00  0.00    -0.016 A 
ATOM      8  C8  IND d   1       1.768  -0.468   2.296  0.00  0.00    -0.047 A 
ATOM      9  C9  IND d   1       1.905  -0.787   3.653  0.00  0.00    -0.096 A 
ATOM     10  HN1 IND d   1       1.114   1.253   1.502  0.00  0.00     0.298 HD
ENDROOT
TORSDOF 0
ENDMDL
