MODEL 1
REMARK minimizedAffinity 21.3175278
REMARK minimizedRMSD -1
REMARK  0 active torsions:
REMARK  status: ('A' for Active; 'I' for Inactive)
ROOT
ATOM      1  N1  IND d   1      -0.608  -0.237   1.780  0.00  0.00    -0.196 N 
ATOM      2  C2  IND d   1       0.076   0.943   1.692  0.00  0.00     0.054 A 
ATOM      3  C3  IND d   1      -0.350   1.655   0.625  0.00  0.00    -0.031 A 
ATOM      4  C4  IND d   1      -2.227   1.121  -1.054  0.00  0.00     0.051 A 
ATOM      5  C5  IND d   1      -3.113   0.141  -1.404  0.00  0.00    -0.031 A 
ATOM      6  C6  IND d   1      -3.213  -1.038  -0.694  0.00  0.00     0.015 A 
ATOM      7  C7  IND d   1      -2.435  -1.277   0.403  0.00  0.00    -0.016 A 
ATOM      8  C8  IND d   1      -1.530  -0.287   0.757  0.00  0.00    -0.047 A 
ATOM      9  C9  IND d   1      -1.394   0.894   0.016  0.00  0.00    -0.096 A 
ATOM     10  HN1 IND d   1      -0.483  -0.846   2.374  0.00  0.00     0.298 HD
ENDROOT
TORSDOF 0
ENDMDL
