MODEL 1
REMARK minimizedAffinity 8.11394501
REMARK minimizedRMSD -1
REMARK  0 active torsions:
REMARK  status: ('A' for Active; 'I' for Inactive)
ROOT
ATOM      1  N1  IND d   1       0.535   0.906   2.149  0.00  0.00    -0.196 N 
ATOM      2  C2  IND d   1      -0.068   1.212   0.961  0.00  0.00     0.054 A 
ATOM      3  C3  IND d   1       0.151   0.232   0.056  0.00  0.00    -0.031 A 
ATOM      4  C4  IND d   1       1.384  -2.009   0.339  0.00  0.00     0.051 A 
ATOM      5  C5  IND d   1       2.134  -2.721   1.233  0.00  0.00    -0.031 A 
ATOM      6  C6  IND d   1       2.391  -2.252   2.505  0.00  0.00     0.015 A 
ATOM      7  C7  IND d   1       1.897  -1.053   2.936  0.00  0.00    -0.016 A 
ATOM      8  C8  IND d   1       1.142  -0.324   2.028  0.00  0.00    -0.047 A 
ATOM      9  C9  IND d   1       0.913  -0.776   0.722  0.00  0.00    -0.096 A 
ATOM     10  HN1 IND d   1       0.535   1.399   2.853  0.00  0.00     0.298 HD
ENDROOT
TORSDOF 0
ENDMDL
