MODEL 1
REMARK minimizedAffinity 2.77961707
REMARK minimizedRMSD -1
REMARK  0 active torsions:
REMARK  status: ('A' for Active; 'I' for Inactive)
ROOT
ATOM      1  N1  IND d   1      -5.060  -3.746  -2.113  0.00  0.00    -0.196 N 
ATOM      2  C2  IND d   1      -6.000  -2.773  -1.914  0.00  0.00     0.054 A 
ATOM      3  C3  IND d   1      -5.476  -1.753  -1.199  0.00  0.00    -0.031 A 
ATOM      4  C4  IND d   1      -3.072  -1.423  -0.340  0.00  0.00     0.051 A 
ATOM      5  C5  IND d   1      -1.865  -2.057  -0.245  0.00  0.00    -0.031 A 
ATOM      6  C6  IND d   1      -1.657  -3.311  -0.782  0.00  0.00     0.015 A 
ATOM      7  C7  IND d   1      -2.649  -3.976  -1.446  0.00  0.00    -0.016 A 
ATOM      8  C8  IND d   1      -3.877  -3.338  -1.538  0.00  0.00    -0.047 A 
ATOM      9  C9  IND d   1      -4.107  -2.083  -0.958  0.00  0.00    -0.096 A 
ATOM     10  HN1 IND d   1      -5.187  -4.488  -2.529  0.00  0.00     0.298 HD
ENDROOT
TORSDOF 0
ENDMDL
