MODEL 1
REMARK minimizedAffinity 4.71583891
REMARK minimizedRMSD -1
REMARK  0 active torsions:
REMARK  status: ('A' for Active; 'I' for Inactive)
ROOT
ATOM      1  N1  IND d   1       0.744   0.365   3.174  0.00  0.00    -0.196 N 
ATOM      2  C2  IND d   1       1.082  -0.007   1.903  0.00  0.00     0.054 A 
ATOM      3  C3  IND d   1       1.684  -1.217   1.911  0.00  0.00    -0.031 A 
ATOM      4  C4  IND d   1       2.125  -2.811   3.884  0.00  0.00     0.051 A 
ATOM      5  C5  IND d   1       2.027  -2.893   5.245  0.00  0.00    -0.031 A 
ATOM      6  C6  IND d   1       1.483  -1.874   6.000  0.00  0.00     0.015 A 
ATOM      7  C7  IND d   1       1.004  -0.734   5.418  0.00  0.00    -0.016 A 
ATOM      8  C8  IND d   1       1.108  -0.644   4.038  0.00  0.00    -0.047 A 
ATOM      9  C9  IND d   1       1.698  -1.657   3.270  0.00  0.00    -0.096 A 
ATOM     10  HN1 IND d   1       0.368   1.105   3.397  0.00  0.00     0.298 HD
ENDROOT
TORSDOF 0
ENDMDL
