MODEL 1
REMARK minimizedAffinity 8.63832951
REMARK minimizedRMSD -1
REMARK  0 active torsions:
REMARK  status: ('A' for Active; 'I' for Inactive)
ROOT
ATOM      1  N1  IND d   1       1.172  -0.953   2.803  0.00  0.00    -0.196 N 
ATOM      2  C2  IND d   1       1.646  -1.489   1.638  0.00  0.00     0.054 A 
ATOM      3  C3  IND d   1       2.318  -2.636   1.888  0.00  0.00    -0.031 A 
ATOM      4  C4  IND d   1       2.676  -3.869   4.119  0.00  0.00     0.051 A 
ATOM      5  C5  IND d   1       2.461  -3.749   5.463  0.00  0.00    -0.031 A 
ATOM      6  C6  IND d   1       1.789  -2.669   6.000  0.00  0.00     0.015 A 
ATOM      7  C7  IND d   1       1.296  -1.672   5.208  0.00  0.00    -0.016 A 
ATOM      8  C8  IND d   1       1.518  -1.788   3.843  0.00  0.00    -0.047 A 
ATOM      9  C9  IND d   1       2.236  -2.859   3.296  0.00  0.00    -0.096 A 
ATOM     10  HN1 IND d   1       0.732  -0.218   2.874  0.00  0.00     0.298 HD
ENDROOT
TORSDOF 0
ENDMDL
