MODEL 1
REMARK minimizedAffinity 16.1130524
REMARK minimizedRMSD -1
REMARK  0 active torsions:
REMARK  status: ('A' for Active; 'I' for Inactive)
ROOT
ATOM      1  N1  IND d   1       1.424   0.562   3.285  0.00  0.00    -0.196 N 
ATOM      2  C2  IND d   1       1.125  -0.022   4.485  0.00  0.00     0.054 A 
ATOM      3  C3  IND d   1       1.143  -1.369   4.369  0.00  0.00    -0.031 A 
ATOM      4  C4  IND d   1       1.737  -2.828   2.333  0.00  0.00     0.051 A 
ATOM      5  C5  IND d   1       2.041  -2.749   1.003  0.00  0.00    -0.031 A 
ATOM      6  C6  IND d   1       2.160  -1.537   0.353  0.00  0.00     0.015 A 
ATOM      7  C7  IND d   1       1.990  -0.354   1.015  0.00  0.00    -0.016 A 
ATOM      8  C8  IND d   1       1.674  -0.431   2.364  0.00  0.00    -0.047 A 
ATOM      9  C9  IND d   1       1.510  -1.659   3.019  0.00  0.00    -0.096 A 
ATOM     10  HN1 IND d   1       1.451   1.408   3.132  0.00  0.00     0.298 HD
ENDROOT
TORSDOF 0
ENDMDL
