MODEL 1
REMARK minimizedAffinity 1.68403625
REMARK minimizedRMSD -1
REMARK  0 active torsions:
REMARK  status: ('A' for Active; 'I' for Inactive)
ROOT
ATOM      1  N1  IND d   1       5.299  -4.462  -3.832  0.00  0.00    -0.196 N 
ATOM      2  C2  IND d   1       5.775  -5.130  -4.925  0.00  0.00     0.054 A 
ATOM      3  C3  IND d   1       6.000  -4.268  -5.942  0.00  0.00    -0.031 A 
ATOM      4  C4  IND d   1       5.753  -1.706  -5.999  0.00  0.00     0.051 A 
ATOM      5  C5  IND d   1       5.315  -0.649  -5.251  0.00  0.00    -0.031 A 
ATOM      6  C6  IND d   1       4.843  -0.812  -3.965  0.00  0.00     0.015 A 
ATOM      7  C7  IND d   1       4.801  -2.042  -3.372  0.00  0.00    -0.016 A 
ATOM      8  C8  IND d   1       5.238  -3.119  -4.131  0.00  0.00    -0.047 A 
ATOM      9  C9  IND d   1       5.678  -2.965  -5.452  0.00  0.00    -0.096 A 
ATOM     10  HN1 IND d   1       5.075  -4.821  -3.083  0.00  0.00     0.298 HD
ENDROOT
TORSDOF 0
ENDMDL
