MODEL 1
REMARK minimizedAffinity 3.98062515
REMARK minimizedRMSD -1
REMARK  0 active torsions:
REMARK  status: ('A' for Active; 'I' for Inactive)
ROOT
ATOM      1  N1  IND d   1       1.508   0.552   2.363  0.00  0.00    -0.196 N 
ATOM      2  C2  IND d   1       1.884  -0.332   1.391  0.00  0.00     0.054 A 
ATOM      3  C3  IND d   1       2.088  -1.558   1.923  0.00  0.00    -0.031 A 
ATOM      4  C4  IND d   1       1.764  -2.363   4.347  0.00  0.00     0.051 A 
ATOM      5  C5  IND d   1       1.467  -1.911   5.602  0.00  0.00    -0.031 A 
ATOM      6  C6  IND d   1       1.159  -0.588   5.846  0.00  0.00     0.015 A 
ATOM      7  C7  IND d   1       1.126   0.333   4.837  0.00  0.00    -0.016 A 
ATOM      8  C8  IND d   1       1.434  -0.121   3.563  0.00  0.00    -0.047 A 
ATOM      9  C9  IND d   1       1.789  -1.454   3.316  0.00  0.00    -0.096 A 
ATOM     10  HN1 IND d   1       1.345   1.388   2.246  0.00  0.00     0.298 HD
ENDROOT
TORSDOF 0
ENDMDL
