MODEL 1
REMARK minimizedAffinity 7.17182732
REMARK minimizedRMSD -1
REMARK  0 active torsions:
REMARK  status: ('A' for Active; 'I' for Inactive)
ROOT
ATOM      1  C   UNL d   1      -0.622  -4.158  -4.070  0.00  0.00     0.172 C 
ATOM      2  N   UNL d   1      -1.865  -3.947  -3.365  0.00  0.00    -0.070 N 
ATOM      3  C1  UNL d   1      -2.475  -2.738  -3.167  0.00  0.00    -0.004 A 
ATOM      4  C2  UNL d   1      -3.633  -2.961  -2.454  0.00  0.00    -0.047 A 
ATOM      5  C3  UNL d   1      -3.722  -4.353  -2.215  0.00  0.00    -0.047 A 
ATOM      6  C4  UNL d   1      -2.614  -4.940  -2.790  0.00  0.00    -0.004 A 
ENDROOT
TORSDOF 0
ENDMDL
