MODEL 1
REMARK minimizedAffinity 6.904778
REMARK minimizedRMSD -1
REMARK  0 active torsions:
REMARK  status: ('A' for Active; 'I' for Inactive)
ROOT
ATOM      1  C   UNL d   1       4.259   0.093   3.093  0.00  0.00     0.172 C 
ATOM      2  N   UNL d   1       3.282   0.605   2.162  0.00  0.00    -0.070 N 
ATOM      3  C1  UNL d   1       3.294   0.414   0.806  0.00  0.00    -0.004 A 
ATOM      4  C2  UNL d   1       2.196   1.059   0.279  0.00  0.00    -0.047 A 
ATOM      5  C3  UNL d   1       1.500   1.660   1.356  0.00  0.00    -0.047 A 
ATOM      6  C4  UNL d   1       2.195   1.363   2.510  0.00  0.00    -0.004 A 
ENDROOT
TORSDOF 0
ENDMDL
