MODEL 1
REMARK minimizedAffinity 5.17461634
REMARK minimizedRMSD -1
REMARK  0 active torsions:
REMARK  status: ('A' for Active; 'I' for Inactive)
ROOT
ATOM      1  C   UNL d   1       3.563   0.138   0.810  0.00  0.00     0.172 C 
ATOM      2  N   UNL d   1       2.430   0.836   1.371  0.00  0.00    -0.070 N 
ATOM      3  C1  UNL d   1       1.636   0.380   2.390  0.00  0.00    -0.004 A 
ATOM      4  C2  UNL d   1       0.672   1.334   2.632  0.00  0.00    -0.047 A 
ATOM      5  C3  UNL d   1       0.893   2.400   1.727  0.00  0.00    -0.047 A 
ATOM      6  C4  UNL d   1       1.988   2.065   0.959  0.00  0.00    -0.004 A 
ENDROOT
TORSDOF 0
ENDMDL
