MODEL 1
REMARK minimizedAffinity 4.85105371
REMARK minimizedRMSD -1
REMARK  0 active torsions:
REMARK  status: ('A' for Active; 'I' for Inactive)
ROOT
ATOM      1  C   UNL d   1      -0.622  -4.507  -3.837  0.00  0.00     0.172 C 
ATOM      2  N   UNL d   1      -1.889  -4.298  -3.176  0.00  0.00    -0.070 N 
ATOM      3  C1  UNL d   1      -2.606  -5.253  -2.506  0.00  0.00    -0.004 A 
ATOM      4  C2  UNL d   1      -3.750  -4.657  -2.020  0.00  0.00    -0.047 A 
ATOM      5  C3  UNL d   1      -3.720  -3.298  -2.412  0.00  0.00    -0.047 A 
ATOM      6  C4  UNL d   1      -2.556  -3.103  -3.127  0.00  0.00    -0.004 A 
ENDROOT
TORSDOF 0
ENDMDL
