MODEL 1
REMARK minimizedAffinity 3.96403122
REMARK minimizedRMSD -1
REMARK  0 active torsions:
REMARK  status: ('A' for Active; 'I' for Inactive)
ROOT
ATOM      1  C   UNL d   1      -6.000  -0.098   5.212  0.00  0.00     0.172 C 
ATOM      2  N   UNL d   1      -5.628   1.294   5.111  0.00  0.00    -0.070 N 
ATOM      3  C1  UNL d   1      -5.971   2.278   6.000  0.00  0.00    -0.004 A 
ATOM      4  C2  UNL d   1      -5.425   3.461   5.550  0.00  0.00    -0.047 A 
ATOM      5  C3  UNL d   1      -4.731   3.178   4.350  0.00  0.00    -0.047 A 
ATOM      6  C4  UNL d   1      -4.873   1.829   4.101  0.00  0.00    -0.004 A 
ENDROOT
TORSDOF 0
ENDMDL
