MODEL 1
REMARK minimizedAffinity 4.64051485
REMARK minimizedRMSD -1
REMARK  0 active torsions:
REMARK  status: ('A' for Active; 'I' for Inactive)
ROOT
ATOM      1  C   UNL d   1       1.804   0.766   1.572  0.00  0.00     0.172 C 
ATOM      2  N   UNL d   1       3.084   0.169   1.270  0.00  0.00    -0.070 N 
ATOM      3  C1  UNL d   1       3.940  -0.388   2.183  0.00  0.00    -0.004 A 
ATOM      4  C2  UNL d   1       5.046  -0.845   1.500  0.00  0.00    -0.047 A 
ATOM      5  C3  UNL d   1       4.848  -0.552   0.129  0.00  0.00    -0.047 A 
ATOM      6  C4  UNL d   1       3.626   0.076   0.016  0.00  0.00    -0.004 A 
ENDROOT
TORSDOF 0
ENDMDL
