MODEL 1
REMARK minimizedAffinity 6.64584494
REMARK minimizedRMSD -1
REMARK  0 active torsions:
REMARK  status: ('A' for Active; 'I' for Inactive)
ROOT
ATOM      1  C   UNL d   1      -0.067  -5.011  -4.305  0.00  0.00     0.172 C 
ATOM      2  N   UNL d   1      -1.204  -4.276  -3.805  0.00  0.00    -0.070 N 
ATOM      3  C1  UNL d   1      -2.198  -4.784  -3.012  0.00  0.00    -0.004 A 
ATOM      4  C2  UNL d   1      -3.093  -3.768  -2.753  0.00  0.00    -0.047 A 
ATOM      5  C3  UNL d   1      -2.621  -2.610  -3.414  0.00  0.00    -0.047 A 
ATOM      6  C4  UNL d   1      -1.450  -2.952  -4.058  0.00  0.00    -0.004 A 
ENDROOT
TORSDOF 0
ENDMDL
