MODEL 1
REMARK minimizedAffinity 3.91262913
REMARK minimizedRMSD -1
REMARK  0 active torsions:
REMARK  status: ('A' for Active; 'I' for Inactive)
ROOT
ATOM      1  C   UNL d   1       5.999  -0.416   0.358  0.00  0.00     0.172 C 
ATOM      2  N   UNL d   1       4.766   0.331   0.437  0.00  0.00    -0.070 N 
ATOM      3  C1  UNL d   1       4.458   1.445  -0.298  0.00  0.00    -0.004 A 
ATOM      4  C2  UNL d   1       3.196   1.857   0.068  0.00  0.00    -0.047 A 
ATOM      5  C3  UNL d   1       2.728   0.962   1.059  0.00  0.00    -0.047 A 
ATOM      6  C4  UNL d   1       3.720   0.027   1.268  0.00  0.00    -0.004 A 
ENDROOT
TORSDOF 0
ENDMDL
