MODEL 1
REMARK minimizedAffinity 6.89810658
REMARK minimizedRMSD -1
REMARK  0 active torsions:
REMARK  status: ('A' for Active; 'I' for Inactive)
ROOT
ATOM      1  C   UNL d   1      -6.000   0.426   5.999  0.00  0.00     0.172 C 
ATOM      2  N   UNL d   1      -5.255   1.026   4.917  0.00  0.00    -0.070 N 
ATOM      3  C1  UNL d   1      -4.807   2.320   4.877  0.00  0.00    -0.004 A 
ATOM      4  C2  UNL d   1      -4.144   2.500   3.683  0.00  0.00    -0.047 A 
ATOM      5  C3  UNL d   1      -4.195   1.273   2.980  0.00  0.00    -0.047 A 
ATOM      6  C4  UNL d   1      -4.889   0.378   3.767  0.00  0.00    -0.004 A 
ENDROOT
TORSDOF 0
ENDMDL
