MODEL 1
REMARK minimizedAffinity 4.24254274
REMARK minimizedRMSD -1
REMARK  0 active torsions:
REMARK  status: ('A' for Active; 'I' for Inactive)
ROOT
ATOM      1  C   UNL d   1      -6.000  -0.335   5.960  0.00  0.00     0.172 C 
ATOM      2  N   UNL d   1      -5.561   0.902   5.358  0.00  0.00    -0.070 N 
ATOM      3  C1  UNL d   1      -5.460   2.109   5.998  0.00  0.00    -0.004 A 
ATOM      4  C2  UNL d   1      -5.007   3.035   5.083  0.00  0.00    -0.047 A 
ATOM      5  C3  UNL d   1      -4.830   2.361   3.851  0.00  0.00    -0.047 A 
ATOM      6  C4  UNL d   1      -5.181   1.043   4.050  0.00  0.00    -0.004 A 
ENDROOT
TORSDOF 0
ENDMDL
