MODEL 1
REMARK minimizedAffinity 7.18082476
REMARK minimizedRMSD -1
REMARK  0 active torsions:
REMARK  status: ('A' for Active; 'I' for Inactive)
ROOT
ATOM      1  C   UNL d   1       3.888  -0.813   1.163  0.00  0.00     0.172 C 
ATOM      2  N   UNL d   1       3.174   0.312   0.605  0.00  0.00    -0.070 N 
ATOM      3  C1  UNL d   1       1.965   0.785   1.040  0.00  0.00    -0.004 A 
ATOM      4  C2  UNL d   1       1.626   1.863   0.251  0.00  0.00    -0.047 A 
ATOM      5  C3  UNL d   1       2.666   2.043  -0.691  0.00  0.00    -0.047 A 
ATOM      6  C4  UNL d   1       3.612   1.069  -0.449  0.00  0.00    -0.004 A 
ENDROOT
TORSDOF 0
ENDMDL
