MODEL 1
REMARK minimizedAffinity 8.09112072
REMARK minimizedRMSD -1
REMARK  0 active torsions:
REMARK  status: ('A' for Active; 'I' for Inactive)
ROOT
ATOM      1  C   UNL d   1      -3.606   3.233   4.339  0.00  0.00     0.172 C 
ATOM      2  N   UNL d   1      -4.453   4.328   4.751  0.00  0.00    -0.070 N 
ATOM      3  C1  UNL d   1      -5.417   4.924   3.983  0.00  0.00    -0.004 A 
ATOM      4  C2  UNL d   1      -5.998   5.922   4.735  0.00  0.00    -0.047 A 
ATOM      5  C3  UNL d   1      -5.361   5.925   5.999  0.00  0.00    -0.047 A 
ATOM      6  C4  UNL d   1      -4.409   4.928   5.982  0.00  0.00    -0.004 A 
ENDROOT
TORSDOF 0
ENDMDL
