MODEL 1
REMARK minimizedAffinity 8.0698328
REMARK minimizedRMSD -1
REMARK  0 active torsions:
REMARK  status: ('A' for Active; 'I' for Inactive)
ROOT
ATOM      1  C   UNL d   1       4.588  -0.725  -0.008  0.00  0.00     0.172 C 
ATOM      2  N   UNL d   1       3.737  -0.451   1.127  0.00  0.00    -0.070 N 
ATOM      3  C1  UNL d   1       2.512   0.158   1.077  0.00  0.00    -0.004 A 
ATOM      4  C2  UNL d   1       2.025   0.233   2.364  0.00  0.00    -0.047 A 
ATOM      5  C3  UNL d   1       2.992  -0.350   3.217  0.00  0.00    -0.047 A 
ATOM      6  C4  UNL d   1       4.041  -0.765   2.425  0.00  0.00    -0.004 A 
ENDROOT
TORSDOF 0
ENDMDL
