MODEL 1
REMARK minimizedAffinity 14.5146484
REMARK minimizedRMSD -1
REMARK  0 active torsions:
REMARK  status: ('A' for Active; 'I' for Inactive)
ROOT
ATOM      1  C   UNL d   1      -5.674   4.609   2.475  0.00  0.00     0.172 C 
ATOM      2  N   UNL d   1      -5.449   4.857   3.880  0.00  0.00    -0.070 N 
ATOM      3  C1  UNL d   1      -4.827   4.003   4.751  0.00  0.00    -0.004 A 
ATOM      4  C2  UNL d   1      -4.810   4.604   5.991  0.00  0.00    -0.047 A 
ATOM      5  C3  UNL d   1      -5.445   5.862   5.861  0.00  0.00    -0.047 A 
ATOM      6  C4  UNL d   1      -5.831   5.993   4.543  0.00  0.00    -0.004 A 
ENDROOT
TORSDOF 0
ENDMDL
