MODEL 1
REMARK minimizedAffinity 8.50376415
REMARK minimizedRMSD -1
REMARK  0 active torsions:
REMARK  status: ('A' for Active; 'I' for Inactive)
ROOT
ATOM      1  C   UNL d   1      -5.999   0.085   5.928  0.00  0.00     0.172 C 
ATOM      2  N   UNL d   1      -5.390   0.847   4.863  0.00  0.00    -0.070 N 
ATOM      3  C1  UNL d   1      -4.915   0.334   3.685  0.00  0.00    -0.004 A 
ATOM      4  C2  UNL d   1      -4.415   1.380   2.940  0.00  0.00    -0.047 A 
ATOM      5  C3  UNL d   1      -4.595   2.562   3.697  0.00  0.00    -0.047 A 
ATOM      6  C4  UNL d   1      -5.201   2.203   4.882  0.00  0.00    -0.004 A 
ENDROOT
TORSDOF 0
ENDMDL
