MODEL 1
REMARK minimizedAffinity 15.1381092
REMARK minimizedRMSD -1
REMARK  0 active torsions:
REMARK  status: ('A' for Active; 'I' for Inactive)
ROOT
ATOM      1  C   UNL d   1      -5.578  -2.916  -3.753  0.00  0.00     0.172 C 
ATOM      2  N   UNL d   1      -5.187  -4.064  -2.969  0.00  0.00    -0.070 N 
ATOM      3  C1  UNL d   1      -5.999  -5.114  -2.632  0.00  0.00    -0.004 A 
ATOM      4  C2  UNL d   1      -5.254  -5.999  -1.884  0.00  0.00    -0.047 A 
ATOM      5  C3  UNL d   1      -3.949  -5.463  -1.767  0.00  0.00    -0.047 A 
ATOM      6  C4  UNL d   1      -3.936  -4.264  -2.448  0.00  0.00    -0.004 A 
ENDROOT
TORSDOF 0
ENDMDL
