MODEL 1
REMARK minimizedAffinity 12.6589146
REMARK minimizedRMSD -1
REMARK  0 active torsions:
REMARK  status: ('A' for Active; 'I' for Inactive)
ROOT
ATOM      1  C   UNL d   1      -4.400   6.000  -1.441  0.00  0.00     0.172 C 
ATOM      2  N   UNL d   1      -3.138   5.372  -1.127  0.00  0.00    -0.070 N 
ATOM      3  C1  UNL d   1      -1.919   5.995  -1.113  0.00  0.00    -0.004 A 
ATOM      4  C2  UNL d   1      -0.970   5.058  -0.766  0.00  0.00    -0.047 A 
ATOM      5  C3  UNL d   1      -1.642   3.828  -0.566  0.00  0.00    -0.047 A 
ATOM      6  C4  UNL d   1      -2.983   4.052  -0.796  0.00  0.00    -0.004 A 
ENDROOT
TORSDOF 0
ENDMDL
