MODEL 1
REMARK minimizedAffinity 1.63700628
REMARK minimizedRMSD -1
REMARK  0 active torsions:
REMARK  status: ('A' for Active; 'I' for Inactive)
ROOT
ATOM      1  C   UNL d   1       5.979   5.872   0.920  0.00  0.00     0.172 C 
ATOM      2  N   UNL d   1       5.348   5.921   2.218  0.00  0.00    -0.070 N 
ATOM      3  C1  UNL d   1       5.999   5.946   3.422  0.00  0.00    -0.004 A 
ATOM      4  C2  UNL d   1       5.047   5.993   4.417  0.00  0.00    -0.047 A 
ATOM      5  C3  UNL d   1       3.778   5.995   3.789  0.00  0.00    -0.047 A 
ATOM      6  C4  UNL d   1       3.994   5.951   2.428  0.00  0.00    -0.004 A 
ENDROOT
TORSDOF 0
ENDMDL
