MODEL 1
REMARK minimizedAffinity -1.88335443
REMARK minimizedRMSD -1
REMARK  0 active torsions:
REMARK  status: ('A' for Active; 'I' for Inactive)
ROOT
ATOM      1  C   UNL d   1       5.645   4.757   5.963  0.00  0.00     0.172 C 
ATOM      2  N   UNL d   1       5.378   5.063   4.577  0.00  0.00    -0.070 N 
ATOM      3  C1  UNL d   1       4.486   5.999   4.125  0.00  0.00    -0.004 A 
ATOM      4  C2  UNL d   1       4.525   5.987   2.747  0.00  0.00    -0.047 A 
ATOM      5  C3  UNL d   1       5.472   5.011   2.358  0.00  0.00    -0.047 A 
ATOM      6  C4  UNL d   1       5.985   4.454   3.511  0.00  0.00    -0.004 A 
ENDROOT
TORSDOF 0
ENDMDL
