MODEL 1
REMARK minimizedAffinity -2.52182531
REMARK minimizedRMSD -1
REMARK  0 active torsions:
REMARK  status: ('A' for Active; 'I' for Inactive)
ROOT
ATOM      1  C   UNL d   1       4.532   5.973   4.348  0.00  0.00     0.172 C 
ATOM      2  N   UNL d   1       4.820   5.741   2.951  0.00  0.00    -0.070 N 
ATOM      3  C1  UNL d   1       5.999   5.261   2.448  0.00  0.00    -0.004 A 
ATOM      4  C2  UNL d   1       5.873   5.184   1.078  0.00  0.00    -0.047 A 
ATOM      5  C3  UNL d   1       4.573   5.634   0.746  0.00  0.00    -0.047 A 
ATOM      6  C4  UNL d   1       3.942   5.973   1.925  0.00  0.00    -0.004 A 
ENDROOT
TORSDOF 0
ENDMDL
