MODEL 1
REMARK minimizedAffinity 3.37788963
REMARK minimizedRMSD -1
REMARK  0 active torsions:
REMARK  status: ('A' for Active; 'I' for Inactive)
ROOT
ATOM      1  C   UNL d   1      -1.888   3.151   4.302  0.00  0.00     0.172 C 
ATOM      2  N   UNL d   1      -2.215   1.898   3.664  0.00  0.00    -0.070 N 
ATOM      3  C1  UNL d   1      -3.367   1.182   3.855  0.00  0.00    -0.004 A 
ATOM      4  C2  UNL d   1      -3.297   0.053   3.068  0.00  0.00    -0.047 A 
ATOM      5  C3  UNL d   1      -2.060   0.091   2.381  0.00  0.00    -0.047 A 
ATOM      6  C4  UNL d   1      -1.411   1.244   2.769  0.00  0.00    -0.004 A 
ENDROOT
TORSDOF 0
ENDMDL
