MODEL 1
REMARK minimizedAffinity 3.10868406
REMARK minimizedRMSD -1
REMARK  0 active torsions:
REMARK  status: ('A' for Active; 'I' for Inactive)
ROOT
ATOM      1  C   UNL d   1      -0.933  -1.038  -1.315  0.00  0.00     0.172 C 
ATOM      2  N   UNL d   1       0.217  -0.319  -1.808  0.00  0.00    -0.070 N 
ATOM      3  C1  UNL d   1       0.191   0.695  -2.729  0.00  0.00    -0.004 A 
ATOM      4  C2  UNL d   1       1.488   1.116  -2.930  0.00  0.00    -0.047 A 
ATOM      5  C3  UNL d   1       2.322   0.328  -2.102  0.00  0.00    -0.047 A 
ATOM      6  C4  UNL d   1       1.510  -0.552  -1.419  0.00  0.00    -0.004 A 
ENDROOT
TORSDOF 0
ENDMDL
