MODEL 1
REMARK minimizedAffinity 12.1789618
REMARK minimizedRMSD -1
REMARK  0 active torsions:
REMARK  status: ('A' for Active; 'I' for Inactive)
ROOT
ATOM      1  C   UNL d   1      -3.584   0.078   4.817  0.00  0.00     0.172 C 
ATOM      2  N   UNL d   1      -2.896   0.470   3.609  0.00  0.00    -0.070 N 
ATOM      3  C1  UNL d   1      -3.157  -0.005   2.352  0.00  0.00    -0.004 A 
ATOM      4  C2  UNL d   1      -2.289   0.615   1.478  0.00  0.00    -0.047 A 
ATOM      5  C3  UNL d   1      -1.479   1.492   2.237  0.00  0.00    -0.047 A 
ATOM      6  C4  UNL d   1      -1.875   1.382   3.553  0.00  0.00    -0.004 A 
ENDROOT
TORSDOF 0
ENDMDL
