MODEL 1
REMARK minimizedAffinity 5.86241055
REMARK minimizedRMSD -1
REMARK  0 active torsions:
REMARK  status: ('A' for Active; 'I' for Inactive)
ROOT
ATOM      1  C   UNL d   1      -3.190  -1.933  -0.712  0.00  0.00     0.172 C 
ATOM      2  N   UNL d   1      -1.905  -2.310  -1.251  0.00  0.00    -0.070 N 
ATOM      3  C1  UNL d   1      -1.483  -3.591  -1.487  0.00  0.00    -0.004 A 
ATOM      4  C2  UNL d   1      -0.205  -3.526  -2.001  0.00  0.00    -0.047 A 
ATOM      5  C3  UNL d   1       0.153  -2.159  -2.074  0.00  0.00    -0.047 A 
ATOM      6  C4  UNL d   1      -0.917  -1.428  -1.604  0.00  0.00    -0.004 A 
ENDROOT
TORSDOF 0
ENDMDL
