MODEL 1
REMARK minimizedAffinity 2.26708364
REMARK minimizedRMSD -1
REMARK  0 active torsions:
REMARK  status: ('A' for Active; 'I' for Inactive)
ROOT
ATOM      1  C   UNL d   1       5.976  -5.963   5.996  0.00  0.00     0.172 C 
ATOM      2  N   UNL d   1       5.107  -5.955   4.843  0.00  0.00    -0.070 N 
ATOM      3  C1  UNL d   1       5.514  -5.999   3.536  0.00  0.00    -0.004 A 
ATOM      4  C2  UNL d   1       4.388  -5.973   2.742  0.00  0.00    -0.047 A 
ATOM      5  C3  UNL d   1       3.265  -5.910   3.602  0.00  0.00    -0.047 A 
ATOM      6  C4  UNL d   1       3.739  -5.900   4.896  0.00  0.00    -0.004 A 
ENDROOT
TORSDOF 0
ENDMDL
