MODEL 1
REMARK minimizedAffinity 3.51084757
REMARK minimizedRMSD -1
REMARK  0 active torsions:
REMARK  status: ('A' for Active; 'I' for Inactive)
ROOT
ATOM      1  C   UNL d   1       2.479  -0.025  -2.202  0.00  0.00     0.172 C 
ATOM      2  N   UNL d   1       3.841  -0.125  -2.670  0.00  0.00    -0.070 N 
ATOM      3  C1  UNL d   1       4.354   0.500  -3.776  0.00  0.00    -0.004 A 
ATOM      4  C2  UNL d   1       5.683   0.151  -3.880  0.00  0.00    -0.047 A 
ATOM      5  C3  UNL d   1       5.979  -0.714  -2.800  0.00  0.00    -0.047 A 
ATOM      6  C4  UNL d   1       4.822  -0.868  -2.067  0.00  0.00    -0.004 A 
ENDROOT
TORSDOF 0
ENDMDL
