MODEL 1
REMARK minimizedAffinity 4.10689592
REMARK minimizedRMSD -1
REMARK  0 active torsions:
REMARK  status: ('A' for Active; 'I' for Inactive)
ROOT
ATOM      1  C   UNL d   1      -1.497   3.136   4.508  0.00  0.00     0.172 C 
ATOM      2  N   UNL d   1      -1.823   1.868   3.899  0.00  0.00    -0.070 N 
ATOM      3  C1  UNL d   1      -1.766   1.587   2.560  0.00  0.00    -0.004 A 
ATOM      4  C2  UNL d   1      -2.151   0.275   2.387  0.00  0.00    -0.047 A 
ATOM      5  C3  UNL d   1      -2.452  -0.250   3.666  0.00  0.00    -0.047 A 
ATOM      6  C4  UNL d   1      -2.241   0.757   4.584  0.00  0.00    -0.004 A 
ENDROOT
TORSDOF 0
ENDMDL
