MODEL 1
REMARK minimizedAffinity -2.43764067
REMARK minimizedRMSD -1
REMARK  0 active torsions:
REMARK  status: ('A' for Active; 'I' for Inactive)
ROOT
ATOM      1  C   UNL d   1       4.900  -1.229   4.492  0.00  0.00     0.172 C 
ATOM      2  N   UNL d   1       5.122  -2.593   4.913  0.00  0.00    -0.070 N 
ATOM      3  C1  UNL d   1       5.980  -2.993   5.903  0.00  0.00    -0.004 A 
ATOM      4  C2  UNL d   1       5.902  -4.366   5.998  0.00  0.00    -0.047 A 
ATOM      5  C3  UNL d   1       4.966  -4.806   5.033  0.00  0.00    -0.047 A 
ATOM      6  C4  UNL d   1       4.499  -3.687   4.375  0.00  0.00    -0.004 A 
ENDROOT
TORSDOF 0
ENDMDL
