MODEL 1
REMARK minimizedAffinity -1.11184108
REMARK minimizedRMSD -1
REMARK  0 active torsions:
REMARK  status: ('A' for Active; 'I' for Inactive)
ROOT
ATOM      1  C   UNL d   1       5.975   4.527   5.880  0.00  0.00     0.172 C 
ATOM      2  N   UNL d   1       5.623   4.903   4.531  0.00  0.00    -0.070 N 
ATOM      3  C1  UNL d   1       4.875   5.993   4.176  0.00  0.00    -0.004 A 
ATOM      4  C2  UNL d   1       4.765   6.000   2.802  0.00  0.00    -0.047 A 
ATOM      5  C3  UNL d   1       5.471   4.874   2.315  0.00  0.00    -0.047 A 
ATOM      6  C4  UNL d   1       5.992   4.213   3.407  0.00  0.00    -0.004 A 
ENDROOT
TORSDOF 0
ENDMDL
