MODEL 1
REMARK minimizedAffinity -0.959822655
REMARK minimizedRMSD -1
REMARK  0 active torsions:
REMARK  status: ('A' for Active; 'I' for Inactive)
ROOT
ATOM      1  C   UNL d   1       4.826   5.272   1.379  0.00  0.00     0.172 C 
ATOM      2  N   UNL d   1       4.964   5.376   2.813  0.00  0.00    -0.070 N 
ATOM      3  C1  UNL d   1       6.000   4.872   3.553  0.00  0.00    -0.004 A 
ATOM      4  C2  UNL d   1       5.762   5.180   4.876  0.00  0.00    -0.047 A 
ATOM      5  C3  UNL d   1       4.541   5.893   4.931  0.00  0.00    -0.047 A 
ATOM      6  C4  UNL d   1       4.069   6.000   3.640  0.00  0.00    -0.004 A 
ENDROOT
TORSDOF 0
ENDMDL
