MODEL 1
REMARK minimizedAffinity 5.42340231
REMARK minimizedRMSD -1
REMARK  0 active torsions:
REMARK  status: ('A' for Active; 'I' for Inactive)
ROOT
ATOM      1  C   UNL d   1       1.210  -1.255  -2.352  0.00  0.00     0.172 C 
ATOM      2  N   UNL d   1       0.418  -0.059  -2.190  0.00  0.00    -0.070 N 
ATOM      3  C1  UNL d   1       0.556   1.095  -2.915  0.00  0.00    -0.004 A 
ATOM      4  C2  UNL d   1      -0.383   1.995  -2.459  0.00  0.00    -0.047 A 
ATOM      5  C3  UNL d   1      -1.110   1.361  -1.424  0.00  0.00    -0.047 A 
ATOM      6  C4  UNL d   1      -0.594   0.090  -1.278  0.00  0.00    -0.004 A 
ENDROOT
TORSDOF 0
ENDMDL
