MODEL 1
REMARK minimizedAffinity 1.24479723
REMARK minimizedRMSD -1
REMARK  0 active torsions:
REMARK  status: ('A' for Active; 'I' for Inactive)
ROOT
ATOM      1  C   UNL d   1       5.271   5.628   5.630  0.00  0.00     0.172 C 
ATOM      2  N   UNL d   1       5.055   5.690   4.204  0.00  0.00    -0.070 N 
ATOM      3  C1  UNL d   1       6.000   5.452   3.242  0.00  0.00    -0.004 A 
ATOM      4  C2  UNL d   1       5.400   5.612   2.012  0.00  0.00    -0.047 A 
ATOM      5  C3  UNL d   1       4.047   5.958   2.242  0.00  0.00    -0.047 A 
ATOM      6  C4  UNL d   1       3.861   6.000   3.608  0.00  0.00    -0.004 A 
ENDROOT
TORSDOF 0
ENDMDL
