MODEL 1
REMARK minimizedAffinity -0.110028669
REMARK minimizedRMSD -1
REMARK  0 active torsions:
REMARK  status: ('A' for Active; 'I' for Inactive)
ROOT
ATOM      1  C   UNL d   1       0.044   0.786  -2.248  0.00  0.00     0.172 C 
ATOM      2  N   UNL d   1       1.325   0.206  -1.919  0.00  0.00    -0.070 N 
ATOM      3  C1  UNL d   1       2.474   0.904  -1.658  0.00  0.00    -0.004 A 
ATOM      4  C2  UNL d   1       3.470  -0.009  -1.388  0.00  0.00    -0.047 A 
ATOM      5  C3  UNL d   1       2.900  -1.300  -1.490  0.00  0.00    -0.047 A 
ATOM      6  C4  UNL d   1       1.571  -1.138  -1.820  0.00  0.00    -0.004 A 
ENDROOT
TORSDOF 0
ENDMDL
