MODEL 1
REMARK minimizedAffinity -3.14298558
REMARK minimizedRMSD -1
REMARK  0 active torsions:
REMARK  status: ('A' for Active; 'I' for Inactive)
ROOT
ATOM      1  C1  BNZ d   1      -4.357  -4.362  -3.762  0.00  0.00     0.000 A 
ATOM      2  C2  BNZ d   1      -4.925  -5.115  -2.770  0.00  0.00     0.000 A 
ATOM      3  C3  BNZ d   1      -5.340  -4.538  -1.603  0.00  0.00     0.000 A 
ATOM      4  C4  BNZ d   1      -5.150  -3.216  -1.413  0.00  0.00     0.000 A 
ATOM      5  C5  BNZ d   1      -4.569  -2.445  -2.400  0.00  0.00     0.000 A 
ATOM      6  C6  BNZ d   1      -4.189  -3.023  -3.589  0.00  0.00     0.000 A 
ENDROOT
TORSDOF 0
ENDMDL
