MODEL 1
REMARK minimizedAffinity -2.27152443
REMARK minimizedRMSD -1
REMARK  0 active torsions:
REMARK  status: ('A' for Active; 'I' for Inactive)
ROOT
ATOM      1  C1  BNZ d   1      -5.699  -4.527  -3.802  0.00  0.00     0.000 A 
ATOM      2  C2  BNZ d   1      -5.920  -4.509  -5.154  0.00  0.00     0.000 A 
ATOM      3  C3  BNZ d   1      -5.145  -5.251  -6.000  0.00  0.00     0.000 A 
ATOM      4  C4  BNZ d   1      -4.125  -5.978  -5.498  0.00  0.00     0.000 A 
ATOM      5  C5  BNZ d   1      -3.884  -6.000  -4.139  0.00  0.00     0.000 A 
ATOM      6  C6  BNZ d   1      -4.691  -5.282  -3.287  0.00  0.00     0.000 A 
ENDROOT
TORSDOF 0
ENDMDL
