MODEL 1
REMARK minimizedAffinity -1.82253587
REMARK minimizedRMSD -1
REMARK  0 active torsions:
REMARK  status: ('A' for Active; 'I' for Inactive)
ROOT
ATOM      1  C1  BNZ d   1      -5.898  -4.067  -4.436  0.00  0.00     0.000 A 
ATOM      2  C2  BNZ d   1      -5.727  -5.425  -4.452  0.00  0.00     0.000 A 
ATOM      3  C3  BNZ d   1      -4.752  -5.999  -5.218  0.00  0.00     0.000 A 
ATOM      4  C4  BNZ d   1      -3.975  -5.219  -5.997  0.00  0.00     0.000 A 
ATOM      5  C5  BNZ d   1      -4.141  -3.848  -6.000  0.00  0.00     0.000 A 
ATOM      6  C6  BNZ d   1      -5.099  -3.271  -5.198  0.00  0.00     0.000 A 
ENDROOT
TORSDOF 0
ENDMDL
