MODEL 1
REMARK minimizedAffinity -0.85301739
REMARK minimizedRMSD -1
REMARK  0 active torsions:
REMARK  status: ('A' for Active; 'I' for Inactive)
ROOT
ATOM      1  C1  BNZ d   1      -4.130  -5.999  -5.412  0.00  0.00     0.000 A 
ATOM      2  C2  BNZ d   1      -3.760  -5.586  -4.160  0.00  0.00     0.000 A 
ATOM      3  C3  BNZ d   1      -4.515  -4.680  -3.470  0.00  0.00     0.000 A 
ATOM      4  C4  BNZ d   1      -5.617  -4.159  -4.047  0.00  0.00     0.000 A 
ATOM      5  C5  BNZ d   1      -5.999  -4.559  -5.312  0.00  0.00     0.000 A 
ATOM      6  C6  BNZ d   1      -5.257  -5.500  -5.988  0.00  0.00     0.000 A 
ENDROOT
TORSDOF 0
ENDMDL
