MODEL 1
REMARK minimizedAffinity -3.4974606
REMARK minimizedRMSD -1
REMARK  0 active torsions:
REMARK  status: ('A' for Active; 'I' for Inactive)
ROOT
ATOM      1  C1  BNZ d   1      -3.754  -5.251  -3.697  0.00  0.00     0.000 A 
ATOM      2  C2  BNZ d   1      -3.779  -5.265  -5.066  0.00  0.00     0.000 A 
ATOM      3  C3  BNZ d   1      -4.897  -4.876  -5.750  0.00  0.00     0.000 A 
ATOM      4  C4  BNZ d   1      -6.000  -4.512  -5.064  0.00  0.00     0.000 A 
ATOM      5  C5  BNZ d   1      -5.993  -4.501  -3.684  0.00  0.00     0.000 A 
ATOM      6  C6  BNZ d   1      -4.854  -4.857  -2.999  0.00  0.00     0.000 A 
ENDROOT
TORSDOF 0
ENDMDL
