MODEL 1
REMARK minimizedAffinity -3.16578031
REMARK minimizedRMSD -1
REMARK  0 active torsions:
REMARK  status: ('A' for Active; 'I' for Inactive)
ROOT
ATOM      1  C1  BNZ d   1      -5.991  -4.579  -3.609  0.00  0.00     0.000 A 
ATOM      2  C2  BNZ d   1      -5.999  -4.596  -2.240  0.00  0.00     0.000 A 
ATOM      3  C3  BNZ d   1      -5.051  -5.292  -1.543  0.00  0.00     0.000 A 
ATOM      4  C4  BNZ d   1      -4.121  -6.000  -2.215  0.00  0.00     0.000 A 
ATOM      5  C5  BNZ d   1      -4.104  -6.000  -3.595  0.00  0.00     0.000 A 
ATOM      6  C6  BNZ d   1      -5.037  -5.267  -4.293  0.00  0.00     0.000 A 
ENDROOT
TORSDOF 0
ENDMDL
