MODEL 1
REMARK minimizedAffinity 0.421539634
REMARK minimizedRMSD -1
REMARK  0 active torsions:
REMARK  status: ('A' for Active; 'I' for Inactive)
ROOT
ATOM      1  C1  BNZ d   1      -5.972  -4.065  -5.943  0.00  0.00     0.000 A 
ATOM      2  C2  BNZ d   1      -5.972  -3.345  -4.778  0.00  0.00     0.000 A 
ATOM      3  C3  BNZ d   1      -5.599  -3.924  -3.597  0.00  0.00     0.000 A 
ATOM      4  C4  BNZ d   1      -5.266  -5.230  -3.575  0.00  0.00     0.000 A 
ATOM      5  C5  BNZ d   1      -5.270  -5.972  -4.739  0.00  0.00     0.000 A 
ATOM      6  C6  BNZ d   1      -5.608  -5.376  -5.933  0.00  0.00     0.000 A 
ENDROOT
TORSDOF 0
ENDMDL
