MODEL 1
REMARK minimizedAffinity -1.41419566
REMARK minimizedRMSD -1
REMARK  0 active torsions:
REMARK  status: ('A' for Active; 'I' for Inactive)
ROOT
ATOM      1  C1  BNZ d   1      -4.994  -3.944  -3.626  0.00  0.00     0.000 A 
ATOM      2  C2  BNZ d   1      -5.151  -3.302  -4.825  0.00  0.00     0.000 A 
ATOM      3  C3  BNZ d   1      -5.142  -4.001  -6.000  0.00  0.00     0.000 A 
ATOM      4  C4  BNZ d   1      -4.935  -5.334  -5.977  0.00  0.00     0.000 A 
ATOM      5  C5  BNZ d   1      -4.766  -5.994  -4.776  0.00  0.00     0.000 A 
ATOM      6  C6  BNZ d   1      -4.815  -5.293  -3.593  0.00  0.00     0.000 A 
ENDROOT
TORSDOF 0
ENDMDL
