MODEL 1
REMARK minimizedAffinity 5.20565748
REMARK minimizedRMSD -1
REMARK  0 active torsions:
REMARK  status: ('A' for Active; 'I' for Inactive)
ROOT
ATOM      1  C1  BNZ d   1       4.507   1.554  -4.774  0.00  0.00     0.000 A 
ATOM      2  C2  BNZ d   1       5.246   1.282  -5.894  0.00  0.00     0.000 A 
ATOM      3  C3  BNZ d   1       5.977   0.130  -5.988  0.00  0.00     0.000 A 
ATOM      4  C4  BNZ d   1       5.999  -0.727  -4.947  0.00  0.00     0.000 A 
ATOM      5  C5  BNZ d   1       5.266  -0.463  -3.807  0.00  0.00     0.000 A 
ATOM      6  C6  BNZ d   1       4.501   0.679  -3.732  0.00  0.00     0.000 A 
ENDROOT
TORSDOF 0
ENDMDL
