MODEL 1
REMARK minimizedAffinity 6.6196413
REMARK minimizedRMSD -1
REMARK  2 active torsions:
REMARK  status: ('A' for Active; 'I' for Inactive)
REMARK    1  A    between atoms: C2'_3  and  C1'_4 
REMARK    2  A    between atoms: C1'_4  and  C1_5 
ROOT
ATOM      1  C1  I4B d   1       4.101  -3.730   1.865  0.00  0.00    -0.075 A 
ATOM      2  C2  I4B d   1       4.383  -4.291   0.645  0.00  0.00     0.003 A 
ATOM      3  C3  I4B d   1       3.669  -3.885  -0.508  0.00  0.00     0.002 A 
ATOM      4  C4  I4B d   1       2.654  -2.958  -0.388  0.00  0.00    -0.004 A 
ATOM      5  C5  I4B d   1       2.385  -2.373   0.847  0.00  0.00     0.002 A 
ATOM      6  C6  I4B d   1       3.121  -2.752   1.978  0.00  0.00     0.003 A 
ENDROOT
BRANCH   1   7
ATOM      7  C1' I4B d   1       4.852  -4.206   3.068  0.00  0.00     0.060 C 
BRANCH   7   8
ATOM      8  C2' I4B d   1       4.928  -3.059   4.055  0.00  0.00    -0.013 C 
ATOM      9  C4' I4B d   1       5.210  -3.557   5.449  0.00  0.00     0.013 C 
ATOM     10  C3' I4B d   1       5.999  -2.118   3.590  0.00  0.00     0.013 C 
ENDBRANCH   7   8
ENDBRANCH   1   7
TORSDOF 2
ENDMDL
