MODEL 1
REMARK minimizedAffinity 18.5999889
REMARK minimizedRMSD -1
REMARK  2 active torsions:
REMARK  status: ('A' for Active; 'I' for Inactive)
REMARK    1  A    between atoms: C2'_3  and  C1'_4 
REMARK    2  A    between atoms: C1'_4  and  C1_5 
ROOT
ATOM      1  C1  I4B d   1       3.825   2.341   1.410  0.00  0.00    -0.075 A 
ATOM      2  C2  I4B d   1       3.777   2.735   2.724  0.00  0.00     0.003 A 
ATOM      3  C3  I4B d   1       2.562   3.199   3.285  0.00  0.00     0.002 A 
ATOM      4  C4  I4B d   1       1.440   3.300   2.488  0.00  0.00    -0.004 A 
ATOM      5  C5  I4B d   1       1.485   2.879   1.162  0.00  0.00     0.002 A 
ATOM      6  C6  I4B d   1       2.682   2.385   0.623  0.00  0.00     0.003 A 
ENDROOT
BRANCH   1   7
ATOM      7  C1' I4B d   1       5.132   1.887   0.841  0.00  0.00     0.060 C 
BRANCH   7   8
ATOM      8  C2' I4B d   1       4.838   0.976  -0.334  0.00  0.00    -0.013 C 
ATOM      9  C4' I4B d   1       5.756   1.267  -1.492  0.00  0.00     0.013 C 
ATOM     10  C3' I4B d   1       4.986  -0.441   0.132  0.00  0.00     0.013 C 
ENDBRANCH   7   8
ENDBRANCH   1   7
TORSDOF 2
ENDMDL
