MODEL 1
REMARK minimizedAffinity 3.74308228
REMARK minimizedRMSD -1
REMARK  2 active torsions:
REMARK  status: ('A' for Active; 'I' for Inactive)
REMARK    1  A    between atoms: C2'_3  and  C1'_4 
REMARK    2  A    between atoms: C1'_4  and  C1_5 
ROOT
ATOM      1  C1  I4B d   1       3.822  -3.970  -0.005  0.00  0.00    -0.075 A 
ATOM      2  C2  I4B d   1       4.816  -4.875   0.274  0.00  0.00     0.003 A 
ATOM      3  C3  I4B d   1       5.519  -5.508  -0.779  0.00  0.00     0.002 A 
ATOM      4  C4  I4B d   1       5.163  -5.248  -2.087  0.00  0.00    -0.004 A 
ATOM      5  C5  I4B d   1       4.171  -4.313  -2.368  0.00  0.00     0.002 A 
ATOM      6  C6  I4B d   1       3.504  -3.661  -1.321  0.00  0.00     0.003 A 
ENDROOT
BRANCH   1   7
ATOM      7  C1' I4B d   1       3.078  -3.344   1.132  0.00  0.00     0.060 C 
BRANCH   7   8
ATOM      8  C2' I4B d   1       1.607  -3.314   0.767  0.00  0.00    -0.013 C 
ATOM      9  C4' I4B d   1       0.989  -4.682   0.883  0.00  0.00     0.013 C 
ATOM     10  C3' I4B d   1       0.925  -2.333   1.674  0.00  0.00     0.013 C 
ENDBRANCH   7   8
ENDBRANCH   1   7
TORSDOF 2
ENDMDL
