MODEL 1
REMARK minimizedAffinity 11.4570513
REMARK minimizedRMSD -1
REMARK  2 active torsions:
REMARK  status: ('A' for Active; 'I' for Inactive)
REMARK    1  A    between atoms: C2'_3  and  C1'_4 
REMARK    2  A    between atoms: C1'_4  and  C1_5 
ROOT
ATOM      1  C1  I4B d   1       4.096  -3.734   1.895  0.00  0.00    -0.075 A 
ATOM      2  C2  I4B d   1       4.572  -3.926   0.622  0.00  0.00     0.003 A 
ATOM      3  C3  I4B d   1       3.889  -3.368  -0.486  0.00  0.00     0.002 A 
ATOM      4  C4  I4B d   1       2.714  -2.673  -0.281  0.00  0.00    -0.004 A 
ATOM      5  C5  I4B d   1       2.246  -2.460   1.012  0.00  0.00     0.002 A 
ATOM      6  C6  I4B d   1       2.947  -2.983   2.108  0.00  0.00     0.003 A 
ENDROOT
BRANCH   1   7
ATOM      7  C1' I4B d   1       4.824  -4.365   3.039  0.00  0.00     0.060 C 
BRANCH   7   8
ATOM      8  C2' I4B d   1       4.985  -3.319   4.123  0.00  0.00    -0.013 C 
ATOM      9  C4' I4B d   1       5.402  -3.945   5.428  0.00  0.00     0.013 C 
ATOM     10  C3' I4B d   1       6.000  -2.319   3.654  0.00  0.00     0.013 C 
ENDBRANCH   7   8
ENDBRANCH   1   7
TORSDOF 2
ENDMDL
