MODEL 1
REMARK minimizedAffinity 16.1989384
REMARK minimizedRMSD -1
REMARK  2 active torsions:
REMARK  status: ('A' for Active; 'I' for Inactive)
REMARK    1  A    between atoms: C2'_3  and  C1'_4 
REMARK    2  A    between atoms: C1'_4  and  C1_5 
ROOT
ATOM      1  C1  I4B d   1      -5.541   1.332  -4.869  0.00  0.00    -0.075 A 
ATOM      2  C2  I4B d   1      -5.953   0.658  -3.747  0.00  0.00     0.003 A 
ATOM      3  C3  I4B d   1      -5.969  -0.758  -3.732  0.00  0.00     0.002 A 
ATOM      4  C4  I4B d   1      -5.617  -1.454  -4.870  0.00  0.00    -0.004 A 
ATOM      5  C5  I4B d   1      -5.178  -0.769  -6.000  0.00  0.00     0.002 A 
ATOM      6  C6  I4B d   1      -5.128   0.632  -5.996  0.00  0.00     0.003 A 
ENDROOT
BRANCH   1   7
ATOM      7  C1' I4B d   1      -5.567   2.828  -4.862  0.00  0.00     0.060 C 
BRANCH   7   8
ATOM      8  C2' I4B d   1      -4.648   3.305  -3.755  0.00  0.00    -0.013 C 
ATOM      9  C4' I4B d   1      -3.345   2.551  -3.767  0.00  0.00     0.013 C 
ATOM     10  C3' I4B d   1      -4.425   4.776  -3.942  0.00  0.00     0.013 C 
ENDBRANCH   7   8
ENDBRANCH   1   7
TORSDOF 2
ENDMDL
