MODEL 1
REMARK minimizedAffinity 9.29842567
REMARK minimizedRMSD -1
REMARK  2 active torsions:
REMARK  status: ('A' for Active; 'I' for Inactive)
REMARK    1  A    between atoms: C2'_3  and  C1'_4 
REMARK    2  A    between atoms: C1'_4  and  C1_5 
ROOT
ATOM      1  C1  I4B d   1       4.269  -3.950   2.084  0.00  0.00    -0.075 A 
ATOM      2  C2  I4B d   1       4.447  -4.811   1.029  0.00  0.00     0.003 A 
ATOM      3  C3  I4B d   1       3.931  -4.489  -0.249  0.00  0.00     0.002 A 
ATOM      4  C4  I4B d   1       3.205  -3.328  -0.416  0.00  0.00    -0.004 A 
ATOM      5  C5  I4B d   1       3.044  -2.445   0.648  0.00  0.00     0.002 A 
ATOM      6  C6  I4B d   1       3.590  -2.752   1.903  0.00  0.00     0.003 A 
ENDROOT
BRANCH   1   7
ATOM      7  C1' I4B d   1       4.798  -4.337   3.428  0.00  0.00     0.060 C 
BRANCH   7   8
ATOM      8  C2' I4B d   1       4.860  -3.087   4.283  0.00  0.00    -0.013 C 
ATOM      9  C4' I4B d   1       5.038  -3.431   5.738  0.00  0.00     0.013 C 
ATOM     10  C3' I4B d   1       5.992  -2.240   3.783  0.00  0.00     0.013 C 
ENDBRANCH   7   8
ENDBRANCH   1   7
TORSDOF 2
ENDMDL
