MODEL 1
REMARK minimizedAffinity 8.13669395
REMARK minimizedRMSD -1
REMARK  2 active torsions:
REMARK  status: ('A' for Active; 'I' for Inactive)
REMARK    1  A    between atoms: C2'_3  and  C1'_4 
REMARK    2  A    between atoms: C1'_4  and  C1_5 
ROOT
ATOM      1  C1  I4B d   1      -4.354   0.043  -2.799  0.00  0.00    -0.075 A 
ATOM      2  C2  I4B d   1      -5.384   0.387  -3.639  0.00  0.00     0.003 A 
ATOM      3  C3  I4B d   1      -5.991  -0.593  -4.461  0.00  0.00     0.002 A 
ATOM      4  C4  I4B d   1      -5.507  -1.886  -4.448  0.00  0.00    -0.004 A 
ATOM      5  C5  I4B d   1      -4.479  -2.238  -3.578  0.00  0.00     0.002 A 
ATOM      6  C6  I4B d   1      -3.907  -1.271  -2.739  0.00  0.00     0.003 A 
ENDROOT
BRANCH   1   7
ATOM      7  C1' I4B d   1      -3.714   1.110  -1.968  0.00  0.00     0.060 C 
BRANCH   7   8
ATOM      8  C2' I4B d   1      -2.758   1.881  -2.856  0.00  0.00    -0.013 C 
ATOM      9  C4' I4B d   1      -3.442   3.058  -3.500  0.00  0.00     0.013 C 
ATOM     10  C3' I4B d   1      -1.599   2.323  -2.013  0.00  0.00     0.013 C 
ENDBRANCH   7   8
ENDBRANCH   1   7
TORSDOF 2
ENDMDL
