MODEL 1
REMARK minimizedAffinity 13.6513929
REMARK minimizedRMSD -1
REMARK  2 active torsions:
REMARK  status: ('A' for Active; 'I' for Inactive)
REMARK    1  A    between atoms: C2'_3  and  C1'_4 
REMARK    2  A    between atoms: C1'_4  and  C1_5 
ROOT
ATOM      1  C1  I4B d   1      -4.340   2.646   4.658  0.00  0.00    -0.075 A 
ATOM      2  C2  I4B d   1      -5.566   2.608   4.043  0.00  0.00     0.003 A 
ATOM      3  C3  I4B d   1      -5.743   1.866   2.850  0.00  0.00     0.002 A 
ATOM      4  C4  I4B d   1      -4.661   1.223   2.283  0.00  0.00    -0.004 A 
ATOM      5  C5  I4B d   1      -3.424   1.245   2.920  0.00  0.00     0.002 A 
ATOM      6  C6  I4B d   1      -3.264   1.950   4.121  0.00  0.00     0.003 A 
ENDROOT
BRANCH   1   7
ATOM      7  C1' I4B d   1      -4.181   3.466   5.898  0.00  0.00     0.060 C 
BRANCH   7   8
ATOM      8  C2' I4B d   1      -3.915   4.898   5.481  0.00  0.00    -0.013 C 
ATOM      9  C4' I4B d   1      -4.985   5.824   5.997  0.00  0.00     0.013 C 
ATOM     10  C3' I4B d   1      -2.564   5.289   6.000  0.00  0.00     0.013 C 
ENDBRANCH   7   8
ENDBRANCH   1   7
TORSDOF 2
ENDMDL
