MODEL 1
REMARK minimizedAffinity 2.96566319
REMARK minimizedRMSD -1
REMARK  1 active torsions:
REMARK  status: ('A' for Active; 'I' for Inactive)
REMARK    1  A    between atoms: C1_2  and  C2_3 
ROOT
ATOM      1  C2  UNL d   1       0.333  -0.434   1.520  0.00  0.00    -0.081 A 
ATOM      2  C3  UNL d   1      -0.077  -1.154   0.391  0.00  0.00     0.006 A 
ATOM      3  C4  UNL d   1      -1.350  -0.958  -0.149  0.00  0.00     0.002 A 
ATOM      4  C5  UNL d   1      -2.231  -0.036   0.426  0.00  0.00    -0.080 A 
ATOM      5  C6  UNL d   1      -3.590   0.205  -0.162  0.00  0.00     0.076 C 
ATOM      6  C7  UNL d   1      -1.829   0.669   1.564  0.00  0.00     0.002 A 
ATOM      7  C8  UNL d   1      -0.556   0.474   2.105  0.00  0.00     0.006 A 
ENDROOT
BRANCH   1   8
ATOM      8  C1  UNL d   1       1.729  -0.595   2.066  0.00  0.00     0.054 C 
ATOM      9  C   UNL d   1       2.701  -1.033   0.980  0.00  0.00     0.018 C 
ENDBRANCH   1   8
TORSDOF 1
ENDMDL
