MODEL 1
REMARK minimizedAffinity 11.2215719
REMARK minimizedRMSD -1
REMARK  1 active torsions:
REMARK  status: ('A' for Active; 'I' for Inactive)
REMARK    1  A    between atoms: C1_2  and  C2_3 
ROOT
ATOM      1  C2  UNL d   1      -2.122   1.814   1.317  0.00  0.00    -0.081 A 
ATOM      2  C3  UNL d   1      -1.453   0.804   2.018  0.00  0.00     0.006 A 
ATOM      3  C4  UNL d   1      -1.743  -0.540   1.772  0.00  0.00     0.002 A 
ATOM      4  C5  UNL d   1      -2.700  -0.896   0.815  0.00  0.00    -0.080 A 
ATOM      5  C6  UNL d   1      -2.998  -2.336   0.519  0.00  0.00     0.076 C 
ATOM      6  C7  UNL d   1      -3.380   0.113   0.126  0.00  0.00     0.002 A 
ATOM      7  C8  UNL d   1      -3.092   1.458   0.373  0.00  0.00     0.006 A 
ENDROOT
BRANCH   1   8
ATOM      8  C1  UNL d   1      -1.766   3.263   1.534  0.00  0.00     0.054 C 
ATOM      9  C   UNL d   1      -1.012   3.832   0.341  0.00  0.00     0.018 C 
ENDBRANCH   1   8
TORSDOF 1
ENDMDL
