MODEL 1
REMARK minimizedAffinity 8.63758373
REMARK minimizedRMSD -1
REMARK  1 active torsions:
REMARK  status: ('A' for Active; 'I' for Inactive)
REMARK    1  A    between atoms: C1_2  and  C2_3 
ROOT
ATOM      1  C2  UNL d   1      -0.641   0.371   2.986  0.00  0.00    -0.081 A 
ATOM      2  C3  UNL d   1      -1.575  -0.571   2.539  0.00  0.00     0.006 A 
ATOM      3  C4  UNL d   1      -2.625  -0.186   1.703  0.00  0.00     0.002 A 
ATOM      4  C5  UNL d   1      -2.755   1.145   1.294  0.00  0.00    -0.080 A 
ATOM      5  C6  UNL d   1      -3.861   1.566   0.372  0.00  0.00     0.076 C 
ATOM      6  C7  UNL d   1      -1.832   2.090   1.754  0.00  0.00     0.002 A 
ATOM      7  C8  UNL d   1      -0.782   1.706   2.591  0.00  0.00     0.006 A 
ENDROOT
BRANCH   1   8
ATOM      8  C1  UNL d   1       0.530  -0.053   3.835  0.00  0.00     0.054 C 
ATOM      9  C   UNL d   1       1.853   0.321   3.181  0.00  0.00     0.018 C 
ENDBRANCH   1   8
TORSDOF 1
ENDMDL
