MODEL 1
REMARK minimizedAffinity 3.28599524
REMARK minimizedRMSD -1
REMARK  1 active torsions:
REMARK  status: ('A' for Active; 'I' for Inactive)
REMARK    1  A    between atoms: C1_2  and  C2_3 
ROOT
ATOM      1  C2  UNL d   1      -1.168  -3.729  -4.622  0.00  0.00    -0.081 A 
ATOM      2  C3  UNL d   1      -1.349  -3.083  -3.393  0.00  0.00     0.006 A 
ATOM      3  C4  UNL d   1      -0.761  -1.839  -3.154  0.00  0.00     0.002 A 
ATOM      4  C5  UNL d   1       0.010  -1.216  -4.141  0.00  0.00    -0.080 A 
ATOM      5  C6  UNL d   1       0.621   0.134  -3.908  0.00  0.00     0.076 C 
ATOM      6  C7  UNL d   1       0.205  -1.869  -5.363  0.00  0.00     0.002 A 
ATOM      7  C8  UNL d   1      -0.381  -3.114  -5.603  0.00  0.00     0.006 A 
ENDROOT
BRANCH   1   8
ATOM      8  C1  UNL d   1      -1.853  -5.041  -4.907  0.00  0.00     0.054 C 
ATOM      9  C   UNL d   1      -3.326  -4.837  -5.233  0.00  0.00     0.018 C 
ENDBRANCH   1   8
TORSDOF 1
ENDMDL
