MODEL 1
REMARK minimizedAffinity 4.06245661
REMARK minimizedRMSD -1
REMARK  1 active torsions:
REMARK  status: ('A' for Active; 'I' for Inactive)
REMARK    1  A    between atoms: C1_2  and  C2_3 
ROOT
ATOM      1  C2  UNL d   1      -0.378  -1.326  -5.322  0.00  0.00    -0.081 A 
ATOM      2  C3  UNL d   1      -1.503  -1.594  -4.534  0.00  0.00     0.006 A 
ATOM      3  C4  UNL d   1      -1.905  -2.911  -4.298  0.00  0.00     0.002 A 
ATOM      4  C5  UNL d   1      -1.185  -3.981  -4.840  0.00  0.00    -0.080 A 
ATOM      5  C6  UNL d   1      -1.588  -5.400  -4.569  0.00  0.00     0.076 C 
ATOM      6  C7  UNL d   1      -0.071  -3.713  -5.642  0.00  0.00     0.002 A 
ATOM      7  C8  UNL d   1       0.331  -2.396  -5.878  0.00  0.00     0.006 A 
ENDROOT
BRANCH   1   8
ATOM      8  C1  UNL d   1       0.096   0.090  -5.525  0.00  0.00     0.054 C 
ATOM      9  C   UNL d   1       1.400   0.349  -4.783  0.00  0.00     0.018 C 
ENDBRANCH   1   8
TORSDOF 1
ENDMDL
