MODEL 1
REMARK minimizedAffinity -0.563635111
REMARK minimizedRMSD -1
REMARK  0 active torsions:
REMARK  status: ('A' for Active; 'I' for Inactive)
ROOT
ATOM      1  C   UNL d   1       0.481   0.519   0.145  0.00  0.00     0.124 A 
ATOM      2  C1  UNL d   1       1.738  -0.054   0.014  0.00  0.00     0.062 A 
ATOM      3  C2  UNL d   1       2.011  -1.285   0.603  0.00  0.00     0.162 A 
ATOM      4  C3  UNL d   1       1.024  -1.952   1.328  0.00  0.00    -0.034 A 
ATOM      5  C4  UNL d   1      -0.238  -1.369   1.457  0.00  0.00     0.162 A 
ATOM      6  C5  UNL d   1      -0.505  -0.138   0.866  0.00  0.00     0.062 A 
ATOM      7  F   UNL d   1      -1.720   0.415   0.995  0.00  0.00    -0.097 F 
ATOM      8  F1  UNL d   1      -1.210  -1.983   2.148  0.00  0.00    -0.096 F 
ATOM      9  I   UNL d   1       1.428  -3.794   2.211  0.00  0.00    -0.060 I 
ATOM     10  F2  UNL d   1       3.235  -1.816   0.460  0.00  0.00    -0.096 F 
ATOM     11  F3  UNL d   1       2.694   0.580  -0.682  0.00  0.00    -0.097 F 
ATOM     12  F4  UNL d   1       0.222   1.705  -0.422  0.00  0.00    -0.092 F 
ENDROOT
TORSDOF 0
ENDMDL
