MODEL 1
REMARK minimizedAffinity 2.43371797
REMARK minimizedRMSD -1
REMARK  0 active torsions:
REMARK  status: ('A' for Active; 'I' for Inactive)
ROOT
ATOM      1  C   UNL d   1       1.537  -1.673   1.394  0.00  0.00     0.124 A 
ATOM      2  C1  UNL d   1       0.160  -1.577   1.245  0.00  0.00     0.062 A 
ATOM      3  C2  UNL d   1      -0.388  -0.581   0.442  0.00  0.00     0.162 A 
ATOM      4  C3  UNL d   1       0.440   0.327  -0.219  0.00  0.00    -0.034 A 
ATOM      5  C4  UNL d   1       1.823   0.224  -0.063  0.00  0.00     0.162 A 
ATOM      6  C5  UNL d   1       2.367  -0.773   0.741  0.00  0.00     0.062 A 
ATOM      7  F   UNL d   1       3.697  -0.865   0.884  0.00  0.00    -0.097 F 
ATOM      8  F1  UNL d   1       2.648   1.080  -0.684  0.00  0.00    -0.096 F 
ATOM      9  I   UNL d   1      -0.377   1.817  -1.420  0.00  0.00    -0.060 I 
ATOM     10  F2  UNL d   1      -1.722  -0.511   0.315  0.00  0.00    -0.096 F 
ATOM     11  F3  UNL d   1      -0.644  -2.444   1.876  0.00  0.00    -0.097 F 
ATOM     12  F4  UNL d   1       2.062  -2.631   2.168  0.00  0.00    -0.092 F 
ENDROOT
TORSDOF 0
ENDMDL
