MODEL 1
REMARK minimizedAffinity -1.98899901
REMARK minimizedRMSD -1
REMARK  0 active torsions:
REMARK  status: ('A' for Active; 'I' for Inactive)
ROOT
ATOM      1  C   UNL d   1      -1.272   0.328   1.421  0.00  0.00     0.124 A 
ATOM      2  C1  UNL d   1      -0.876   1.356   0.577  0.00  0.00     0.062 A 
ATOM      3  C2  UNL d   1       0.347   1.286  -0.085  0.00  0.00     0.162 A 
ATOM      4  C3  UNL d   1       1.183   0.184   0.095  0.00  0.00    -0.034 A 
ATOM      5  C4  UNL d   1       0.778  -0.845   0.947  0.00  0.00     0.162 A 
ATOM      6  C5  UNL d   1      -0.445  -0.771   1.605  0.00  0.00     0.062 A 
ATOM      7  F   UNL d   1      -0.826  -1.765   2.421  0.00  0.00    -0.097 F 
ATOM      8  F1  UNL d   1       1.557  -1.920   1.142  0.00  0.00    -0.096 F 
ATOM      9  I   UNL d   1       3.012   0.076  -0.892  0.00  0.00    -0.060 I 
ATOM     10  F2  UNL d   1       0.704   2.294  -0.895  0.00  0.00    -0.096 F 
ATOM     11  F3  UNL d   1      -1.673   2.419   0.398  0.00  0.00    -0.097 F 
ATOM     12  F4  UNL d   1      -2.448   0.398   2.057  0.00  0.00    -0.092 F 
ENDROOT
TORSDOF 0
ENDMDL
