MODEL 1
REMARK minimizedAffinity -0.141002014
REMARK minimizedRMSD -1
REMARK  0 active torsions:
REMARK  status: ('A' for Active; 'I' for Inactive)
ROOT
ATOM      1  C   UNL d   1      -2.526   2.441  -2.865  0.00  0.00     0.124 A 
ATOM      2  C1  UNL d   1      -1.287   3.060  -2.952  0.00  0.00     0.062 A 
ATOM      3  C2  UNL d   1      -0.179   2.502  -2.319  0.00  0.00     0.162 A 
ATOM      4  C3  UNL d   1      -0.306   1.317  -1.594  0.00  0.00    -0.034 A 
ATOM      5  C4  UNL d   1      -1.556   0.701  -1.510  0.00  0.00     0.162 A 
ATOM      6  C5  UNL d   1      -2.659   1.263  -2.145  0.00  0.00     0.062 A 
ATOM      7  F   UNL d   1      -3.856   0.663  -2.059  0.00  0.00    -0.097 F 
ATOM      8  F1  UNL d   1      -1.713  -0.439  -0.821  0.00  0.00    -0.096 F 
ATOM      9  I   UNL d   1       1.347   0.480  -0.646  0.00  0.00    -0.060 I 
ATOM     10  F2  UNL d   1       1.006   3.122  -2.420  0.00  0.00    -0.096 F 
ATOM     11  F3  UNL d   1      -1.155   4.199  -3.647  0.00  0.00    -0.097 F 
ATOM     12  F4  UNL d   1      -3.590   2.980  -3.474  0.00  0.00    -0.092 F 
ENDROOT
TORSDOF 0
ENDMDL
