MODEL 1
REMARK minimizedAffinity -3.81904554
REMARK minimizedRMSD -1
REMARK  0 active torsions:
REMARK  status: ('A' for Active; 'I' for Inactive)
ROOT
ATOM      1  C   UNL d   1       1.752  -1.997   1.012  0.00  0.00     0.124 A 
ATOM      2  C1  UNL d   1       0.376  -2.099   1.160  0.00  0.00     0.062 A 
ATOM      3  C2  UNL d   1      -0.450  -1.051   0.764  0.00  0.00     0.162 A 
ATOM      4  C3  UNL d   1       0.098   0.108   0.213  0.00  0.00    -0.034 A 
ATOM      5  C4  UNL d   1       1.483   0.203   0.068  0.00  0.00     0.162 A 
ATOM      6  C5  UNL d   1       2.304  -0.847   0.466  0.00  0.00     0.062 A 
ATOM      7  F   UNL d   1       3.634  -0.747   0.322  0.00  0.00    -0.097 F 
ATOM      8  F1  UNL d   1       2.043   1.303  -0.457  0.00  0.00    -0.096 F 
ATOM      9  I   UNL d   1      -1.134   1.676  -0.381  0.00  0.00    -0.060 I 
ATOM     10  F2  UNL d   1      -1.776  -1.177   0.919  0.00  0.00    -0.096 F 
ATOM     11  F3  UNL d   1      -0.160  -3.209   1.688  0.00  0.00    -0.097 F 
ATOM     12  F4  UNL d   1       2.545  -3.006   1.395  0.00  0.00    -0.092 F 
ENDROOT
TORSDOF 0
ENDMDL
