MODEL 1
REMARK minimizedAffinity -3.91143584
REMARK minimizedRMSD -1
REMARK  0 active torsions:
REMARK  status: ('A' for Active; 'I' for Inactive)
ROOT
ATOM      1  C   UNL d   1       1.775  -2.138   1.383  0.00  0.00     0.124 A 
ATOM      2  C1  UNL d   1       0.391  -2.230   1.436  0.00  0.00     0.062 A 
ATOM      3  C2  UNL d   1      -0.398  -1.315   0.745  0.00  0.00     0.162 A 
ATOM      4  C3  UNL d   1       0.195  -0.301  -0.008  0.00  0.00    -0.034 A 
ATOM      5  C4  UNL d   1       1.587  -0.215  -0.056  0.00  0.00     0.162 A 
ATOM      6  C5  UNL d   1       2.372  -1.132   0.637  0.00  0.00     0.062 A 
ATOM      7  F   UNL d   1       3.709  -1.042   0.584  0.00  0.00    -0.097 F 
ATOM      8  F1  UNL d   1       2.190   0.747  -0.770  0.00  0.00    -0.096 F 
ATOM      9  I   UNL d   1      -0.982   1.068  -1.043  0.00  0.00    -0.060 I 
ATOM     10  F2  UNL d   1      -1.733  -1.428   0.814  0.00  0.00    -0.096 F 
ATOM     11  F3  UNL d   1      -0.188  -3.201   2.156  0.00  0.00    -0.097 F 
ATOM     12  F4  UNL d   1       2.532  -3.019   2.050  0.00  0.00    -0.092 F 
ENDROOT
TORSDOF 0
ENDMDL
