MODEL 1
REMARK minimizedAffinity -2.00238776
REMARK minimizedRMSD -1
REMARK  0 active torsions:
REMARK  status: ('A' for Active; 'I' for Inactive)
ROOT
ATOM      1  C   UNL d   1       1.587  -1.891   1.706  0.00  0.00     0.124 A 
ATOM      2  C1  UNL d   1       2.254  -1.023   0.852  0.00  0.00     0.062 A 
ATOM      3  C2  UNL d   1       1.536  -0.172   0.017  0.00  0.00     0.162 A 
ATOM      4  C3  UNL d   1       0.142  -0.184   0.031  0.00  0.00    -0.034 A 
ATOM      5  C4  UNL d   1      -0.523  -1.060   0.891  0.00  0.00     0.162 A 
ATOM      6  C5  UNL d   1       0.199  -1.909   1.724  0.00  0.00     0.062 A 
ATOM      7  F   UNL d   1      -0.447  -2.746   2.548  0.00  0.00    -0.097 F 
ATOM      8  F1  UNL d   1      -1.863  -1.098   0.930  0.00  0.00    -0.096 F 
ATOM      9  I   UNL d   1      -0.936   1.086  -1.216  0.00  0.00    -0.060 I 
ATOM     10  F2  UNL d   1       2.207   0.656  -0.797  0.00  0.00    -0.096 F 
ATOM     11  F3  UNL d   1       3.595  -1.004   0.832  0.00  0.00    -0.097 F 
ATOM     12  F4  UNL d   1       2.280  -2.709   2.508  0.00  0.00    -0.092 F 
ENDROOT
TORSDOF 0
ENDMDL
