MODEL 1
REMARK minimizedAffinity 4.47460651
REMARK minimizedRMSD -1
REMARK  0 active torsions:
REMARK  status: ('A' for Active; 'I' for Inactive)
ROOT
ATOM      1  C   UNL d   1      -0.485   0.033  -0.323  0.00  0.00     0.124 A 
ATOM      2  C1  UNL d   1      -0.255  -1.166   0.338  0.00  0.00     0.062 A 
ATOM      3  C2  UNL d   1       0.929  -1.360   1.043  0.00  0.00     0.162 A 
ATOM      4  C3  UNL d   1       1.893  -0.353   1.092  0.00  0.00    -0.034 A 
ATOM      5  C4  UNL d   1       1.655   0.849   0.424  0.00  0.00     0.162 A 
ATOM      6  C5  UNL d   1       0.469   1.039  -0.279  0.00  0.00     0.062 A 
ATOM      7  F   UNL d   1       0.249   2.198  -0.918  0.00  0.00    -0.097 F 
ATOM      8  F1  UNL d   1       2.560   1.839   0.450  0.00  0.00    -0.096 F 
ATOM      9  I   UNL d   1       3.665  -0.640   2.145  0.00  0.00    -0.060 I 
ATOM     10  F2  UNL d   1       1.124  -2.529   1.673  0.00  0.00    -0.096 F 
ATOM     11  F3  UNL d   1      -1.176  -2.140   0.297  0.00  0.00    -0.097 F 
ATOM     12  F4  UNL d   1      -1.625   0.217  -1.001  0.00  0.00    -0.092 F 
ENDROOT
TORSDOF 0
ENDMDL
