MODEL 1
REMARK minimizedAffinity 0.967677057
REMARK minimizedRMSD -1
REMARK  0 active torsions:
REMARK  status: ('A' for Active; 'I' for Inactive)
ROOT
ATOM      1  C   UNL d   1      -0.976  -1.535   1.533  0.00  0.00     0.124 A 
ATOM      2  C1  UNL d   1      -0.275  -1.701   0.347  0.00  0.00     0.062 A 
ATOM      3  C2  UNL d   1      -0.202  -0.659  -0.574  0.00  0.00     0.162 A 
ATOM      4  C3  UNL d   1      -0.831   0.558  -0.312  0.00  0.00    -0.034 A 
ATOM      5  C4  UNL d   1      -1.535   0.716   0.883  0.00  0.00     0.162 A 
ATOM      6  C5  UNL d   1      -1.605  -0.327   1.800  0.00  0.00     0.062 A 
ATOM      7  F   UNL d   1      -2.283  -0.166   2.946  0.00  0.00    -0.097 F 
ATOM      8  F1  UNL d   1      -2.151   1.873   1.167  0.00  0.00    -0.096 F 
ATOM      9  I   UNL d   1      -0.724   2.117  -1.686  0.00  0.00    -0.060 I 
ATOM     10  F2  UNL d   1       0.483  -0.847  -1.712  0.00  0.00    -0.096 F 
ATOM     11  F3  UNL d   1       0.333  -2.867   0.086  0.00  0.00    -0.097 F 
ATOM     12  F4  UNL d   1      -1.046  -2.539   2.417  0.00  0.00    -0.092 F 
ENDROOT
TORSDOF 0
ENDMDL
