MODEL 1
REMARK minimizedAffinity 1.15781212
REMARK minimizedRMSD -1
REMARK  0 active torsions:
REMARK  status: ('A' for Active; 'I' for Inactive)
ROOT
ATOM      1  C   UNL d   1       0.886  -1.219   1.011  0.00  0.00     0.124 A 
ATOM      2  C1  UNL d   1       1.770  -0.492   0.227  0.00  0.00     0.062 A 
ATOM      3  C2  UNL d   1       1.328   0.626  -0.475  0.00  0.00     0.162 A 
ATOM      4  C3  UNL d   1      -0.007   1.025  -0.395  0.00  0.00    -0.034 A 
ATOM      5  C4  UNL d   1      -0.891   0.287   0.395  0.00  0.00     0.162 A 
ATOM      6  C5  UNL d   1      -0.444  -0.829   1.094  0.00  0.00     0.062 A 
ATOM      7  F   UNL d   1      -1.300  -1.531   1.851  0.00  0.00    -0.097 F 
ATOM      8  F1  UNL d   1      -2.180   0.642   0.495  0.00  0.00    -0.096 F 
ATOM      9  I   UNL d   1      -0.672   2.695  -1.442  0.00  0.00    -0.060 I 
ATOM     10  F2  UNL d   1       2.205   1.310  -1.224  0.00  0.00    -0.096 F 
ATOM     11  F3  UNL d   1       3.055  -0.867   0.144  0.00  0.00    -0.097 F 
ATOM     12  F4  UNL d   1       1.314  -2.295   1.684  0.00  0.00    -0.092 F 
ENDROOT
TORSDOF 0
ENDMDL
