MODEL 1
REMARK minimizedAffinity 8.53418064
REMARK minimizedRMSD -1
REMARK  0 active torsions:
REMARK  status: ('A' for Active; 'I' for Inactive)
ROOT
ATOM      1  C   UNL d   1      -2.396   1.838  -2.597  0.00  0.00     0.124 A 
ATOM      2  C1  UNL d   1      -2.928   0.601  -2.261  0.00  0.00     0.062 A 
ATOM      3  C2  UNL d   1      -2.353  -0.155  -1.244  0.00  0.00     0.162 A 
ATOM      4  C3  UNL d   1      -1.239   0.325  -0.554  0.00  0.00    -0.034 A 
ATOM      5  C4  UNL d   1      -0.709   1.569  -0.899  0.00  0.00     0.162 A 
ATOM      6  C5  UNL d   1      -1.288   2.321  -1.917  0.00  0.00     0.062 A 
ATOM      7  F   UNL d   1      -0.773   3.516  -2.240  0.00  0.00    -0.097 F 
ATOM      8  F1  UNL d   1       0.361   2.060  -0.257  0.00  0.00    -0.096 F 
ATOM      9  I   UNL d   1      -0.376  -0.803   0.967  0.00  0.00    -0.060 I 
ATOM     10  F2  UNL d   1      -2.888  -1.347  -0.940  0.00  0.00    -0.096 F 
ATOM     11  F3  UNL d   1      -3.999   0.132  -2.918  0.00  0.00    -0.097 F 
ATOM     12  F4  UNL d   1      -2.951   2.563  -3.577  0.00  0.00    -0.092 F 
ENDROOT
TORSDOF 0
ENDMDL
