MODEL 1
REMARK minimizedAffinity -3.80820251
REMARK minimizedRMSD -1
REMARK  0 active torsions:
REMARK  status: ('A' for Active; 'I' for Inactive)
ROOT
ATOM      1  C   UNL d   1      -0.507  -1.069   1.331  0.00  0.00     0.124 A 
ATOM      2  C1  UNL d   1       0.672  -1.792   1.205  0.00  0.00     0.062 A 
ATOM      3  C2  UNL d   1       1.732  -1.278   0.463  0.00  0.00     0.162 A 
ATOM      4  C3  UNL d   1       1.619  -0.034  -0.157  0.00  0.00    -0.034 A 
ATOM      5  C4  UNL d   1       0.430   0.687  -0.026  0.00  0.00     0.162 A 
ATOM      6  C5  UNL d   1      -0.626   0.169   0.716  0.00  0.00     0.062 A 
ATOM      7  F   UNL d   1      -1.764   0.869   0.837  0.00  0.00    -0.097 F 
ATOM      8  F1  UNL d   1       0.288   1.886  -0.609  0.00  0.00    -0.096 F 
ATOM      9  I   UNL d   1       3.202   0.738  -1.266  0.00  0.00    -0.060 I 
ATOM     10  F2  UNL d   1       2.858  -1.998   0.358  0.00  0.00    -0.096 F 
ATOM     11  F3  UNL d   1       0.789  -2.989   1.797  0.00  0.00    -0.097 F 
ATOM     12  F4  UNL d   1      -1.525  -1.566   2.044  0.00  0.00    -0.092 F 
ENDROOT
TORSDOF 0
ENDMDL
