MODEL 1
REMARK minimizedAffinity -3.81551552
REMARK minimizedRMSD -1
REMARK  0 active torsions:
REMARK  status: ('A' for Active; 'I' for Inactive)
ROOT
ATOM      1  C   UNL d   1       2.651  -1.080   0.076  0.00  0.00     0.124 A 
ATOM      2  C1  UNL d   1       2.332   0.185  -0.399  0.00  0.00     0.062 A 
ATOM      3  C2  UNL d   1       1.021   0.646  -0.334  0.00  0.00     0.162 A 
ATOM      4  C3  UNL d   1       0.018  -0.157   0.210  0.00  0.00    -0.034 A 
ATOM      5  C4  UNL d   1       0.347  -1.428   0.684  0.00  0.00     0.162 A 
ATOM      6  C5  UNL d   1       1.659  -1.885   0.617  0.00  0.00     0.062 A 
ATOM      7  F   UNL d   1       1.965  -3.107   1.076  0.00  0.00    -0.097 F 
ATOM      8  F1  UNL d   1      -0.593  -2.226   1.213  0.00  0.00    -0.096 F 
ATOM      9  I   UNL d   1      -1.944   0.530   0.309  0.00  0.00    -0.060 I 
ATOM     10  F2  UNL d   1       0.741   1.873  -0.800  0.00  0.00    -0.096 F 
ATOM     11  F3  UNL d   1       3.289   0.964  -0.923  0.00  0.00    -0.097 F 
ATOM     12  F4  UNL d   1       3.914  -1.522   0.011  0.00  0.00    -0.092 F 
ENDROOT
TORSDOF 0
ENDMDL
