MODEL 1
REMARK minimizedAffinity -3.93956232
REMARK minimizedRMSD -1
REMARK  0 active torsions:
REMARK  status: ('A' for Active; 'I' for Inactive)
ROOT
ATOM      1  C   UNL d   1       1.303  -2.048   1.968  0.00  0.00     0.124 A 
ATOM      2  C1  UNL d   1       1.990  -1.285   1.034  0.00  0.00     0.062 A 
ATOM      3  C2  UNL d   1       1.292  -0.520   0.104  0.00  0.00     0.162 A 
ATOM      4  C3  UNL d   1      -0.103  -0.514   0.103  0.00  0.00    -0.034 A 
ATOM      5  C4  UNL d   1      -0.788  -1.284   1.045  0.00  0.00     0.162 A 
ATOM      6  C5  UNL d   1      -0.085  -2.047   1.972  0.00  0.00     0.062 A 
ATOM      7  F   UNL d   1      -0.751  -2.783   2.874  0.00  0.00    -0.097 F 
ATOM      8  F1  UNL d   1      -2.129  -1.301   1.072  0.00  0.00    -0.096 F 
ATOM      9  I   UNL d   1      -1.151   0.628  -1.286  0.00  0.00    -0.060 I 
ATOM     10  F2  UNL d   1       1.982   0.207  -0.787  0.00  0.00    -0.096 F 
ATOM     11  F3  UNL d   1       3.331  -1.285   1.027  0.00  0.00    -0.097 F 
ATOM     12  F4  UNL d   1       1.977  -2.783   2.861  0.00  0.00    -0.092 F 
ENDROOT
TORSDOF 0
ENDMDL
