MODEL 1
REMARK minimizedAffinity -2.43103957
REMARK minimizedRMSD -1
REMARK  0 active torsions:
REMARK  status: ('A' for Active; 'I' for Inactive)
ROOT
ATOM      1  C   UNL d   1       2.146  -0.984  -0.233  0.00  0.00     0.124 A 
ATOM      2  C1  UNL d   1       1.956   0.167  -0.984  0.00  0.00     0.062 A 
ATOM      3  C2  UNL d   1       0.741   0.844  -0.934  0.00  0.00     0.162 A 
ATOM      4  C3  UNL d   1      -0.295   0.371  -0.127  0.00  0.00    -0.034 A 
ATOM      5  C4  UNL d   1      -0.096  -0.788   0.626  0.00  0.00     0.162 A 
ATOM      6  C5  UNL d   1       1.120  -1.460   0.571  0.00  0.00     0.062 A 
ATOM      7  F   UNL d   1       1.302  -2.572   1.298  0.00  0.00    -0.097 F 
ATOM      8  F1  UNL d   1      -1.071  -1.270   1.412  0.00  0.00    -0.096 F 
ATOM      9  I   UNL d   1      -2.114   1.380  -0.048  0.00  0.00    -0.060 I 
ATOM     10  F2  UNL d   1       0.585   1.954  -1.671  0.00  0.00    -0.096 F 
ATOM     11  F3  UNL d   1       2.945   0.629  -1.763  0.00  0.00    -0.097 F 
ATOM     12  F4  UNL d   1       3.316  -1.633  -0.284  0.00  0.00    -0.092 F 
ENDROOT
TORSDOF 0
ENDMDL
