MODEL 1
REMARK minimizedAffinity 9.92371464
REMARK minimizedRMSD -1
REMARK  0 active torsions:
REMARK  status: ('A' for Active; 'I' for Inactive)
ROOT
ATOM      1  C   UNL d   1       5.018  -3.456   0.407  0.00  0.00    -0.002 A 
ATOM      2  C1  UNL d   1       5.999  -2.481   0.518  0.00  0.00     0.010 A 
ATOM      3  C2  UNL d   1       5.664  -1.127   0.462  0.00  0.00     0.041 A 
ATOM      4  C3  UNL d   1       4.313  -0.765   0.292  0.00  0.00    -0.075 A 
ATOM      5  S   UNL d   1       3.669   0.831   0.195  0.00  0.00     0.015 SA
ATOM      6  C4  UNL d   1       2.075   0.256   0.005  0.00  0.00     0.022 A 
ATOM      7  C5  UNL d   1       2.018  -1.118   0.012  0.00  0.00     0.026 A 
ATOM      8  C6  UNL d   1       3.307  -1.729   0.178  0.00  0.00    -0.082 A 
ATOM      9  C7  UNL d   1       3.679  -3.094   0.238  0.00  0.00     0.045 A 
ENDROOT
TORSDOF 0
ENDMDL
