MODEL 1
REMARK minimizedAffinity 7.04871368
REMARK minimizedRMSD -1
REMARK  0 active torsions:
REMARK  status: ('A' for Active; 'I' for Inactive)
ROOT
ATOM      1  C   UNL d   1      -4.297   2.699  -4.600  0.00  0.00    -0.002 A 
ATOM      2  C1  UNL d   1      -4.097   2.685  -3.227  0.00  0.00     0.010 A 
ATOM      3  C2  UNL d   1      -3.492   1.588  -2.610  0.00  0.00     0.041 A 
ATOM      4  C3  UNL d   1      -3.087   0.497  -3.403  0.00  0.00    -0.075 A 
ATOM      5  S   UNL d   1      -2.325  -0.953  -2.865  0.00  0.00     0.015 SA
ATOM      6  C4  UNL d   1      -2.247  -1.587  -4.445  0.00  0.00     0.022 A 
ATOM      7  C5  UNL d   1      -2.785  -0.726  -5.373  0.00  0.00     0.026 A 
ATOM      8  C6  UNL d   1      -3.277   0.489  -4.788  0.00  0.00    -0.082 A 
ATOM      9  C7  UNL d   1      -3.894   1.615  -5.384  0.00  0.00     0.045 A 
ENDROOT
TORSDOF 0
ENDMDL
