MODEL 1
REMARK minimizedAffinity 0.933332503
REMARK minimizedRMSD -1
REMARK  0 active torsions:
REMARK  status: ('A' for Active; 'I' for Inactive)
ROOT
ATOM      1  C   UNL d   1       3.925   0.852  -0.495  0.00  0.00    -0.002 A 
ATOM      2  C1  UNL d   1       5.219   0.404  -0.267  0.00  0.00     0.010 A 
ATOM      3  C2  UNL d   1       5.452  -0.901   0.170  0.00  0.00     0.041 A 
ATOM      4  C3  UNL d   1       4.353  -1.758   0.375  0.00  0.00    -0.075 A 
ATOM      5  S   UNL d   1       4.398  -3.397   0.907  0.00  0.00     0.015 SA
ATOM      6  C4  UNL d   1       2.701  -3.543   0.844  0.00  0.00     0.022 A 
ATOM      7  C5  UNL d   1       2.099  -2.379   0.429  0.00  0.00     0.026 A 
ATOM      8  C6  UNL d   1       3.041  -1.331   0.152  0.00  0.00    -0.082 A 
ATOM      9  C7  UNL d   1       2.837  -0.002  -0.291  0.00  0.00     0.045 A 
ENDROOT
TORSDOF 0
ENDMDL
