MODEL 1
REMARK minimizedAffinity 6.68896246
REMARK minimizedRMSD -1
REMARK  0 active torsions:
REMARK  status: ('A' for Active; 'I' for Inactive)
ROOT
ATOM      1  C   UNL d   1      -2.565  -1.505  -3.760  0.00  0.00    -0.002 A 
ATOM      2  C1  UNL d   1      -1.748  -0.729  -4.570  0.00  0.00     0.010 A 
ATOM      3  C2  UNL d   1      -2.278   0.337  -5.300  0.00  0.00     0.041 A 
ATOM      4  C3  UNL d   1      -3.655   0.615  -5.199  0.00  0.00    -0.075 A 
ATOM      5  S   UNL d   1      -4.524   1.870  -6.000  0.00  0.00     0.015 SA
ATOM      6  C4  UNL d   1      -6.000   1.407  -5.284  0.00  0.00     0.022 A 
ATOM      7  C5  UNL d   1      -5.852   0.323  -4.452  0.00  0.00     0.026 A 
ATOM      8  C6  UNL d   1      -4.498  -0.151  -4.389  0.00  0.00    -0.082 A 
ATOM      9  C7  UNL d   1      -3.931  -1.226  -3.662  0.00  0.00     0.045 A 
ENDROOT
TORSDOF 0
ENDMDL
