MODEL 1
REMARK minimizedAffinity 6.64267302
REMARK minimizedRMSD -1
REMARK  0 active torsions:
REMARK  status: ('A' for Active; 'I' for Inactive)
ROOT
ATOM      1  C   UNL d   1      -2.816  -1.123  -4.899  0.00  0.00    -0.002 A 
ATOM      2  C1  UNL d   1      -2.660  -0.155  -5.881  0.00  0.00     0.010 A 
ATOM      3  C2  UNL d   1      -2.853   1.196  -5.585  0.00  0.00     0.041 A 
ATOM      4  C3  UNL d   1      -3.207   1.561  -4.271  0.00  0.00    -0.075 A 
ATOM      5  S   UNL d   1      -3.494   3.154  -3.677  0.00  0.00     0.015 SA
ATOM      6  C4  UNL d   1      -3.830   2.587  -2.105  0.00  0.00     0.022 A 
ATOM      7  C5  UNL d   1      -3.730   1.219  -2.018  0.00  0.00     0.026 A 
ATOM      8  C6  UNL d   1      -3.369   0.605  -3.265  0.00  0.00    -0.082 A 
ATOM      9  C7  UNL d   1      -3.168  -0.756  -3.597  0.00  0.00     0.045 A 
ENDROOT
TORSDOF 0
ENDMDL
