MODEL 1
REMARK minimizedAffinity 0.210081145
REMARK minimizedRMSD -1
REMARK  0 active torsions:
REMARK  status: ('A' for Active; 'I' for Inactive)
ROOT
ATOM      1  O1  BZF d   1      -1.245   0.152   0.977  0.00  0.00    -0.204 OA
ATOM      2  C2  BZF d   1      -1.218  -1.201   1.255  0.00  0.00     0.174 A 
ATOM      3  C3  BZF d   1      -0.453  -1.858   0.359  0.00  0.00    -0.012 A 
ATOM      4  C3A BZF d   1       0.102  -0.840  -0.480  0.00  0.00    -0.107 A 
ATOM      5  C4  BZF d   1       0.956  -0.864  -1.546  0.00  0.00     0.055 A 
ATOM      6  C5  BZF d   1       1.242   0.298  -2.189  0.00  0.00    -0.016 A 
ATOM      7  C6  BZF d   1       0.689   1.500  -1.797  0.00  0.00     0.022 A 
ATOM      8  C7  BZF d   1      -0.159   1.574  -0.742  0.00  0.00     0.029 A 
ATOM      9  C7A BZF d   1      -0.424   0.406  -0.070  0.00  0.00     0.058 A 
ENDROOT
TORSDOF 0
ENDMDL
