MODEL 1
REMARK minimizedAffinity -5.38251352
REMARK minimizedRMSD -1
REMARK  0 active torsions:
REMARK  status: ('A' for Active; 'I' for Inactive)
ROOT
ATOM      1  O1  BZF d   1      -0.831   1.254  -0.959  0.00  0.00    -0.204 OA
ATOM      2  C2  BZF d   1      -1.359   0.387  -0.021  0.00  0.00     0.174 A 
ATOM      3  C3  BZF d   1      -0.587  -0.712   0.102  0.00  0.00    -0.012 A 
ATOM      4  C3A BZF d   1       0.539  -0.478  -0.749  0.00  0.00    -0.107 A 
ATOM      5  C4  BZF d   1       1.661  -1.201  -1.041  0.00  0.00     0.055 A 
ATOM      6  C5  BZF d   1       2.531  -0.723  -1.969  0.00  0.00    -0.016 A 
ATOM      7  C6  BZF d   1       2.308   0.469  -2.627  0.00  0.00     0.022 A 
ATOM      8  C7  BZF d   1       1.212   1.223  -2.367  0.00  0.00     0.029 A 
ATOM      9  C7A BZF d   1       0.348   0.759  -1.406  0.00  0.00     0.058 A 
ENDROOT
TORSDOF 0
ENDMDL
