MODEL 1
REMARK minimizedAffinity -5.4297924
REMARK minimizedRMSD -1
REMARK  0 active torsions:
REMARK  status: ('A' for Active; 'I' for Inactive)
ROOT
ATOM      1  O1  BZF d   1      -0.584  -0.364   3.853  0.00  0.00    -0.204 OA
ATOM      2  C2  BZF d   1      -1.303   0.813   3.934  0.00  0.00     0.174 A 
ATOM      3  C3  BZF d   1      -1.577   1.292   2.704  0.00  0.00    -0.012 A 
ATOM      4  C3A BZF d   1      -1.072   0.308   1.796  0.00  0.00    -0.107 A 
ATOM      5  C4  BZF d   1      -1.057   0.206   0.434  0.00  0.00     0.055 A 
ATOM      6  C5  BZF d   1      -0.421  -0.847  -0.143  0.00  0.00    -0.016 A 
ATOM      7  C6  BZF d   1       0.215  -1.812   0.610  0.00  0.00     0.022 A 
ATOM      8  C7  BZF d   1       0.224  -1.757   1.964  0.00  0.00     0.029 A 
ATOM      9  C7A BZF d   1      -0.447  -0.712   2.551  0.00  0.00     0.058 A 
ENDROOT
TORSDOF 0
ENDMDL
