MODEL 1
REMARK minimizedAffinity -0.629192948
REMARK minimizedRMSD -1
REMARK  0 active torsions:
REMARK  status: ('A' for Active; 'I' for Inactive)
ROOT
ATOM      1  O1  BZF d   1      -0.978   1.272  -0.783  0.00  0.00    -0.204 OA
ATOM      2  C2  BZF d   1      -0.348   2.256  -1.521  0.00  0.00     0.174 A 
ATOM      3  C3  BZF d   1       0.898   1.872  -1.865  0.00  0.00    -0.012 A 
ATOM      4  C3A BZF d   1       1.024   0.529  -1.386  0.00  0.00    -0.107 A 
ATOM      5  C4  BZF d   1       2.027  -0.396  -1.438  0.00  0.00     0.055 A 
ATOM      6  C5  BZF d   1       1.858  -1.589  -0.810  0.00  0.00    -0.016 A 
ATOM      7  C6  BZF d   1       0.703  -1.888  -0.117  0.00  0.00     0.022 A 
ATOM      8  C7  BZF d   1      -0.322  -1.004  -0.043  0.00  0.00     0.029 A 
ATOM      9  C7A BZF d   1      -0.168   0.189  -0.704  0.00  0.00     0.058 A 
ENDROOT
TORSDOF 0
ENDMDL
