MODEL 1
REMARK minimizedAffinity -0.0080290148
REMARK minimizedRMSD -1
REMARK  0 active torsions:
REMARK  status: ('A' for Active; 'I' for Inactive)
ROOT
ATOM      1  O1  BZF d   1       1.332   0.518  -1.976  0.00  0.00    -0.204 OA
ATOM      2  C2  BZF d   1       2.085  -0.641  -1.985  0.00  0.00     0.174 A 
ATOM      3  C3  BZF d   1       1.715  -1.459  -0.979  0.00  0.00    -0.012 A 
ATOM      4  C3A BZF d   1       0.603  -0.810  -0.355  0.00  0.00    -0.107 A 
ATOM      5  C4  BZF d   1      -0.207  -1.137   0.695  0.00  0.00     0.055 A 
ATOM      6  C5  BZF d   1      -1.155  -0.251   1.099  0.00  0.00    -0.016 A 
ATOM      7  C6  BZF d   1      -1.316   0.972   0.480  0.00  0.00     0.022 A 
ATOM      8  C7  BZF d   1      -0.540   1.339  -0.568  0.00  0.00     0.029 A 
ATOM      9  C7A BZF d   1       0.397   0.432  -1.000  0.00  0.00     0.058 A 
ENDROOT
TORSDOF 0
ENDMDL
