MODEL 1
REMARK minimizedAffinity -4.96447325
REMARK minimizedRMSD -1
REMARK  0 active torsions:
REMARK  status: ('A' for Active; 'I' for Inactive)
ROOT
ATOM      1  O1  BZF d   1      -0.725   0.707  -0.268  0.00  0.00    -0.204 OA
ATOM      2  C2  BZF d   1      -0.914  -0.415   0.515  0.00  0.00     0.174 A 
ATOM      3  C3  BZF d   1      -0.041  -1.386   0.178  0.00  0.00    -0.012 A 
ATOM      4  C3A BZF d   1       0.803  -0.804  -0.820  0.00  0.00    -0.107 A 
ATOM      5  C4  BZF d   1       1.872  -1.267  -1.532  0.00  0.00     0.055 A 
ATOM      6  C5  BZF d   1       2.428  -0.470  -2.483  0.00  0.00    -0.016 A 
ATOM      7  C6  BZF d   1       1.937   0.791  -2.750  0.00  0.00     0.022 A 
ATOM      8  C7  BZF d   1       0.882   1.296  -2.066  0.00  0.00     0.029 A 
ATOM      9  C7A BZF d   1       0.339   0.506  -1.082  0.00  0.00     0.058 A 
ENDROOT
TORSDOF 0
ENDMDL
