MODEL 1
REMARK minimizedAffinity -2.23430014
REMARK minimizedRMSD -1
REMARK  0 active torsions:
REMARK  status: ('A' for Active; 'I' for Inactive)
ROOT
ATOM      1  O1  BZF d   1       1.302   0.560  -1.667  0.00  0.00    -0.204 OA
ATOM      2  C2  BZF d   1       2.115  -0.512  -1.981  0.00  0.00     0.174 A 
ATOM      3  C3  BZF d   1       1.811  -1.582  -1.219  0.00  0.00    -0.012 A 
ATOM      4  C3A BZF d   1       0.680  -1.180  -0.441  0.00  0.00    -0.107 A 
ATOM      5  C4  BZF d   1      -0.090  -1.813   0.493  0.00  0.00     0.055 A 
ATOM      6  C5  BZF d   1      -1.075  -1.117   1.119  0.00  0.00    -0.016 A 
ATOM      7  C6  BZF d   1      -1.314   0.212   0.840  0.00  0.00     0.022 A 
ATOM      8  C7  BZF d   1      -0.580   0.881  -0.082  0.00  0.00     0.029 A 
ATOM      9  C7A BZF d   1       0.394   0.172  -0.740  0.00  0.00     0.058 A 
ENDROOT
TORSDOF 0
ENDMDL
