MODEL 1
REMARK minimizedAffinity 2.09985137
REMARK minimizedRMSD -1
REMARK  0 active torsions:
REMARK  status: ('A' for Active; 'I' for Inactive)
ROOT
ATOM      1  O1  BZF d   1      -0.991  -0.799   1.381  0.00  0.00    -0.204 OA
ATOM      2  C2  BZF d   1      -1.309   0.522   1.129  0.00  0.00     0.174 A 
ATOM      3  C3  BZF d   1      -0.575   1.003   0.105  0.00  0.00    -0.012 A 
ATOM      4  C3A BZF d   1       0.186  -0.111  -0.369  0.00  0.00    -0.107 A 
ATOM      5  C4  BZF d   1       1.090  -0.269  -1.380  0.00  0.00     0.055 A 
ATOM      6  C5  BZF d   1       1.709  -1.469  -1.532  0.00  0.00    -0.016 A 
ATOM      7  C6  BZF d   1       1.452  -2.530  -0.690  0.00  0.00     0.022 A 
ATOM      8  C7  BZF d   1       0.559  -2.424   0.325  0.00  0.00     0.029 A 
ATOM      9  C7A BZF d   1      -0.092  -1.222   0.461  0.00  0.00     0.058 A 
ENDROOT
TORSDOF 0
ENDMDL
