MODEL 1
REMARK minimizedAffinity -0.242611498
REMARK minimizedRMSD -1
REMARK  0 active torsions:
REMARK  status: ('A' for Active; 'I' for Inactive)
ROOT
ATOM      1  O1  BZF d   1       0.637   0.547  -0.052  0.00  0.00    -0.204 OA
ATOM      2  C2  BZF d   1       0.553  -0.765  -0.477  0.00  0.00     0.174 A 
ATOM      3  C3  BZF d   1      -0.451  -1.408   0.153  0.00  0.00    -0.012 A 
ATOM      4  C3A BZF d   1      -1.089  -0.413   0.959  0.00  0.00    -0.107 A 
ATOM      5  C4  BZF d   1      -2.161  -0.435   1.804  0.00  0.00     0.055 A 
ATOM      6  C5  BZF d   1      -2.481   0.692   2.494  0.00  0.00    -0.016 A 
ATOM      7  C6  BZF d   1      -1.749   1.854   2.367  0.00  0.00     0.022 A 
ATOM      8  C7  BZF d   1      -0.680   1.926   1.537  0.00  0.00     0.029 A 
ATOM      9  C7A BZF d   1      -0.374   0.799   0.813  0.00  0.00     0.058 A 
ENDROOT
TORSDOF 0
ENDMDL
