MODEL 1
REMARK minimizedAffinity -3.18242025
REMARK minimizedRMSD -1
REMARK  0 active torsions:
REMARK  status: ('A' for Active; 'I' for Inactive)
ROOT
ATOM      1  O1  BZF d   1       0.595   1.791  -2.166  0.00  0.00    -0.204 OA
ATOM      2  C2  BZF d   1       1.526   1.601  -3.170  0.00  0.00     0.174 A 
ATOM      3  C3  BZF d   1       2.176   0.432  -3.004  0.00  0.00    -0.012 A 
ATOM      4  C3A BZF d   1       1.553  -0.188  -1.875  0.00  0.00    -0.107 A 
ATOM      5  C4  BZF d   1       1.748  -1.376  -1.230  0.00  0.00     0.055 A 
ATOM      6  C5  BZF d   1       1.021  -1.649  -0.114  0.00  0.00    -0.016 A 
ATOM      7  C6  BZF d   1       0.096  -0.757   0.385  0.00  0.00     0.022 A 
ATOM      8  C7  BZF d   1      -0.136   0.432  -0.223  0.00  0.00     0.029 A 
ATOM      9  C7A BZF d   1       0.573   0.697  -1.369  0.00  0.00     0.058 A 
ENDROOT
TORSDOF 0
ENDMDL
