MODEL 1
REMARK minimizedAffinity -3.71382523
REMARK minimizedRMSD -1
REMARK  0 active torsions:
REMARK  status: ('A' for Active; 'I' for Inactive)
ROOT
ATOM      1  O1  BZF d   1       0.246   1.658  -1.973  0.00  0.00    -0.204 OA
ATOM      2  C2  BZF d   1       1.313   1.744  -2.846  0.00  0.00     0.174 A 
ATOM      3  C3  BZF d   1       2.152   0.701  -2.679  0.00  0.00    -0.012 A 
ATOM      4  C3A BZF d   1       1.525  -0.134  -1.701  0.00  0.00    -0.107 A 
ATOM      5  C4  BZF d   1       1.865  -1.326  -1.128  0.00  0.00     0.055 A 
ATOM      6  C5  BZF d   1       1.071  -1.840  -0.152  0.00  0.00    -0.016 A 
ATOM      7  C6  BZF d   1      -0.065  -1.186   0.279  0.00  0.00     0.022 A 
ATOM      8  C7  BZF d   1      -0.446  -0.004  -0.263  0.00  0.00     0.029 A 
ATOM      9  C7A BZF d   1       0.337   0.502  -1.273  0.00  0.00     0.058 A 
ENDROOT
TORSDOF 0
ENDMDL
