MODEL 1
REMARK minimizedAffinity -3.39584303
REMARK minimizedRMSD -1
REMARK  0 active torsions:
REMARK  status: ('A' for Active; 'I' for Inactive)
ROOT
ATOM      1  O1  BZF d   1       0.370  -0.668   1.126  0.00  0.00    -0.204 OA
ATOM      2  C2  BZF d   1      -0.039  -0.791  -0.188  0.00  0.00     0.174 A 
ATOM      3  C3  BZF d   1      -1.202  -0.139  -0.390  0.00  0.00    -0.012 A 
ATOM      4  C3A BZF d   1      -1.494   0.505   0.854  0.00  0.00    -0.107 A 
ATOM      5  C4  BZF d   1      -2.509   1.315   1.276  0.00  0.00     0.055 A 
ATOM      6  C5  BZF d   1      -2.537   1.716   2.575  0.00  0.00    -0.016 A 
ATOM      7  C6  BZF d   1      -1.571   1.322   3.477  0.00  0.00     0.022 A 
ATOM      8  C7  BZF d   1      -0.542   0.523   3.104  0.00  0.00     0.029 A 
ATOM      9  C7A BZF d   1      -0.493   0.143   1.785  0.00  0.00     0.058 A 
ENDROOT
TORSDOF 0
ENDMDL
