MODEL 1
REMARK minimizedAffinity -3.6874125
REMARK minimizedRMSD -1
REMARK  0 active torsions:
REMARK  status: ('A' for Active; 'I' for Inactive)
ROOT
ATOM      1  O1  BZF d   1      -0.231   0.151  -0.048  0.00  0.00    -0.204 OA
ATOM      2  C2  BZF d   1      -0.765   1.422  -0.135  0.00  0.00     0.174 A 
ATOM      3  C3  BZF d   1      -0.234   2.094  -1.176  0.00  0.00    -0.012 A 
ATOM      4  C3A BZF d   1       0.622   1.155  -1.833  0.00  0.00    -0.107 A 
ATOM      5  C4  BZF d   1       1.415   1.223  -2.943  0.00  0.00     0.055 A 
ATOM      6  C5  BZF d   1       2.181   0.151  -3.275  0.00  0.00    -0.016 A 
ATOM      7  C6  BZF d   1       2.181  -1.003  -2.518  0.00  0.00     0.022 A 
ATOM      8  C7  BZF d   1       1.407  -1.120  -1.412  0.00  0.00     0.029 A 
ATOM      9  C7A BZF d   1       0.607  -0.050  -1.093  0.00  0.00     0.058 A 
ENDROOT
TORSDOF 0
ENDMDL
