MODEL 1
REMARK minimizedAffinity -3.30818033
REMARK minimizedRMSD -1
REMARK  0 active torsions:
REMARK  status: ('A' for Active; 'I' for Inactive)
ROOT
ATOM      1  O1  BZF d   1       2.137  -1.782  -1.151  0.00  0.00    -0.204 OA
ATOM      2  C2  BZF d   1       1.415  -1.939   0.017  0.00  0.00     0.174 A 
ATOM      3  C3  BZF d   1       0.574  -0.901   0.202  0.00  0.00    -0.012 A 
ATOM      4  C3A BZF d   1       0.716  -0.088  -0.967  0.00  0.00    -0.107 A 
ATOM      5  C4  BZF d   1       0.130   1.075  -1.378  0.00  0.00     0.055 A 
ATOM      6  C5  BZF d   1       0.544   1.649  -2.538  0.00  0.00    -0.016 A 
ATOM      7  C6  BZF d   1       1.544   1.090  -3.308  0.00  0.00     0.022 A 
ATOM      8  C7  BZF d   1       2.151  -0.065  -2.944  0.00  0.00     0.029 A 
ATOM      9  C7A BZF d   1       1.711  -0.665  -1.789  0.00  0.00     0.058 A 
ENDROOT
TORSDOF 0
ENDMDL
