MODEL 1
REMARK minimizedAffinity -3.38215518
REMARK minimizedRMSD -1
REMARK  0 active torsions:
REMARK  status: ('A' for Active; 'I' for Inactive)
ROOT
ATOM      1  O1  BZF d   1       0.634   1.589  -2.256  0.00  0.00    -0.204 OA
ATOM      2  C2  BZF d   1       1.556   1.161  -3.192  0.00  0.00     0.174 A 
ATOM      3  C3  BZF d   1       1.962  -0.096  -2.923  0.00  0.00    -0.012 A 
ATOM      4  C3A BZF d   1       1.181  -0.513  -1.799  0.00  0.00    -0.107 A 
ATOM      5  C4  BZF d   1       1.115  -1.671  -1.079  0.00  0.00     0.055 A 
ATOM      6  C5  BZF d   1       0.298  -1.728   0.006  0.00  0.00    -0.016 A 
ATOM      7  C6  BZF d   1      -0.462  -0.647   0.401  0.00  0.00     0.022 A 
ATOM      8  C7  BZF d   1      -0.434   0.522  -0.285  0.00  0.00     0.029 A 
ATOM      9  C7A BZF d   1       0.366   0.572  -1.401  0.00  0.00     0.058 A 
ENDROOT
TORSDOF 0
ENDMDL
