MODEL 1
REMARK minimizedAffinity -5.38175154
REMARK minimizedRMSD -1
REMARK  0 active torsions:
REMARK  status: ('A' for Active; 'I' for Inactive)
ROOT
ATOM      1  O1  BZF d   1       0.419  -1.876  -0.141  0.00  0.00    -0.204 OA
ATOM      2  C2  BZF d   1       1.699  -1.950  -0.655  0.00  0.00     0.174 A 
ATOM      3  C3  BZF d   1       2.003  -0.830  -1.342  0.00  0.00    -0.012 A 
ATOM      4  C3A BZF d   1       0.875   0.034  -1.174  0.00  0.00    -0.107 A 
ATOM      5  C4  BZF d   1       0.586   1.296  -1.607  0.00  0.00     0.055 A 
ATOM      6  C5  BZF d   1      -0.634   1.826  -1.330  0.00  0.00    -0.016 A 
ATOM      7  C6  BZF d   1      -1.590   1.121  -0.629  0.00  0.00     0.022 A 
ATOM      8  C7  BZF d   1      -1.348  -0.132  -0.174  0.00  0.00     0.029 A 
ATOM      9  C7A BZF d   1      -0.104  -0.658  -0.424  0.00  0.00     0.058 A 
ENDROOT
TORSDOF 0
ENDMDL
