MODEL 1
REMARK minimizedAffinity 1.26114225
REMARK minimizedRMSD -1
REMARK  0 active torsions:
REMARK  status: ('A' for Active; 'I' for Inactive)
ROOT
ATOM      1  O1  BZF d   1       1.652  -1.005  -1.537  0.00  0.00    -0.204 OA
ATOM      2  C2  BZF d   1       1.577  -2.279  -1.009  0.00  0.00     0.174 A 
ATOM      3  C3  BZF d   1       0.548  -2.379  -0.143  0.00  0.00    -0.012 A 
ATOM      4  C3A BZF d   1      -0.114  -1.111  -0.198  0.00  0.00    -0.107 A 
ATOM      5  C4  BZF d   1      -1.216  -0.600   0.426  0.00  0.00     0.055 A 
ATOM      6  C5  BZF d   1      -1.556   0.698   0.208  0.00  0.00    -0.016 A 
ATOM      7  C6  BZF d   1      -0.814   1.513  -0.622  0.00  0.00     0.022 A 
ATOM      8  C7  BZF d   1       0.284   1.049  -1.266  0.00  0.00     0.029 A 
ATOM      9  C7A BZF d   1       0.611  -0.271  -1.074  0.00  0.00     0.058 A 
ENDROOT
TORSDOF 0
ENDMDL
