MODEL 1
REMARK minimizedAffinity -1.97982121
REMARK minimizedRMSD -1
REMARK  0 active torsions:
REMARK  status: ('A' for Active; 'I' for Inactive)
ROOT
ATOM      1  O1  BZF d   1       0.235   1.629  -1.621  0.00  0.00    -0.204 OA
ATOM      2  C2  BZF d   1       1.079   1.870  -2.688  0.00  0.00     0.174 A 
ATOM      3  C3  BZF d   1       1.993   0.885  -2.806  0.00  0.00    -0.012 A 
ATOM      4  C3A BZF d   1       1.644  -0.075  -1.804  0.00  0.00    -0.107 A 
ATOM      5  C4  BZF d   1       2.169  -1.280  -1.435  0.00  0.00     0.055 A 
ATOM      6  C5  BZF d   1       1.639  -1.933  -0.368  0.00  0.00    -0.016 A 
ATOM      7  C6  BZF d   1       0.589  -1.407   0.356  0.00  0.00     0.022 A 
ATOM      8  C7  BZF d   1       0.032  -0.217   0.026  0.00  0.00     0.029 A 
ATOM      9  C7A BZF d   1       0.544   0.430  -1.073  0.00  0.00     0.058 A 
ENDROOT
TORSDOF 0
ENDMDL
