MODEL 1
REMARK minimizedAffinity -4.04865456
REMARK minimizedRMSD -1
REMARK  1 active torsions:
REMARK  status: ('A' for Active; 'I' for Inactive)
REMARK    1  A    between atoms: C1_2  and  C2_3 
ROOT
ATOM      1  C2  UNL d   1       1.393   0.057  -1.959  0.00  0.00    -0.081 A 
ATOM      2  C3  UNL d   1       0.317   0.046  -1.064  0.00  0.00     0.006 A 
ATOM      3  C4  UNL d   1       0.086  -1.063  -0.247  0.00  0.00     0.002 A 
ATOM      4  C5  UNL d   1       0.932  -2.176  -0.305  0.00  0.00    -0.080 A 
ATOM      5  C6  UNL d   1       0.714  -3.361   0.588  0.00  0.00     0.076 C 
ATOM      6  C7  UNL d   1       1.998  -2.172  -1.212  0.00  0.00     0.002 A 
ATOM      7  C8  UNL d   1       2.228  -1.064  -2.030  0.00  0.00     0.006 A 
ENDROOT
BRANCH   1   8
ATOM      8  C1  UNL d   1       1.682   1.277  -2.796  0.00  0.00     0.054 C 
ATOM      9  C   UNL d   1       0.765   2.434  -2.423  0.00  0.00     0.018 C 
ENDBRANCH   1   8
TORSDOF 1
ENDMDL
