MODEL 1
REMARK minimizedAffinity -5.59357738
REMARK minimizedRMSD -1
REMARK  1 active torsions:
REMARK  status: ('A' for Active; 'I' for Inactive)
REMARK    1  A    between atoms: C1_2  and  C2_3 
ROOT
ATOM      1  C2  UNL d   1       1.665   0.549  -1.663  0.00  0.00    -0.081 A 
ATOM      2  C3  UNL d   1       2.294  -0.694  -1.801  0.00  0.00     0.006 A 
ATOM      3  C4  UNL d   1       1.846  -1.799  -1.074  0.00  0.00     0.002 A 
ATOM      4  C5  UNL d   1       0.756  -1.682  -0.204  0.00  0.00    -0.080 A 
ATOM      5  C6  UNL d   1       0.246  -2.868   0.560  0.00  0.00     0.076 C 
ATOM      6  C7  UNL d   1       0.138  -0.436  -0.053  0.00  0.00     0.002 A 
ATOM      7  C8  UNL d   1       0.587   0.669  -0.779  0.00  0.00     0.006 A 
ENDROOT
BRANCH   1   8
ATOM      8  C1  UNL d   1       2.105   1.727  -2.494  0.00  0.00     0.054 C 
ATOM      9  C   UNL d   1       0.988   2.751  -2.638  0.00  0.00     0.018 C 
ENDBRANCH   1   8
TORSDOF 1
ENDMDL
