MODEL 1
REMARK minimizedAffinity -1.42054677
REMARK minimizedRMSD -1
REMARK  1 active torsions:
REMARK  status: ('A' for Active; 'I' for Inactive)
REMARK    1  A    between atoms: C1_2  and  C2_3 
ROOT
ATOM      1  C2  UNL d   1      -0.465  -0.272   0.267  0.00  0.00    -0.081 A 
ATOM      2  C3  UNL d   1       0.336  -1.388  -0.001  0.00  0.00     0.006 A 
ATOM      3  C4  UNL d   1       1.258  -1.363  -1.051  0.00  0.00     0.002 A 
ATOM      4  C5  UNL d   1       1.400  -0.219  -1.844  0.00  0.00    -0.080 A 
ATOM      5  C6  UNL d   1       2.407  -0.168  -2.954  0.00  0.00     0.076 C 
ATOM      6  C7  UNL d   1       0.587   0.890  -1.587  0.00  0.00     0.002 A 
ATOM      7  C8  UNL d   1      -0.336   0.865  -0.539  0.00  0.00     0.006 A 
ENDROOT
BRANCH   1   8
ATOM      8  C1  UNL d   1      -1.414  -0.273   1.438  0.00  0.00     0.054 C 
ATOM      9  C   UNL d   1      -0.824   0.468   2.629  0.00  0.00     0.018 C 
ENDBRANCH   1   8
TORSDOF 1
ENDMDL
