MODEL 1
REMARK minimizedAffinity -4.63938713
REMARK minimizedRMSD -1
REMARK  1 active torsions:
REMARK  status: ('A' for Active; 'I' for Inactive)
REMARK    1  A    between atoms: C1_2  and  C2_3 
ROOT
ATOM      1  C2  UNL d   1      -1.140  -0.151   0.035  0.00  0.00    -0.081 A 
ATOM      2  C3  UNL d   1      -0.241  -1.224  -0.005  0.00  0.00     0.006 A 
ATOM      3  C4  UNL d   1       0.886  -1.174  -0.828  0.00  0.00     0.002 A 
ATOM      4  C5  UNL d   1       1.138  -0.047  -1.618  0.00  0.00    -0.080 A 
ATOM      5  C6  UNL d   1       2.361   0.032  -2.483  0.00  0.00     0.076 C 
ATOM      6  C7  UNL d   1       0.232   1.018  -1.592  0.00  0.00     0.002 A 
ATOM      7  C8  UNL d   1      -0.896   0.968  -0.770  0.00  0.00     0.006 A 
ENDROOT
BRANCH   1   8
ATOM      8  C1  UNL d   1      -2.322  -0.175   0.970  0.00  0.00     0.054 C 
ATOM      9  C   UNL d   1      -2.065   0.671   2.209  0.00  0.00     0.018 C 
ENDBRANCH   1   8
TORSDOF 1
ENDMDL
