MODEL 1
REMARK minimizedAffinity -3.75641799
REMARK minimizedRMSD -1
REMARK  1 active torsions:
REMARK  status: ('A' for Active; 'I' for Inactive)
REMARK    1  A    between atoms: C1_2  and  C2_3 
ROOT
ATOM      1  C2  UNL d   1       0.375  -0.712  -0.108  0.00  0.00    -0.081 A 
ATOM      2  C3  UNL d   1      -0.999  -0.450  -0.167  0.00  0.00     0.006 A 
ATOM      3  C4  UNL d   1      -1.624   0.285   0.842  0.00  0.00     0.002 A 
ATOM      4  C5  UNL d   1      -0.885   0.778   1.923  0.00  0.00    -0.080 A 
ATOM      5  C6  UNL d   1      -1.538   1.596   2.998  0.00  0.00     0.076 C 
ATOM      6  C7  UNL d   1       0.485   0.502   1.991  0.00  0.00     0.002 A 
ATOM      7  C8  UNL d   1       1.110  -0.234   0.983  0.00  0.00     0.006 A 
ENDROOT
BRANCH   1   8
ATOM      8  C1  UNL d   1       1.064  -1.450  -1.227  0.00  0.00     0.054 C 
ATOM      9  C   UNL d   1       2.513  -1.007  -1.373  0.00  0.00     0.018 C 
ENDBRANCH   1   8
TORSDOF 1
ENDMDL
