MODEL 1
REMARK minimizedAffinity -5.32756662
REMARK minimizedRMSD -1
REMARK  1 active torsions:
REMARK  status: ('A' for Active; 'I' for Inactive)
REMARK    1  A    between atoms: C1_2  and  C2_3 
ROOT
ATOM      1  C2  UNL d   1      -0.477   0.210  -0.093  0.00  0.00    -0.081 A 
ATOM      2  C3  UNL d   1       0.131  -1.051  -0.052  0.00  0.00     0.006 A 
ATOM      3  C4  UNL d   1       1.356  -1.268  -0.688  0.00  0.00     0.002 A 
ATOM      4  C5  UNL d   1       1.997  -0.226  -1.368  0.00  0.00    -0.080 A 
ATOM      5  C6  UNL d   1       3.326  -0.438  -2.029  0.00  0.00     0.076 C 
ATOM      6  C7  UNL d   1       1.381   1.029  -1.424  0.00  0.00     0.002 A 
ATOM      7  C8  UNL d   1       0.156   1.246  -0.789  0.00  0.00     0.006 A 
ENDROOT
BRANCH   1   8
ATOM      8  C1  UNL d   1      -1.766   0.464   0.646  0.00  0.00     0.054 C 
ATOM      9  C   UNL d   1      -1.506   0.843   2.097  0.00  0.00     0.018 C 
ENDBRANCH   1   8
TORSDOF 1
ENDMDL
