MODEL 1
REMARK minimizedAffinity -5.64881611
REMARK minimizedRMSD -1
REMARK  1 active torsions:
REMARK  status: ('A' for Active; 'I' for Inactive)
REMARK    1  A    between atoms: C1_2  and  C2_3 
ROOT
ATOM      1  C2  UNL d   1       0.919  -0.278  -1.171  0.00  0.00    -0.081 A 
ATOM      2  C3  UNL d   1       0.106   0.859  -1.075  0.00  0.00     0.006 A 
ATOM      3  C4  UNL d   1      -0.862   0.954  -0.073  0.00  0.00     0.002 A 
ATOM      4  C5  UNL d   1      -1.029  -0.080   0.854  0.00  0.00    -0.080 A 
ATOM      5  C6  UNL d   1      -2.044   0.024   1.954  0.00  0.00     0.076 C 
ATOM      6  C7  UNL d   1      -0.229  -1.223   0.748  0.00  0.00     0.002 A 
ATOM      7  C8  UNL d   1       0.739  -1.319  -0.254  0.00  0.00     0.006 A 
ENDROOT
BRANCH   1   8
ATOM      8  C1  UNL d   1       2.007  -0.356  -2.211  0.00  0.00     0.054 C 
ATOM      9  C   UNL d   1       1.943   0.825  -3.169  0.00  0.00     0.018 C 
ENDBRANCH   1   8
TORSDOF 1
ENDMDL
