MODEL 1
REMARK minimizedAffinity -3.67320609
REMARK minimizedRMSD -1
REMARK  1 active torsions:
REMARK  status: ('A' for Active; 'I' for Inactive)
REMARK    1  A    between atoms: C1_2  and  C2_3 
ROOT
ATOM      1  C2  UNL d   1      -0.811   0.393  -0.031  0.00  0.00    -0.081 A 
ATOM      2  C3  UNL d   1      -0.073   1.465  -0.548  0.00  0.00     0.006 A 
ATOM      3  C4  UNL d   1       1.172   1.246  -1.142  0.00  0.00     0.002 A 
ATOM      4  C5  UNL d   1       1.696  -0.048  -1.236  0.00  0.00    -0.080 A 
ATOM      5  C6  UNL d   1       3.018  -0.301  -1.898  0.00  0.00     0.076 C 
ATOM      6  C7  UNL d   1       0.967  -1.117  -0.703  0.00  0.00     0.002 A 
ATOM      7  C8  UNL d   1      -0.278  -0.898  -0.109  0.00  0.00     0.006 A 
ENDROOT
BRANCH   1   8
ATOM      8  C1  UNL d   1      -2.183   0.618   0.552  0.00  0.00     0.054 C 
ATOM      9  C   UNL d   1      -2.355  -0.130   1.867  0.00  0.00     0.018 C 
ENDBRANCH   1   8
TORSDOF 1
ENDMDL
