MODEL 1
REMARK minimizedAffinity -2.98199463
REMARK minimizedRMSD -1
REMARK  1 active torsions:
REMARK  status: ('A' for Active; 'I' for Inactive)
REMARK    1  A    between atoms: C1_2  and  C2_3 
ROOT
ATOM      1  C2  UNL d   1      -0.309  -0.123  -0.372  0.00  0.00    -0.081 A 
ATOM      2  C3  UNL d   1       0.175  -1.360  -0.812  0.00  0.00     0.006 A 
ATOM      3  C4  UNL d   1       1.480  -1.477  -1.298  0.00  0.00     0.002 A 
ATOM      4  C5  UNL d   1       2.323  -0.362  -1.343  0.00  0.00    -0.080 A 
ATOM      5  C6  UNL d   1       3.736  -0.481  -1.834  0.00  0.00     0.076 C 
ATOM      6  C7  UNL d   1       1.833   0.878  -0.920  0.00  0.00     0.002 A 
ATOM      7  C8  UNL d   1       0.529   0.996  -0.435  0.00  0.00     0.006 A 
ENDROOT
BRANCH   1   8
ATOM      8  C1  UNL d   1      -1.694  -0.006   0.212  0.00  0.00     0.054 C 
ATOM      9  C   UNL d   1      -1.644   0.420   1.673  0.00  0.00     0.018 C 
ENDBRANCH   1   8
TORSDOF 1
ENDMDL
