MODEL 1
REMARK minimizedAffinity 0.176889822
REMARK minimizedRMSD -1
REMARK  1 active torsions:
REMARK  status: ('A' for Active; 'I' for Inactive)
REMARK    1  A    between atoms: C1_2  and  C2_3 
ROOT
ATOM      1  C2  UNL d   1      -3.704  -0.269   3.571  0.00  0.00    -0.081 A 
ATOM      2  C3  UNL d   1      -2.580  -0.712   2.864  0.00  0.00     0.006 A 
ATOM      3  C4  UNL d   1      -1.555   0.178   2.533  0.00  0.00     0.002 A 
ATOM      4  C5  UNL d   1      -1.634   1.523   2.909  0.00  0.00    -0.080 A 
ATOM      5  C6  UNL d   1      -0.528   2.482   2.586  0.00  0.00     0.076 C 
ATOM      6  C7  UNL d   1      -2.766   1.969   3.600  0.00  0.00     0.002 A 
ATOM      7  C8  UNL d   1      -3.791   1.080   3.931  0.00  0.00     0.006 A 
ENDROOT
BRANCH   1   8
ATOM      8  C1  UNL d   1      -4.780  -1.240   3.986  0.00  0.00     0.054 C 
ATOM      9  C   UNL d   1      -4.262  -2.671   3.993  0.00  0.00     0.018 C 
ENDBRANCH   1   8
TORSDOF 1
ENDMDL
