MODEL 1
REMARK minimizedAffinity 8.08512497
REMARK minimizedRMSD -1
REMARK  1 active torsions:
REMARK  status: ('A' for Active; 'I' for Inactive)
REMARK    1  A    between atoms: C1_2  and  C2_3 
ROOT
ATOM      1  C2  UNL d   1      -0.986  -0.916   1.132  0.00  0.00    -0.081 A 
ATOM      2  C3  UNL d   1       0.259  -1.417   1.530  0.00  0.00     0.006 A 
ATOM      3  C4  UNL d   1       1.121  -1.997   0.596  0.00  0.00     0.002 A 
ATOM      4  C5  UNL d   1       0.755  -2.077  -0.752  0.00  0.00    -0.080 A 
ATOM      5  C6  UNL d   1       1.684  -2.669  -1.771  0.00  0.00     0.076 C 
ATOM      6  C7  UNL d   1      -0.496  -1.592  -1.147  0.00  0.00     0.002 A 
ATOM      7  C8  UNL d   1      -1.358  -1.013  -0.213  0.00  0.00     0.006 A 
ENDROOT
BRANCH   1   8
ATOM      8  C1  UNL d   1      -1.890  -0.232   2.126  0.00  0.00     0.054 C 
ATOM      9  C   UNL d   1      -3.095  -1.098   2.465  0.00  0.00     0.018 C 
ENDBRANCH   1   8
TORSDOF 1
ENDMDL
