MODEL 1
REMARK minimizedAffinity -4.5019722
REMARK minimizedRMSD -1
REMARK  1 active torsions:
REMARK  status: ('A' for Active; 'I' for Inactive)
REMARK    1  A    between atoms: C1_2  and  C2_3 
ROOT
ATOM      1  C2  UNL d   1      -0.974   0.078   1.135  0.00  0.00    -0.081 A 
ATOM      2  C3  UNL d   1      -0.801  -1.311   1.120  0.00  0.00     0.006 A 
ATOM      3  C4  UNL d   1       0.185  -1.894   0.320  0.00  0.00     0.002 A 
ATOM      4  C5  UNL d   1       1.020  -1.097  -0.471  0.00  0.00    -0.080 A 
ATOM      5  C6  UNL d   1       2.102  -1.707  -1.311  0.00  0.00     0.076 C 
ATOM      6  C7  UNL d   1       0.835   0.290  -0.469  0.00  0.00     0.002 A 
ATOM      7  C8  UNL d   1      -0.151   0.873   0.330  0.00  0.00     0.006 A 
ENDROOT
BRANCH   1   8
ATOM      8  C1  UNL d   1      -1.994   0.714   2.046  0.00  0.00     0.054 C 
ATOM      9  C   UNL d   1      -1.825   0.239   3.482  0.00  0.00     0.018 C 
ENDBRANCH   1   8
TORSDOF 1
ENDMDL
