MODEL 1
REMARK minimizedAffinity -4.9980855
REMARK minimizedRMSD -1
REMARK  1 active torsions:
REMARK  status: ('A' for Active; 'I' for Inactive)
REMARK    1  A    between atoms: C1_2  and  C2_3 
ROOT
ATOM      1  C2  UNL d   1      -2.927  -1.479   3.679  0.00  0.00    -0.081 A 
ATOM      2  C3  UNL d   1      -2.633  -0.489   4.625  0.00  0.00     0.006 A 
ATOM      3  C4  UNL d   1      -2.269   0.796   4.215  0.00  0.00     0.002 A 
ATOM      4  C5  UNL d   1      -2.200   1.115   2.855  0.00  0.00    -0.080 A 
ATOM      5  C6  UNL d   1      -1.840   2.499   2.403  0.00  0.00     0.076 C 
ATOM      6  C7  UNL d   1      -2.476   0.121   1.910  0.00  0.00     0.002 A 
ATOM      7  C8  UNL d   1      -2.839  -1.164   2.318  0.00  0.00     0.006 A 
ENDROOT
BRANCH   1   8
ATOM      8  C1  UNL d   1      -3.382  -2.847   4.117  0.00  0.00     0.054 C 
ATOM      9  C   UNL d   1      -4.894  -2.988   4.009  0.00  0.00     0.018 C 
ENDBRANCH   1   8
TORSDOF 1
ENDMDL
