MODEL 1
REMARK minimizedAffinity -1.25248849
REMARK minimizedRMSD -1
REMARK  1 active torsions:
REMARK  status: ('A' for Active; 'I' for Inactive)
REMARK    1  A    between atoms: C1_2  and  C2_3 
ROOT
ATOM      1  C2  UNL d   1      -1.019   0.172   1.227  0.00  0.00    -0.081 A 
ATOM      2  C3  UNL d   1      -0.696  -1.162   1.502  0.00  0.00     0.006 A 
ATOM      3  C4  UNL d   1       0.157  -1.873   0.655  0.00  0.00     0.002 A 
ATOM      4  C5  UNL d   1       0.708  -1.260  -0.475  0.00  0.00    -0.080 A 
ATOM      5  C6  UNL d   1       1.649  -2.003  -1.376  0.00  0.00     0.076 C 
ATOM      6  C7  UNL d   1       0.371   0.068  -0.760  0.00  0.00     0.002 A 
ATOM      7  C8  UNL d   1      -0.483   0.779   0.086  0.00  0.00     0.006 A 
ENDROOT
BRANCH   1   8
ATOM      8  C1  UNL d   1      -1.888   0.961   2.174  0.00  0.00     0.054 C 
ATOM      9  C   UNL d   1      -1.587   0.610   3.624  0.00  0.00     0.018 C 
ENDBRANCH   1   8
TORSDOF 1
ENDMDL
