MODEL 1
REMARK minimizedAffinity 3.68814707
REMARK minimizedRMSD -1
REMARK  1 active torsions:
REMARK  status: ('A' for Active; 'I' for Inactive)
REMARK    1  A    between atoms: C1_2  and  C2_3 
ROOT
ATOM      1  C2  UNL d   1      -3.177   0.244   3.722  0.00  0.00    -0.081 A 
ATOM      2  C3  UNL d   1      -3.844  -0.048   2.526  0.00  0.00     0.006 A 
ATOM      3  C4  UNL d   1      -4.748  -1.111   2.461  0.00  0.00     0.002 A 
ATOM      4  C5  UNL d   1      -5.005  -1.895   3.591  0.00  0.00    -0.080 A 
ATOM      5  C6  UNL d   1      -5.995  -3.020   3.542  0.00  0.00     0.076 C 
ATOM      6  C7  UNL d   1      -4.326  -1.614   4.781  0.00  0.00     0.002 A 
ATOM      7  C8  UNL d   1      -3.422  -0.551   4.847  0.00  0.00     0.006 A 
ENDROOT
BRANCH   1   8
ATOM      8  C1  UNL d   1      -2.251   1.430   3.813  0.00  0.00     0.054 C 
ATOM      9  C   UNL d   1      -3.027   2.739   3.807  0.00  0.00     0.018 C 
ENDBRANCH   1   8
TORSDOF 1
ENDMDL
