MODEL 1
REMARK minimizedAffinity -5.20447922
REMARK minimizedRMSD -1
REMARK  0 active torsions:
REMARK  status: ('A' for Active; 'I' for Inactive)
ROOT
ATOM      1  N1  IND d   1       2.036   3.759  -1.921  0.00  0.00    -0.196 N 
ATOM      2  C2  IND d   1       1.745   4.690  -0.964  0.00  0.00     0.054 A 
ATOM      3  C3  IND d   1       1.226   4.092   0.132  0.00  0.00    -0.031 A 
ATOM      4  C4  IND d   1       0.861   1.590   0.611  0.00  0.00     0.051 A 
ATOM      5  C5  IND d   1       0.942   0.358   0.025  0.00  0.00    -0.031 A 
ATOM      6  C6  IND d   1       1.403   0.193  -1.265  0.00  0.00     0.015 A 
ATOM      7  C7  IND d   1       1.814   1.258  -2.016  0.00  0.00    -0.016 A 
ATOM      8  C8  IND d   1       1.727   2.511  -1.426  0.00  0.00    -0.047 A 
ATOM      9  C9  IND d   1       1.219   2.689  -0.133  0.00  0.00    -0.096 A 
ATOM     10  HN1 IND d   1       2.359   3.925  -2.701  0.00  0.00     0.298 HD
ENDROOT
TORSDOF 0
ENDMDL
