MODEL 1
REMARK minimizedAffinity -1.70078957
REMARK minimizedRMSD -1
REMARK  0 active torsions:
REMARK  status: ('A' for Active; 'I' for Inactive)
ROOT
ATOM      1  N1  IND d   1       1.867   3.739  -0.227  0.00  0.00    -0.196 N 
ATOM      2  C2  IND d   1       1.911   4.126  -1.537  0.00  0.00     0.054 A 
ATOM      3  C3  IND d   1       1.666   3.072  -2.348  0.00  0.00    -0.031 A 
ATOM      4  C4  IND d   1       1.065   0.645  -1.737  0.00  0.00     0.051 A 
ATOM      5  C5  IND d   1       0.940  -0.198  -0.668  0.00  0.00    -0.031 A 
ATOM      6  C6  IND d   1       1.118   0.238   0.628  0.00  0.00     0.015 A 
ATOM      7  C7  IND d   1       1.419   1.542   0.907  0.00  0.00    -0.016 A 
ATOM      8  C8  IND d   1       1.553   2.399  -0.177  0.00  0.00    -0.047 A 
ATOM      9  C9  IND d   1       1.415   1.952  -1.497  0.00  0.00    -0.096 A 
ATOM     10  HN1 IND d   1       2.010   4.247   0.451  0.00  0.00     0.298 HD
ENDROOT
TORSDOF 0
ENDMDL
