MODEL 1
REMARK minimizedAffinity 1.54092383
REMARK minimizedRMSD -1
REMARK  0 active torsions:
REMARK  status: ('A' for Active; 'I' for Inactive)
ROOT
ATOM      1  N1  IND d   1       1.534   3.619  -2.218  0.00  0.00    -0.196 N 
ATOM      2  C2  IND d   1       1.347   4.369  -1.090  0.00  0.00     0.054 A 
ATOM      3  C3  IND d   1       1.116   3.568  -0.026  0.00  0.00    -0.031 A 
ATOM      4  C4  IND d   1       1.100   0.998   0.114  0.00  0.00     0.051 A 
ATOM      5  C5  IND d   1       1.185  -0.124  -0.662  0.00  0.00    -0.031 A 
ATOM      6  C6  IND d   1       1.397  -0.054  -2.024  0.00  0.00     0.015 A 
ATOM      7  C7  IND d   1       1.544   1.146  -2.661  0.00  0.00    -0.016 A 
ATOM      8  C8  IND d   1       1.452   2.287  -1.877  0.00  0.00    -0.047 A 
ATOM      9  C9  IND d   1       1.195   2.223  -0.501  0.00  0.00    -0.096 A 
ATOM     10  HN1 IND d   1       1.678   3.928  -3.007  0.00  0.00     0.298 HD
ENDROOT
TORSDOF 0
ENDMDL
