MODEL 1
REMARK minimizedAffinity -2.27584696
REMARK minimizedRMSD -1
REMARK  0 active torsions:
REMARK  status: ('A' for Active; 'I' for Inactive)
ROOT
ATOM      1  N1  IND d   1       1.618   2.232   0.787  0.00  0.00    -0.196 N 
ATOM      2  C2  IND d   1       1.127   1.240   1.589  0.00  0.00     0.054 A 
ATOM      3  C3  IND d   1       0.659   0.217   0.839  0.00  0.00    -0.031 A 
ATOM      4  C4  IND d   1       0.690  -0.085  -1.718  0.00  0.00     0.051 A 
ATOM      5  C5  IND d   1       1.005   0.570  -2.876  0.00  0.00    -0.031 A 
ATOM      6  C6  IND d   1       1.553   1.836  -2.872  0.00  0.00     0.015 A 
ATOM      7  C7  IND d   1       1.819   2.493  -1.704  0.00  0.00    -0.016 A 
ATOM      8  C8  IND d   1       1.495   1.835  -0.527  0.00  0.00    -0.047 A 
ATOM      9  C9  IND d   1       0.899   0.567  -0.525  0.00  0.00    -0.096 A 
ATOM     10  HN1 IND d   1       1.948   2.978   1.057  0.00  0.00     0.298 HD
ENDROOT
TORSDOF 0
ENDMDL
