MODEL 1
REMARK minimizedAffinity -2.32012081
REMARK minimizedRMSD -1
REMARK  0 active torsions:
REMARK  status: ('A' for Active; 'I' for Inactive)
ROOT
ATOM      1  N1  IND d   1       1.258   1.001   0.948  0.00  0.00    -0.196 N 
ATOM      2  C2  IND d   1       1.110  -0.005   0.034  0.00  0.00     0.054 A 
ATOM      3  C3  IND d   1       1.110   0.497  -1.222  0.00  0.00    -0.031 A 
ATOM      4  C4  IND d   1       1.441   2.924  -2.014  0.00  0.00     0.051 A 
ATOM      5  C5  IND d   1       1.576   4.200  -1.546  0.00  0.00    -0.031 A 
ATOM      6  C6  IND d   1       1.616   4.482  -0.195  0.00  0.00     0.015 A 
ATOM      7  C7  IND d   1       1.533   3.490   0.742  0.00  0.00    -0.016 A 
ATOM      8  C8  IND d   1       1.388   2.193   0.270  0.00  0.00    -0.047 A 
ATOM      9  C9  IND d   1       1.304   1.907  -1.099  0.00  0.00    -0.096 A 
ATOM     10  HN1 IND d   1       1.268   0.905   1.802  0.00  0.00     0.298 HD
ENDROOT
TORSDOF 0
ENDMDL
