MODEL 1
REMARK minimizedAffinity 0.316537052
REMARK minimizedRMSD -1
REMARK  0 active torsions:
REMARK  status: ('A' for Active; 'I' for Inactive)
ROOT
ATOM      1  N1  IND d   1       1.807   3.211   1.021  0.00  0.00    -0.196 N 
ATOM      2  C2  IND d   1       1.864   2.410   2.127  0.00  0.00     0.054 A 
ATOM      3  C3  IND d   1       1.686   1.116   1.779  0.00  0.00    -0.031 A 
ATOM      4  C4  IND d   1       1.386   0.075  -0.557  0.00  0.00     0.051 A 
ATOM      5  C5  IND d   1       1.231   0.409  -1.873  0.00  0.00    -0.031 A 
ATOM      6  C6  IND d   1       1.264   1.721  -2.301  0.00  0.00     0.015 A 
ATOM      7  C7  IND d   1       1.465   2.751  -1.426  0.00  0.00    -0.016 A 
ATOM      8  C8  IND d   1       1.615   2.416  -0.088  0.00  0.00    -0.047 A 
ATOM      9  C9  IND d   1       1.540   1.090   0.358  0.00  0.00    -0.096 A 
ATOM     10  HN1 IND d   1       1.878   4.068   1.018  0.00  0.00     0.298 HD
ENDROOT
TORSDOF 0
ENDMDL
