MODEL 1
REMARK minimizedAffinity 14.6775589
REMARK minimizedRMSD -1
REMARK  0 active torsions:
REMARK  status: ('A' for Active; 'I' for Inactive)
ROOT
ATOM      1  N1  IND d   1      -4.413   3.100   0.877  0.00  0.00    -0.196 N 
ATOM      2  C2  IND d   1      -3.373   3.960   0.656  0.00  0.00     0.054 A 
ATOM      3  C3  IND d   1      -2.556   3.998   1.732  0.00  0.00    -0.031 A 
ATOM      4  C4  IND d   1      -2.677   2.654   3.925  0.00  0.00     0.051 A 
ATOM      5  C5  IND d   1      -3.467   1.769   4.604  0.00  0.00    -0.031 A 
ATOM      6  C6  IND d   1      -4.634   1.270   4.063  0.00  0.00     0.015 A 
ATOM      7  C7  IND d   1      -5.051   1.631   2.813  0.00  0.00    -0.016 A 
ATOM      8  C8  IND d   1      -4.256   2.535   2.124  0.00  0.00    -0.047 A 
ATOM      9  C9  IND d   1      -3.092   3.077   2.684  0.00  0.00    -0.096 A 
ATOM     10  HN1 IND d   1      -5.056   2.939   0.330  0.00  0.00     0.298 HD
ENDROOT
TORSDOF 0
ENDMDL
