MODEL 1
REMARK minimizedAffinity 1.50989068
REMARK minimizedRMSD -1
REMARK  0 active torsions:
REMARK  status: ('A' for Active; 'I' for Inactive)
ROOT
ATOM      1  N1  IND d   1       2.050  -0.964  -0.047  0.00  0.00    -0.196 N 
ATOM      2  C2  IND d   1       1.949  -0.028  -1.039  0.00  0.00     0.054 A 
ATOM      3  C3  IND d   1       1.125  -0.467  -2.017  0.00  0.00    -0.031 A 
ATOM      4  C4  IND d   1      -0.242  -2.644  -2.149  0.00  0.00     0.051 A 
ATOM      5  C5  IND d   1      -0.449  -3.827  -1.497  0.00  0.00    -0.031 A 
ATOM      6  C6  IND d   1       0.177  -4.121  -0.303  0.00  0.00     0.015 A 
ATOM      7  C7  IND d   1       1.028  -3.234   0.292  0.00  0.00    -0.016 A 
ATOM      8  C8  IND d   1       1.246  -2.035  -0.371  0.00  0.00    -0.047 A 
ATOM      9  C9  IND d   1       0.647  -1.748  -1.604  0.00  0.00    -0.096 A 
ATOM     10  HN1 IND d   1       2.535  -0.895   0.660  0.00  0.00     0.298 HD
ENDROOT
TORSDOF 0
ENDMDL
