MODEL 1
REMARK minimizedAffinity -1.30893719
REMARK minimizedRMSD -1
REMARK  0 active torsions:
REMARK  status: ('A' for Active; 'I' for Inactive)
ROOT
ATOM      1  N1  IND d   1       1.183   1.137  -2.272  0.00  0.00    -0.196 N 
ATOM      2  C2  IND d   1       1.274   0.040  -1.461  0.00  0.00     0.054 A 
ATOM      3  C3  IND d   1       1.441   0.418  -0.174  0.00  0.00    -0.031 A 
ATOM      4  C4  IND d   1       1.491   2.783   0.842  0.00  0.00     0.051 A 
ATOM      5  C5  IND d   1       1.483   4.105   0.495  0.00  0.00    -0.031 A 
ATOM      6  C6  IND d   1       1.370   4.513  -0.818  0.00  0.00     0.015 A 
ATOM      7  C7  IND d   1       1.248   3.611  -1.837  0.00  0.00    -0.016 A 
ATOM      8  C8  IND d   1       1.263   2.268  -1.489  0.00  0.00    -0.047 A 
ATOM      9  C9  IND d   1       1.420   1.846  -0.162  0.00  0.00    -0.096 A 
ATOM     10  HN1 IND d   1       1.092   1.123  -3.126  0.00  0.00     0.298 HD
ENDROOT
TORSDOF 0
ENDMDL
