MODEL 1
REMARK minimizedAffinity 2.56728292
REMARK minimizedRMSD -1
REMARK  0 active torsions:
REMARK  status: ('A' for Active; 'I' for Inactive)
ROOT
ATOM      1  N1  IND d   1       1.327   0.919   1.101  0.00  0.00    -0.196 N 
ATOM      2  C2  IND d   1       1.295  -0.213   0.336  0.00  0.00     0.054 A 
ATOM      3  C3  IND d   1       1.304   0.106  -0.977  0.00  0.00    -0.031 A 
ATOM      4  C4  IND d   1       1.471   2.419  -2.097  0.00  0.00     0.051 A 
ATOM      5  C5  IND d   1       1.486   3.755  -1.812  0.00  0.00    -0.031 A 
ATOM      6  C6  IND d   1       1.451   4.224  -0.514  0.00  0.00     0.015 A 
ATOM      7  C7  IND d   1       1.411   3.370   0.551  0.00  0.00    -0.016 A 
ATOM      8  C8  IND d   1       1.388   2.012   0.265  0.00  0.00    -0.047 A 
ATOM      9  C9  IND d   1       1.380   1.531  -1.051  0.00  0.00    -0.096 A 
ATOM     10  HN1 IND d   1       1.311   0.945   1.961  0.00  0.00     0.298 HD
ENDROOT
TORSDOF 0
ENDMDL
