MODEL 1
REMARK minimizedAffinity -3.4959147
REMARK minimizedRMSD -1
REMARK  0 active torsions:
REMARK  status: ('A' for Active; 'I' for Inactive)
ROOT
ATOM      1  N1  IND d   1       1.174   3.769  -0.146  0.00  0.00    -0.196 N 
ATOM      2  C2  IND d   1       1.318   4.000  -1.485  0.00  0.00     0.054 A 
ATOM      3  C3  IND d   1       1.309   2.833  -2.168  0.00  0.00    -0.031 A 
ATOM      4  C4  IND d   1       0.968   0.433  -1.300  0.00  0.00     0.051 A 
ATOM      5  C5  IND d   1       0.833  -0.286  -0.146  0.00  0.00    -0.031 A 
ATOM      6  C6  IND d   1       0.801   0.322   1.092  0.00  0.00     0.015 A 
ATOM      7  C7  IND d   1       0.892   1.679   1.222  0.00  0.00    -0.016 A 
ATOM      8  C8  IND d   1       1.037   2.412   0.052  0.00  0.00    -0.047 A 
ATOM      9  C9  IND d   1       1.113   1.797  -1.204  0.00  0.00    -0.096 A 
ATOM     10  HN1 IND d   1       1.170   4.369   0.470  0.00  0.00     0.298 HD
ENDROOT
TORSDOF 0
ENDMDL
