MODEL 1
REMARK minimizedAffinity -5.56323195
REMARK minimizedRMSD -1
REMARK  0 active torsions:
REMARK  status: ('A' for Active; 'I' for Inactive)
ROOT
ATOM      1  N1  IND d   1       1.695   4.325  -0.136  0.00  0.00    -0.196 N 
ATOM      2  C2  IND d   1       1.869   4.337  -1.492  0.00  0.00     0.054 A 
ATOM      3  C3  IND d   1       1.680   3.099  -2.001  0.00  0.00    -0.031 A 
ATOM      4  C4  IND d   1       0.979   0.929  -0.807  0.00  0.00     0.051 A 
ATOM      5  C5  IND d   1       0.739   0.412   0.435  0.00  0.00    -0.031 A 
ATOM      6  C6  IND d   1       0.803   1.190   1.573  0.00  0.00     0.015 A 
ATOM      7  C7  IND d   1       1.101   2.522   1.510  0.00  0.00    -0.016 A 
ATOM      8  C8  IND d   1       1.353   3.048   0.251  0.00  0.00    -0.047 A 
ATOM      9  C9  IND d   1       1.330   2.255  -0.903  0.00  0.00    -0.096 A 
ATOM     10  HN1 IND d   1       1.785   5.002   0.387  0.00  0.00     0.298 HD
ENDROOT
TORSDOF 0
ENDMDL
