MODEL 1
REMARK minimizedAffinity 9.05443096
REMARK minimizedRMSD -1
REMARK  0 active torsions:
REMARK  status: ('A' for Active; 'I' for Inactive)
ROOT
ATOM      1  N1  IND d   1       2.167   2.712  -0.649  0.00  0.00    -0.196 N 
ATOM      2  C2  IND d   1       1.826   2.879  -1.963  0.00  0.00     0.054 A 
ATOM      3  C3  IND d   1       1.266   1.749  -2.450  0.00  0.00    -0.031 A 
ATOM      4  C4  IND d   1       0.717  -0.457  -1.242  0.00  0.00     0.051 A 
ATOM      5  C5  IND d   1       0.873  -1.097  -0.045  0.00  0.00    -0.031 A 
ATOM      6  C6  IND d   1       1.479  -0.487   1.035  0.00  0.00     0.015 A 
ATOM      7  C7  IND d   1       1.942   0.796   0.960  0.00  0.00    -0.016 A 
ATOM      8  C8  IND d   1       1.791   1.447  -0.256  0.00  0.00    -0.047 A 
ATOM      9  C9  IND d   1       1.216   0.818  -1.368  0.00  0.00    -0.096 A 
ATOM     10  HN1 IND d   1       2.551   3.300  -0.152  0.00  0.00     0.298 HD
ENDROOT
TORSDOF 0
ENDMDL
