MODEL 1
REMARK minimizedAffinity -0.661158979
REMARK minimizedRMSD -1
REMARK  0 active torsions:
REMARK  status: ('A' for Active; 'I' for Inactive)
ROOT
ATOM      1  N1  IND d   1       1.217   0.699  -2.987  0.00  0.00    -0.196 N 
ATOM      2  C2  IND d   1       1.052  -0.615  -2.649  0.00  0.00     0.054 A 
ATOM      3  C3  IND d   1       0.954  -0.748  -1.307  0.00  0.00    -0.031 A 
ATOM      4  C4  IND d   1       0.934   1.068   0.518  0.00  0.00     0.051 A 
ATOM      5  C5  IND d   1       1.091   2.413   0.701  0.00  0.00    -0.031 A 
ATOM      6  C6  IND d   1       1.300   3.273  -0.357  0.00  0.00     0.015 A 
ATOM      7  C7  IND d   1       1.348   2.820  -1.645  0.00  0.00    -0.016 A 
ATOM      8  C8  IND d   1       1.196   1.454  -1.834  0.00  0.00    -0.047 A 
ATOM      9  C9  IND d   1       1.026   0.570  -0.760  0.00  0.00    -0.096 A 
ATOM     10  HN1 IND d   1       1.317   1.004  -3.785  0.00  0.00     0.298 HD
ENDROOT
TORSDOF 0
ENDMDL
