MODEL 1
REMARK minimizedAffinity -2.02880168
REMARK minimizedRMSD -1
REMARK  0 active torsions:
REMARK  status: ('A' for Active; 'I' for Inactive)
ROOT
ATOM      1  N1  IND d   1       1.689   3.735  -0.510  0.00  0.00    -0.196 N 
ATOM      2  C2  IND d   1       1.736   3.667  -1.874  0.00  0.00     0.054 A 
ATOM      3  C3  IND d   1       1.489   2.405  -2.291  0.00  0.00    -0.031 A 
ATOM      4  C4  IND d   1       0.881   0.317  -0.913  0.00  0.00     0.051 A 
ATOM      5  C5  IND d   1       0.752  -0.124   0.374  0.00  0.00    -0.031 A 
ATOM      6  C6  IND d   1       0.930   0.716   1.454  0.00  0.00     0.015 A 
ATOM      7  C7  IND d   1       1.234   2.038   1.286  0.00  0.00    -0.016 A 
ATOM      8  C8  IND d   1       1.372   2.487  -0.019  0.00  0.00    -0.047 A 
ATOM      9  C9  IND d   1       1.234   1.630  -1.118  0.00  0.00    -0.096 A 
ATOM     10  HN1 IND d   1       1.833   4.439  -0.038  0.00  0.00     0.298 HD
ENDROOT
TORSDOF 0
ENDMDL
