MODEL 1
REMARK minimizedAffinity -2.74016023
REMARK minimizedRMSD -1
REMARK  0 active torsions:
REMARK  status: ('A' for Active; 'I' for Inactive)
ROOT
ATOM      1  N1  IND d   1       1.075   3.603  -0.978  0.00  0.00    -0.196 N 
ATOM      2  C2  IND d   1       1.346   3.496  -2.314  0.00  0.00     0.054 A 
ATOM      3  C3  IND d   1       1.558   2.203  -2.648  0.00  0.00    -0.031 A 
ATOM      4  C4  IND d   1       1.410   0.090  -1.186  0.00  0.00     0.051 A 
ATOM      5  C5  IND d   1       1.228  -0.315   0.107  0.00  0.00    -0.031 A 
ATOM      6  C6  IND d   1       0.978   0.583   1.124  0.00  0.00     0.015 A 
ATOM      7  C7  IND d   1       0.889   1.925   0.883  0.00  0.00    -0.016 A 
ATOM      8  C8  IND d   1       1.080   2.340  -0.427  0.00  0.00    -0.047 A 
ATOM      9  C9  IND d   1       1.376   1.437  -1.456  0.00  0.00    -0.096 A 
ATOM     10  HN1 IND d   1       0.926   4.336  -0.554  0.00  0.00     0.298 HD
ENDROOT
TORSDOF 0
ENDMDL
