MODEL 1
REMARK minimizedAffinity 2.07446146
REMARK minimizedRMSD -1
REMARK  0 active torsions:
REMARK  status: ('A' for Active; 'I' for Inactive)
ROOT
ATOM      1  N1  IND d   1      -5.999  -0.957   3.120  0.00  0.00    -0.196 N 
ATOM      2  C2  IND d   1      -5.068  -1.941   2.939  0.00  0.00     0.054 A 
ATOM      3  C3  IND d   1      -3.830  -1.473   3.215  0.00  0.00    -0.031 A 
ATOM      4  C4  IND d   1      -3.112   0.845   4.077  0.00  0.00     0.051 A 
ATOM      5  C5  IND d   1      -3.603   2.089   4.359  0.00  0.00    -0.031 A 
ATOM      6  C6  IND d   1      -4.946   2.386   4.243  0.00  0.00     0.015 A 
ATOM      7  C7  IND d   1      -5.853   1.443   3.849  0.00  0.00    -0.016 A 
ATOM      8  C8  IND d   1      -5.357   0.181   3.555  0.00  0.00    -0.047 A 
ATOM      9  C9  IND d   1      -3.989  -0.115   3.630  0.00  0.00    -0.096 A 
ATOM     10  HN1 IND d   1      -6.845  -1.036   2.984  0.00  0.00     0.298 HD
ENDROOT
TORSDOF 0
ENDMDL
