MODEL 1
REMARK minimizedAffinity -1.79090452
REMARK minimizedRMSD -1
REMARK  0 active torsions:
REMARK  status: ('A' for Active; 'I' for Inactive)
ROOT
ATOM      1  N1  IND d   1       1.187   3.330  -0.307  0.00  0.00    -0.196 N 
ATOM      2  C2  IND d   1       0.856   3.216   1.014  0.00  0.00     0.054 A 
ATOM      3  C3  IND d   1       0.742   1.914   1.360  0.00  0.00    -0.031 A 
ATOM      4  C4  IND d   1       1.153  -0.196  -0.056  0.00  0.00     0.051 A 
ATOM      5  C5  IND d   1       1.439  -0.600  -1.331  0.00  0.00    -0.031 A 
ATOM      6  C6  IND d   1       1.662   0.305  -2.349  0.00  0.00     0.015 A 
ATOM      7  C7  IND d   1       1.620   1.652  -2.127  0.00  0.00    -0.016 A 
ATOM      8  C8  IND d   1       1.323   2.065  -0.836  0.00  0.00    -0.047 A 
ATOM      9  C9  IND d   1       1.053   1.152   0.192  0.00  0.00    -0.096 A 
ATOM     10  HN1 IND d   1       1.293   4.068  -0.736  0.00  0.00     0.298 HD
ENDROOT
TORSDOF 0
ENDMDL
