MODEL 1
REMARK minimizedAffinity -1.47225702
REMARK minimizedRMSD -1
REMARK  0 active torsions:
REMARK  status: ('A' for Active; 'I' for Inactive)
ROOT
ATOM      1  N1  IND d   1       1.070   4.552  -1.941  0.00  0.00    -0.196 N 
ATOM      2  C2  IND d   1       1.597   5.346  -0.961  0.00  0.00     0.054 A 
ATOM      3  C3  IND d   1       1.881   4.611   0.137  0.00  0.00    -0.031 A 
ATOM      4  C4  IND d   1       1.658   2.074   0.511  0.00  0.00     0.051 A 
ATOM      5  C5  IND d   1       1.190   0.935  -0.082  0.00  0.00    -0.031 A 
ATOM      6  C6  IND d   1       0.651   0.943  -1.352  0.00  0.00     0.015 A 
ATOM      7  C7  IND d   1       0.568   2.093  -2.084  0.00  0.00    -0.016 A 
ATOM      8  C8  IND d   1       1.035   3.253  -1.482  0.00  0.00    -0.047 A 
ATOM      9  C9  IND d   1       1.545   3.259  -0.177  0.00  0.00    -0.096 A 
ATOM     10  HN1 IND d   1       0.805   4.818  -2.715  0.00  0.00     0.298 HD
ENDROOT
TORSDOF 0
ENDMDL
