MODEL 1
REMARK minimizedAffinity -1.03244281
REMARK minimizedRMSD -1
REMARK  1 active torsions:
REMARK  status: ('A' for Active; 'I' for Inactive)
REMARK    1  A    between atoms: C1_2  and  C2_3 
ROOT
ATOM      1  C2  UNL d   1       4.058   1.281   0.514  0.00  0.00    -0.076 A 
ATOM      2  C3  UNL d   1       5.338   1.849   0.398  0.00  0.00     0.004 A 
ATOM      3  C4  UNL d   1       5.841   2.238  -0.842  0.00  0.00    -0.003 A 
ATOM      4  C5  UNL d   1       5.071   2.067  -1.987  0.00  0.00     0.000 A 
ATOM      5  C6  UNL d   1       3.791   1.522  -1.888  0.00  0.00     0.000 A 
ATOM      6  C7  UNL d   1       3.263   1.139  -0.644  0.00  0.00    -0.073 A 
ATOM      7  C8  UNL d   1       1.879   0.551  -0.597  0.00  0.00     0.078 C 
ENDROOT
BRANCH   1   8
ATOM      8  C1  UNL d   1       3.576   0.853   1.882  0.00  0.00     0.053 C 
ATOM      9  C   UNL d   1       3.514  -0.659   2.031  0.00  0.00     0.018 C 
ENDBRANCH   1   8
TORSDOF 1
ENDMDL
