MODEL 1
REMARK minimizedAffinity -1.15043592
REMARK minimizedRMSD -1
REMARK  1 active torsions:
REMARK  status: ('A' for Active; 'I' for Inactive)
REMARK    1  A    between atoms: C1_2  and  C2_3 
ROOT
ATOM      1  C2  UNL d   1       4.873   2.285  -1.454  0.00  0.00    -0.076 A 
ATOM      2  C3  UNL d   1       4.765   2.635  -0.096  0.00  0.00     0.004 A 
ATOM      3  C4  UNL d   1       3.732   2.134   0.694  0.00  0.00    -0.003 A 
ATOM      4  C5  UNL d   1       2.791   1.274   0.140  0.00  0.00     0.000 A 
ATOM      5  C6  UNL d   1       2.893   0.902  -1.201  0.00  0.00     0.000 A 
ATOM      6  C7  UNL d   1       3.937   1.386  -2.007  0.00  0.00    -0.073 A 
ATOM      7  C8  UNL d   1       3.995   0.957  -3.447  0.00  0.00     0.078 C 
ENDROOT
BRANCH   1   8
ATOM      8  C1  UNL d   1       5.999   2.882  -2.268  0.00  0.00     0.053 C 
ATOM      9  C   UNL d   1       5.955   4.402  -2.298  0.00  0.00     0.018 C 
ENDBRANCH   1   8
TORSDOF 1
ENDMDL
