MODEL 1
REMARK minimizedAffinity -0.816893518
REMARK minimizedRMSD -1
REMARK  0 active torsions:
REMARK  status: ('A' for Active; 'I' for Inactive)
ROOT
ATOM      1  C2' OXE d   1       3.716  -2.366  -5.624  0.00  0.00     0.078 C 
ATOM      2  C1' OXE d   1       3.503  -2.124  -2.836  0.00  0.00     0.078 C 
ATOM      3  C1  OXE d   1       3.374  -3.502  -3.434  0.00  0.00    -0.078 A 
ATOM      4  C2  OXE d   1       3.433  -3.605  -4.803  0.00  0.00    -0.078 A 
ATOM      5  C3  OXE d   1       3.375  -4.860  -5.403  0.00  0.00     0.003 A 
ATOM      6  C4  OXE d   1       3.103  -6.000  -4.637  0.00  0.00    -0.002 A 
ATOM      7  C5  OXE d   1       3.000  -5.912  -3.245  0.00  0.00    -0.002 A 
ATOM      8  C6  OXE d   1       3.175  -4.680  -2.625  0.00  0.00     0.003 A 
ENDROOT
TORSDOF 0
ENDMDL
