MODEL 1
REMARK minimizedAffinity 3.99285126
REMARK minimizedRMSD -1
REMARK  0 active torsions:
REMARK  status: ('A' for Active; 'I' for Inactive)
ROOT
ATOM      1  C2' OXE d   1      -1.161  -1.681   0.583  0.00  0.00     0.078 C 
ATOM      2  C1' OXE d   1       1.016  -2.379   2.212  0.00  0.00     0.078 C 
ATOM      3  C1  OXE d   1       1.082  -1.065   1.476  0.00  0.00    -0.078 A 
ATOM      4  C2  OXE d   1       0.033  -0.752   0.645  0.00  0.00    -0.078 A 
ATOM      5  C3  OXE d   1       0.018   0.473  -0.015  0.00  0.00     0.003 A 
ATOM      6  C4  OXE d   1       1.130   1.321   0.039  0.00  0.00    -0.002 A 
ATOM      7  C5  OXE d   1       2.226   1.004   0.849  0.00  0.00    -0.002 A 
ATOM      8  C6  OXE d   1       2.199  -0.162   1.605  0.00  0.00     0.003 A 
ENDROOT
TORSDOF 0
ENDMDL
