MODEL 1
REMARK minimizedAffinity 4.63627577
REMARK minimizedRMSD -1
REMARK  0 active torsions:
REMARK  status: ('A' for Active; 'I' for Inactive)
ROOT
ATOM      1  C2' OXE d   1       4.067   0.239  -0.070  0.00  0.00     0.078 C 
ATOM      2  C1' OXE d   1       1.987  -0.823   1.486  0.00  0.00     0.078 C 
ATOM      3  C1  OXE d   1       1.744   0.494   0.792  0.00  0.00    -0.078 A 
ATOM      4  C2  OXE d   1       2.784   1.029   0.071  0.00  0.00    -0.078 A 
ATOM      5  C3  OXE d   1       2.595   2.215  -0.633  0.00  0.00     0.003 A 
ATOM      6  C4  OXE d   1       1.409   2.944  -0.489  0.00  0.00    -0.002 A 
ATOM      7  C5  OXE d   1       0.352   2.436   0.273  0.00  0.00    -0.002 A 
ATOM      8  C6  OXE d   1       0.487   1.195   0.884  0.00  0.00     0.003 A 
ENDROOT
TORSDOF 0
ENDMDL
