MODEL 1
REMARK minimizedAffinity 6.70239162
REMARK minimizedRMSD -1
REMARK  0 active torsions:
REMARK  status: ('A' for Active; 'I' for Inactive)
ROOT
ATOM      1  C2' OXE d   1      -1.697   1.501  -0.393  0.00  0.00     0.078 C 
ATOM      2  C1' OXE d   1       0.358   3.408  -0.236  0.00  0.00     0.078 C 
ATOM      3  C1  OXE d   1       0.698   1.978   0.103  0.00  0.00    -0.078 A 
ATOM      4  C2  OXE d   1      -0.325   1.060   0.069  0.00  0.00    -0.078 A 
ATOM      5  C3  OXE d   1      -0.054  -0.282   0.320  0.00  0.00     0.003 A 
ATOM      6  C4  OXE d   1       1.215  -0.680   0.756  0.00  0.00    -0.002 A 
ATOM      7  C5  OXE d   1       2.261   0.246   0.836  0.00  0.00    -0.002 A 
ATOM      8  C6  OXE d   1       2.030   1.568   0.473  0.00  0.00     0.003 A 
ENDROOT
TORSDOF 0
ENDMDL
