MODEL 1
REMARK minimizedAffinity 6.48345661
REMARK minimizedRMSD -1
REMARK  0 active torsions:
REMARK  status: ('A' for Active; 'I' for Inactive)
ROOT
ATOM      1  C2' OXE d   1       3.002  -2.943  -2.604  0.00  0.00     0.078 C 
ATOM      2  C1' OXE d   1       3.921  -0.366  -1.975  0.00  0.00     0.078 C 
ATOM      3  C1  OXE d   1       4.062  -0.834  -3.402  0.00  0.00    -0.078 A 
ATOM      4  C2  OXE d   1       3.652  -2.114  -3.691  0.00  0.00    -0.078 A 
ATOM      5  C3  OXE d   1       3.710  -2.576  -5.002  0.00  0.00     0.003 A 
ATOM      6  C4  OXE d   1       4.322  -1.806  -5.999  0.00  0.00    -0.002 A 
ATOM      7  C5  OXE d   1       4.781  -0.516  -5.717  0.00  0.00    -0.002 A 
ATOM      8  C6  OXE d   1       4.621   0.000  -4.436  0.00  0.00     0.003 A 
ENDROOT
TORSDOF 0
ENDMDL
