MODEL 1
REMARK minimizedAffinity -0.339067698
REMARK minimizedRMSD -1
REMARK  0 active torsions:
REMARK  status: ('A' for Active; 'I' for Inactive)
ROOT
ATOM      1  C2' OXE d   1       3.721  -1.473  -5.496  0.00  0.00     0.078 C 
ATOM      2  C1' OXE d   1       6.000  -3.033  -6.000  0.00  0.00     0.078 C 
ATOM      3  C1  OXE d   1       4.678  -3.745  -5.855  0.00  0.00    -0.078 A 
ATOM      4  C2  OXE d   1       3.576  -2.978  -5.562  0.00  0.00    -0.078 A 
ATOM      5  C3  OXE d   1       2.323  -3.578  -5.473  0.00  0.00     0.003 A 
ATOM      6  C4  OXE d   1       2.199  -4.972  -5.525  0.00  0.00    -0.002 A 
ATOM      7  C5  OXE d   1       3.315  -5.775  -5.783  0.00  0.00    -0.002 A 
ATOM      8  C6  OXE d   1       4.552  -5.175  -5.993  0.00  0.00     0.003 A 
ENDROOT
TORSDOF 0
ENDMDL
