MODEL 1
REMARK minimizedAffinity -0.321916014
REMARK minimizedRMSD -1
REMARK  0 active torsions:
REMARK  status: ('A' for Active; 'I' for Inactive)
ROOT
ATOM      1  C2' OXE d   1       0.999   1.913  -0.171  0.00  0.00     0.078 C 
ATOM      2  C1' OXE d   1      -0.350  -0.448   0.526  0.00  0.00     0.078 C 
ATOM      3  C1  OXE d   1       0.813  -0.022   1.386  0.00  0.00    -0.078 A 
ATOM      4  C2  OXE d   1       1.497   1.109   1.011  0.00  0.00    -0.078 A 
ATOM      5  C3  OXE d   1       2.543   1.576   1.801  0.00  0.00     0.003 A 
ATOM      6  C4  OXE d   1       3.004   0.821   2.887  0.00  0.00    -0.002 A 
ATOM      7  C5  OXE d   1       2.347  -0.355   3.263  0.00  0.00    -0.002 A 
ATOM      8  C6  OXE d   1       1.226  -0.767   2.550  0.00  0.00     0.003 A 
ENDROOT
TORSDOF 0
ENDMDL
