MODEL 1
REMARK minimizedAffinity -0.37049678
REMARK minimizedRMSD -1
REMARK  0 active torsions:
REMARK  status: ('A' for Active; 'I' for Inactive)
ROOT
ATOM      1  C2' OXE d   1       3.045   1.126   1.775  0.00  0.00     0.078 C 
ATOM      2  C1' OXE d   1       1.466   3.243   0.824  0.00  0.00     0.078 C 
ATOM      3  C1  OXE d   1       0.819   1.888   0.958  0.00  0.00    -0.078 A 
ATOM      4  C2  OXE d   1       1.611   0.847   1.379  0.00  0.00    -0.078 A 
ATOM      5  C3  OXE d   1       1.050  -0.412   1.572  0.00  0.00     0.003 A 
ATOM      6  C4  OXE d   1      -0.274  -0.664   1.194  0.00  0.00    -0.002 A 
ATOM      7  C5  OXE d   1      -1.088   0.373   0.725  0.00  0.00    -0.002 A 
ATOM      8  C6  OXE d   1      -0.570   1.661   0.641  0.00  0.00     0.003 A 
ENDROOT
TORSDOF 0
ENDMDL
