MODEL 1
REMARK minimizedAffinity 4.3969779
REMARK minimizedRMSD -1
REMARK  0 active torsions:
REMARK  status: ('A' for Active; 'I' for Inactive)
ROOT
ATOM      1  C2' OXE d   1       2.339   2.703   2.130  0.00  0.00     0.078 C 
ATOM      2  C1' OXE d   1       0.310   4.301   1.031  0.00  0.00     0.078 C 
ATOM      3  C1  OXE d   1       0.437   2.884   0.531  0.00  0.00    -0.078 A 
ATOM      4  C2  OXE d   1       1.462   2.124   1.040  0.00  0.00    -0.078 A 
ATOM      5  C3  OXE d   1       1.591   0.793   0.654  0.00  0.00     0.003 A 
ATOM      6  C4  OXE d   1       0.783   0.268  -0.361  0.00  0.00    -0.002 A 
ATOM      7  C5  OXE d   1      -0.242   1.038  -0.922  0.00  0.00    -0.002 A 
ATOM      8  C6  OXE d   1      -0.455   2.331  -0.458  0.00  0.00     0.003 A 
ENDROOT
TORSDOF 0
ENDMDL
