MODEL 1
REMARK minimizedAffinity -0.908660412
REMARK minimizedRMSD -1
REMARK  0 active torsions:
REMARK  status: ('A' for Active; 'I' for Inactive)
ROOT
ATOM      1  C   UNL d   1       0.688   2.872   0.523  0.00  0.00    -0.002 A 
ATOM      2  C1  UNL d   1       1.880   2.169   0.420  0.00  0.00     0.010 A 
ATOM      3  C2  UNL d   1       1.879   0.774   0.367  0.00  0.00     0.041 A 
ATOM      4  C3  UNL d   1       0.648   0.091   0.418  0.00  0.00    -0.075 A 
ATOM      5  S   UNL d   1       0.404  -1.615   0.367  0.00  0.00     0.015 SA
ATOM      6  C4  UNL d   1      -1.289  -1.451   0.480  0.00  0.00     0.022 A 
ATOM      7  C5  UNL d   1      -1.675  -0.134   0.556  0.00  0.00     0.026 A 
ATOM      8  C6  UNL d   1      -0.565   0.777   0.520  0.00  0.00    -0.082 A 
ATOM      9  C7  UNL d   1      -0.531   2.191   0.573  0.00  0.00     0.045 A 
ENDROOT
TORSDOF 0
ENDMDL
