MODEL 1
REMARK minimizedAffinity 0.0916359797
REMARK minimizedRMSD -1
REMARK  0 active torsions:
REMARK  status: ('A' for Active; 'I' for Inactive)
ROOT
ATOM      1  C   UNL d   1      -0.020   3.095   0.184  0.00  0.00    -0.002 A 
ATOM      2  C1  UNL d   1      -1.107   2.514   0.822  0.00  0.00     0.010 A 
ATOM      3  C2  UNL d   1      -1.214   1.126   0.922  0.00  0.00     0.041 A 
ATOM      4  C3  UNL d   1      -0.199   0.322   0.367  0.00  0.00    -0.075 A 
ATOM      5  S   UNL d   1      -0.117  -1.400   0.370  0.00  0.00     0.015 SA
ATOM      6  C4  UNL d   1       1.363  -1.406  -0.474  0.00  0.00     0.022 A 
ATOM      7  C5  UNL d   1       1.799  -0.134  -0.760  0.00  0.00     0.026 A 
ATOM      8  C6  UNL d   1       0.907   0.883  -0.279  0.00  0.00    -0.082 A 
ATOM      9  C7  UNL d   1       0.985   2.294  -0.365  0.00  0.00     0.045 A 
ENDROOT
TORSDOF 0
ENDMDL
