MODEL 1
REMARK minimizedAffinity -4.94680548
REMARK minimizedRMSD -1
REMARK  0 active torsions:
REMARK  status: ('A' for Active; 'I' for Inactive)
ROOT
ATOM      1  C   UNL d   1       0.382   2.394  -0.220  0.00  0.00    -0.002 A 
ATOM      2  C1  UNL d   1      -0.136   1.115  -0.367  0.00  0.00     0.010 A 
ATOM      3  C2  UNL d   1      -1.081   0.623   0.535  0.00  0.00     0.041 A 
ATOM      4  C3  UNL d   1      -1.503   1.447   1.597  0.00  0.00    -0.075 A 
ATOM      5  S   UNL d   1      -2.650   1.057   2.823  0.00  0.00     0.015 SA
ATOM      6  C4  UNL d   1      -2.482   2.579   3.570  0.00  0.00     0.022 A 
ATOM      7  C5  UNL d   1      -1.576   3.378   2.914  0.00  0.00     0.026 A 
ATOM      8  C6  UNL d   1      -0.997   2.739   1.766  0.00  0.00    -0.082 A 
ATOM      9  C7  UNL d   1      -0.039   3.209   0.834  0.00  0.00     0.045 A 
ENDROOT
TORSDOF 0
ENDMDL
