MODEL 1
REMARK minimizedAffinity -1.26163447
REMARK minimizedRMSD -1
REMARK  0 active torsions:
REMARK  status: ('A' for Active; 'I' for Inactive)
ROOT
ATOM      1  C   UNL d   1      -1.182  -3.247  -3.056  0.00  0.00    -0.002 A 
ATOM      2  C1  UNL d   1      -2.195  -3.271  -2.107  0.00  0.00     0.010 A 
ATOM      3  C2  UNL d   1      -2.044  -2.604  -0.890  0.00  0.00     0.041 A 
ATOM      4  C3  UNL d   1      -0.848  -1.904  -0.640  0.00  0.00    -0.075 A 
ATOM      5  S   UNL d   1      -0.441  -1.014   0.779  0.00  0.00     0.015 SA
ATOM      6  C4  UNL d   1       1.086  -0.578   0.160  0.00  0.00     0.022 A 
ATOM      7  C5  UNL d   1       1.297  -1.092  -1.098  0.00  0.00     0.026 A 
ATOM      8  C6  UNL d   1       0.186  -1.863  -1.580  0.00  0.00    -0.082 A 
ATOM      9  C7  UNL d   1       0.003  -2.550  -2.804  0.00  0.00     0.045 A 
ENDROOT
TORSDOF 0
ENDMDL
