MODEL 1
REMARK minimizedAffinity 9.42565536
REMARK minimizedRMSD -1
REMARK  0 active torsions:
REMARK  status: ('A' for Active; 'I' for Inactive)
ROOT
ATOM      1  C   UNL d   1      -2.219  -1.017   2.959  0.00  0.00    -0.002 A 
ATOM      2  C1  UNL d   1      -1.166  -1.738   2.415  0.00  0.00     0.010 A 
ATOM      3  C2  UNL d   1      -0.205  -1.106   1.624  0.00  0.00     0.041 A 
ATOM      4  C3  UNL d   1      -0.321   0.278   1.387  0.00  0.00    -0.075 A 
ATOM      5  S   UNL d   1       0.738   1.265   0.450  0.00  0.00     0.015 SA
ATOM      6  C4  UNL d   1      -0.183   2.667   0.750  0.00  0.00     0.022 A 
ATOM      7  C5  UNL d   1      -1.275   2.408   1.543  0.00  0.00     0.026 A 
ATOM      8  C6  UNL d   1      -1.372   1.026   1.924  0.00  0.00    -0.082 A 
ATOM      9  C7  UNL d   1      -2.331   0.356   2.722  0.00  0.00     0.045 A 
ENDROOT
TORSDOF 0
ENDMDL
