MODEL 1
REMARK minimizedAffinity 8.39745808
REMARK minimizedRMSD -1
REMARK  0 active torsions:
REMARK  status: ('A' for Active; 'I' for Inactive)
ROOT
ATOM      1  C   UNL d   1      -0.604  -1.226   2.021  0.00  0.00    -0.002 A 
ATOM      2  C1  UNL d   1       0.218  -2.330   2.198  0.00  0.00     0.010 A 
ATOM      3  C2  UNL d   1      -0.037  -3.250   3.217  0.00  0.00     0.041 A 
ATOM      4  C3  UNL d   1      -1.144  -3.040   4.062  0.00  0.00    -0.075 A 
ATOM      5  S   UNL d   1      -1.652  -4.034   5.376  0.00  0.00     0.015 SA
ATOM      6  C4  UNL d   1      -2.972  -3.017   5.734  0.00  0.00     0.022 A 
ATOM      7  C5  UNL d   1      -3.039  -1.940   4.881  0.00  0.00     0.026 A 
ATOM      8  C6  UNL d   1      -1.987  -1.936   3.904  0.00  0.00    -0.082 A 
ATOM      9  C7  UNL d   1      -1.701  -1.021   2.862  0.00  0.00     0.045 A 
ENDROOT
TORSDOF 0
ENDMDL
