MODEL 1
REMARK minimizedAffinity -1.41142523
REMARK minimizedRMSD -1
REMARK  0 active torsions:
REMARK  status: ('A' for Active; 'I' for Inactive)
ROOT
ATOM      1  C   UNL d   1       2.890   2.313   1.381  0.00  0.00    -0.002 A 
ATOM      2  C1  UNL d   1       3.271   1.020   1.053  0.00  0.00     0.010 A 
ATOM      3  C2  UNL d   1       2.317   0.071   0.681  0.00  0.00     0.041 A 
ATOM      4  C3  UNL d   1       0.960   0.448   0.640  0.00  0.00    -0.075 A 
ATOM      5  S   UNL d   1      -0.383  -0.545   0.212  0.00  0.00     0.015 SA
ATOM      6  C4  UNL d   1      -1.494   0.725   0.452  0.00  0.00     0.022 A 
ATOM      7  C5  UNL d   1      -0.873   1.886   0.850  0.00  0.00     0.026 A 
ATOM      8  C6  UNL d   1       0.552   1.745   0.964  0.00  0.00    -0.082 A 
ATOM      9  C7  UNL d   1       1.543   2.684   1.339  0.00  0.00     0.045 A 
ENDROOT
TORSDOF 0
ENDMDL
