MODEL 1
REMARK minimizedAffinity 5.62485027
REMARK minimizedRMSD -1
REMARK  0 active torsions:
REMARK  status: ('A' for Active; 'I' for Inactive)
ROOT
ATOM      1  C   UNL d   1       1.087   3.289  -0.764  0.00  0.00    -0.002 A 
ATOM      2  C1  UNL d   1       1.494   2.388   0.210  0.00  0.00     0.010 A 
ATOM      3  C2  UNL d   1       0.557   1.612   0.896  0.00  0.00     0.041 A 
ATOM      4  C3  UNL d   1      -0.808   1.757   0.583  0.00  0.00    -0.075 A 
ATOM      5  S   UNL d   1      -2.133   0.913   1.293  0.00  0.00     0.015 SA
ATOM      6  C4  UNL d   1      -3.271   1.727   0.320  0.00  0.00     0.022 A 
ATOM      7  C5  UNL d   1      -2.672   2.626  -0.531  0.00  0.00     0.026 A 
ATOM      8  C6  UNL d   1      -1.243   2.658  -0.394  0.00  0.00    -0.082 A 
ATOM      9  C7  UNL d   1      -0.269   3.430  -1.071  0.00  0.00     0.045 A 
ENDROOT
TORSDOF 0
ENDMDL
