MODEL 1
REMARK minimizedAffinity -4.28117943
REMARK minimizedRMSD -1
REMARK  0 active torsions:
REMARK  status: ('A' for Active; 'I' for Inactive)
ROOT
ATOM      1  C   UNL d   1       0.557   3.415   0.105  0.00  0.00    -0.002 A 
ATOM      2  C1  UNL d   1       1.920   3.156   0.157  0.00  0.00     0.010 A 
ATOM      3  C2  UNL d   1       2.389   1.855   0.344  0.00  0.00     0.041 A 
ATOM      4  C3  UNL d   1       1.456   0.807   0.478  0.00  0.00    -0.075 A 
ATOM      5  S   UNL d   1       1.799  -0.866   0.714  0.00  0.00     0.015 SA
ATOM      6  C4  UNL d   1       0.146  -1.277   0.751  0.00  0.00     0.022 A 
ATOM      7  C5  UNL d   1      -0.663  -0.176   0.589  0.00  0.00     0.026 A 
ATOM      8  C6  UNL d   1       0.079   1.043   0.428  0.00  0.00    -0.082 A 
ATOM      9  C7  UNL d   1      -0.365   2.373   0.238  0.00  0.00     0.045 A 
ENDROOT
TORSDOF 0
ENDMDL
