MODEL 1
REMARK minimizedAffinity 5.98431396
REMARK minimizedRMSD -1
REMARK  0 active torsions:
REMARK  status: ('A' for Active; 'I' for Inactive)
ROOT
ATOM      1  C   UNL d   1       0.752   3.426  -0.580  0.00  0.00    -0.002 A 
ATOM      2  C1  UNL d   1      -0.558   3.411  -0.123  0.00  0.00     0.010 A 
ATOM      3  C2  UNL d   1      -1.110   2.247   0.415  0.00  0.00     0.041 A 
ATOM      4  C3  UNL d   1      -0.314   1.087   0.488  0.00  0.00    -0.075 A 
ATOM      5  S   UNL d   1      -0.777  -0.454   1.109  0.00  0.00     0.015 SA
ATOM      6  C4  UNL d   1       0.754  -1.128   0.783  0.00  0.00     0.022 A 
ATOM      7  C5  UNL d   1       1.609  -0.215   0.214  0.00  0.00     0.026 A 
ATOM      8  C6  UNL d   1       1.008   1.077   0.035  0.00  0.00    -0.082 A 
ATOM      9  C7  UNL d   1       1.538   2.273  -0.506  0.00  0.00     0.045 A 
ENDROOT
TORSDOF 0
ENDMDL
