MODEL 1
REMARK minimizedAffinity -3.69855142
REMARK minimizedRMSD -1
REMARK  0 active torsions:
REMARK  status: ('A' for Active; 'I' for Inactive)
ROOT
ATOM      1  C   UNL d   1      -0.023   2.922   0.044  0.00  0.00    -0.002 A 
ATOM      2  C1  UNL d   1      -1.248   2.347   0.350  0.00  0.00     0.010 A 
ATOM      3  C2  UNL d   1      -1.370   0.961   0.476  0.00  0.00     0.041 A 
ATOM      4  C3  UNL d   1      -0.229   0.157   0.290  0.00  0.00    -0.075 A 
ATOM      5  S   UNL d   1      -0.141  -1.562   0.395  0.00  0.00     0.015 SA
ATOM      6  C4  UNL d   1       1.526  -1.573   0.039  0.00  0.00     0.022 A 
ATOM      7  C5  UNL d   1       2.019  -0.305  -0.159  0.00  0.00     0.026 A 
ATOM      8  C6  UNL d   1       1.016   0.713  -0.018  0.00  0.00    -0.082 A 
ATOM      9  C7  UNL d   1       1.107   2.120  -0.139  0.00  0.00     0.045 A 
ENDROOT
TORSDOF 0
ENDMDL
