MODEL 1
REMARK minimizedAffinity -5.57826185
REMARK minimizedRMSD -1
REMARK  0 active torsions:
REMARK  status: ('A' for Active; 'I' for Inactive)
ROOT
ATOM      1  C2' OXE d   1      -0.020   0.500  -0.871  0.00  0.00     0.078 C 
ATOM      2  C1' OXE d   1       0.423  -1.639  -2.635  0.00  0.00     0.078 C 
ATOM      3  C1  OXE d   1       0.245  -1.959  -1.171  0.00  0.00    -0.078 A 
ATOM      4  C2  OXE d   1       0.076  -0.902  -0.309  0.00  0.00    -0.078 A 
ATOM      5  C3  OXE d   1      -0.147  -1.145   1.043  0.00  0.00     0.003 A 
ATOM      6  C4  OXE d   1      -0.048  -2.444   1.556  0.00  0.00    -0.002 A 
ATOM      7  C5  OXE d   1       0.164  -3.530   0.701  0.00  0.00    -0.002 A 
ATOM      8  C6  OXE d   1       0.270  -3.310  -0.668  0.00  0.00     0.003 A 
ENDROOT
TORSDOF 0
ENDMDL
