MODEL 1
REMARK minimizedAffinity -3.71412134
REMARK minimizedRMSD -1
REMARK  0 active torsions:
REMARK  status: ('A' for Active; 'I' for Inactive)
ROOT
ATOM      1  C2' OXE d   1      -1.282  -0.404   1.291  0.00  0.00     0.078 C 
ATOM      2  C1' OXE d   1       0.319   0.781  -0.687  0.00  0.00     0.078 C 
ATOM      3  C1  OXE d   1       0.255  -0.725  -0.643  0.00  0.00    -0.078 A 
ATOM      4  C2  OXE d   1      -0.494  -1.297   0.357  0.00  0.00    -0.078 A 
ATOM      5  C3  OXE d   1      -0.630  -2.681   0.410  0.00  0.00     0.003 A 
ATOM      6  C4  OXE d   1       0.110  -3.500  -0.451  0.00  0.00    -0.002 A 
ATOM      7  C5  OXE d   1       0.910  -2.938  -1.452  0.00  0.00    -0.002 A 
ATOM      8  C6  OXE d   1       0.960  -1.555  -1.588  0.00  0.00     0.003 A 
ENDROOT
TORSDOF 0
ENDMDL
