MODEL 1
REMARK minimizedAffinity -6.00874043
REMARK minimizedRMSD -1
REMARK  0 active torsions:
REMARK  status: ('A' for Active; 'I' for Inactive)
ROOT
ATOM      1  C2' OXE d   1      -0.451  -0.074   1.400  0.00  0.00     0.078 C 
ATOM      2  C1' OXE d   1       0.291   0.682  -1.199  0.00  0.00     0.078 C 
ATOM      3  C1  OXE d   1       0.056  -0.784  -0.933  0.00  0.00    -0.078 A 
ATOM      4  C2  OXE d   1      -0.261  -1.150   0.353  0.00  0.00    -0.078 A 
ATOM      5  C3  OXE d   1      -0.542  -2.483   0.641  0.00  0.00     0.003 A 
ATOM      6  C4  OXE d   1      -0.354  -3.473  -0.331  0.00  0.00    -0.002 A 
ATOM      7  C5  OXE d   1       0.007  -3.126  -1.637  0.00  0.00    -0.002 A 
ATOM      8  C6  OXE d   1       0.174  -1.785  -1.964  0.00  0.00     0.003 A 
ENDROOT
TORSDOF 0
ENDMDL
