MODEL 1
REMARK minimizedAffinity -4.24732494
REMARK minimizedRMSD -1
REMARK  0 active torsions:
REMARK  status: ('A' for Active; 'I' for Inactive)
ROOT
ATOM      1  C2' OXE d   1      -0.197  -3.541  -0.750  0.00  0.00     0.078 C 
ATOM      2  C1' OXE d   1       0.665  -2.193  -3.056  0.00  0.00     0.078 C 
ATOM      3  C1  OXE d   1       0.415  -1.374  -1.815  0.00  0.00    -0.078 A 
ATOM      4  C2  OXE d   1      -0.051  -2.035  -0.704  0.00  0.00    -0.078 A 
ATOM      5  C3  OXE d   1      -0.245  -1.336   0.484  0.00  0.00     0.003 A 
ATOM      6  C4  OXE d   1      -0.118   0.058   0.515  0.00  0.00    -0.002 A 
ATOM      7  C5  OXE d   1       0.318   0.756  -0.616  0.00  0.00    -0.002 A 
ATOM      8  C6  OXE d   1       0.629   0.051  -1.774  0.00  0.00     0.003 A 
ENDROOT
TORSDOF 0
ENDMDL
