MODEL 1
REMARK minimizedAffinity -6.15100765
REMARK minimizedRMSD -1
REMARK  0 active torsions:
REMARK  status: ('A' for Active; 'I' for Inactive)
ROOT
ATOM      1  C2' OXE d   1       0.241   0.879  -0.405  0.00  0.00     0.078 C 
ATOM      2  C1' OXE d   1      -0.525  -0.858   1.663  0.00  0.00     0.078 C 
ATOM      3  C1  OXE d   1      -0.124  -1.469   0.343  0.00  0.00    -0.078 A 
ATOM      4  C2  OXE d   1       0.204  -0.609  -0.677  0.00  0.00    -0.078 A 
ATOM      5  C3  OXE d   1       0.634  -1.121  -1.898  0.00  0.00     0.003 A 
ATOM      6  C4  OXE d   1       0.587  -2.499  -2.146  0.00  0.00    -0.002 A 
ATOM      7  C5  OXE d   1       0.217  -3.389  -1.132  0.00  0.00    -0.002 A 
ATOM      8  C6  OXE d   1      -0.100  -2.895   0.128  0.00  0.00     0.003 A 
ENDROOT
TORSDOF 0
ENDMDL
