MODEL 1
REMARK minimizedAffinity -5.82263947
REMARK minimizedRMSD -1
REMARK  0 active torsions:
REMARK  status: ('A' for Active; 'I' for Inactive)
ROOT
ATOM      1  C2' OXE d   1      -0.008   0.702  -0.778  0.00  0.00     0.078 C 
ATOM      2  C1' OXE d   1       0.552  -0.958  -2.972  0.00  0.00     0.078 C 
ATOM      3  C1  OXE d   1       0.100  -1.614  -1.691  0.00  0.00    -0.078 A 
ATOM      4  C2  OXE d   1      -0.126  -0.798  -0.609  0.00  0.00    -0.078 A 
ATOM      5  C3  OXE d   1      -0.597  -1.345   0.581  0.00  0.00     0.003 A 
ATOM      6  C4  OXE d   1      -0.695  -2.734   0.732  0.00  0.00    -0.002 A 
ATOM      7  C5  OXE d   1      -0.430  -3.586  -0.345  0.00  0.00    -0.002 A 
ATOM      8  C6  OXE d   1      -0.074  -3.041  -1.574  0.00  0.00     0.003 A 
ENDROOT
TORSDOF 0
ENDMDL
