MODEL 1
REMARK minimizedAffinity -0.558713138
REMARK minimizedRMSD -1
REMARK  0 active torsions:
REMARK  status: ('A' for Active; 'I' for Inactive)
ROOT
ATOM      1  C2' OXE d   1       0.439   1.303   0.111  0.00  0.00     0.078 C 
ATOM      2  C1' OXE d   1      -1.279   0.530   2.192  0.00  0.00     0.078 C 
ATOM      3  C1  OXE d   1      -0.770  -0.545   1.265  0.00  0.00    -0.078 A 
ATOM      4  C2  OXE d   1       0.033  -0.151   0.221  0.00  0.00    -0.078 A 
ATOM      5  C3  OXE d   1       0.574  -1.109  -0.632  0.00  0.00     0.003 A 
ATOM      6  C4  OXE d   1       0.185  -2.450  -0.529  0.00  0.00    -0.002 A 
ATOM      7  C5  OXE d   1      -0.663  -2.866   0.503  0.00  0.00    -0.002 A 
ATOM      8  C6  OXE d   1      -1.114  -1.935   1.431  0.00  0.00     0.003 A 
ENDROOT
TORSDOF 0
ENDMDL
