MODEL 1
REMARK minimizedAffinity -6.35208893
REMARK minimizedRMSD -1
REMARK  0 active torsions:
REMARK  status: ('A' for Active; 'I' for Inactive)
ROOT
ATOM      1  C2' OXE d   1      -0.430  -0.508   2.128  0.00  0.00     0.078 C 
ATOM      2  C1' OXE d   1      -0.083   0.700  -0.383  0.00  0.00     0.078 C 
ATOM      3  C1  OXE d   1      -0.020  -0.806  -0.311  0.00  0.00    -0.078 A 
ATOM      4  C2  OXE d   1      -0.144  -1.386   0.928  0.00  0.00    -0.078 A 
ATOM      5  C3  OXE d   1      -0.148  -2.773   1.043  0.00  0.00     0.003 A 
ATOM      6  C4  OXE d   1       0.127  -3.577  -0.070  0.00  0.00    -0.002 A 
ATOM      7  C5  OXE d   1       0.296  -3.004  -1.335  0.00  0.00    -0.002 A 
ATOM      8  C6  OXE d   1       0.184  -1.626  -1.480  0.00  0.00     0.003 A 
ENDROOT
TORSDOF 0
ENDMDL
