MODEL 1
REMARK minimizedAffinity -3.71962571
REMARK minimizedRMSD -1
REMARK  0 active torsions:
REMARK  status: ('A' for Active; 'I' for Inactive)
ROOT
ATOM      1  C2' OXE d   1       0.381   3.074  -0.582  0.00  0.00     0.078 C 
ATOM      2  C1' OXE d   1       2.503   2.219   1.046  0.00  0.00     0.078 C 
ATOM      3  C1  OXE d   1       1.316   1.300   0.896  0.00  0.00    -0.078 A 
ATOM      4  C2  OXE d   1       0.262   1.747   0.136  0.00  0.00    -0.078 A 
ATOM      5  C3  OXE d   1      -0.834   0.916  -0.079  0.00  0.00     0.003 A 
ATOM      6  C4  OXE d   1      -0.940  -0.306   0.596  0.00  0.00    -0.002 A 
ATOM      7  C5  OXE d   1       0.104  -0.762   1.407  0.00  0.00    -0.002 A 
ATOM      8  C6  OXE d   1       1.255   0.008   1.534  0.00  0.00     0.003 A 
ENDROOT
TORSDOF 0
ENDMDL
