MODEL 1
REMARK minimizedAffinity -5.9866519
REMARK minimizedRMSD -1
REMARK  0 active torsions:
REMARK  status: ('A' for Active; 'I' for Inactive)
ROOT
ATOM      1  C2' OXE d   1      -0.688  -4.289  -0.149  0.00  0.00     0.078 C 
ATOM      2  C1' OXE d   1       0.074  -2.937  -2.488  0.00  0.00     0.078 C 
ATOM      3  C1  OXE d   1       0.138  -2.180  -1.185  0.00  0.00    -0.078 A 
ATOM      4  C2  OXE d   1      -0.282  -2.834  -0.052  0.00  0.00    -0.078 A 
ATOM      5  C3  OXE d   1      -0.192  -2.200   1.184  0.00  0.00     0.003 A 
ATOM      6  C4  OXE d   1       0.175  -0.851   1.263  0.00  0.00    -0.002 A 
ATOM      7  C5  OXE d   1       0.568  -0.153   0.116  0.00  0.00    -0.002 A 
ATOM      8  C6  OXE d   1       0.595  -0.814  -1.108  0.00  0.00     0.003 A 
ENDROOT
TORSDOF 0
ENDMDL
