MODEL 1
REMARK minimizedAffinity -4.31803703
REMARK minimizedRMSD -1
REMARK  0 active torsions:
REMARK  status: ('A' for Active; 'I' for Inactive)
ROOT
ATOM      1  C2' OXE d   1      -0.041   0.678   0.038  0.00  0.00     0.078 C 
ATOM      2  C1' OXE d   1      -0.523  -1.373   1.894  0.00  0.00     0.078 C 
ATOM      3  C1  OXE d   1      -0.210  -1.769   0.473  0.00  0.00    -0.078 A 
ATOM      4  C2  OXE d   1      -0.021  -0.758  -0.439  0.00  0.00    -0.078 A 
ATOM      5  C3  OXE d   1       0.324  -1.069  -1.751  0.00  0.00     0.003 A 
ATOM      6  C4  OXE d   1       0.330  -2.399  -2.187  0.00  0.00    -0.002 A 
ATOM      7  C5  OXE d   1       0.102  -3.443  -1.284  0.00  0.00    -0.002 A 
ATOM      8  C6  OXE d   1      -0.127  -3.147   0.056  0.00  0.00     0.003 A 
ENDROOT
TORSDOF 0
ENDMDL
