MODEL 1
REMARK minimizedAffinity -3.57269382
REMARK minimizedRMSD -1
REMARK  0 active torsions:
REMARK  status: ('A' for Active; 'I' for Inactive)
ROOT
ATOM      1  C2' OXE d   1       0.097   1.104  -0.123  0.00  0.00     0.078 C 
ATOM      2  C1' OXE d   1      -1.342  -0.119   1.954  0.00  0.00     0.078 C 
ATOM      3  C1  OXE d   1      -0.685  -1.012   0.933  0.00  0.00    -0.078 A 
ATOM      4  C2  OXE d   1      -0.022  -0.404  -0.106  0.00  0.00    -0.078 A 
ATOM      5  C3  OXE d   1       0.649  -1.182  -1.046  0.00  0.00     0.003 A 
ATOM      6  C4  OXE d   1       0.525  -2.577  -1.029  0.00  0.00    -0.002 A 
ATOM      7  C5  OXE d   1      -0.178  -3.215  -0.002  0.00  0.00    -0.002 A 
ATOM      8  C6  OXE d   1      -0.752  -2.451   1.008  0.00  0.00     0.003 A 
ENDROOT
TORSDOF 0
ENDMDL
