MODEL 1
REMARK minimizedAffinity -6.67333984
REMARK minimizedRMSD -1
REMARK  0 active torsions:
REMARK  status: ('A' for Active; 'I' for Inactive)
ROOT
ATOM      1  C2' OXE d   1       0.869  -1.849  -3.440  0.00  0.00     0.078 C 
ATOM      2  C1' OXE d   1       0.102   0.489  -2.088  0.00  0.00     0.078 C 
ATOM      3  C1  OXE d   1       0.044  -0.813  -1.329  0.00  0.00    -0.078 A 
ATOM      4  C2  OXE d   1       0.377  -1.958  -2.013  0.00  0.00    -0.078 A 
ATOM      5  C3  OXE d   1       0.394  -3.179  -1.345  0.00  0.00     0.003 A 
ATOM      6  C4  OXE d   1      -0.072  -3.273  -0.028  0.00  0.00    -0.002 A 
ATOM      7  C5  OXE d   1      -0.453  -2.125   0.674  0.00  0.00    -0.002 A 
ATOM      8  C6  OXE d   1      -0.360  -0.884   0.053  0.00  0.00     0.003 A 
ENDROOT
TORSDOF 0
ENDMDL
