MODEL 1
REMARK minimizedAffinity -5.5133009
REMARK minimizedRMSD -1
REMARK  0 active torsions:
REMARK  status: ('A' for Active; 'I' for Inactive)
ROOT
ATOM      1  C2' OXE d   1      -1.125  -0.338   1.744  0.00  0.00     0.078 C 
ATOM      2  C1' OXE d   1      -0.415   0.748  -0.746  0.00  0.00     0.078 C 
ATOM      3  C1  OXE d   1      -0.259  -0.741  -0.557  0.00  0.00    -0.078 A 
ATOM      4  C2  OXE d   1      -0.564  -1.257   0.679  0.00  0.00    -0.078 A 
ATOM      5  C3  OXE d   1      -0.490  -2.631   0.890  0.00  0.00     0.003 A 
ATOM      6  C4  OXE d   1       0.038  -3.472  -0.097  0.00  0.00    -0.002 A 
ATOM      7  C5  OXE d   1       0.393  -2.961  -1.350  0.00  0.00    -0.002 A 
ATOM      8  C6  OXE d   1       0.211  -1.607  -1.610  0.00  0.00     0.003 A 
ENDROOT
TORSDOF 0
ENDMDL
