MODEL 1
REMARK minimizedAffinity -5.31017017
REMARK minimizedRMSD -1
REMARK  0 active torsions:
REMARK  status: ('A' for Active; 'I' for Inactive)
ROOT
ATOM      1  C2' OXE d   1      -0.916  -0.407   1.096  0.00  0.00     0.078 C 
ATOM      2  C1' OXE d   1       0.202   0.301  -1.379  0.00  0.00     0.078 C 
ATOM      3  C1  OXE d   1       0.018  -1.167  -1.084  0.00  0.00    -0.078 A 
ATOM      4  C2  OXE d   1      -0.487  -1.506   0.148  0.00  0.00    -0.078 A 
ATOM      5  C3  OXE d   1      -0.728  -2.843   0.451  0.00  0.00     0.003 A 
ATOM      6  C4  OXE d   1      -0.318  -3.853  -0.428  0.00  0.00    -0.002 A 
ATOM      7  C5  OXE d   1       0.235  -3.531  -1.672  0.00  0.00    -0.002 A 
ATOM      8  C6  OXE d   1       0.370  -2.195  -2.032  0.00  0.00     0.003 A 
ENDROOT
TORSDOF 0
ENDMDL
