MODEL 1
REMARK minimizedAffinity -5.5318203
REMARK minimizedRMSD -1
REMARK  0 active torsions:
REMARK  status: ('A' for Active; 'I' for Inactive)
ROOT
ATOM      1  C2' OXE d   1       0.022   0.529   0.194  0.00  0.00     0.078 C 
ATOM      2  C1' OXE d   1      -0.357  -1.830   1.668  0.00  0.00     0.078 C 
ATOM      3  C1  OXE d   1      -0.248  -1.947   0.168  0.00  0.00    -0.078 A 
ATOM      4  C2  OXE d   1      -0.110  -0.783  -0.549  0.00  0.00    -0.078 A 
ATOM      5  C3  OXE d   1       0.050  -0.838  -1.930  0.00  0.00     0.003 A 
ATOM      6  C4  OXE d   1      -0.083  -2.055  -2.611  0.00  0.00    -0.002 A 
ATOM      7  C5  OXE d   1      -0.264  -3.248  -1.903  0.00  0.00    -0.002 A 
ATOM      8  C6  OXE d   1      -0.306  -3.216  -0.514  0.00  0.00     0.003 A 
ENDROOT
TORSDOF 0
ENDMDL
