MODEL 1
REMARK minimizedAffinity 1.72147131
REMARK minimizedRMSD -1
REMARK  0 active torsions:
REMARK  status: ('A' for Active; 'I' for Inactive)
ROOT
ATOM      1  C   UNL d   1      -2.692   0.975  -3.005  0.00  0.00     0.172 C 
ATOM      2  N   UNL d   1      -3.459   2.188  -2.850  0.00  0.00    -0.070 N 
ATOM      3  C1  UNL d   1      -3.911   2.701  -1.663  0.00  0.00    -0.004 A 
ATOM      4  C2  UNL d   1      -4.598   3.864  -1.940  0.00  0.00    -0.047 A 
ATOM      5  C3  UNL d   1      -4.558   4.055  -3.342  0.00  0.00    -0.047 A 
ATOM      6  C4  UNL d   1      -3.847   3.004  -3.880  0.00  0.00    -0.004 A 
ENDROOT
TORSDOF 0
ENDMDL
