MODEL 1
REMARK minimizedAffinity 6.59239674
REMARK minimizedRMSD -1
REMARK  0 active torsions:
REMARK  status: ('A' for Active; 'I' for Inactive)
ROOT
ATOM      1  C   UNL d   1       3.308   1.477   1.340  0.00  0.00     0.172 C 
ATOM      2  N   UNL d   1       2.669   0.475   2.161  0.00  0.00    -0.070 N 
ATOM      3  C1  UNL d   1       3.255  -0.199   3.199  0.00  0.00    -0.004 A 
ATOM      4  C2  UNL d   1       2.319  -1.064   3.723  0.00  0.00    -0.047 A 
ATOM      5  C3  UNL d   1       1.129  -0.904   2.974  0.00  0.00    -0.047 A 
ATOM      6  C4  UNL d   1       1.374   0.055   2.013  0.00  0.00    -0.004 A 
ENDROOT
TORSDOF 0
ENDMDL
