MODEL 1
REMARK minimizedAffinity 3.47576499
REMARK minimizedRMSD -1
REMARK  0 active torsions:
REMARK  status: ('A' for Active; 'I' for Inactive)
ROOT
ATOM      1  C   UNL d   1       2.980   0.737   1.586  0.00  0.00     0.172 C 
ATOM      2  N   UNL d   1       2.671  -0.318   2.522  0.00  0.00    -0.070 N 
ATOM      3  C1  UNL d   1       3.457  -1.408   2.786  0.00  0.00    -0.004 A 
ATOM      4  C2  UNL d   1       2.814  -2.174   3.734  0.00  0.00    -0.047 A 
ATOM      5  C3  UNL d   1       1.598  -1.522   4.050  0.00  0.00    -0.047 A 
ATOM      6  C4  UNL d   1       1.535  -0.376   3.286  0.00  0.00    -0.004 A 
ENDROOT
TORSDOF 0
ENDMDL
