MODEL 1
REMARK minimizedAffinity 4.21999025
REMARK minimizedRMSD -1
REMARK  0 active torsions:
REMARK  status: ('A' for Active; 'I' for Inactive)
ROOT
ATOM      1  C   UNL d   1       3.398   1.177   0.737  0.00  0.00     0.172 C 
ATOM      2  N   UNL d   1       2.829   0.337   1.764  0.00  0.00    -0.070 N 
ATOM      3  C1  UNL d   1       2.173   0.777   2.882  0.00  0.00    -0.004 A 
ATOM      4  C2  UNL d   1       1.785  -0.329   3.607  0.00  0.00    -0.047 A 
ATOM      5  C3  UNL d   1       2.225  -1.474   2.900  0.00  0.00    -0.047 A 
ATOM      6  C4  UNL d   1       2.868  -1.032   1.764  0.00  0.00    -0.004 A 
ENDROOT
TORSDOF 0
ENDMDL
