MODEL 1
REMARK minimizedAffinity -1.55149019
REMARK minimizedRMSD -1
REMARK  0 active torsions:
REMARK  status: ('A' for Active; 'I' for Inactive)
ROOT
ATOM      1  C   UNL d   1       3.118  -3.373   4.840  0.00  0.00     0.172 C 
ATOM      2  N   UNL d   1       2.636  -2.409   3.880  0.00  0.00    -0.070 N 
ATOM      3  C1  UNL d   1       1.671  -1.465   4.111  0.00  0.00    -0.004 A 
ATOM      4  C2  UNL d   1       1.498  -0.744   2.950  0.00  0.00    -0.047 A 
ATOM      5  C3  UNL d   1       2.389  -1.274   1.986  0.00  0.00    -0.047 A 
ATOM      6  C4  UNL d   1       3.081  -2.303   2.588  0.00  0.00    -0.004 A 
ENDROOT
TORSDOF 0
ENDMDL
