MODEL 1
REMARK minimizedAffinity 7.12052107
REMARK minimizedRMSD -1
REMARK  0 active torsions:
REMARK  status: ('A' for Active; 'I' for Inactive)
ROOT
ATOM      1  C   UNL d   1       2.589  -0.795   3.574  0.00  0.00     0.172 C 
ATOM      2  N   UNL d   1       2.902   0.403   2.832  0.00  0.00    -0.070 N 
ATOM      3  C1  UNL d   1       2.953   0.507   1.467  0.00  0.00    -0.004 A 
ATOM      4  C2  UNL d   1       3.283   1.807   1.155  0.00  0.00    -0.047 A 
ATOM      5  C3  UNL d   1       3.438   2.510   2.373  0.00  0.00    -0.047 A 
ATOM      6  C4  UNL d   1       3.196   1.617   3.396  0.00  0.00    -0.004 A 
ENDROOT
TORSDOF 0
ENDMDL
