MODEL 1
REMARK minimizedAffinity 5.31449032
REMARK minimizedRMSD -1
REMARK  1 active torsions:
REMARK  status: ('A' for Active; 'I' for Inactive)
REMARK    1  A    between atoms: N_2  and  C1_3 
ROOT
ATOM      1  C1  UNL d   1      -4.302  -3.588  -5.312  0.00  0.00     0.143 A 
ATOM      2  C2  UNL d   1      -2.966  -3.614  -4.899  0.00  0.00    -0.057 A 
ATOM      3  C3  UNL d   1      -2.349  -4.810  -4.510  0.00  0.00     0.033 A 
ATOM      4  C4  UNL d   1      -3.070  -6.000  -4.501  0.00  0.00    -0.042 A 
ATOM      5  C5  UNL d   1      -4.406  -5.993  -4.884  0.00  0.00     0.033 A 
ATOM      6  C6  UNL d   1      -5.014  -4.797  -5.277  0.00  0.00    -0.057 A 
ENDROOT
BRANCH   1   7
ATOM      7  N   UNL d   1      -4.999  -2.416  -5.615  0.00  0.00    -0.732 N 
ATOM      8  C   UNL d   1      -4.852  -1.236  -4.790  0.00  0.00     0.284 C 
ATOM      9  H3  UNL d   1      -5.021  -2.224  -6.614  0.00  0.00     0.395 HD
ENDBRANCH   1   7
TORSDOF 1
ENDMDL
