MODEL 1
REMARK minimizedAffinity 14.1504774
REMARK minimizedRMSD -1
REMARK  1 active torsions:
REMARK  status: ('A' for Active; 'I' for Inactive)
REMARK    1  A    between atoms: N_2  and  C1_3 
ROOT
ATOM      1  C1  UNL d   1      -4.042   2.229  -4.829  0.00  0.00     0.143 A 
ATOM      2  C2  UNL d   1      -3.050   3.203  -4.983  0.00  0.00    -0.057 A 
ATOM      3  C3  UNL d   1      -2.852   4.198  -4.017  0.00  0.00     0.033 A 
ATOM      4  C4  UNL d   1      -3.666   4.253  -2.890  0.00  0.00    -0.042 A 
ATOM      5  C5  UNL d   1      -4.676   3.310  -2.729  0.00  0.00     0.033 A 
ATOM      6  C6  UNL d   1      -4.863   2.315  -3.694  0.00  0.00    -0.057 A 
ENDROOT
BRANCH   1   7
ATOM      7  N   UNL d   1      -4.352   1.275  -5.801  0.00  0.00    -0.732 N 
ATOM      8  C   UNL d   1      -4.038  -0.122  -5.588  0.00  0.00     0.284 C 
ATOM      9  H3  UNL d   1      -5.262   1.436  -6.227  0.00  0.00     0.395 HD
ENDBRANCH   1   7
TORSDOF 1
ENDMDL
