MODEL 1
REMARK minimizedAffinity 10.2167358
REMARK minimizedRMSD -1
REMARK  1 active torsions:
REMARK  status: ('A' for Active; 'I' for Inactive)
REMARK    1  A    between atoms: N_2  and  C1_3 
ROOT
ATOM      1  C1  UNL d   1       1.044   3.222  -1.552  0.00  0.00     0.143 A 
ATOM      2  C2  UNL d   1      -0.214   3.761  -1.262  0.00  0.00    -0.057 A 
ATOM      3  C3  UNL d   1      -1.076   3.142  -0.349  0.00  0.00     0.033 A 
ATOM      4  C4  UNL d   1      -0.705   1.954   0.271  0.00  0.00    -0.042 A 
ATOM      5  C5  UNL d   1       0.531   1.387  -0.020  0.00  0.00     0.033 A 
ATOM      6  C6  UNL d   1       1.390   2.013  -0.928  0.00  0.00    -0.057 A 
ENDROOT
BRANCH   1   7
ATOM      7  N   UNL d   1       1.906   3.737  -2.524  0.00  0.00    -0.732 N 
ATOM      8  C   UNL d   1       1.803   5.119  -2.943  0.00  0.00     0.284 C 
ATOM      9  H3  UNL d   1       2.861   3.407  -2.410  0.00  0.00     0.395 HD
ENDBRANCH   1   7
TORSDOF 1
ENDMDL
