MODEL 1
REMARK minimizedAffinity 14.6575241
REMARK minimizedRMSD -1
REMARK  1 active torsions:
REMARK  status: ('A' for Active; 'I' for Inactive)
REMARK    1  A    between atoms: N_2  and  C1_3 
ROOT
ATOM      1  C1  UNL d   1       3.248  -5.329  -0.855  0.00  0.00     0.143 A 
ATOM      2  C2  UNL d   1       3.168  -3.979  -0.497  0.00  0.00    -0.057 A 
ATOM      3  C3  UNL d   1       1.932  -3.335  -0.367  0.00  0.00     0.033 A 
ATOM      4  C4  UNL d   1       0.751  -4.024  -0.622  0.00  0.00    -0.042 A 
ATOM      5  C5  UNL d   1       0.808  -5.360  -1.003  0.00  0.00     0.033 A 
ATOM      6  C6  UNL d   1       2.045  -6.000  -1.125  0.00  0.00    -0.057 A 
ENDROOT
BRANCH   1   7
ATOM      7  N   UNL d   1       4.450  -6.000  -1.097  0.00  0.00    -0.732 N 
ATOM      8  C   UNL d   1       5.657  -5.628  -0.390  0.00  0.00     0.284 C 
ATOM      9  H3  UNL d   1       4.321  -7.004  -1.199  0.00  0.00     0.395 HD
ENDBRANCH   1   7
TORSDOF 1
ENDMDL
