MODEL 1
REMARK minimizedAffinity 14.0513058
REMARK minimizedRMSD -1
REMARK  0 active torsions:
REMARK  status: ('A' for Active; 'I' for Inactive)
ROOT
ATOM      1  C   UNL d   1       1.089   1.384  -3.000  0.00  0.00    -0.002 A 
ATOM      2  C1  UNL d   1       0.453   1.910  -1.885  0.00  0.00     0.010 A 
ATOM      3  C2  UNL d   1       0.149   1.097  -0.791  0.00  0.00     0.041 A 
ATOM      4  C3  UNL d   1       0.499  -0.266  -0.837  0.00  0.00    -0.075 A 
ATOM      5  S   UNL d   1       0.227  -1.452   0.385  0.00  0.00     0.015 SA
ATOM      6  C4  UNL d   1       0.949  -2.684  -0.544  0.00  0.00     0.022 A 
ATOM      7  C5  UNL d   1       1.393  -2.220  -1.760  0.00  0.00     0.026 A 
ATOM      8  C6  UNL d   1       1.141  -0.819  -1.949  0.00  0.00    -0.082 A 
ATOM      9  C7  UNL d   1       1.435   0.031  -3.042  0.00  0.00     0.045 A 
ENDROOT
TORSDOF 0
ENDMDL
