MODEL 1
REMARK minimizedAffinity 12.9321928
REMARK minimizedRMSD -1
REMARK  0 active torsions:
REMARK  status: ('A' for Active; 'I' for Inactive)
ROOT
ATOM      1  C   UNL d   1       2.187  -0.316  -4.141  0.00  0.00    -0.002 A 
ATOM      2  C1  UNL d   1       1.477   0.124  -3.032  0.00  0.00     0.010 A 
ATOM      3  C2  UNL d   1       1.084   1.459  -2.925  0.00  0.00     0.041 A 
ATOM      4  C3  UNL d   1       1.417   2.354  -3.961  0.00  0.00    -0.075 A 
ATOM      5  S   UNL d   1       1.040   4.034  -4.046  0.00  0.00     0.015 SA
ATOM      6  C4  UNL d   1       1.811   4.207  -5.556  0.00  0.00     0.022 A 
ATOM      7  C5  UNL d   1       2.348   3.022  -6.000  0.00  0.00     0.026 A 
ATOM      8  C6  UNL d   1       2.130   1.934  -5.088  0.00  0.00    -0.082 A 
ATOM      9  C7  UNL d   1       2.515   0.574  -5.167  0.00  0.00     0.045 A 
ENDROOT
TORSDOF 0
ENDMDL
