MODEL 1
REMARK minimizedAffinity 8.01926899
REMARK minimizedRMSD -1
REMARK  0 active torsions:
REMARK  status: ('A' for Active; 'I' for Inactive)
ROOT
ATOM      1  C   UNL d   1       4.417   1.663   2.823  0.00  0.00    -0.002 A 
ATOM      2  C1  UNL d   1       4.836   2.225   4.021  0.00  0.00     0.010 A 
ATOM      3  C2  UNL d   1       5.310   1.418   5.057  0.00  0.00     0.041 A 
ATOM      4  C3  UNL d   1       5.359   0.023   4.866  0.00  0.00    -0.075 A 
ATOM      5  S   UNL d   1       5.904  -1.162   5.993  0.00  0.00     0.015 SA
ATOM      6  C4  UNL d   1       5.594  -2.442   4.911  0.00  0.00     0.022 A 
ATOM      7  C5  UNL d   1       5.087  -1.994   3.714  0.00  0.00     0.026 A 
ATOM      8  C6  UNL d   1       4.943  -0.566   3.668  0.00  0.00    -0.082 A 
ATOM      9  C7  UNL d   1       4.467   0.279   2.638  0.00  0.00     0.045 A 
ENDROOT
TORSDOF 0
ENDMDL
