MODEL 1
REMARK minimizedAffinity 9.4802103
REMARK minimizedRMSD -1
REMARK  0 active torsions:
REMARK  status: ('A' for Active; 'I' for Inactive)
ROOT
ATOM      1  C   UNL d   1       2.017  -2.746  -0.947  0.00  0.00    -0.002 A 
ATOM      2  C1  UNL d   1       2.261  -1.498  -1.503  0.00  0.00     0.010 A 
ATOM      3  C2  UNL d   1       1.371  -0.442  -1.296  0.00  0.00     0.041 A 
ATOM      4  C3  UNL d   1       0.222  -0.662  -0.512  0.00  0.00    -0.075 A 
ATOM      5  S   UNL d   1      -1.007   0.483  -0.124  0.00  0.00     0.015 SA
ATOM      6  C4  UNL d   1      -1.884  -0.657   0.790  0.00  0.00     0.022 A 
ATOM      7  C5  UNL d   1      -1.269  -1.886   0.809  0.00  0.00     0.026 A 
ATOM      8  C6  UNL d   1      -0.045  -1.910   0.059  0.00  0.00    -0.082 A 
ATOM      9  C7  UNL d   1       0.876  -2.961  -0.169  0.00  0.00     0.045 A 
ENDROOT
TORSDOF 0
ENDMDL
