MODEL 1
REMARK minimizedAffinity 4.07864428
REMARK minimizedRMSD -1
REMARK  0 active torsions:
REMARK  status: ('A' for Active; 'I' for Inactive)
ROOT
ATOM      1  C   UNL d   1       1.849   0.940  -4.455  0.00  0.00    -0.002 A 
ATOM      2  C1  UNL d   1       1.238   1.886  -3.644  0.00  0.00     0.010 A 
ATOM      3  C2  UNL d   1       0.840   1.558  -2.347  0.00  0.00     0.041 A 
ATOM      4  C3  UNL d   1       1.071   0.252  -1.873  0.00  0.00    -0.075 A 
ATOM      5  S   UNL d   1       0.670  -0.376  -0.318  0.00  0.00     0.015 SA
ATOM      6  C4  UNL d   1       1.302  -1.914  -0.693  0.00  0.00     0.022 A 
ATOM      7  C5  UNL d   1       1.810  -1.965  -1.970  0.00  0.00     0.026 A 
ATOM      8  C6  UNL d   1       1.686  -0.718  -2.670  0.00  0.00    -0.082 A 
ATOM      9  C7  UNL d   1       2.077  -0.354  -3.981  0.00  0.00     0.045 A 
ENDROOT
TORSDOF 0
ENDMDL
