MODEL 1
REMARK minimizedAffinity 1.67983186
REMARK minimizedRMSD -1
REMARK  0 active torsions:
REMARK  status: ('A' for Active; 'I' for Inactive)
ROOT
ATOM      1  C   UNL d   1       5.367   4.276   3.986  0.00  0.00    -0.002 A 
ATOM      2  C1  UNL d   1       5.817   4.284   5.299  0.00  0.00     0.010 A 
ATOM      3  C2  UNL d   1       5.997   3.088   5.996  0.00  0.00     0.041 A 
ATOM      4  C3  UNL d   1       5.717   1.871   5.344  0.00  0.00    -0.075 A 
ATOM      5  S   UNL d   1       5.865   0.283   5.999  0.00  0.00     0.015 SA
ATOM      6  C4  UNL d   1       5.337  -0.444   4.550  0.00  0.00     0.022 A 
ATOM      7  C5  UNL d   1       5.050   0.487   3.581  0.00  0.00     0.026 A 
ATOM      8  C6  UNL d   1       5.265   1.837   4.022  0.00  0.00    -0.082 A 
ATOM      9  C7  UNL d   1       5.091   3.067   3.343  0.00  0.00     0.045 A 
ENDROOT
TORSDOF 0
ENDMDL
