MODEL 1
REMARK minimizedAffinity 6.97100353
REMARK minimizedRMSD -1
REMARK  0 active torsions:
REMARK  status: ('A' for Active; 'I' for Inactive)
ROOT
ATOM      1  C   UNL d   1       5.824  -1.515   5.561  0.00  0.00    -0.002 A 
ATOM      2  C1  UNL d   1       4.718  -1.856   4.795  0.00  0.00     0.010 A 
ATOM      3  C2  UNL d   1       3.766  -0.894   4.454  0.00  0.00     0.041 A 
ATOM      4  C3  UNL d   1       3.947   0.431   4.898  0.00  0.00    -0.075 A 
ATOM      5  S   UNL d   1       2.912   1.777   4.601  0.00  0.00     0.015 SA
ATOM      6  C4  UNL d   1       3.914   2.837   5.484  0.00  0.00     0.022 A 
ATOM      7  C5  UNL d   1       5.015   2.196   5.999  0.00  0.00     0.026 A 
ATOM      8  C6  UNL d   1       5.053   0.799   5.670  0.00  0.00    -0.082 A 
ATOM      9  C7  UNL d   1       6.000  -0.200   6.000  0.00  0.00     0.045 A 
ENDROOT
TORSDOF 0
ENDMDL
