MODEL 1
REMARK minimizedAffinity 1.45422673
REMARK minimizedRMSD -1
REMARK  0 active torsions:
REMARK  status: ('A' for Active; 'I' for Inactive)
ROOT
ATOM      1  C   UNL d   1       1.521  -1.736  -0.852  0.00  0.00    -0.002 A 
ATOM      2  C1  UNL d   1       0.872  -0.618  -0.349  0.00  0.00     0.010 A 
ATOM      3  C2  UNL d   1       0.730   0.532  -1.129  0.00  0.00     0.041 A 
ATOM      4  C3  UNL d   1       1.254   0.538  -2.436  0.00  0.00    -0.075 A 
ATOM      5  S   UNL d   1       1.197   1.833  -3.573  0.00  0.00     0.015 SA
ATOM      6  C4  UNL d   1       2.033   0.931  -4.754  0.00  0.00     0.022 A 
ATOM      7  C5  UNL d   1       2.356  -0.329  -4.309  0.00  0.00     0.026 A 
ATOM      8  C6  UNL d   1       1.912  -0.576  -2.966  0.00  0.00    -0.082 A 
ATOM      9  C7  UNL d   1       2.041  -1.726  -2.150  0.00  0.00     0.045 A 
ENDROOT
TORSDOF 0
ENDMDL
