MODEL 1
REMARK minimizedAffinity 11.3125019
REMARK minimizedRMSD -1
REMARK  0 active torsions:
REMARK  status: ('A' for Active; 'I' for Inactive)
ROOT
ATOM      1  C   UNL d   1       1.115  -2.676  -1.057  0.00  0.00    -0.002 A 
ATOM      2  C1  UNL d   1       0.484  -1.851  -0.138  0.00  0.00     0.010 A 
ATOM      3  C2  UNL d   1       0.236  -0.510  -0.439  0.00  0.00     0.041 A 
ATOM      4  C3  UNL d   1       0.637  -0.009  -1.694  0.00  0.00    -0.075 A 
ATOM      5  S   UNL d   1       0.437   1.600  -2.282  0.00  0.00     0.015 SA
ATOM      6  C4  UNL d   1       1.184   1.228  -3.768  0.00  0.00     0.022 A 
ATOM      7  C5  UNL d   1       1.582  -0.086  -3.831  0.00  0.00     0.026 A 
ATOM      8  C6  UNL d   1       1.273  -0.821  -2.637  0.00  0.00    -0.082 A 
ATOM      9  C7  UNL d   1       1.510  -2.175  -2.300  0.00  0.00     0.045 A 
ENDROOT
TORSDOF 0
ENDMDL
