MODEL 1
REMARK minimizedAffinity 6.73913431
REMARK minimizedRMSD -1
REMARK  0 active torsions:
REMARK  status: ('A' for Active; 'I' for Inactive)
ROOT
ATOM      1  C   UNL d   1       5.531   3.985   5.256  0.00  0.00    -0.002 A 
ATOM      2  C1  UNL d   1       5.002   3.854   3.980  0.00  0.00     0.010 A 
ATOM      3  C2  UNL d   1       4.817   2.592   3.414  0.00  0.00     0.041 A 
ATOM      4  C3  UNL d   1       5.174   1.451   4.160  0.00  0.00    -0.075 A 
ATOM      5  S   UNL d   1       5.036  -0.196   3.670  0.00  0.00     0.015 SA
ATOM      6  C4  UNL d   1       5.676  -0.765   5.144  0.00  0.00     0.022 A 
ATOM      7  C5  UNL d   1       5.993   0.263   6.000  0.00  0.00     0.026 A 
ATOM      8  C6  UNL d   1       5.708   1.557   5.447  0.00  0.00    -0.082 A 
ATOM      9  C7  UNL d   1       5.885   2.852   5.993  0.00  0.00     0.045 A 
ENDROOT
TORSDOF 0
ENDMDL
