MODEL 1
REMARK minimizedAffinity 7.07549047
REMARK minimizedRMSD -1
REMARK  0 active torsions:
REMARK  status: ('A' for Active; 'I' for Inactive)
ROOT
ATOM      1  C   UNL d   1       1.868   2.222  -5.198  0.00  0.00    -0.002 A 
ATOM      2  C1  UNL d   1       1.519   2.973  -4.085  0.00  0.00     0.010 A 
ATOM      3  C2  UNL d   1       1.187   2.347  -2.882  0.00  0.00     0.041 A 
ATOM      4  C3  UNL d   1       1.215   0.940  -2.815  0.00  0.00    -0.075 A 
ATOM      5  S   UNL d   1       0.849  -0.043  -1.447  0.00  0.00     0.015 SA
ATOM      6  C4  UNL d   1       1.149  -1.483  -2.307  0.00  0.00     0.022 A 
ATOM      7  C5  UNL d   1       1.520  -1.238  -3.608  0.00  0.00     0.026 A 
ATOM      8  C6  UNL d   1       1.565   0.162  -3.922  0.00  0.00    -0.082 A 
ATOM      9  C7  UNL d   1       1.895   0.826  -5.128  0.00  0.00     0.045 A 
ENDROOT
TORSDOF 0
ENDMDL
