MODEL 1
REMARK minimizedAffinity -3.53975177
REMARK minimizedRMSD -1
REMARK  3 active torsions:
REMARK  status: ('A' for Active; 'I' for Inactive)
REMARK    1  A    between atoms: C3'_2  and  C2'_3 
REMARK    2  A    between atoms: C2'_3  and  C1'_4 
REMARK    3  A    between atoms: C1'_4  and  C1_5 
ROOT
ATOM      1  C1  N4B d   1      -0.070   1.195   0.522  0.00  0.00    -0.075 A 
ATOM      2  C2  N4B d   1      -0.573   2.081   1.500  0.00  0.00     0.002 A 
ATOM      3  C3  N4B d   1      -0.534   3.436   1.283  0.00  0.00     0.002 A 
ATOM      4  C4  N4B d   1       0.017   3.928   0.109  0.00  0.00    -0.004 A 
ATOM      5  C5  N4B d   1       0.478   3.064  -0.841  0.00  0.00     0.002 A 
ATOM      6  C6  N4B d   1       0.441   1.699  -0.639  0.00  0.00     0.002 A 
ENDROOT
BRANCH   1   7
ATOM      7  C1' N4B d   1      -0.013  -0.291   0.750  0.00  0.00     0.057 C 
BRANCH   7   8
ATOM      8  C2' N4B d   1      -0.397  -1.011  -0.539  0.00  0.00     0.009 C 
BRANCH   8   9
ATOM      9  C3' N4B d   1       0.751  -1.838  -1.092  0.00  0.00     0.004 C 
ATOM     10  C4' N4B d   1       0.304  -2.847  -2.107  0.00  0.00     0.003 C 
ENDBRANCH   8   9
ENDBRANCH   7   8
ENDBRANCH   1   7
TORSDOF 3
ENDMDL
