MODEL 1
REMARK minimizedAffinity -1.6651082
REMARK minimizedRMSD -1
REMARK  3 active torsions:
REMARK  status: ('A' for Active; 'I' for Inactive)
REMARK    1  A    between atoms: C3'_2  and  C2'_3 
REMARK    2  A    between atoms: C2'_3  and  C1'_4 
REMARK    3  A    between atoms: C1'_4  and  C1_5 
ROOT
ATOM      1  C1  N4B d   1      -0.173   0.488   0.484  0.00  0.00    -0.075 A 
ATOM      2  C2  N4B d   1      -0.709   1.149   1.612  0.00  0.00     0.002 A 
ATOM      3  C3  N4B d   1      -0.755   2.521   1.647  0.00  0.00     0.002 A 
ATOM      4  C4  N4B d   1      -0.256   3.251   0.578  0.00  0.00    -0.004 A 
ATOM      5  C5  N4B d   1       0.236   2.605  -0.518  0.00  0.00     0.002 A 
ATOM      6  C6  N4B d   1       0.284   1.226  -0.568  0.00  0.00     0.002 A 
ENDROOT
BRANCH   1   7
ATOM      7  C1' N4B d   1      -0.023  -1.008   0.437  0.00  0.00     0.057 C 
BRANCH   7   8
ATOM      8  C2' N4B d   1       0.684  -1.399  -0.856  0.00  0.00     0.009 C 
BRANCH   8   9
ATOM      9  C3' N4B d   1       1.213  -2.823  -0.806  0.00  0.00     0.004 C 
ATOM     10  C4' N4B d   1       0.650  -3.689  -1.894  0.00  0.00     0.003 C 
ENDBRANCH   8   9
ENDBRANCH   7   8
ENDBRANCH   1   7
TORSDOF 3
ENDMDL
