MODEL 1
REMARK minimizedAffinity -2.52781153
REMARK minimizedRMSD -1
REMARK  3 active torsions:
REMARK  status: ('A' for Active; 'I' for Inactive)
REMARK    1  A    between atoms: C3'_2  and  C2'_3 
REMARK    2  A    between atoms: C2'_3  and  C1'_4 
REMARK    3  A    between atoms: C1'_4  and  C1_5 
ROOT
ATOM      1  C1  N4B d   1       0.433  -1.531  -1.238  0.00  0.00    -0.075 A 
ATOM      2  C2  N4B d   1       0.900  -2.764  -0.734  0.00  0.00     0.002 A 
ATOM      3  C3  N4B d   1       0.833  -3.894  -1.512  0.00  0.00     0.002 A 
ATOM      4  C4  N4B d   1       0.288  -3.819  -2.784  0.00  0.00    -0.004 A 
ATOM      5  C5  N4B d   1      -0.138  -2.619  -3.274  0.00  0.00     0.002 A 
ATOM      6  C6  N4B d   1      -0.073  -1.475  -2.505  0.00  0.00     0.002 A 
ENDROOT
BRANCH   1   7
ATOM      7  C1' N4B d   1       0.406  -0.286  -0.394  0.00  0.00     0.057 C 
BRANCH   7   8
ATOM      8  C2' N4B d   1      -0.651  -0.442   0.695  0.00  0.00     0.009 C 
BRANCH   8   9
ATOM      9  C3' N4B d   1      -0.215   0.190   2.005  0.00  0.00     0.004 C 
ATOM     10  C4' N4B d   1      -0.971   1.446   2.324  0.00  0.00     0.003 C 
ENDBRANCH   8   9
ENDBRANCH   7   8
ENDBRANCH   1   7
TORSDOF 3
ENDMDL
