MODEL 1
REMARK minimizedAffinity -3.99506211
REMARK minimizedRMSD -1
REMARK  3 active torsions:
REMARK  status: ('A' for Active; 'I' for Inactive)
REMARK    1  A    between atoms: C3'_2  and  C2'_3 
REMARK    2  A    between atoms: C2'_3  and  C1'_4 
REMARK    3  A    between atoms: C1'_4  and  C1_5 
ROOT
ATOM      1  C1  N4B d   1       0.138  -0.043   0.133  0.00  0.00    -0.075 A 
ATOM      2  C2  N4B d   1      -0.513  -0.104   1.385  0.00  0.00     0.002 A 
ATOM      3  C3  N4B d   1      -1.005   1.042   1.959  0.00  0.00     0.002 A 
ATOM      4  C4  N4B d   1      -0.842   2.258   1.312  0.00  0.00    -0.004 A 
ATOM      5  C5  N4B d   1      -0.235   2.305   0.091  0.00  0.00     0.002 A 
ATOM      6  C6  N4B d   1       0.261   1.160  -0.500  0.00  0.00     0.002 A 
ENDROOT
BRANCH   1   7
ATOM      7  C1' N4B d   1       0.769  -1.257  -0.494  0.00  0.00     0.057 C 
BRANCH   7   8
ATOM      8  C2' N4B d   1       0.339  -1.346  -1.955  0.00  0.00     0.009 C 
BRANCH   8   9
ATOM      9  C3' N4B d   1       0.406  -2.769  -2.481  0.00  0.00     0.004 C 
ATOM     10  C4' N4B d   1       0.136  -3.794  -1.420  0.00  0.00     0.003 C 
ENDBRANCH   8   9
ENDBRANCH   7   8
ENDBRANCH   1   7
TORSDOF 3
ENDMDL
