MODEL 1
REMARK minimizedAffinity -3.89161563
REMARK minimizedRMSD -1
REMARK  3 active torsions:
REMARK  status: ('A' for Active; 'I' for Inactive)
REMARK    1  A    between atoms: C3'_2  and  C2'_3 
REMARK    2  A    between atoms: C2'_3  and  C1'_4 
REMARK    3  A    between atoms: C1'_4  and  C1_5 
ROOT
ATOM      1  C1  N4B d   1       0.424   0.301   0.055  0.00  0.00    -0.075 A 
ATOM      2  C2  N4B d   1      -0.309  -0.389   1.045  0.00  0.00     0.002 A 
ATOM      3  C3  N4B d   1      -1.084   0.311   1.938  0.00  0.00     0.002 A 
ATOM      4  C4  N4B d   1      -1.125   1.695   1.872  0.00  0.00    -0.004 A 
ATOM      5  C5  N4B d   1      -0.433   2.352   0.897  0.00  0.00     0.002 A 
ATOM      6  C6  N4B d   1       0.346   1.662  -0.010  0.00  0.00     0.002 A 
ENDROOT
BRANCH   1   7
ATOM      7  C1' N4B d   1       1.352  -0.415  -0.888  0.00  0.00     0.057 C 
BRANCH   7   8
ATOM      8  C2' N4B d   1       1.024  -1.905  -0.879  0.00  0.00     0.009 C 
BRANCH   8   9
ATOM      9  C3' N4B d   1       0.303  -2.336  -2.145  0.00  0.00     0.004 C 
ATOM     10  C4' N4B d   1      -0.480  -3.602  -1.965  0.00  0.00     0.003 C 
ENDBRANCH   8   9
ENDBRANCH   7   8
ENDBRANCH   1   7
TORSDOF 3
ENDMDL
