MODEL 1
REMARK minimizedAffinity -4.4782176
REMARK minimizedRMSD -1
REMARK  3 active torsions:
REMARK  status: ('A' for Active; 'I' for Inactive)
REMARK    1  A    between atoms: C3'_2  and  C2'_3 
REMARK    2  A    between atoms: C2'_3  and  C1'_4 
REMARK    3  A    between atoms: C1'_4  and  C1_5 
ROOT
ATOM      1  C1  N4B d   1       0.450   0.393  -0.047  0.00  0.00    -0.075 A 
ATOM      2  C2  N4B d   1       0.758   1.580  -0.748  0.00  0.00     0.002 A 
ATOM      3  C3  N4B d   1       0.527   2.801  -0.164  0.00  0.00     0.002 A 
ATOM      4  C4  N4B d   1      -0.026   2.860   1.107  0.00  0.00    -0.004 A 
ATOM      5  C5  N4B d   1      -0.297   1.709   1.787  0.00  0.00     0.002 A 
ATOM      6  C6  N4B d   1      -0.066   0.474   1.214  0.00  0.00     0.002 A 
ENDROOT
BRANCH   1   7
ATOM      7  C1' N4B d   1       0.605  -0.964  -0.678  0.00  0.00     0.057 C 
BRANCH   7   8
ATOM      8  C2' N4B d   1      -0.776  -1.523  -1.009  0.00  0.00     0.009 C 
BRANCH   8   9
ATOM      9  C3' N4B d   1      -0.778  -2.295  -2.317  0.00  0.00     0.004 C 
ATOM     10  C4' N4B d   1       0.352  -3.277  -2.414  0.00  0.00     0.003 C 
ENDBRANCH   8   9
ENDBRANCH   7   8
ENDBRANCH   1   7
TORSDOF 3
ENDMDL
