MODEL 1
REMARK minimizedAffinity -1.89930201
REMARK minimizedRMSD -1
REMARK  3 active torsions:
REMARK  status: ('A' for Active; 'I' for Inactive)
REMARK    1  A    between atoms: C3'_2  and  C2'_3 
REMARK    2  A    between atoms: C2'_3  and  C1'_4 
REMARK    3  A    between atoms: C1'_4  and  C1_5 
ROOT
ATOM      1  C1  N4B d   1       0.441  -0.046   0.210  0.00  0.00    -0.075 A 
ATOM      2  C2  N4B d   1       0.484   1.164  -0.517  0.00  0.00     0.002 A 
ATOM      3  C3  N4B d   1      -0.047   2.309   0.024  0.00  0.00     0.002 A 
ATOM      4  C4  N4B d   1      -0.642   2.264   1.276  0.00  0.00    -0.004 A 
ATOM      5  C5  N4B d   1      -0.657   1.097   1.982  0.00  0.00     0.002 A 
ATOM      6  C6  N4B d   1      -0.123  -0.060   1.453  0.00  0.00     0.002 A 
ENDROOT
BRANCH   1   7
ATOM      7  C1' N4B d   1       0.932  -1.342  -0.375  0.00  0.00     0.057 C 
BRANCH   7   8
ATOM      8  C2' N4B d   1      -0.182  -1.969  -1.208  0.00  0.00     0.009 C 
BRANCH   8   9
ATOM      9  C3' N4B d   1       0.218  -3.326  -1.762  0.00  0.00     0.004 C 
ATOM     10  C4' N4B d   1       1.394  -3.921  -1.047  0.00  0.00     0.003 C 
ENDBRANCH   8   9
ENDBRANCH   7   8
ENDBRANCH   1   7
TORSDOF 3
ENDMDL
