MODEL 1
REMARK minimizedAffinity -2.06941009
REMARK minimizedRMSD -1
REMARK  1 active torsions:
REMARK  status: ('A' for Active; 'I' for Inactive)
REMARK    1  A    between atoms: C1_2  and  C2_3 
ROOT
ATOM      1  C2  UNL d   1      -0.005   2.344   0.141  0.00  0.00    -0.073 A 
ATOM      2  C3  UNL d   1       0.139   2.355   1.533  0.00  0.00    -0.002 A 
ATOM      3  C4  UNL d   1       0.283   1.158   2.236  0.00  0.00     0.004 A 
ATOM      4  C5  UNL d   1       0.292  -0.059   1.556  0.00  0.00    -0.004 A 
ATOM      5  C6  UNL d   1       0.161  -0.090   0.164  0.00  0.00    -0.075 A 
ATOM      6  C7  UNL d   1       0.167  -1.392  -0.583  0.00  0.00     0.076 C 
ATOM      7  C8  UNL d   1       0.015   1.115  -0.535  0.00  0.00     0.001 A 
ENDROOT
BRANCH   1   8
ATOM      8  C1  UNL d   1      -0.154   3.634  -0.624  0.00  0.00     0.053 C 
ATOM      9  C   UNL d   1      -0.401   3.393  -2.105  0.00  0.00     0.018 C 
ENDBRANCH   1   8
TORSDOF 1
ENDMDL
