MODEL 1
REMARK minimizedAffinity -4.06737471
REMARK minimizedRMSD -1
REMARK  1 active torsions:
REMARK  status: ('A' for Active; 'I' for Inactive)
REMARK    1  A    between atoms: C1_2  and  C2_3 
ROOT
ATOM      1  C2  UNL d   1       0.356  -2.177  -1.024  0.00  0.00    -0.073 A 
ATOM      2  C3  UNL d   1       0.968  -1.454  -2.054  0.00  0.00    -0.002 A 
ATOM      3  C4  UNL d   1       1.317  -0.116  -1.865  0.00  0.00     0.004 A 
ATOM      4  C5  UNL d   1       1.063   0.510  -0.645  0.00  0.00    -0.004 A 
ATOM      5  C6  UNL d   1       0.463  -0.198   0.400  0.00  0.00    -0.075 A 
ATOM      6  C7  UNL d   1       0.181   0.462   1.718  0.00  0.00     0.076 C 
ATOM      7  C8  UNL d   1       0.113  -1.541   0.202  0.00  0.00     0.001 A 
ENDROOT
BRANCH   1   8
ATOM      8  C1  UNL d   1      -0.017  -3.624  -1.220  0.00  0.00     0.053 C 
ATOM      9  C   UNL d   1      -1.101  -3.795  -2.272  0.00  0.00     0.018 C 
ENDBRANCH   1   8
TORSDOF 1
ENDMDL
