MODEL 1
REMARK minimizedAffinity -4.43554831
REMARK minimizedRMSD -1
REMARK  1 active torsions:
REMARK  status: ('A' for Active; 'I' for Inactive)
REMARK    1  A    between atoms: C1_2  and  C2_3 
ROOT
ATOM      1  C2  UNL d   1       0.278   1.715   0.570  0.00  0.00    -0.073 A 
ATOM      2  C3  UNL d   1       0.227   1.492   1.950  0.00  0.00    -0.002 A 
ATOM      3  C4  UNL d   1       0.116   0.194   2.451  0.00  0.00     0.004 A 
ATOM      4  C5  UNL d   1       0.061  -0.893   1.579  0.00  0.00    -0.004 A 
ATOM      5  C6  UNL d   1       0.123  -0.691   0.196  0.00  0.00    -0.075 A 
ATOM      6  C7  UNL d   1       0.063  -1.850  -0.756  0.00  0.00     0.076 C 
ATOM      7  C8  UNL d   1       0.232   0.615  -0.299  0.00  0.00     0.001 A 
ENDROOT
BRANCH   1   8
ATOM      8  C1  UNL d   1       0.404   3.114   0.024  0.00  0.00     0.053 C 
ATOM      9  C   UNL d   1       0.011   3.191  -1.443  0.00  0.00     0.018 C 
ENDBRANCH   1   8
TORSDOF 1
ENDMDL
