MODEL 1
REMARK minimizedAffinity -3.92316794
REMARK minimizedRMSD -1
REMARK  1 active torsions:
REMARK  status: ('A' for Active; 'I' for Inactive)
REMARK    1  A    between atoms: C1_2  and  C2_3 
ROOT
ATOM      1  C2  UNL d   1       0.195  -0.296  -0.241  0.00  0.00    -0.073 A 
ATOM      2  C3  UNL d   1       0.821  -0.810   0.900  0.00  0.00    -0.002 A 
ATOM      3  C4  UNL d   1       0.731  -0.135   2.118  0.00  0.00     0.004 A 
ATOM      4  C5  UNL d   1       0.011   1.056   2.209  0.00  0.00    -0.004 A 
ATOM      5  C6  UNL d   1      -0.631   1.580   1.082  0.00  0.00    -0.075 A 
ATOM      6  C7  UNL d   1      -1.408   2.861   1.162  0.00  0.00     0.076 C 
ATOM      7  C8  UNL d   1      -0.534   0.897  -0.138  0.00  0.00     0.001 A 
ENDROOT
BRANCH   1   8
ATOM      8  C1  UNL d   1       0.284  -1.026  -1.557  0.00  0.00     0.053 C 
ATOM      9  C   UNL d   1       0.031  -2.517  -1.400  0.00  0.00     0.018 C 
ENDBRANCH   1   8
TORSDOF 1
ENDMDL
