MODEL 1
REMARK minimizedAffinity 11.6383562
REMARK minimizedRMSD -1
REMARK  0 active torsions:
REMARK  status: ('A' for Active; 'I' for Inactive)
ROOT
ATOM      1  C2' OXE d   1       5.997  -2.513   0.550  0.00  0.00     0.078 C 
ATOM      2  C1' OXE d   1       5.610  -5.085   1.605  0.00  0.00     0.078 C 
ATOM      3  C1  OXE d   1       5.360  -4.884   0.131  0.00  0.00    -0.078 A 
ATOM      4  C2  OXE d   1       5.507  -3.612  -0.367  0.00  0.00    -0.078 A 
ATOM      5  C3  OXE d   1       5.343  -3.383  -1.731  0.00  0.00     0.003 A 
ATOM      6  C4  OXE d   1       4.880  -4.404  -2.570  0.00  0.00    -0.002 A 
ATOM      7  C5  OXE d   1       4.686  -5.697  -2.075  0.00  0.00    -0.002 A 
ATOM      8  C6  OXE d   1       4.962  -5.964  -0.738  0.00  0.00     0.003 A 
ENDROOT
TORSDOF 0
ENDMDL
