MODEL 1
REMARK minimizedAffinity -2.19343662
REMARK minimizedRMSD -1
REMARK  0 active torsions:
REMARK  status: ('A' for Active; 'I' for Inactive)
ROOT
ATOM      1  C2' OXE d   1       1.250  -0.421  -0.735  0.00  0.00     0.078 C 
ATOM      2  C1' OXE d   1       0.494   2.223  -1.299  0.00  0.00     0.078 C 
ATOM      3  C1  OXE d   1      -0.170   1.535  -0.133  0.00  0.00    -0.078 A 
ATOM      4  C2  OXE d   1       0.172   0.226   0.108  0.00  0.00    -0.078 A 
ATOM      5  C3  OXE d   1      -0.370  -0.438   1.205  0.00  0.00     0.003 A 
ATOM      6  C4  OXE d   1      -1.374   0.165   1.973  0.00  0.00    -0.002 A 
ATOM      7  C5  OXE d   1      -1.765   1.484   1.721  0.00  0.00    -0.002 A 
ATOM      8  C6  OXE d   1      -1.144   2.196   0.700  0.00  0.00     0.003 A 
ENDROOT
TORSDOF 0
ENDMDL
