MODEL 1
REMARK minimizedAffinity -4.11338377
REMARK minimizedRMSD -1
REMARK  0 active torsions:
REMARK  status: ('A' for Active; 'I' for Inactive)
ROOT
ATOM      1  C2' OXE d   1      -0.878   1.565   2.984  0.00  0.00     0.078 C 
ATOM      2  C1' OXE d   1      -0.196  -0.367   1.065  0.00  0.00     0.078 C 
ATOM      3  C1  OXE d   1      -0.575   1.008   0.575  0.00  0.00    -0.078 A 
ATOM      4  C2  OXE d   1      -0.953   1.933   1.518  0.00  0.00    -0.078 A 
ATOM      5  C3  OXE d   1      -1.259   3.233   1.125  0.00  0.00     0.003 A 
ATOM      6  C4  OXE d   1      -1.336   3.563  -0.234  0.00  0.00    -0.002 A 
ATOM      7  C5  OXE d   1      -0.994   2.624  -1.213  0.00  0.00    -0.002 A 
ATOM      8  C6  OXE d   1      -0.572   1.357  -0.824  0.00  0.00     0.003 A 
ENDROOT
TORSDOF 0
ENDMDL
