MODEL 1
REMARK minimizedAffinity -3.25946069
REMARK minimizedRMSD -1
REMARK  0 active torsions:
REMARK  status: ('A' for Active; 'I' for Inactive)
ROOT
ATOM      1  C2' OXE d   1      -0.783  -0.584   2.297  0.00  0.00     0.078 C 
ATOM      2  C1' OXE d   1      -2.104   1.827   1.729  0.00  0.00     0.078 C 
ATOM      3  C1  OXE d   1      -1.057   1.352   0.753  0.00  0.00    -0.078 A 
ATOM      4  C2  OXE d   1      -0.382   0.196   1.063  0.00  0.00    -0.078 A 
ATOM      5  C3  OXE d   1       0.555  -0.316   0.170  0.00  0.00     0.003 A 
ATOM      6  C4  OXE d   1       0.927   0.417  -0.964  0.00  0.00    -0.002 A 
ATOM      7  C5  OXE d   1       0.281   1.617  -1.277  0.00  0.00    -0.002 A 
ATOM      8  C6  OXE d   1      -0.741   2.076  -0.453  0.00  0.00     0.003 A 
ENDROOT
TORSDOF 0
ENDMDL
