MODEL 1
REMARK minimizedAffinity -1.36100066
REMARK minimizedRMSD -1
REMARK  0 active torsions:
REMARK  status: ('A' for Active; 'I' for Inactive)
ROOT
ATOM      1  C2' OXE d   1      -0.720   2.252  -1.345  0.00  0.00     0.078 C 
ATOM      2  C1' OXE d   1      -2.221   2.716   0.981  0.00  0.00     0.078 C 
ATOM      3  C1  OXE d   1      -1.264   1.551   0.983  0.00  0.00    -0.078 A 
ATOM      4  C2  OXE d   1      -0.568   1.303  -0.176  0.00  0.00    -0.078 A 
ATOM      5  C3  OXE d   1       0.369   0.273  -0.211  0.00  0.00     0.003 A 
ATOM      6  C4  OXE d   1       0.496  -0.606   0.872  0.00  0.00    -0.002 A 
ATOM      7  C5  OXE d   1      -0.232  -0.395   2.047  0.00  0.00    -0.002 A 
ATOM      8  C6  OXE d   1      -1.083   0.702   2.134  0.00  0.00     0.003 A 
ENDROOT
TORSDOF 0
ENDMDL
