MODEL 1
REMARK minimizedAffinity -2.62132478
REMARK minimizedRMSD -1
REMARK  0 active torsions:
REMARK  status: ('A' for Active; 'I' for Inactive)
ROOT
ATOM      1  C2' OXE d   1      -1.867   2.110   1.534  0.00  0.00     0.078 C 
ATOM      2  C1' OXE d   1      -1.208   2.692  -1.132  0.00  0.00     0.078 C 
ATOM      3  C1  OXE d   1      -0.553   1.494  -0.491  0.00  0.00    -0.078 A 
ATOM      4  C2  OXE d   1      -0.846   1.244   0.828  0.00  0.00    -0.078 A 
ATOM      5  C3  OXE d   1      -0.312   0.120   1.452  0.00  0.00     0.003 A 
ATOM      6  C4  OXE d   1       0.640  -0.670   0.796  0.00  0.00    -0.002 A 
ATOM      7  C5  OXE d   1       0.982  -0.410  -0.536  0.00  0.00    -0.002 A 
ATOM      8  C6  OXE d   1       0.364   0.641  -1.205  0.00  0.00     0.003 A 
ENDROOT
TORSDOF 0
ENDMDL
