MODEL 1
REMARK minimizedAffinity -3.24287081
REMARK minimizedRMSD -1
REMARK  0 active torsions:
REMARK  status: ('A' for Active; 'I' for Inactive)
ROOT
ATOM      1  C2' OXE d   1      -0.646   1.862   1.485  0.00  0.00     0.078 C 
ATOM      2  C1' OXE d   1       0.551   2.112  -1.042  0.00  0.00     0.078 C 
ATOM      3  C1  OXE d   1       0.204   0.725  -0.561  0.00  0.00    -0.078 A 
ATOM      4  C2  OXE d   1      -0.338   0.608   0.696  0.00  0.00    -0.078 A 
ATOM      5  C3  OXE d   1      -0.727  -0.643   1.166  0.00  0.00     0.003 A 
ATOM      6  C4  OXE d   1      -0.430  -1.799   0.433  0.00  0.00    -0.002 A 
ATOM      7  C5  OXE d   1       0.158  -1.706  -0.833  0.00  0.00    -0.002 A 
ATOM      8  C6  OXE d   1       0.442  -0.451  -1.361  0.00  0.00     0.003 A 
ENDROOT
TORSDOF 0
ENDMDL
