MODEL 1
REMARK minimizedAffinity -5.34904671
REMARK minimizedRMSD -1
REMARK  0 active torsions:
REMARK  status: ('A' for Active; 'I' for Inactive)
ROOT
ATOM      1  C2' OXE d   1       0.367  -0.535   1.228  0.00  0.00     0.078 C 
ATOM      2  C1' OXE d   1       0.542   0.397  -1.414  0.00  0.00     0.078 C 
ATOM      3  C1  OXE d   1      -0.336   1.162  -0.455  0.00  0.00    -0.078 A 
ATOM      4  C2  OXE d   1      -0.452   0.672   0.823  0.00  0.00    -0.078 A 
ATOM      5  C3  OXE d   1      -1.206   1.369   1.763  0.00  0.00     0.003 A 
ATOM      6  C4  OXE d   1      -1.969   2.478   1.378  0.00  0.00    -0.002 A 
ATOM      7  C5  OXE d   1      -1.896   2.971   0.070  0.00  0.00    -0.002 A 
ATOM      8  C6  OXE d   1      -1.053   2.350  -0.845  0.00  0.00     0.003 A 
ENDROOT
TORSDOF 0
ENDMDL
