MODEL 1
REMARK minimizedAffinity -3.59750843
REMARK minimizedRMSD -1
REMARK  0 active torsions:
REMARK  status: ('A' for Active; 'I' for Inactive)
ROOT
ATOM      1  C2' OXE d   1      -0.747  -0.484   1.837  0.00  0.00     0.078 C 
ATOM      2  C1' OXE d   1       0.600  -0.774  -0.609  0.00  0.00     0.078 C 
ATOM      3  C1  OXE d   1       0.260   0.624  -0.154  0.00  0.00    -0.078 A 
ATOM      4  C2  OXE d   1      -0.440   0.753   1.022  0.00  0.00    -0.078 A 
ATOM      5  C3  OXE d   1      -0.730   2.022   1.515  0.00  0.00     0.003 A 
ATOM      6  C4  OXE d   1      -0.452   3.161   0.749  0.00  0.00    -0.002 A 
ATOM      7  C5  OXE d   1       0.226   3.049  -0.470  0.00  0.00    -0.002 A 
ATOM      8  C6  OXE d   1       0.626   1.793  -0.914  0.00  0.00     0.003 A 
ENDROOT
TORSDOF 0
ENDMDL
