MODEL 1
REMARK minimizedAffinity -1.85786355
REMARK minimizedRMSD -1
REMARK  0 active torsions:
REMARK  status: ('A' for Active; 'I' for Inactive)
ROOT
ATOM      1  C2' OXE d   1      -0.073  -0.337   0.430  0.00  0.00     0.078 C 
ATOM      2  C1' OXE d   1       2.347  -0.357  -0.993  0.00  0.00     0.078 C 
ATOM      3  C1  OXE d   1       1.284  -1.348  -1.398  0.00  0.00    -0.078 A 
ATOM      4  C2  OXE d   1       0.122  -1.362  -0.666  0.00  0.00    -0.078 A 
ATOM      5  C3  OXE d   1      -0.913  -2.219  -1.032  0.00  0.00     0.003 A 
ATOM      6  C4  OXE d   1      -0.721  -3.172  -2.041  0.00  0.00    -0.002 A 
ATOM      7  C5  OXE d   1       0.471  -3.200  -2.773  0.00  0.00    -0.002 A 
ATOM      8  C6  OXE d   1       1.465  -2.269  -2.493  0.00  0.00     0.003 A 
ENDROOT
TORSDOF 0
ENDMDL
