MODEL 1
REMARK minimizedAffinity 6.08580637
REMARK minimizedRMSD -1
REMARK  0 active torsions:
REMARK  status: ('A' for Active; 'I' for Inactive)
ROOT
ATOM      1  C2' OXE d   1       0.597   0.601  -0.735  0.00  0.00     0.078 C 
ATOM      2  C1' OXE d   1      -0.649  -0.981   1.221  0.00  0.00     0.078 C 
ATOM      3  C1  OXE d   1      -0.531   0.500   1.484  0.00  0.00    -0.078 A 
ATOM      4  C2  OXE d   1       0.121   1.259   0.542  0.00  0.00    -0.078 A 
ATOM      5  C3  OXE d   1       0.209   2.638   0.709  0.00  0.00     0.003 A 
ATOM      6  C4  OXE d   1      -0.224   3.238   1.898  0.00  0.00    -0.002 A 
ATOM      7  C5  OXE d   1      -0.856   2.477   2.887  0.00  0.00    -0.002 A 
ATOM      8  C6  OXE d   1      -1.055   1.117   2.678  0.00  0.00     0.003 A 
ENDROOT
TORSDOF 0
ENDMDL
