MODEL 1
REMARK minimizedAffinity -5.47469425
REMARK minimizedRMSD -1
REMARK  0 active torsions:
REMARK  status: ('A' for Active; 'I' for Inactive)
ROOT
ATOM      1  C2' OXE d   1       0.496  -0.417  -0.758  0.00  0.00     0.078 C 
ATOM      2  C1' OXE d   1      -0.329  -0.877   1.886  0.00  0.00     0.078 C 
ATOM      3  C1  OXE d   1      -0.693   0.444   1.255  0.00  0.00    -0.078 A 
ATOM      4  C2  OXE d   1      -0.245   0.679  -0.023  0.00  0.00    -0.078 A 
ATOM      5  C3  OXE d   1      -0.599   1.859  -0.671  0.00  0.00     0.003 A 
ATOM      6  C4  OXE d   1      -1.276   2.872   0.019  0.00  0.00    -0.002 A 
ATOM      7  C5  OXE d   1      -1.706   2.669   1.334  0.00  0.00    -0.002 A 
ATOM      8  C6  OXE d   1      -1.461   1.447   1.951  0.00  0.00     0.003 A 
ENDROOT
TORSDOF 0
ENDMDL
