MODEL 1
REMARK minimizedAffinity 2.10703278
REMARK minimizedRMSD -1
REMARK  0 active torsions:
REMARK  status: ('A' for Active; 'I' for Inactive)
ROOT
ATOM      1  C2' OXE d   1      -1.070  -1.512   0.618  0.00  0.00     0.078 C 
ATOM      2  C1' OXE d   1      -1.128  -0.615   3.277  0.00  0.00     0.078 C 
ATOM      3  C1  OXE d   1      -0.797   0.391   2.203  0.00  0.00    -0.078 A 
ATOM      4  C2  OXE d   1      -0.725  -0.067   0.909  0.00  0.00    -0.078 A 
ATOM      5  C3  OXE d   1      -0.477   0.829  -0.127  0.00  0.00     0.003 A 
ATOM      6  C4  OXE d   1      -0.149   2.161   0.152  0.00  0.00    -0.002 A 
ATOM      7  C5  OXE d   1      -0.177   2.639   1.466  0.00  0.00    -0.002 A 
ATOM      8  C6  OXE d   1      -0.540   1.779   2.497  0.00  0.00     0.003 A 
ENDROOT
TORSDOF 0
ENDMDL
