MODEL 1
REMARK minimizedAffinity 6.92673206
REMARK minimizedRMSD -1
REMARK  0 active torsions:
REMARK  status: ('A' for Active; 'I' for Inactive)
ROOT
ATOM      1  C2' OXE d   1      -0.538  -1.760   3.260  0.00  0.00     0.078 C 
ATOM      2  C1' OXE d   1      -1.390   0.912   3.140  0.00  0.00     0.078 C 
ATOM      3  C1  OXE d   1      -0.541   0.393   2.007  0.00  0.00    -0.078 A 
ATOM      4  C2  OXE d   1      -0.089  -0.901   2.097  0.00  0.00    -0.078 A 
ATOM      5  C3  OXE d   1       0.652  -1.447   1.053  0.00  0.00     0.003 A 
ATOM      6  C4  OXE d   1       1.071  -0.643  -0.014  0.00  0.00    -0.002 A 
ATOM      7  C5  OXE d   1       0.656   0.690  -0.105  0.00  0.00    -0.002 A 
ATOM      8  C6  OXE d   1      -0.184   1.210   0.873  0.00  0.00     0.003 A 
ENDROOT
TORSDOF 0
ENDMDL
