MODEL 1
REMARK minimizedAffinity -3.42283511
REMARK minimizedRMSD -1
REMARK  0 active torsions:
REMARK  status: ('A' for Active; 'I' for Inactive)
ROOT
ATOM      1  C2' OXE d   1       0.553  -0.549  -0.742  0.00  0.00     0.078 C 
ATOM      2  C1' OXE d   1       0.690   2.098  -1.666  0.00  0.00     0.078 C 
ATOM      3  C1  OXE d   1      -0.332   1.776  -0.604  0.00  0.00    -0.078 A 
ATOM      4  C2  OXE d   1      -0.424   0.468  -0.192  0.00  0.00    -0.078 A 
ATOM      5  C3  OXE d   1      -1.312   0.126   0.824  0.00  0.00     0.003 A 
ATOM      6  C4  OXE d   1      -2.218   1.071   1.321  0.00  0.00    -0.002 A 
ATOM      7  C5  OXE d   1      -2.168   2.400   0.886  0.00  0.00    -0.002 A 
ATOM      8  C6  OXE d   1      -1.205   2.777  -0.043  0.00  0.00     0.003 A 
ENDROOT
TORSDOF 0
ENDMDL
