MODEL 1
REMARK minimizedAffinity -2.96319008
REMARK minimizedRMSD -1
REMARK  0 active torsions:
REMARK  status: ('A' for Active; 'I' for Inactive)
ROOT
ATOM      1  C2' OXE d   1       0.682  -0.510   2.127  0.00  0.00     0.078 C 
ATOM      2  C1' OXE d   1       0.318  -0.876  -0.632  0.00  0.00     0.078 C 
ATOM      3  C1  OXE d   1      -0.472   0.218   0.043  0.00  0.00    -0.078 A 
ATOM      4  C2  OXE d   1      -0.323   0.359   1.401  0.00  0.00    -0.078 A 
ATOM      5  C3  OXE d   1      -0.986   1.387   2.064  0.00  0.00     0.003 A 
ATOM      6  C4  OXE d   1      -1.921   2.180   1.387  0.00  0.00    -0.002 A 
ATOM      7  C5  OXE d   1      -2.118   2.027   0.011  0.00  0.00    -0.002 A 
ATOM      8  C6  OXE d   1      -1.371   1.080  -0.683  0.00  0.00     0.003 A 
ENDROOT
TORSDOF 0
ENDMDL
