MODEL 1
REMARK minimizedAffinity -4.39716196
REMARK minimizedRMSD -1
REMARK  0 active torsions:
REMARK  status: ('A' for Active; 'I' for Inactive)
ROOT
ATOM      1  C2' OXE d   1      -0.797   2.302  -1.340  0.00  0.00     0.078 C 
ATOM      2  C1' OXE d   1      -2.221   2.933   0.996  0.00  0.00     0.078 C 
ATOM      3  C1  OXE d   1      -1.245   1.785   1.056  0.00  0.00    -0.078 A 
ATOM      4  C2  OXE d   1      -0.587   1.454  -0.104  0.00  0.00    -0.078 A 
ATOM      5  C3  OXE d   1       0.365   0.438  -0.090  0.00  0.00     0.003 A 
ATOM      6  C4  OXE d   1       0.547  -0.348   1.054  0.00  0.00    -0.002 A 
ATOM      7  C5  OXE d   1      -0.143  -0.052   2.235  0.00  0.00    -0.002 A 
ATOM      8  C6  OXE d   1      -1.008   1.035   2.265  0.00  0.00     0.003 A 
ENDROOT
TORSDOF 0
ENDMDL
