MODEL 1
REMARK minimizedAffinity -4.12633276
REMARK minimizedRMSD -1
REMARK  0 active torsions:
REMARK  status: ('A' for Active; 'I' for Inactive)
ROOT
ATOM      1  C2' OXE d   1       0.414  -0.872   2.437  0.00  0.00     0.078 C 
ATOM      2  C1' OXE d   1       0.850  -1.013  -0.333  0.00  0.00     0.078 C 
ATOM      3  C1  OXE d   1      -0.103   0.040   0.176  0.00  0.00    -0.078 A 
ATOM      4  C2  OXE d   1      -0.346   0.071   1.528  0.00  0.00    -0.078 A 
ATOM      5  C3  OXE d   1      -1.175   1.057   2.057  0.00  0.00     0.003 A 
ATOM      6  C4  OXE d   1      -1.881   1.918   1.209  0.00  0.00    -0.002 A 
ATOM      7  C5  OXE d   1      -1.678   1.877  -0.174  0.00  0.00    -0.002 A 
ATOM      8  C6  OXE d   1      -0.762   0.974  -0.702  0.00  0.00     0.003 A 
ENDROOT
TORSDOF 0
ENDMDL
