MODEL 1
REMARK minimizedAffinity -4.89163351
REMARK minimizedRMSD -1
REMARK  0 active torsions:
REMARK  status: ('A' for Active; 'I' for Inactive)
ROOT
ATOM      1  C2' OXE d   1       1.412  -0.697  -0.540  0.00  0.00     0.078 C 
ATOM      2  C1' OXE d   1       0.718   1.927  -1.254  0.00  0.00     0.078 C 
ATOM      3  C1  OXE d   1       0.041   1.324  -0.049  0.00  0.00    -0.078 A 
ATOM      4  C2  OXE d   1       0.353   0.023   0.266  0.00  0.00    -0.078 A 
ATOM      5  C3  OXE d   1      -0.202  -0.564   1.400  0.00  0.00     0.003 A 
ATOM      6  C4  OXE d   1      -1.188   0.105   2.134  0.00  0.00    -0.002 A 
ATOM      7  C5  OXE d   1      -1.549   1.417   1.807  0.00  0.00    -0.002 A 
ATOM      8  C6  OXE d   1      -0.914   2.054   0.747  0.00  0.00     0.003 A 
ENDROOT
TORSDOF 0
ENDMDL
