MODEL 1
REMARK minimizedAffinity -2.55101466
REMARK minimizedRMSD -1
REMARK  1 active torsions:
REMARK  status: ('A' for Active; 'I' for Inactive)
REMARK    1  A    between atoms: C1_2  and  C2_3 
ROOT
ATOM      1  C2  UNL d   1       4.128   4.352   5.613  0.00  0.00    -0.081 A 
ATOM      2  C3  UNL d   1       2.865   3.885   5.999  0.00  0.00     0.006 A 
ATOM      3  C4  UNL d   1       2.552   2.527   5.901  0.00  0.00     0.002 A 
ATOM      4  C5  UNL d   1       3.498   1.613   5.424  0.00  0.00    -0.080 A 
ATOM      5  C6  UNL d   1       3.186   0.148   5.343  0.00  0.00     0.076 C 
ATOM      6  C7  UNL d   1       4.754   2.082   5.023  0.00  0.00     0.002 A 
ATOM      7  C8  UNL d   1       5.067   3.440   5.120  0.00  0.00     0.006 A 
ENDROOT
BRANCH   1   8
ATOM      8  C1  UNL d   1       4.490   5.806   5.778  0.00  0.00     0.054 C 
ATOM      9  C   UNL d   1       5.992   5.986   5.943  0.00  0.00     0.018 C 
ENDBRANCH   1   8
TORSDOF 1
ENDMDL
