MODEL 1
REMARK minimizedAffinity -1.83400083
REMARK minimizedRMSD -1
REMARK  1 active torsions:
REMARK  status: ('A' for Active; 'I' for Inactive)
REMARK    1  A    between atoms: C1_2  and  C2_3 
ROOT
ATOM      1  C2  UNL d   1       1.751   5.205   5.999  0.00  0.00    -0.081 A 
ATOM      2  C3  UNL d   1       2.911   5.989   5.964  0.00  0.00     0.006 A 
ATOM      3  C4  UNL d   1       4.171   5.388   5.904  0.00  0.00     0.002 A 
ATOM      4  C5  UNL d   1       4.291   3.994   5.872  0.00  0.00    -0.080 A 
ATOM      5  C6  UNL d   1       5.636   3.337   5.778  0.00  0.00     0.076 C 
ATOM      6  C7  UNL d   1       3.134   3.211   5.925  0.00  0.00     0.002 A 
ATOM      7  C8  UNL d   1       1.874   3.811   5.985  0.00  0.00     0.006 A 
ENDROOT
BRANCH   1   8
ATOM      8  C1  UNL d   1       0.389   5.851   5.998  0.00  0.00     0.054 C 
ATOM      9  C   UNL d   1      -0.151   6.000   4.583  0.00  0.00     0.018 C 
ENDBRANCH   1   8
TORSDOF 1
ENDMDL
