MODEL 1
REMARK minimizedAffinity 1.79331601
REMARK minimizedRMSD -1
REMARK  1 active torsions:
REMARK  status: ('A' for Active; 'I' for Inactive)
REMARK    1  A    between atoms: C1_2  and  C2_3 
ROOT
ATOM      1  C2  UNL d   1       2.651   4.543   5.736  0.00  0.00    -0.081 A 
ATOM      2  C3  UNL d   1       2.343   3.203   6.000  0.00  0.00     0.006 A 
ATOM      3  C4  UNL d   1       3.302   2.205   5.812  0.00  0.00     0.002 A 
ATOM      4  C5  UNL d   1       4.587   2.531   5.364  0.00  0.00    -0.080 A 
ATOM      5  C6  UNL d   1       5.636   1.473   5.187  0.00  0.00     0.076 C 
ATOM      6  C7  UNL d   1       4.890   3.868   5.084  0.00  0.00     0.002 A 
ATOM      7  C8  UNL d   1       3.931   4.866   5.271  0.00  0.00     0.006 A 
ENDROOT
BRANCH   1   8
ATOM      8  C1  UNL d   1       1.639   5.629   5.999  0.00  0.00     0.054 C 
ATOM      9  C   UNL d   1       0.222   5.075   6.000  0.00  0.00     0.018 C 
ENDBRANCH   1   8
TORSDOF 1
ENDMDL
