MODEL 1
REMARK minimizedAffinity -0.0880734175
REMARK minimizedRMSD -1
REMARK  1 active torsions:
REMARK  status: ('A' for Active; 'I' for Inactive)
REMARK    1  A    between atoms: C1_2  and  C2_3 
ROOT
ATOM      1  C2  UNL d   1       4.120   2.120   5.016  0.00  0.00    -0.081 A 
ATOM      2  C3  UNL d   1       5.161   2.450   4.139  0.00  0.00     0.006 A 
ATOM      3  C4  UNL d   1       5.763   3.709   4.196  0.00  0.00     0.002 A 
ATOM      4  C5  UNL d   1       5.341   4.656   5.136  0.00  0.00    -0.080 A 
ATOM      5  C6  UNL d   1       5.999   6.000   5.228  0.00  0.00     0.076 C 
ATOM      6  C7  UNL d   1       4.289   4.333   6.000  0.00  0.00     0.002 A 
ATOM      7  C8  UNL d   1       3.686   3.074   5.943  0.00  0.00     0.006 A 
ENDROOT
BRANCH   1   8
ATOM      8  C1  UNL d   1       3.512   0.741   4.999  0.00  0.00     0.054 C 
ATOM      9  C   UNL d   1       2.371   0.627   6.000  0.00  0.00     0.018 C 
ENDBRANCH   1   8
TORSDOF 1
ENDMDL
