MODEL 1
REMARK minimizedAffinity 4.97421265
REMARK minimizedRMSD -1
REMARK  1 active torsions:
REMARK  status: ('A' for Active; 'I' for Inactive)
REMARK    1  A    between atoms: C1_2  and  C2_3 
ROOT
ATOM      1  C2  UNL d   1       3.805   1.874   5.183  0.00  0.00    -0.081 A 
ATOM      2  C3  UNL d   1       3.370   2.927   5.998  0.00  0.00     0.006 A 
ATOM      3  C4  UNL d   1       3.892   4.212   5.833  0.00  0.00     0.002 A 
ATOM      4  C5  UNL d   1       4.850   4.468   4.846  0.00  0.00    -0.080 A 
ATOM      5  C6  UNL d   1       5.397   5.849   4.639  0.00  0.00     0.076 C 
ATOM      6  C7  UNL d   1       5.298   3.413   4.044  0.00  0.00     0.002 A 
ATOM      7  C8  UNL d   1       4.777   2.127   4.209  0.00  0.00     0.006 A 
ENDROOT
BRANCH   1   8
ATOM      8  C1  UNL d   1       3.197   0.501   5.316  0.00  0.00     0.054 C 
ATOM      9  C   UNL d   1       1.697   0.582   5.563  0.00  0.00     0.018 C 
ENDBRANCH   1   8
TORSDOF 1
ENDMDL
