MODEL 1
REMARK minimizedAffinity 9.93122673
REMARK minimizedRMSD -1
REMARK  0 active torsions:
REMARK  status: ('A' for Active; 'I' for Inactive)
ROOT
ATOM      1  C   UNL d   1       3.090  -1.676  -1.028  0.00  0.00     0.124 A 
ATOM      2  C1  UNL d   1       3.288  -0.310  -0.883  0.00  0.00     0.062 A 
ATOM      3  C2  UNL d   1       2.486   0.426  -0.016  0.00  0.00     0.162 A 
ATOM      4  C3  UNL d   1       1.477  -0.202   0.714  0.00  0.00    -0.034 A 
ATOM      5  C4  UNL d   1       1.283  -1.576   0.563  0.00  0.00     0.162 A 
ATOM      6  C5  UNL d   1       2.088  -2.308  -0.305  0.00  0.00     0.062 A 
ATOM      7  F   UNL d   1       1.894  -3.628  -0.443  0.00  0.00    -0.097 F 
ATOM      8  F1  UNL d   1       0.322  -2.212   1.249  0.00  0.00    -0.096 F 
ATOM      9  I   UNL d   1       0.275   0.895   2.011  0.00  0.00    -0.060 I 
ATOM     10  F2  UNL d   1       2.701   1.745   0.104  0.00  0.00    -0.096 F 
ATOM     11  F3  UNL d   1       4.256   0.303  -1.581  0.00  0.00    -0.097 F 
ATOM     12  F4  UNL d   1       3.863  -2.382  -1.863  0.00  0.00    -0.092 F 
ENDROOT
TORSDOF 0
ENDMDL
