MODEL 1
REMARK minimizedAffinity 15.0787573
REMARK minimizedRMSD -1
REMARK  0 active torsions:
REMARK  status: ('A' for Active; 'I' for Inactive)
ROOT
ATOM      1  C   UNL d   1       3.172  -2.124  -2.130  0.00  0.00     0.124 A 
ATOM      2  C1  UNL d   1       2.348  -2.779  -1.224  0.00  0.00     0.062 A 
ATOM      3  C2  UNL d   1       1.907  -2.123  -0.079  0.00  0.00     0.162 A 
ATOM      4  C3  UNL d   1       2.286  -0.804   0.167  0.00  0.00    -0.034 A 
ATOM      5  C4  UNL d   1       3.115  -0.152  -0.747  0.00  0.00     0.162 A 
ATOM      6  C5  UNL d   1       3.554  -0.812  -1.891  0.00  0.00     0.062 A 
ATOM      7  F   UNL d   1       4.350  -0.178  -2.764  0.00  0.00    -0.097 F 
ATOM      8  F1  UNL d   1       3.500   1.116  -0.541  0.00  0.00    -0.096 F 
ATOM      9  I   UNL d   1       1.628   0.180   1.879  0.00  0.00    -0.060 I 
ATOM     10  F2  UNL d   1       1.112  -2.781   0.779  0.00  0.00    -0.096 F 
ATOM     11  F3  UNL d   1       1.978  -4.047  -1.453  0.00  0.00    -0.097 F 
ATOM     12  F4  UNL d   1       3.596  -2.758  -3.231  0.00  0.00    -0.092 F 
ENDROOT
TORSDOF 0
ENDMDL
