MODEL 1
REMARK minimizedAffinity 18.7676334
REMARK minimizedRMSD -1
REMARK  0 active torsions:
REMARK  status: ('A' for Active; 'I' for Inactive)
ROOT
ATOM      1  C   UNL d   1      -2.406   0.966  -3.499  0.00  0.00     0.124 A 
ATOM      2  C1  UNL d   1      -3.087   0.440  -2.410  0.00  0.00     0.062 A 
ATOM      3  C2  UNL d   1      -4.035   1.207  -1.740  0.00  0.00     0.162 A 
ATOM      4  C3  UNL d   1      -4.309   2.509  -2.157  0.00  0.00    -0.034 A 
ATOM      5  C4  UNL d   1      -3.619   3.033  -3.252  0.00  0.00     0.162 A 
ATOM      6  C5  UNL d   1      -2.672   2.262  -3.919  0.00  0.00     0.062 A 
ATOM      7  F   UNL d   1      -2.016   2.773  -4.970  0.00  0.00    -0.097 F 
ATOM      8  F1  UNL d   1      -3.858   4.282  -3.679  0.00  0.00    -0.096 F 
ATOM      9  I   UNL d   1      -5.726   3.660  -1.156  0.00  0.00    -0.060 I 
ATOM     10  F2  UNL d   1      -4.677   0.672  -0.691  0.00  0.00    -0.096 F 
ATOM     11  F3  UNL d   1      -2.830  -0.812  -2.003  0.00  0.00    -0.097 F 
ATOM     12  F4  UNL d   1      -1.493   0.226  -4.142  0.00  0.00    -0.092 F 
ENDROOT
TORSDOF 0
ENDMDL
