MODEL 1
REMARK minimizedAffinity 14.0232286
REMARK minimizedRMSD -1
REMARK  0 active torsions:
REMARK  status: ('A' for Active; 'I' for Inactive)
ROOT
ATOM      1  C   UNL d   1      -0.581   0.723   2.199  0.00  0.00     0.124 A 
ATOM      2  C1  UNL d   1      -0.326   0.606   0.840  0.00  0.00     0.062 A 
ATOM      3  C2  UNL d   1       0.948   0.866   0.342  0.00  0.00     0.162 A 
ATOM      4  C3  UNL d   1       1.977   1.245   1.204  0.00  0.00    -0.034 A 
ATOM      5  C4  UNL d   1       1.712   1.361   2.569  0.00  0.00     0.162 A 
ATOM      6  C5  UNL d   1       0.438   1.101   3.062  0.00  0.00     0.062 A 
ATOM      7  F   UNL d   1       0.193   1.214   4.376  0.00  0.00    -0.097 F 
ATOM      8  F1  UNL d   1       2.679   1.723   3.426  0.00  0.00    -0.096 F 
ATOM      9  I   UNL d   1       3.882   1.634   0.463  0.00  0.00    -0.060 I 
ATOM     10  F2  UNL d   1       1.166   0.745  -0.976  0.00  0.00    -0.096 F 
ATOM     11  F3  UNL d   1      -1.309   0.243   0.003  0.00  0.00    -0.097 F 
ATOM     12  F4  UNL d   1      -1.807   0.474   2.675  0.00  0.00    -0.092 F 
ENDROOT
TORSDOF 0
ENDMDL
