MODEL 1
REMARK minimizedAffinity 7.40136576
REMARK minimizedRMSD -1
REMARK  0 active torsions:
REMARK  status: ('A' for Active; 'I' for Inactive)
ROOT
ATOM      1  C   UNL d   1      -1.263   1.294   2.331  0.00  0.00     0.124 A 
ATOM      2  C1  UNL d   1      -0.087   0.893   2.949  0.00  0.00     0.062 A 
ATOM      3  C2  UNL d   1       1.061   0.672   2.194  0.00  0.00     0.162 A 
ATOM      4  C3  UNL d   1       1.040   0.854   0.811  0.00  0.00    -0.034 A 
ATOM      5  C4  UNL d   1      -0.147   1.257   0.196  0.00  0.00     0.162 A 
ATOM      6  C5  UNL d   1      -1.292   1.476   0.955  0.00  0.00     0.062 A 
ATOM      7  F   UNL d   1      -2.427   1.864   0.356  0.00  0.00    -0.097 F 
ATOM      8  F1  UNL d   1      -0.203   1.441  -1.131  0.00  0.00    -0.096 F 
ATOM      9  I   UNL d   1       2.754   0.525  -0.322  0.00  0.00    -0.060 I 
ATOM     10  F2  UNL d   1       2.183   0.285   2.818  0.00  0.00    -0.096 F 
ATOM     11  F3  UNL d   1      -0.057   0.716   4.278  0.00  0.00    -0.097 F 
ATOM     12  F4  UNL d   1      -2.366   1.505   3.060  0.00  0.00    -0.092 F 
ENDROOT
TORSDOF 0
ENDMDL
