MODEL 1
REMARK minimizedAffinity 7.83900928
REMARK minimizedRMSD -1
REMARK  0 active torsions:
REMARK  status: ('A' for Active; 'I' for Inactive)
ROOT
ATOM      1  C   UNL d   1      -0.708   1.512   2.520  0.00  0.00     0.124 A 
ATOM      2  C1  UNL d   1      -0.748   1.325   1.146  0.00  0.00     0.062 A 
ATOM      3  C2  UNL d   1       0.433   1.300   0.408  0.00  0.00     0.162 A 
ATOM      4  C3  UNL d   1       1.663   1.461   1.044  0.00  0.00    -0.034 A 
ATOM      5  C4  UNL d   1       1.695   1.649   2.427  0.00  0.00     0.162 A 
ATOM      6  C5  UNL d   1       0.513   1.674   3.160  0.00  0.00     0.062 A 
ATOM      7  F   UNL d   1       0.553   1.855   4.488  0.00  0.00    -0.097 F 
ATOM      8  F1  UNL d   1       2.862   1.807   3.071  0.00  0.00    -0.096 F 
ATOM      9  I   UNL d   1       3.431   1.423  -0.054  0.00  0.00    -0.060 I 
ATOM     10  F2  UNL d   1       0.364   1.117  -0.919  0.00  0.00    -0.096 F 
ATOM     11  F3  UNL d   1      -1.926   1.170   0.525  0.00  0.00    -0.097 F 
ATOM     12  F4  UNL d   1      -1.845   1.537   3.227  0.00  0.00    -0.092 F 
ENDROOT
TORSDOF 0
ENDMDL
