MODEL 1
REMARK minimizedAffinity 6.82044649
REMARK minimizedRMSD -1
REMARK  0 active torsions:
REMARK  status: ('A' for Active; 'I' for Inactive)
ROOT
ATOM      1  C   UNL d   1       0.678   0.283   3.358  0.00  0.00     0.124 A 
ATOM      2  C1  UNL d   1       0.467   0.978   2.175  0.00  0.00     0.062 A 
ATOM      3  C2  UNL d   1       1.234   0.693   1.049  0.00  0.00     0.162 A 
ATOM      4  C3  UNL d   1       2.219  -0.294   1.101  0.00  0.00    -0.034 A 
ATOM      5  C4  UNL d   1       2.426  -0.988   2.294  0.00  0.00     0.162 A 
ATOM      6  C5  UNL d   1       1.656  -0.699   3.416  0.00  0.00     0.062 A 
ATOM      7  F   UNL d   1       1.861  -1.371   4.558  0.00  0.00    -0.097 F 
ATOM      8  F1  UNL d   1       3.364  -1.943   2.378  0.00  0.00    -0.096 F 
ATOM      9  I   UNL d   1       3.368  -0.724  -0.580  0.00  0.00    -0.060 I 
ATOM     10  F2  UNL d   1       1.009   1.380  -0.080  0.00  0.00    -0.096 F 
ATOM     11  F3  UNL d   1      -0.477   1.928   2.116  0.00  0.00    -0.097 F 
ATOM     12  F4  UNL d   1      -0.061   0.561   4.440  0.00  0.00    -0.092 F 
ENDROOT
TORSDOF 0
ENDMDL
