MODEL 1
REMARK minimizedAffinity 15.7703152
REMARK minimizedRMSD -1
REMARK  0 active torsions:
REMARK  status: ('A' for Active; 'I' for Inactive)
ROOT
ATOM      1  C   UNL d   1      -0.275   1.160  -0.228  0.00  0.00     0.124 A 
ATOM      2  C1  UNL d   1      -1.055   1.557   0.850  0.00  0.00     0.062 A 
ATOM      3  C2  UNL d   1      -0.658   1.257   2.150  0.00  0.00     0.162 A 
ATOM      4  C3  UNL d   1       0.526   0.557   2.380  0.00  0.00    -0.034 A 
ATOM      5  C4  UNL d   1       1.305   0.160   1.291  0.00  0.00     0.162 A 
ATOM      6  C5  UNL d   1       0.904   0.462  -0.006  0.00  0.00     0.062 A 
ATOM      7  F   UNL d   1       1.659   0.078  -1.045  0.00  0.00    -0.097 F 
ATOM      8  F1  UNL d   1       2.450  -0.514   1.477  0.00  0.00    -0.096 F 
ATOM      9  I   UNL d   1       1.124   0.106   4.322  0.00  0.00    -0.060 I 
ATOM     10  F2  UNL d   1      -1.431   1.653   3.171  0.00  0.00    -0.096 F 
ATOM     11  F3  UNL d   1      -2.195   2.230   0.638  0.00  0.00    -0.097 F 
ATOM     12  F4  UNL d   1      -0.659   1.449  -1.477  0.00  0.00    -0.092 F 
ENDROOT
TORSDOF 0
ENDMDL
