MODEL 1
REMARK minimizedAffinity 14.2164555
REMARK minimizedRMSD -1
REMARK  0 active torsions:
REMARK  status: ('A' for Active; 'I' for Inactive)
ROOT
ATOM      1  C   UNL d   1       4.466   0.714  -1.439  0.00  0.00     0.124 A 
ATOM      2  C1  UNL d   1       3.463  -0.244  -1.501  0.00  0.00     0.062 A 
ATOM      3  C2  UNL d   1       2.388  -0.190  -0.619  0.00  0.00     0.162 A 
ATOM      4  C3  UNL d   1       2.308   0.827   0.332  0.00  0.00    -0.034 A 
ATOM      5  C4  UNL d   1       3.321   1.786   0.389  0.00  0.00     0.162 A 
ATOM      6  C5  UNL d   1       4.394   1.728  -0.495  0.00  0.00     0.062 A 
ATOM      7  F   UNL d   1       5.361   2.654  -0.433  0.00  0.00    -0.097 F 
ATOM      8  F1  UNL d   1       3.276   2.778   1.291  0.00  0.00    -0.096 F 
ATOM      9  I   UNL d   1       0.702   0.911   1.653  0.00  0.00    -0.060 I 
ATOM     10  F2  UNL d   1       1.434  -1.129  -0.701  0.00  0.00    -0.096 F 
ATOM     11  F3  UNL d   1       3.531  -1.226  -2.412  0.00  0.00    -0.097 F 
ATOM     12  F4  UNL d   1       5.500   0.659  -2.288  0.00  0.00    -0.092 F 
ENDROOT
TORSDOF 0
ENDMDL
