MODEL 1
REMARK minimizedAffinity 10.8994045
REMARK minimizedRMSD -1
REMARK  0 active torsions:
REMARK  status: ('A' for Active; 'I' for Inactive)
ROOT
ATOM      1  C   UNL d   1       3.353  -1.976  -1.429  0.00  0.00     0.124 A 
ATOM      2  C1  UNL d   1       2.380  -2.524  -0.605  0.00  0.00     0.062 A 
ATOM      3  C2  UNL d   1       1.784  -1.748   0.386  0.00  0.00     0.162 A 
ATOM      4  C3  UNL d   1       2.159  -0.415   0.557  0.00  0.00    -0.034 A 
ATOM      5  C4  UNL d   1       3.139   0.128  -0.275  0.00  0.00     0.162 A 
ATOM      6  C5  UNL d   1       3.731  -0.651  -1.264  0.00  0.00     0.062 A 
ATOM      7  F   UNL d   1       4.671  -0.120  -2.059  0.00  0.00    -0.097 F 
ATOM      8  F1  UNL d   1       3.523   1.406  -0.138  0.00  0.00    -0.096 F 
ATOM      9  I   UNL d   1       1.270   0.747   2.037  0.00  0.00    -0.060 I 
ATOM     10  F2  UNL d   1       0.846  -2.303   1.168  0.00  0.00    -0.096 F 
ATOM     11  F3  UNL d   1       2.013  -3.804  -0.762  0.00  0.00    -0.097 F 
ATOM     12  F4  UNL d   1       3.925  -2.725  -2.381  0.00  0.00    -0.092 F 
ENDROOT
TORSDOF 0
ENDMDL
