MODEL 1
REMARK minimizedAffinity 4.75339937
REMARK minimizedRMSD -1
REMARK  3 active torsions:
REMARK  status: ('A' for Active; 'I' for Inactive)
REMARK    1  A    between atoms: C3'_2  and  C2'_3 
REMARK    2  A    between atoms: C2'_3  and  C1'_4 
REMARK    3  A    between atoms: C1'_4  and  C1_5 
ROOT
ATOM      1  C1  N4B d   1      -3.955  -0.233  -4.599  0.00  0.00    -0.075 A 
ATOM      2  C2  N4B d   1      -2.910  -0.704  -3.775  0.00  0.00     0.002 A 
ATOM      3  C3  N4B d   1      -3.202  -1.349  -2.598  0.00  0.00     0.002 A 
ATOM      4  C4  N4B d   1      -4.525  -1.517  -2.217  0.00  0.00    -0.004 A 
ATOM      5  C5  N4B d   1      -5.529  -1.082  -3.032  0.00  0.00     0.002 A 
ATOM      6  C6  N4B d   1      -5.251  -0.435  -4.219  0.00  0.00     0.002 A 
ENDROOT
BRANCH   1   7
ATOM      7  C1' N4B d   1      -3.685   0.553  -5.853  0.00  0.00     0.057 C 
BRANCH   7   8
ATOM      8  C2' N4B d   1      -3.379   2.001  -5.480  0.00  0.00     0.009 C 
BRANCH   8   9
ATOM      9  C3' N4B d   1      -3.826   2.330  -4.066  0.00  0.00     0.004 C 
ATOM     10  C4' N4B d   1      -3.136   3.537  -3.505  0.00  0.00     0.003 C 
ENDBRANCH   8   9
ENDBRANCH   7   8
ENDBRANCH   1   7
TORSDOF 3
ENDMDL
