MODEL 1
REMARK minimizedAffinity 1.94693053
REMARK minimizedRMSD -1
REMARK  3 active torsions:
REMARK  status: ('A' for Active; 'I' for Inactive)
REMARK    1  A    between atoms: C3'_2  and  C2'_3 
REMARK    2  A    between atoms: C2'_3  and  C1'_4 
REMARK    3  A    between atoms: C1'_4  and  C1_5 
ROOT
ATOM      1  C1  N4B d   1      -4.293  -0.426  -4.902  0.00  0.00    -0.075 A 
ATOM      2  C2  N4B d   1      -4.621   0.948  -4.925  0.00  0.00     0.002 A 
ATOM      3  C3  N4B d   1      -3.750   1.852  -5.481  0.00  0.00     0.002 A 
ATOM      4  C4  N4B d   1      -2.542   1.411  -6.000  0.00  0.00    -0.004 A 
ATOM      5  C5  N4B d   1      -2.244   0.080  -5.997  0.00  0.00     0.002 A 
ATOM      6  C6  N4B d   1      -3.112  -0.841  -5.445  0.00  0.00     0.002 A 
ENDROOT
BRANCH   1   7
ATOM      7  C1' N4B d   1      -5.175  -1.442  -4.229  0.00  0.00     0.057 C 
BRANCH   7   8
ATOM      8  C2' N4B d   1      -4.532  -1.869  -2.912  0.00  0.00     0.009 C 
BRANCH   8   9
ATOM      9  C3' N4B d   1      -3.241  -1.116  -2.640  0.00  0.00     0.004 C 
ATOM     10  C4' N4B d   1      -3.395  -0.064  -1.582  0.00  0.00     0.003 C 
ENDBRANCH   8   9
ENDBRANCH   7   8
ENDBRANCH   1   7
TORSDOF 3
ENDMDL
