MODEL 1
REMARK minimizedAffinity 3.57610083
REMARK minimizedRMSD -1
REMARK  3 active torsions:
REMARK  status: ('A' for Active; 'I' for Inactive)
REMARK    1  A    between atoms: C3'_2  and  C2'_3 
REMARK    2  A    between atoms: C2'_3  and  C1'_4 
REMARK    3  A    between atoms: C1'_4  and  C1_5 
ROOT
ATOM      1  C1  N4B d   1      -3.038   0.825  -5.430  0.00  0.00    -0.075 A 
ATOM      2  C2  N4B d   1      -3.041  -0.014  -4.294  0.00  0.00     0.002 A 
ATOM      3  C3  N4B d   1      -4.232  -0.450  -3.766  0.00  0.00     0.002 A 
ATOM      4  C4  N4B d   1      -5.427  -0.046  -4.343  0.00  0.00    -0.004 A 
ATOM      5  C5  N4B d   1      -5.414   0.744  -5.455  0.00  0.00     0.002 A 
ATOM      6  C6  N4B d   1      -4.225   1.186  -5.999  0.00  0.00     0.002 A 
ENDROOT
BRANCH   1   7
ATOM      7  C1' N4B d   1      -1.765   1.397  -5.991  0.00  0.00     0.057 C 
BRANCH   7   8
ATOM      8  C2' N4B d   1      -1.378   2.637  -5.192  0.00  0.00     0.009 C 
BRANCH   8   9
ATOM      9  C3' N4B d   1      -0.509   3.586  -6.000  0.00  0.00     0.004 C 
ATOM     10  C4' N4B d   1       0.703   4.047  -5.247  0.00  0.00     0.003 C 
ENDBRANCH   8   9
ENDBRANCH   7   8
ENDBRANCH   1   7
TORSDOF 3
ENDMDL
