MODEL 1
REMARK minimizedAffinity -0.78571707
REMARK minimizedRMSD -1
REMARK  3 active torsions:
REMARK  status: ('A' for Active; 'I' for Inactive)
REMARK    1  A    between atoms: C3'_2  and  C2'_3 
REMARK    2  A    between atoms: C2'_3  and  C1'_4 
REMARK    3  A    between atoms: C1'_4  and  C1_5 
ROOT
ATOM      1  C1  N4B d   1      -3.801  -0.589  -3.858  0.00  0.00    -0.075 A 
ATOM      2  C2  N4B d   1      -5.178  -0.273  -3.872  0.00  0.00     0.002 A 
ATOM      3  C3  N4B d   1      -5.718   0.397  -4.942  0.00  0.00     0.002 A 
ATOM      4  C4  N4B d   1      -4.901   0.777  -5.996  0.00  0.00    -0.004 A 
ATOM      5  C5  N4B d   1      -3.577   0.447  -5.987  0.00  0.00     0.002 A 
ATOM      6  C6  N4B d   1      -3.022  -0.230  -4.920  0.00  0.00     0.002 A 
ENDROOT
BRANCH   1   7
ATOM      7  C1' N4B d   1      -3.149  -1.244  -2.672  0.00  0.00     0.057 C 
BRANCH   7   8
ATOM      8  C2' N4B d   1      -2.678  -0.167  -1.700  0.00  0.00     0.009 C 
BRANCH   8   9
ATOM      9  C3' N4B d   1      -3.450   1.130  -1.872  0.00  0.00     0.004 C 
ATOM     10  C4' N4B d   1      -2.570   2.284  -2.250  0.00  0.00     0.003 C 
ENDBRANCH   8   9
ENDBRANCH   7   8
ENDBRANCH   1   7
TORSDOF 3
ENDMDL
