MODEL 1
REMARK minimizedAffinity 5.08691645
REMARK minimizedRMSD -1
REMARK  1 active torsions:
REMARK  status: ('A' for Active; 'I' for Inactive)
REMARK    1  A    between atoms: N_2  and  C1_3 
ROOT
ATOM      1  C1  UNL d   1       1.098   1.598  -1.124  0.00  0.00     0.143 A 
ATOM      2  C2  UNL d   1       1.253   0.240  -1.422  0.00  0.00    -0.057 A 
ATOM      3  C3  UNL d   1       1.411  -0.712  -0.407  0.00  0.00     0.033 A 
ATOM      4  C4  UNL d   1       1.446  -0.317   0.926  0.00  0.00    -0.042 A 
ATOM      5  C5  UNL d   1       1.318   1.030   1.244  0.00  0.00     0.033 A 
ATOM      6  C6  UNL d   1       1.154   1.975   0.227  0.00  0.00    -0.057 A 
ENDROOT
BRANCH   1   7
ATOM      7  N   UNL d   1       1.036   2.604  -2.092  0.00  0.00    -0.732 N 
ATOM      8  C   UNL d   1       1.315   3.980  -1.743  0.00  0.00     0.284 C 
ATOM      9  H3  UNL d   1       1.433   2.312  -2.982  0.00  0.00     0.395 HD
ENDBRANCH   1   7
TORSDOF 1
ENDMDL
