MODEL 1
REMARK minimizedAffinity 4.97906399
REMARK minimizedRMSD -1
REMARK  1 active torsions:
REMARK  status: ('A' for Active; 'I' for Inactive)
REMARK    1  A    between atoms: N_2  and  C1_3 
ROOT
ATOM      1  C1  UNL d   1       1.198   1.537  -1.085  0.00  0.00     0.143 A 
ATOM      2  C2  UNL d   1       1.254   1.846   0.278  0.00  0.00    -0.057 A 
ATOM      3  C3  UNL d   1       1.002   3.144   0.739  0.00  0.00     0.033 A 
ATOM      4  C4  UNL d   1       0.718   4.165  -0.162  0.00  0.00    -0.042 A 
ATOM      5  C5  UNL d   1       0.682   3.886  -1.523  0.00  0.00     0.033 A 
ATOM      6  C6  UNL d   1       0.928   2.587  -1.977  0.00  0.00    -0.057 A 
ENDROOT
BRANCH   1   7
ATOM      7  N   UNL d   1       1.535   0.288  -1.614  0.00  0.00    -0.732 N 
ATOM      8  C   UNL d   1       2.220  -0.695  -0.803  0.00  0.00     0.284 C 
ATOM      9  H3  UNL d   1       0.798  -0.097  -2.200  0.00  0.00     0.395 HD
ENDBRANCH   1   7
TORSDOF 1
ENDMDL
