MODEL 1
REMARK minimizedAffinity -1.98135662
REMARK minimizedRMSD -1
REMARK  1 active torsions:
REMARK  status: ('A' for Active; 'I' for Inactive)
REMARK    1  A    between atoms: N_2  and  C1_3 
ROOT
ATOM      1  C1  UNL d   1       1.191   2.591  -1.400  0.00  0.00     0.143 A 
ATOM      2  C2  UNL d   1       1.638   1.359  -1.889  0.00  0.00    -0.057 A 
ATOM      3  C3  UNL d   1       1.564   0.198  -1.109  0.00  0.00     0.033 A 
ATOM      4  C4  UNL d   1       1.066   0.256   0.188  0.00  0.00    -0.042 A 
ATOM      5  C5  UNL d   1       0.639   1.474   0.704  0.00  0.00     0.033 A 
ATOM      6  C6  UNL d   1       0.709   2.628  -0.082  0.00  0.00    -0.057 A 
ENDROOT
BRANCH   1   7
ATOM      7  N   UNL d   1       1.329   3.798  -2.090  0.00  0.00    -0.732 N 
ATOM      8  C   UNL d   1       1.382   5.055  -1.375  0.00  0.00     0.284 C 
ATOM      9  H3  UNL d   1       1.988   3.731  -2.862  0.00  0.00     0.395 HD
ENDBRANCH   1   7
TORSDOF 1
ENDMDL
