MODEL 1
REMARK minimizedAffinity -0.573212504
REMARK minimizedRMSD -1
REMARK  1 active torsions:
REMARK  status: ('A' for Active; 'I' for Inactive)
REMARK    1  A    between atoms: N_2  and  C1_3 
ROOT
ATOM      1  C1  UNL d   1       0.952   1.969  -1.444  0.00  0.00     0.143 A 
ATOM      2  C2  UNL d   1       1.196   0.766  -2.116  0.00  0.00    -0.057 A 
ATOM      3  C3  UNL d   1       1.366  -0.434  -1.416  0.00  0.00     0.033 A 
ATOM      4  C4  UNL d   1       1.325  -0.448  -0.025  0.00  0.00    -0.042 A 
ATOM      5  C5  UNL d   1       1.110   0.740   0.664  0.00  0.00     0.033 A 
ATOM      6  C6  UNL d   1       0.933   1.935  -0.041  0.00  0.00    -0.057 A 
ENDROOT
BRANCH   1   7
ATOM      7  N   UNL d   1       0.873   3.212  -2.078  0.00  0.00    -0.732 N 
ATOM      8  C   UNL d   1       1.313   4.413  -1.403  0.00  0.00     0.284 C 
ATOM      9  H3  UNL d   1       1.138   3.165  -3.059  0.00  0.00     0.395 HD
ENDBRANCH   1   7
TORSDOF 1
ENDMDL
