MODEL 1
REMARK minimizedAffinity -4.12288094
REMARK minimizedRMSD -1
REMARK  1 active torsions:
REMARK  status: ('A' for Active; 'I' for Inactive)
REMARK    1  A    between atoms: N_2  and  C1_3 
ROOT
ATOM      1  C1  UNL d   1       0.979   2.776  -1.121  0.00  0.00     0.143 A 
ATOM      2  C2  UNL d   1       1.269   1.704  -1.972  0.00  0.00    -0.057 A 
ATOM      3  C3  UNL d   1       1.213   0.381  -1.519  0.00  0.00     0.033 A 
ATOM      4  C4  UNL d   1       0.892   0.107  -0.193  0.00  0.00    -0.042 A 
ATOM      5  C5  UNL d   1       0.625   1.157   0.677  0.00  0.00     0.033 A 
ATOM      6  C6  UNL d   1       0.676   2.476   0.217  0.00  0.00    -0.057 A 
ENDROOT
BRANCH   1   7
ATOM      7  N   UNL d   1       1.114   4.118  -1.486  0.00  0.00    -0.732 N 
ATOM      8  C   UNL d   1       1.410   5.126  -0.491  0.00  0.00     0.284 C 
ATOM      9  H3  UNL d   1       1.623   4.234  -2.359  0.00  0.00     0.395 HD
ENDBRANCH   1   7
TORSDOF 1
ENDMDL
