MODEL 1
REMARK minimizedAffinity 5.14763594
REMARK minimizedRMSD -1
REMARK  1 active torsions:
REMARK  status: ('A' for Active; 'I' for Inactive)
REMARK    1  A    between atoms: N_2  and  C1_3 
ROOT
ATOM      1  C1  UNL d   1       0.735   2.324  -1.635  0.00  0.00     0.143 A 
ATOM      2  C2  UNL d   1       0.481   1.314  -2.570  0.00  0.00    -0.057 A 
ATOM      3  C3  UNL d   1       0.854  -0.013  -2.324  0.00  0.00     0.033 A 
ATOM      4  C4  UNL d   1       1.515  -0.350  -1.148  0.00  0.00    -0.042 A 
ATOM      5  C5  UNL d   1       1.801   0.642  -0.216  0.00  0.00     0.033 A 
ATOM      6  C6  UNL d   1       1.420   1.964  -0.464  0.00  0.00    -0.057 A 
ENDROOT
BRANCH   1   7
ATOM      7  N   UNL d   1       0.478   3.678  -1.864  0.00  0.00    -0.732 N 
ATOM      8  C   UNL d   1       1.045   4.692  -1.000  0.00  0.00     0.284 C 
ATOM      9  H3  UNL d   1       0.498   3.916  -2.853  0.00  0.00     0.395 HD
ENDBRANCH   1   7
TORSDOF 1
ENDMDL
