MODEL 1
REMARK minimizedAffinity -2.20545149
REMARK minimizedRMSD -1
REMARK  1 active torsions:
REMARK  status: ('A' for Active; 'I' for Inactive)
REMARK    1  A    between atoms: N_2  and  C1_3 
ROOT
ATOM      1  C1  UNL d   1      -2.963   2.700   4.894  0.00  0.00     0.143 A 
ATOM      2  C2  UNL d   1      -4.274   2.299   4.618  0.00  0.00    -0.057 A 
ATOM      3  C3  UNL d   1      -4.589   1.607   3.442  0.00  0.00     0.033 A 
ATOM      4  C4  UNL d   1      -3.600   1.328   2.505  0.00  0.00    -0.042 A 
ATOM      5  C5  UNL d   1      -2.294   1.739   2.747  0.00  0.00     0.033 A 
ATOM      6  C6  UNL d   1      -1.984   2.424   3.926  0.00  0.00    -0.057 A 
ENDROOT
BRANCH   1   7
ATOM      7  N   UNL d   1      -2.604   3.477   5.998  0.00  0.00    -0.732 N 
ATOM      8  C   UNL d   1      -1.996   4.778   5.817  0.00  0.00     0.284 C 
ATOM      9  H3  UNL d   1      -3.299   3.443   6.740  0.00  0.00     0.395 HD
ENDBRANCH   1   7
TORSDOF 1
ENDMDL
