MODEL 1
REMARK minimizedAffinity -2.79758739
REMARK minimizedRMSD -1
REMARK  1 active torsions:
REMARK  status: ('A' for Active; 'I' for Inactive)
REMARK    1  A    between atoms: N_2  and  C1_3 
ROOT
ATOM      1  C1  UNL d   1       1.858  -0.096  -0.340  0.00  0.00     0.143 A 
ATOM      2  C2  UNL d   1       0.917   0.723  -0.973  0.00  0.00    -0.057 A 
ATOM      3  C3  UNL d   1       0.447   1.893  -0.365  0.00  0.00     0.033 A 
ATOM      4  C4  UNL d   1       0.889   2.250   0.905  0.00  0.00    -0.042 A 
ATOM      5  C5  UNL d   1       1.805   1.438   1.563  0.00  0.00     0.033 A 
ATOM      6  C6  UNL d   1       2.276   0.274   0.947  0.00  0.00    -0.057 A 
ENDROOT
BRANCH   1   7
ATOM      7  N   UNL d   1       2.289  -1.323  -0.851  0.00  0.00    -0.732 N 
ATOM      8  C   UNL d   1       3.054  -2.236  -0.028  0.00  0.00     0.284 C 
ATOM      9  H3  UNL d   1       1.582  -1.774  -1.427  0.00  0.00     0.395 HD
ENDBRANCH   1   7
TORSDOF 1
ENDMDL
