MODEL 1
REMARK minimizedAffinity -3.28486443
REMARK minimizedRMSD -1
REMARK  1 active torsions:
REMARK  status: ('A' for Active; 'I' for Inactive)
REMARK    1  A    between atoms: N_2  and  C1_3 
ROOT
ATOM      1  C1  UNL d   1       0.890   1.704  -0.448  0.00  0.00     0.143 A 
ATOM      2  C2  UNL d   1       1.044   2.626  -1.489  0.00  0.00    -0.057 A 
ATOM      3  C3  UNL d   1       1.144   2.208  -2.821  0.00  0.00     0.033 A 
ATOM      4  C4  UNL d   1       1.120   0.853  -3.135  0.00  0.00    -0.042 A 
ATOM      5  C5  UNL d   1       0.992  -0.083  -2.114  0.00  0.00     0.033 A 
ATOM      6  C6  UNL d   1       0.886   0.342  -0.786  0.00  0.00    -0.057 A 
ENDROOT
BRANCH   1   7
ATOM      7  N   UNL d   1       0.884   2.052   0.905  0.00  0.00    -0.732 N 
ATOM      8  C   UNL d   1       1.684   1.314   1.859  0.00  0.00     0.284 C 
ATOM      9  H3  UNL d   1       0.890   3.059   1.047  0.00  0.00     0.395 HD
ENDBRANCH   1   7
TORSDOF 1
ENDMDL
