MODEL 1
REMARK minimizedAffinity -0.0651978552
REMARK minimizedRMSD -1
REMARK  1 active torsions:
REMARK  status: ('A' for Active; 'I' for Inactive)
REMARK    1  A    between atoms: N_2  and  C1_3 
ROOT
ATOM      1  C1  UNL d   1       1.032   0.325  -0.587  0.00  0.00     0.143 A 
ATOM      2  C2  UNL d   1       1.319   1.221  -1.623  0.00  0.00    -0.057 A 
ATOM      3  C3  UNL d   1       1.403   2.598  -1.389  0.00  0.00     0.033 A 
ATOM      4  C4  UNL d   1       1.172   3.109  -0.116  0.00  0.00    -0.042 A 
ATOM      5  C5  UNL d   1       0.860   2.240   0.924  0.00  0.00     0.033 A 
ATOM      6  C6  UNL d   1       0.784   0.865   0.685  0.00  0.00    -0.057 A 
ENDROOT
BRANCH   1   7
ATOM      7  N   UNL d   1       0.838  -1.046  -0.775  0.00  0.00    -0.732 N 
ATOM      8  C   UNL d   1       1.582  -2.010   0.006  0.00  0.00     0.284 C 
ATOM      9  H3  UNL d   1      -0.143  -1.285  -0.906  0.00  0.00     0.395 HD
ENDBRANCH   1   7
TORSDOF 1
ENDMDL
