MODEL 1
REMARK minimizedAffinity -3.17097092
REMARK minimizedRMSD -1
REMARK  1 active torsions:
REMARK  status: ('A' for Active; 'I' for Inactive)
REMARK    1  A    between atoms: N_2  and  C1_3 
ROOT
ATOM      1  C1  UNL d   1       1.176   2.558  -1.047  0.00  0.00     0.143 A 
ATOM      2  C2  UNL d   1       1.150   1.372  -1.790  0.00  0.00    -0.057 A 
ATOM      3  C3  UNL d   1       0.943   0.133  -1.172  0.00  0.00     0.033 A 
ATOM      4  C4  UNL d   1       0.786   0.054   0.208  0.00  0.00    -0.042 A 
ATOM      5  C5  UNL d   1       0.833   1.216   0.969  0.00  0.00     0.033 A 
ATOM      6  C6  UNL d   1       1.033   2.452   0.346  0.00  0.00    -0.057 A 
ENDROOT
BRANCH   1   7
ATOM      7  N   UNL d   1       1.475   3.809  -1.590  0.00  0.00    -0.732 N 
ATOM      8  C   UNL d   1       1.594   4.973  -0.737  0.00  0.00     0.284 C 
ATOM      9  H3  UNL d   1       2.180   3.757  -2.321  0.00  0.00     0.395 HD
ENDBRANCH   1   7
TORSDOF 1
ENDMDL
