MODEL 1
REMARK minimizedAffinity -3.8944025
REMARK minimizedRMSD -1
REMARK  1 active torsions:
REMARK  status: ('A' for Active; 'I' for Inactive)
REMARK    1  A    between atoms: N_2  and  C1_3 
ROOT
ATOM      1  C1  UNL d   1       0.561   1.913  -1.101  0.00  0.00     0.143 A 
ATOM      2  C2  UNL d   1       1.123   0.794  -1.725  0.00  0.00    -0.057 A 
ATOM      3  C3  UNL d   1       1.457  -0.353  -0.994  0.00  0.00     0.033 A 
ATOM      4  C4  UNL d   1       1.261  -0.390   0.382  0.00  0.00    -0.042 A 
ATOM      5  C5  UNL d   1       0.727   0.720   1.027  0.00  0.00     0.033 A 
ATOM      6  C6  UNL d   1       0.389   1.860   0.291  0.00  0.00    -0.057 A 
ENDROOT
BRANCH   1   7
ATOM      7  N   UNL d   1       0.298   3.118  -1.757  0.00  0.00    -0.732 N 
ATOM      8  C   UNL d   1       0.852   4.361  -1.263  0.00  0.00     0.284 C 
ATOM      9  H3  UNL d   1       0.325   3.024  -2.769  0.00  0.00     0.395 HD
ENDBRANCH   1   7
TORSDOF 1
ENDMDL
