MODEL 1
REMARK minimizedAffinity 3.93966126
REMARK minimizedRMSD -1
REMARK  1 active torsions:
REMARK  status: ('A' for Active; 'I' for Inactive)
REMARK    1  A    between atoms: N_2  and  C1_3 
ROOT
ATOM      1  C1  UNL d   1       1.125   1.988  -1.288  0.00  0.00     0.143 A 
ATOM      2  C2  UNL d   1       0.749   0.729  -1.769  0.00  0.00    -0.057 A 
ATOM      3  C3  UNL d   1       0.627  -0.370  -0.909  0.00  0.00     0.033 A 
ATOM      4  C4  UNL d   1       0.908  -0.234   0.447  0.00  0.00    -0.042 A 
ATOM      5  C5  UNL d   1       1.308   1.002   0.942  0.00  0.00     0.033 A 
ATOM      6  C6  UNL d   1       1.422   2.097   0.079  0.00  0.00    -0.057 A 
ENDROOT
BRANCH   1   7
ATOM      7  N   UNL d   1       1.360   3.094  -2.108  0.00  0.00    -0.732 N 
ATOM      8  C   UNL d   1       0.552   3.323  -3.287  0.00  0.00     0.284 C 
ATOM      9  H3  UNL d   1       1.565   3.936  -1.575  0.00  0.00     0.395 HD
ENDBRANCH   1   7
TORSDOF 1
ENDMDL
