MODEL 1
REMARK minimizedAffinity -1.12707841
REMARK minimizedRMSD -1
REMARK  1 active torsions:
REMARK  status: ('A' for Active; 'I' for Inactive)
REMARK    1  A    between atoms: N_2  and  C1_3 
ROOT
ATOM      1  C1  UNL d   1       1.311   0.311  -0.414  0.00  0.00     0.143 A 
ATOM      2  C2  UNL d   1       1.785  -0.624   0.511  0.00  0.00    -0.057 A 
ATOM      3  C3  UNL d   1       1.650  -1.999   0.289  0.00  0.00     0.033 A 
ATOM      4  C4  UNL d   1       1.010  -2.465  -0.855  0.00  0.00    -0.042 A 
ATOM      5  C5  UNL d   1       0.507  -1.554  -1.777  0.00  0.00     0.033 A 
ATOM      6  C6  UNL d   1       0.651  -0.181  -1.552  0.00  0.00    -0.057 A 
ENDROOT
BRANCH   1   7
ATOM      7  N   UNL d   1       1.327   1.692  -0.203  0.00  0.00    -0.732 N 
ATOM      8  C   UNL d   1       0.985   2.605  -1.273  0.00  0.00     0.284 C 
ATOM      9  H3  UNL d   1       0.943   1.951   0.703  0.00  0.00     0.395 HD
ENDBRANCH   1   7
TORSDOF 1
ENDMDL
