MODEL 1
REMARK minimizedAffinity 13.2902021
REMARK minimizedRMSD -1
REMARK  2 active torsions:
REMARK  status: ('A' for Active; 'I' for Inactive)
REMARK    1  A    between atoms: C2'_3  and  C1'_4 
REMARK    2  A    between atoms: C1'_4  and  C1_5 
ROOT
ATOM      1  C1  I4B d   1       1.626   0.360   1.844  0.00  0.00    -0.075 A 
ATOM      2  C2  I4B d   1       2.541  -0.474   1.250  0.00  0.00     0.003 A 
ATOM      3  C3  I4B d   1       2.427  -1.877   1.399  0.00  0.00     0.002 A 
ATOM      4  C4  I4B d   1       1.420  -2.398   2.185  0.00  0.00    -0.004 A 
ATOM      5  C5  I4B d   1       0.480  -1.552   2.767  0.00  0.00     0.002 A 
ATOM      6  C6  I4B d   1       0.576  -0.165   2.585  0.00  0.00     0.003 A 
ENDROOT
BRANCH   1   7
ATOM      7  C1' I4B d   1       1.796   1.839   1.694  0.00  0.00     0.060 C 
BRANCH   7   8
ATOM      8  C2' I4B d   1       1.293   2.497   2.962  0.00  0.00    -0.013 C 
ATOM      9  C4' I4B d   1       2.435   3.020   3.794  0.00  0.00     0.013 C 
ATOM     10  C3' I4B d   1       0.358   3.602   2.572  0.00  0.00     0.013 C 
ENDBRANCH   7   8
ENDBRANCH   1   7
TORSDOF 2
ENDMDL
