MODEL 1
REMARK minimizedAffinity 11.7595043
REMARK minimizedRMSD -1
REMARK  2 active torsions:
REMARK  status: ('A' for Active; 'I' for Inactive)
REMARK    1  A    between atoms: C2'_3  and  C1'_4 
REMARK    2  A    between atoms: C1'_4  and  C1_5 
ROOT
ATOM      1  C1  I4B d   1       1.887  -1.729   2.471  0.00  0.00    -0.075 A 
ATOM      2  C2  I4B d   1       1.539  -2.429   3.600  0.00  0.00     0.003 A 
ATOM      3  C3  I4B d   1       0.675  -1.849   4.559  0.00  0.00     0.002 A 
ATOM      4  C4  I4B d   1       0.224  -0.558   4.377  0.00  0.00    -0.004 A 
ATOM      5  C5  I4B d   1       0.558   0.141   3.221  0.00  0.00     0.002 A 
ATOM      6  C6  I4B d   1       1.385  -0.452   2.255  0.00  0.00     0.003 A 
ENDROOT
BRANCH   1   7
ATOM      7  C1' I4B d   1       2.828  -2.358   1.494  0.00  0.00     0.060 C 
BRANCH   7   8
ATOM      8  C2' I4B d   1       4.178  -1.688   1.648  0.00  0.00    -0.013 C 
ATOM      9  C4' I4B d   1       5.247  -2.689   1.998  0.00  0.00     0.013 C 
ATOM     10  C3' I4B d   1       4.495  -0.984   0.363  0.00  0.00     0.013 C 
ENDBRANCH   7   8
ENDBRANCH   1   7
TORSDOF 2
ENDMDL
