MODEL 1
REMARK minimizedAffinity 17.7068424
REMARK minimizedRMSD -1
REMARK  2 active torsions:
REMARK  status: ('A' for Active; 'I' for Inactive)
REMARK    1  A    between atoms: C2'_3  and  C1'_4 
REMARK    2  A    between atoms: C1'_4  and  C1_5 
ROOT
ATOM      1  C1  I4B d   1      -3.542   2.697  -0.044  0.00  0.00    -0.075 A 
ATOM      2  C2  I4B d   1      -4.308   2.463  -1.159  0.00  0.00     0.003 A 
ATOM      3  C3  I4B d   1      -3.924   1.467  -2.090  0.00  0.00     0.002 A 
ATOM      4  C4  I4B d   1      -2.750   0.770  -1.894  0.00  0.00    -0.004 A 
ATOM      5  C5  I4B d   1      -1.987   0.993  -0.751  0.00  0.00     0.002 A 
ATOM      6  C6  I4B d   1      -2.392   1.954   0.186  0.00  0.00     0.003 A 
ENDROOT
BRANCH   1   7
ATOM      7  C1' I4B d   1      -3.959   3.778   0.902  0.00  0.00     0.060 C 
BRANCH   7   8
ATOM      8  C2' I4B d   1      -5.471   3.761   0.995  0.00  0.00    -0.013 C 
ATOM      9  C4' I4B d   1      -5.932   3.876   2.424  0.00  0.00     0.013 C 
ATOM     10  C3' I4B d   1      -5.999   4.891   0.163  0.00  0.00     0.013 C 
ENDBRANCH   7   8
ENDBRANCH   1   7
TORSDOF 2
ENDMDL
