MODEL 1
REMARK minimizedAffinity 15.6499281
REMARK minimizedRMSD -1
REMARK  2 active torsions:
REMARK  status: ('A' for Active; 'I' for Inactive)
REMARK    1  A    between atoms: C2'_3  and  C1'_4 
REMARK    2  A    between atoms: C1'_4  and  C1_5 
ROOT
ATOM      1  C1  I4B d   1       1.339   0.300   1.398  0.00  0.00    -0.075 A 
ATOM      2  C2  I4B d   1       2.032  -0.441   0.473  0.00  0.00     0.003 A 
ATOM      3  C3  I4B d   1       2.237  -1.827   0.679  0.00  0.00     0.002 A 
ATOM      4  C4  I4B d   1       1.779  -2.417   1.839  0.00  0.00    -0.004 A 
ATOM      5  C5  I4B d   1       1.057  -1.669   2.765  0.00  0.00     0.002 A 
ATOM      6  C6  I4B d   1       0.824  -0.305   2.537  0.00  0.00     0.003 A 
ENDROOT
BRANCH   1   7
ATOM      7  C1' I4B d   1       1.169   1.768   1.165  0.00  0.00     0.060 C 
BRANCH   7   8
ATOM      8  C2' I4B d   1      -0.261   2.133   1.510  0.00  0.00    -0.013 C 
ATOM      9  C4' I4B d   1      -0.322   3.424   2.283  0.00  0.00     0.013 C 
ATOM     10  C3' I4B d   1      -1.035   2.230   0.229  0.00  0.00     0.013 C 
ENDBRANCH   7   8
ENDBRANCH   1   7
TORSDOF 2
ENDMDL
