MODEL 1
REMARK minimizedAffinity 18.5178413
REMARK minimizedRMSD -1
REMARK  2 active torsions:
REMARK  status: ('A' for Active; 'I' for Inactive)
REMARK    1  A    between atoms: C2'_3  and  C1'_4 
REMARK    2  A    between atoms: C1'_4  and  C1_5 
ROOT
ATOM      1  C1  I4B d   1       3.306  -3.863   2.575  0.00  0.00    -0.075 A 
ATOM      2  C2  I4B d   1       3.745  -5.078   2.111  0.00  0.00     0.003 A 
ATOM      3  C3  I4B d   1       5.116  -5.276   1.819  0.00  0.00     0.002 A 
ATOM      4  C4  I4B d   1       5.999  -4.224   1.957  0.00  0.00    -0.004 A 
ATOM      5  C5  I4B d   1       5.556  -3.000   2.450  0.00  0.00     0.002 A 
ATOM      6  C6  I4B d   1       4.203  -2.822   2.773  0.00  0.00     0.003 A 
ENDROOT
BRANCH   1   7
ATOM      7  C1' I4B d   1       1.846  -3.678   2.842  0.00  0.00     0.060 C 
BRANCH   7   8
ATOM      8  C2' I4B d   1       1.649  -2.294   3.426  0.00  0.00    -0.013 C 
ATOM      9  C4' I4B d   1       0.847  -1.420   2.498  0.00  0.00     0.013 C 
ATOM     10  C3' I4B d   1       0.967  -2.443   4.753  0.00  0.00     0.013 C 
ENDBRANCH   7   8
ENDBRANCH   1   7
TORSDOF 2
ENDMDL
