MODEL 1
REMARK minimizedAffinity 14.178978
REMARK minimizedRMSD -1
REMARK  2 active torsions:
REMARK  status: ('A' for Active; 'I' for Inactive)
REMARK    1  A    between atoms: C2'_3  and  C1'_4 
REMARK    2  A    between atoms: C1'_4  and  C1_5 
ROOT
ATOM      1  C1  I4B d   1       3.425   0.750  -4.219  0.00  0.00    -0.075 A 
ATOM      2  C2  I4B d   1       4.553   0.704  -5.000  0.00  0.00     0.003 A 
ATOM      3  C3  I4B d   1       5.493  -0.342  -4.835  0.00  0.00     0.002 A 
ATOM      4  C4  I4B d   1       5.291  -1.286  -3.849  0.00  0.00    -0.004 A 
ATOM      5  C5  I4B d   1       4.136  -1.251  -3.073  0.00  0.00     0.002 A 
ATOM      6  C6  I4B d   1       3.191  -0.234  -3.268  0.00  0.00     0.003 A 
ENDROOT
BRANCH   1   7
ATOM      7  C1' I4B d   1       2.471   1.888  -4.398  0.00  0.00     0.060 C 
BRANCH   7   8
ATOM      8  C2' I4B d   1       3.167   3.157  -3.949  0.00  0.00    -0.013 C 
ATOM      9  C4' I4B d   1       3.476   4.053  -5.119  0.00  0.00     0.013 C 
ATOM     10  C3' I4B d   1       2.277   3.847  -2.958  0.00  0.00     0.013 C 
ENDBRANCH   7   8
ENDBRANCH   1   7
TORSDOF 2
ENDMDL
