MODEL 1
REMARK minimizedAffinity 8.54506397
REMARK minimizedRMSD -1
REMARK  2 active torsions:
REMARK  status: ('A' for Active; 'I' for Inactive)
REMARK    1  A    between atoms: C2'_3  and  C1'_4 
REMARK    2  A    between atoms: C1'_4  and  C1_5 
ROOT
ATOM      1  C1  I4B d   1       0.746  -2.041   0.281  0.00  0.00    -0.075 A 
ATOM      2  C2  I4B d   1      -0.577  -1.886   0.610  0.00  0.00     0.003 A 
ATOM      3  C3  I4B d   1      -1.579  -2.019  -0.382  0.00  0.00     0.002 A 
ATOM      4  C4  I4B d   1      -1.212  -2.254  -1.691  0.00  0.00    -0.004 A 
ATOM      5  C5  I4B d   1       0.129  -2.432  -2.019  0.00  0.00     0.002 A 
ATOM      6  C6  I4B d   1       1.114  -2.338  -1.025  0.00  0.00     0.003 A 
ENDROOT
BRANCH   1   7
ATOM      7  C1' I4B d   1       1.780  -1.862   1.347  0.00  0.00     0.060 C 
BRANCH   7   8
ATOM      8  C2' I4B d   1       1.937  -0.376   1.600  0.00  0.00    -0.013 C 
ATOM      9  C4' I4B d   1       1.939  -0.072   3.075  0.00  0.00     0.013 C 
ATOM     10  C3' I4B d   1       3.214   0.071   0.954  0.00  0.00     0.013 C 
ENDBRANCH   7   8
ENDBRANCH   1   7
TORSDOF 2
ENDMDL
