MODEL 1
REMARK minimizedAffinity 0.477404535
REMARK minimizedRMSD -1
REMARK  1 active torsions:
REMARK  status: ('A' for Active; 'I' for Inactive)
REMARK    1  A    between atoms: C1_2  and  C2_3 
ROOT
ATOM      1  C2  UNL d   1       0.174   2.073   2.275  0.00  0.00    -0.073 A 
ATOM      2  C3  UNL d   1      -1.130   2.555   2.435  0.00  0.00    -0.002 A 
ATOM      3  C4  UNL d   1      -2.179   2.011   1.692  0.00  0.00     0.004 A 
ATOM      4  C5  UNL d   1      -1.937   0.977   0.788  0.00  0.00    -0.004 A 
ATOM      5  C6  UNL d   1      -0.642   0.474   0.623  0.00  0.00    -0.075 A 
ATOM      6  C7  UNL d   1      -0.365  -0.637  -0.348  0.00  0.00     0.076 C 
ATOM      7  C8  UNL d   1       0.406   1.027   1.370  0.00  0.00     0.001 A 
ENDROOT
BRANCH   1   8
ATOM      8  C1  UNL d   1       1.309   2.652   3.079  0.00  0.00     0.053 C 
ATOM      9  C   UNL d   1       2.094   3.689   2.291  0.00  0.00     0.018 C 
ENDBRANCH   1   8
TORSDOF 1
ENDMDL
