MODEL 1
REMARK minimizedAffinity -2.27855921
REMARK minimizedRMSD -1
REMARK  1 active torsions:
REMARK  status: ('A' for Active; 'I' for Inactive)
REMARK    1  A    between atoms: C1_2  and  C2_3 
ROOT
ATOM      1  C2  UNL d   1       0.093  -0.426   0.248  0.00  0.00    -0.073 A 
ATOM      2  C3  UNL d   1       0.985  -0.520   1.322  0.00  0.00    -0.002 A 
ATOM      3  C4  UNL d   1       0.939   0.411   2.360  0.00  0.00     0.004 A 
ATOM      4  C5  UNL d   1      -0.003   1.439   2.340  0.00  0.00    -0.004 A 
ATOM      5  C6  UNL d   1      -0.911   1.543   1.281  0.00  0.00    -0.075 A 
ATOM      6  C7  UNL d   1      -1.928   2.645   1.242  0.00  0.00     0.076 C 
ATOM      7  C8  UNL d   1      -0.856   0.606   0.240  0.00  0.00     0.001 A 
ENDROOT
BRANCH   1   8
ATOM      8  C1  UNL d   1       0.135  -1.433  -0.873  0.00  0.00     0.053 C 
ATOM      9  C   UNL d   1      -0.292  -2.817  -0.411  0.00  0.00     0.018 C 
ENDBRANCH   1   8
TORSDOF 1
ENDMDL
