MODEL 1
REMARK minimizedAffinity -4.55476618
REMARK minimizedRMSD -1
REMARK  1 active torsions:
REMARK  status: ('A' for Active; 'I' for Inactive)
REMARK    1  A    between atoms: C1_2  and  C2_3 
ROOT
ATOM      1  C2  UNL d   1       0.165  -0.322  -0.586  0.00  0.00    -0.073 A 
ATOM      2  C3  UNL d   1       0.245   0.425  -1.767  0.00  0.00    -0.002 A 
ATOM      3  C4  UNL d   1      -0.249   1.730  -1.811  0.00  0.00     0.004 A 
ATOM      4  C5  UNL d   1      -0.821   2.302  -0.676  0.00  0.00    -0.004 A 
ATOM      5  C6  UNL d   1      -0.899   1.576   0.517  0.00  0.00    -0.075 A 
ATOM      6  C7  UNL d   1      -1.514   2.177   1.747  0.00  0.00     0.076 C 
ATOM      7  C8  UNL d   1      -0.403   0.266   0.553  0.00  0.00     0.001 A 
ENDROOT
BRANCH   1   8
ATOM      8  C1  UNL d   1       0.703  -1.728  -0.532  0.00  0.00     0.053 C 
ATOM      9  C   UNL d   1      -0.304  -2.744  -1.047  0.00  0.00     0.018 C 
ENDBRANCH   1   8
TORSDOF 1
ENDMDL
