MODEL 1
REMARK minimizedAffinity -0.768755734
REMARK minimizedRMSD -1
REMARK  2 active torsions:
REMARK  status: ('A' for Active; 'I' for Inactive)
REMARK    1  A    between atoms: C2'_3  and  C1'_4 
REMARK    2  A    between atoms: C1'_4  and  C1_5 
ROOT
ATOM      1  C1  I4B d   1       5.290  -0.416   1.594  0.00  0.00    -0.075 A 
ATOM      2  C2  I4B d   1       4.043  -0.484   1.025  0.00  0.00     0.003 A 
ATOM      3  C3  I4B d   1       3.465   0.667   0.437  0.00  0.00     0.002 A 
ATOM      4  C4  I4B d   1       4.143   1.868   0.485  0.00  0.00    -0.004 A 
ATOM      5  C5  I4B d   1       5.417   1.929   1.041  0.00  0.00     0.002 A 
ATOM      6  C6  I4B d   1       6.000   0.777   1.589  0.00  0.00     0.003 A 
ENDROOT
BRANCH   1   7
ATOM      7  C1' I4B d   1       5.857  -1.643   2.235  0.00  0.00     0.060 C 
BRANCH   7   8
ATOM      8  C2' I4B d   1       5.302  -1.733   3.642  0.00  0.00    -0.013 C 
ATOM      9  C4' I4B d   1       6.000  -0.770   4.565  0.00  0.00     0.013 C 
ATOM     10  C3' I4B d   1       3.831  -1.453   3.578  0.00  0.00     0.013 C 
ENDBRANCH   7   8
ENDBRANCH   1   7
TORSDOF 2
ENDMDL
