MODEL 1
REMARK minimizedAffinity 2.15195966
REMARK minimizedRMSD -1
REMARK  2 active torsions:
REMARK  status: ('A' for Active; 'I' for Inactive)
REMARK    1  A    between atoms: C2'_3  and  C1'_4 
REMARK    2  A    between atoms: C1'_4  and  C1_5 
ROOT
ATOM      1  C1  I4B d   1       5.639   0.860   1.095  0.00  0.00    -0.075 A 
ATOM      2  C2  I4B d   1       4.931   0.967  -0.077  0.00  0.00     0.003 A 
ATOM      3  C3  I4B d   1       4.549   2.240  -0.565  0.00  0.00     0.002 A 
ATOM      4  C4  I4B d   1       4.849   3.368   0.171  0.00  0.00    -0.004 A 
ATOM      5  C5  I4B d   1       5.586   3.259   1.346  0.00  0.00     0.002 A 
ATOM      6  C6  I4B d   1       5.995   1.999   1.805  0.00  0.00     0.003 A 
ENDROOT
BRANCH   1   7
ATOM      7  C1' I4B d   1       5.998  -0.502   1.598  0.00  0.00     0.060 C 
BRANCH   7   8
ATOM      8  C2' I4B d   1       4.791  -1.066   2.321  0.00  0.00    -0.013 C 
ATOM      9  C4' I4B d   1       4.916  -0.887   3.811  0.00  0.00     0.013 C 
ATOM     10  C3' I4B d   1       3.570  -0.374   1.792  0.00  0.00     0.013 C 
ENDBRANCH   7   8
ENDBRANCH   1   7
TORSDOF 2
ENDMDL
