MODEL 1
REMARK minimizedAffinity -2.8561604
REMARK minimizedRMSD -1
REMARK  2 active torsions:
REMARK  status: ('A' for Active; 'I' for Inactive)
REMARK    1  A    between atoms: C2'_3  and  C1'_4 
REMARK    2  A    between atoms: C1'_4  and  C1_5 
ROOT
ATOM      1  C1  I4B d   1      -2.790   1.876   3.298  0.00  0.00    -0.075 A 
ATOM      2  C2  I4B d   1      -1.644   2.601   3.509  0.00  0.00     0.003 A 
ATOM      3  C3  I4B d   1      -0.415   2.170   2.954  0.00  0.00     0.002 A 
ATOM      4  C4  I4B d   1      -0.369   0.990   2.241  0.00  0.00    -0.004 A 
ATOM      5  C5  I4B d   1      -1.536   0.268   2.008  0.00  0.00     0.002 A 
ATOM      6  C6  I4B d   1      -2.757   0.720   2.529  0.00  0.00     0.003 A 
ENDROOT
BRANCH   1   7
ATOM      7  C1' I4B d   1      -4.065   2.343   3.927  0.00  0.00     0.060 C 
BRANCH   7   8
ATOM      8  C2' I4B d   1      -4.928   1.125   4.191  0.00  0.00    -0.013 C 
ATOM      9  C4' I4B d   1      -5.520   1.168   5.575  0.00  0.00     0.013 C 
ATOM     10  C3' I4B d   1      -6.000   1.081   3.144  0.00  0.00     0.013 C 
ENDBRANCH   7   8
ENDBRANCH   1   7
TORSDOF 2
ENDMDL
