MODEL 1
REMARK minimizedAffinity 1.65028858
REMARK minimizedRMSD -1
REMARK  2 active torsions:
REMARK  status: ('A' for Active; 'I' for Inactive)
REMARK    1  A    between atoms: C2'_3  and  C1'_4 
REMARK    2  A    between atoms: C1'_4  and  C1_5 
ROOT
ATOM      1  C1  I4B d   1      -3.748   1.876   3.659  0.00  0.00    -0.075 A 
ATOM      2  C2  I4B d   1      -3.871   0.509   3.680  0.00  0.00     0.003 A 
ATOM      3  C3  I4B d   1      -2.758  -0.312   3.376  0.00  0.00     0.002 A 
ATOM      4  C4  I4B d   1      -1.563   0.272   3.009  0.00  0.00    -0.004 A 
ATOM      5  C5  I4B d   1      -1.433   1.657   3.010  0.00  0.00     0.002 A 
ATOM      6  C6  I4B d   1      -2.529   2.465   3.349  0.00  0.00     0.003 A 
ENDROOT
BRANCH   1   7
ATOM      7  C1' I4B d   1      -4.952   2.713   3.954  0.00  0.00     0.060 C 
BRANCH   7   8
ATOM      8  C2' I4B d   1      -5.031   2.905   5.455  0.00  0.00    -0.013 C 
ATOM      9  C4' I4B d   1      -5.451   4.308   5.804  0.00  0.00     0.013 C 
ATOM     10  C3' I4B d   1      -5.999   1.898   6.000  0.00  0.00     0.013 C 
ENDBRANCH   7   8
ENDBRANCH   1   7
TORSDOF 2
ENDMDL
