MODEL 1
REMARK minimizedAffinity 6.19419718
REMARK minimizedRMSD -1
REMARK  2 active torsions:
REMARK  status: ('A' for Active; 'I' for Inactive)
REMARK    1  A    between atoms: C2'_3  and  C1'_4 
REMARK    2  A    between atoms: C1'_4  and  C1_5 
ROOT
ATOM      1  C1  I4B d   1      -3.221   1.864   4.309  0.00  0.00    -0.075 A 
ATOM      2  C2  I4B d   1      -3.859   0.650   4.249  0.00  0.00     0.003 A 
ATOM      3  C3  I4B d   1      -3.378  -0.366   3.388  0.00  0.00     0.002 A 
ATOM      4  C4  I4B d   1      -2.294  -0.109   2.573  0.00  0.00    -0.004 A 
ATOM      5  C5  I4B d   1      -1.634   1.114   2.653  0.00  0.00     0.002 A 
ATOM      6  C6  I4B d   1      -2.093   2.103   3.535  0.00  0.00     0.003 A 
ENDROOT
BRANCH   1   7
ATOM      7  C1' I4B d   1      -3.775   2.926   5.205  0.00  0.00     0.060 C 
BRANCH   7   8
ATOM      8  C2' I4B d   1      -5.276   2.733   5.285  0.00  0.00    -0.013 C 
ATOM      9  C4' I4B d   1      -5.624   1.454   6.000  0.00  0.00     0.013 C 
ATOM     10  C3' I4B d   1      -5.859   3.922   5.988  0.00  0.00     0.013 C 
ENDBRANCH   7   8
ENDBRANCH   1   7
TORSDOF 2
ENDMDL
