MODEL 1
REMARK minimizedAffinity 5.65006161
REMARK minimizedRMSD -1
REMARK  2 active torsions:
REMARK  status: ('A' for Active; 'I' for Inactive)
REMARK    1  A    between atoms: C2'_3  and  C1'_4 
REMARK    2  A    between atoms: C1'_4  and  C1_5 
ROOT
ATOM      1  C1  I4B d   1       3.067  -1.259  -2.003  0.00  0.00    -0.075 A 
ATOM      2  C2  I4B d   1       3.151  -0.389  -3.062  0.00  0.00     0.003 A 
ATOM      3  C3  I4B d   1       3.116   1.009  -2.840  0.00  0.00     0.002 A 
ATOM      4  C4  I4B d   1       2.946   1.490  -1.558  0.00  0.00    -0.004 A 
ATOM      5  C5  I4B d   1       2.884   0.607  -0.484  0.00  0.00     0.002 A 
ATOM      6  C6  I4B d   1       2.958  -0.776  -0.706  0.00  0.00     0.003 A 
ENDROOT
BRANCH   1   7
ATOM      7  C1' I4B d   1       3.075  -2.730  -2.276  0.00  0.00     0.060 C 
BRANCH   7   8
ATOM      8  C2' I4B d   1       1.698  -3.119  -2.773  0.00  0.00    -0.013 C 
ATOM      9  C4' I4B d   1       1.784  -3.939  -4.033  0.00  0.00     0.013 C 
ATOM     10  C3' I4B d   1       1.008  -3.879  -1.679  0.00  0.00     0.013 C 
ENDBRANCH   7   8
ENDBRANCH   1   7
TORSDOF 2
ENDMDL
