MODEL 1
REMARK minimizedAffinity 1.88388383
REMARK minimizedRMSD -1
REMARK  2 active torsions:
REMARK  status: ('A' for Active; 'I' for Inactive)
REMARK    1  A    between atoms: C2'_3  and  C1'_4 
REMARK    2  A    between atoms: C1'_4  and  C1_5 
ROOT
ATOM      1  C1  I4B d   1      -1.823   1.814   2.379  0.00  0.00    -0.075 A 
ATOM      2  C2  I4B d   1      -0.598   2.386   2.146  0.00  0.00     0.003 A 
ATOM      3  C3  I4B d   1       0.481   1.597   1.680  0.00  0.00     0.002 A 
ATOM      4  C4  I4B d   1       0.306   0.239   1.510  0.00  0.00    -0.004 A 
ATOM      5  C5  I4B d   1      -0.944  -0.336   1.725  0.00  0.00     0.002 A 
ATOM      6  C6  I4B d   1      -2.018   0.458   2.150  0.00  0.00     0.003 A 
ENDROOT
BRANCH   1   7
ATOM      7  C1' I4B d   1      -2.932   2.671   2.902  0.00  0.00     0.060 C 
BRANCH   7   8
ATOM      8  C2' I4B d   1      -3.506   1.994   4.129  0.00  0.00    -0.013 C 
ATOM      9  C4' I4B d   1      -4.142   2.996   5.057  0.00  0.00     0.013 C 
ATOM     10  C3' I4B d   1      -4.503   0.972   3.671  0.00  0.00     0.013 C 
ENDBRANCH   7   8
ENDBRANCH   1   7
TORSDOF 2
ENDMDL
