MODEL 1
REMARK minimizedAffinity 8.63995552
REMARK minimizedRMSD -1
REMARK  2 active torsions:
REMARK  status: ('A' for Active; 'I' for Inactive)
REMARK    1  A    between atoms: C2'_3  and  C1'_4 
REMARK    2  A    between atoms: C1'_4  and  C1_5 
ROOT
ATOM      1  C1  I4B d   1      -3.468   1.389   3.265  0.00  0.00    -0.075 A 
ATOM      2  C2  I4B d   1      -2.453   2.312   3.226  0.00  0.00     0.003 A 
ATOM      3  C3  I4B d   1      -1.153   1.925   2.818  0.00  0.00     0.002 A 
ATOM      4  C4  I4B d   1      -0.904   0.604   2.507  0.00  0.00    -0.004 A 
ATOM      5  C5  I4B d   1      -1.940  -0.326   2.525  0.00  0.00     0.002 A 
ATOM      6  C6  I4B d   1      -3.233   0.072   2.894  0.00  0.00     0.003 A 
ENDROOT
BRANCH   1   7
ATOM      7  C1' I4B d   1      -4.821   1.825   3.732  0.00  0.00     0.060 C 
BRANCH   7   8
ATOM      8  C2' I4B d   1      -4.630   2.963   4.715  0.00  0.00    -0.013 C 
ATOM      9  C4' I4B d   1      -5.916   3.716   4.933  0.00  0.00     0.013 C 
ATOM     10  C3' I4B d   1      -4.118   2.383   6.000  0.00  0.00     0.013 C 
ENDBRANCH   7   8
ENDBRANCH   1   7
TORSDOF 2
ENDMDL
