MODEL 1
REMARK minimizedAffinity 4.51916933
REMARK minimizedRMSD -1
REMARK  2 active torsions:
REMARK  status: ('A' for Active; 'I' for Inactive)
REMARK    1  A    between atoms: C2'_3  and  C1'_4 
REMARK    2  A    between atoms: C1'_4  and  C1_5 
ROOT
ATOM      1  C1  I4B d   1      -3.472   1.738   3.823  0.00  0.00    -0.075 A 
ATOM      2  C2  I4B d   1      -2.904   2.158   5.000  0.00  0.00     0.003 A 
ATOM      3  C3  I4B d   1      -3.700   2.773   5.996  0.00  0.00     0.002 A 
ATOM      4  C4  I4B d   1      -5.041   2.992   5.755  0.00  0.00    -0.004 A 
ATOM      5  C5  I4B d   1      -5.620   2.545   4.571  0.00  0.00     0.002 A 
ATOM      6  C6  I4B d   1      -4.834   1.902   3.604  0.00  0.00     0.003 A 
ENDROOT
BRANCH   1   7
ATOM      7  C1' I4B d   1      -2.596   1.122   2.779  0.00  0.00     0.060 C 
BRANCH   7   8
ATOM      8  C2' I4B d   1      -1.176   1.590   3.025  0.00  0.00    -0.013 C 
ATOM      9  C4' I4B d   1      -0.175   0.566   2.559  0.00  0.00     0.013 C 
ATOM     10  C3' I4B d   1      -0.989   2.895   2.310  0.00  0.00     0.013 C 
ENDBRANCH   7   8
ENDBRANCH   1   7
TORSDOF 2
ENDMDL
