MODEL 1
REMARK minimizedAffinity 6.08741474
REMARK minimizedRMSD -1
REMARK  2 active torsions:
REMARK  status: ('A' for Active; 'I' for Inactive)
REMARK    1  A    between atoms: C2'_3  and  C1'_4 
REMARK    2  A    between atoms: C1'_4  and  C1_5 
ROOT
ATOM      1  C1  I4B d   1      -3.706   1.866   3.415  0.00  0.00    -0.075 A 
ATOM      2  C2  I4B d   1      -3.659   0.498   3.513  0.00  0.00     0.003 A 
ATOM      3  C3  I4B d   1      -2.549  -0.216   3.000  0.00  0.00     0.002 A 
ATOM      4  C4  I4B d   1      -1.539   0.469   2.357  0.00  0.00    -0.004 A 
ATOM      5  C5  I4B d   1      -1.577   1.858   2.278  0.00  0.00     0.002 A 
ATOM      6  C6  I4B d   1      -2.662   2.563   2.821  0.00  0.00     0.003 A 
ENDROOT
BRANCH   1   7
ATOM      7  C1' I4B d   1      -4.909   2.585   3.937  0.00  0.00     0.060 C 
BRANCH   7   8
ATOM      8  C2' I4B d   1      -4.804   2.634   5.448  0.00  0.00    -0.013 C 
ATOM      9  C4' I4B d   1      -5.431   3.889   5.998  0.00  0.00     0.013 C 
ATOM     10  C3' I4B d   1      -5.471   1.410   5.998  0.00  0.00     0.013 C 
ENDBRANCH   7   8
ENDBRANCH   1   7
TORSDOF 2
ENDMDL
