MODEL 1
REMARK minimizedAffinity 1.77908528
REMARK minimizedRMSD -1
REMARK  2 active torsions:
REMARK  status: ('A' for Active; 'I' for Inactive)
REMARK    1  A    between atoms: C2'_3  and  C1'_4 
REMARK    2  A    between atoms: C1'_4  and  C1_5 
ROOT
ATOM      1  C1  I4B d   1      -2.883   1.875   3.152  0.00  0.00    -0.075 A 
ATOM      2  C2  I4B d   1      -2.565   2.901   2.298  0.00  0.00     0.003 A 
ATOM      3  C3  I4B d   1      -1.256   3.007   1.768  0.00  0.00     0.002 A 
ATOM      4  C4  I4B d   1      -0.291   2.100   2.155  0.00  0.00    -0.004 A 
ATOM      5  C5  I4B d   1      -0.621   1.047   3.003  0.00  0.00     0.002 A 
ATOM      6  C6  I4B d   1      -1.929   0.926   3.496  0.00  0.00     0.003 A 
ENDROOT
BRANCH   1   7
ATOM      7  C1' I4B d   1      -4.266   1.812   3.720  0.00  0.00     0.060 C 
BRANCH   7   8
ATOM      8  C2' I4B d   1      -4.353   2.818   4.849  0.00  0.00    -0.013 C 
ATOM      9  C4' I4B d   1      -5.782   3.050   5.264  0.00  0.00     0.013 C 
ATOM     10  C3' I4B d   1      -3.534   2.301   5.994  0.00  0.00     0.013 C 
ENDBRANCH   7   8
ENDBRANCH   1   7
TORSDOF 2
ENDMDL
