MODEL 1
REMARK minimizedAffinity 1.82573068
REMARK minimizedRMSD -1
REMARK  2 active torsions:
REMARK  status: ('A' for Active; 'I' for Inactive)
REMARK    1  A    between atoms: C2'_3  and  C1'_4 
REMARK    2  A    between atoms: C1'_4  and  C1_5 
ROOT
ATOM      1  C1  I4B d   1      -0.957  -3.938  -1.681  0.00  0.00    -0.075 A 
ATOM      2  C2  I4B d   1      -1.724  -4.276  -0.593  0.00  0.00     0.003 A 
ATOM      3  C3  I4B d   1      -3.053  -3.802  -0.483  0.00  0.00     0.002 A 
ATOM      4  C4  I4B d   1      -3.556  -2.958  -1.451  0.00  0.00    -0.004 A 
ATOM      5  C5  I4B d   1      -2.786  -2.635  -2.565  0.00  0.00     0.002 A 
ATOM      6  C6  I4B d   1      -1.483  -3.138  -2.687  0.00  0.00     0.003 A 
ENDROOT
BRANCH   1   7
ATOM      7  C1' I4B d   1       0.454  -4.429  -1.749  0.00  0.00     0.060 C 
BRANCH   7   8
ATOM      8  C2' I4B d   1       1.174  -3.633  -2.818  0.00  0.00    -0.013 C 
ATOM      9  C4' I4B d   1       2.153  -2.664  -2.210  0.00  0.00     0.013 C 
ATOM     10  C3' I4B d   1       1.867  -4.603  -3.729  0.00  0.00     0.013 C 
ENDBRANCH   7   8
ENDBRANCH   1   7
TORSDOF 2
ENDMDL
