MODEL 1
REMARK minimizedAffinity 11.8897209
REMARK minimizedRMSD -1
REMARK  0 active torsions:
REMARK  status: ('A' for Active; 'I' for Inactive)
ROOT
ATOM      1  C   UNL d   1       2.336  -0.214   0.255  0.00  0.00     0.124 A 
ATOM      2  C1  UNL d   1       1.821  -1.424   0.699  0.00  0.00     0.062 A 
ATOM      3  C2  UNL d   1       2.645  -2.543   0.791  0.00  0.00     0.162 A 
ATOM      4  C3  UNL d   1       3.992  -2.456   0.439  0.00  0.00    -0.034 A 
ATOM      5  C4  UNL d   1       4.501  -1.236  -0.007  0.00  0.00     0.162 A 
ATOM      6  C5  UNL d   1       3.674  -0.121  -0.098  0.00  0.00     0.062 A 
ATOM      7  F   UNL d   1       4.173   1.048  -0.527  0.00  0.00    -0.097 F 
ATOM      8  F1  UNL d   1       5.792  -1.117  -0.354  0.00  0.00    -0.096 F 
ATOM      9  I   UNL d   1       5.226  -4.126   0.575  0.00  0.00    -0.060 I 
ATOM     10  F2  UNL d   1       2.121  -3.700   1.223  0.00  0.00    -0.096 F 
ATOM     11  F3  UNL d   1       0.528  -1.517   1.039  0.00  0.00    -0.097 F 
ATOM     12  F4  UNL d   1       1.541   0.860   0.166  0.00  0.00    -0.092 F 
ENDROOT
TORSDOF 0
ENDMDL
