MODEL 1
REMARK minimizedAffinity 13.3706369
REMARK minimizedRMSD -1
REMARK  0 active torsions:
REMARK  status: ('A' for Active; 'I' for Inactive)
ROOT
ATOM      1  C   UNL d   1      -4.172  -1.188  -3.745  0.00  0.00     0.124 A 
ATOM      2  C1  UNL d   1      -4.460  -0.521  -2.563  0.00  0.00     0.062 A 
ATOM      3  C2  UNL d   1      -4.326   0.863  -2.489  0.00  0.00     0.162 A 
ATOM      4  C3  UNL d   1      -3.904   1.589  -3.603  0.00  0.00    -0.034 A 
ATOM      5  C4  UNL d   1      -3.615   0.911  -4.788  0.00  0.00     0.162 A 
ATOM      6  C5  UNL d   1      -3.750  -0.472  -4.857  0.00  0.00     0.062 A 
ATOM      7  F   UNL d   1      -3.471  -1.115  -6.000  0.00  0.00    -0.097 F 
ATOM      8  F1  UNL d   1      -3.207   1.578  -5.878  0.00  0.00    -0.096 F 
ATOM      9  I   UNL d   1      -3.703   3.658  -3.497  0.00  0.00    -0.060 I 
ATOM     10  F2  UNL d   1      -4.611   1.481  -1.334  0.00  0.00    -0.096 F 
ATOM     11  F3  UNL d   1      -4.867  -1.211  -1.487  0.00  0.00    -0.097 F 
ATOM     12  F4  UNL d   1      -4.300  -2.520  -3.813  0.00  0.00    -0.092 F 
ENDROOT
TORSDOF 0
ENDMDL
