MODEL 1
REMARK minimizedAffinity 12.638876
REMARK minimizedRMSD -1
REMARK  0 active torsions:
REMARK  status: ('A' for Active; 'I' for Inactive)
ROOT
ATOM      1  C   UNL d   1       2.441  -0.093   0.286  0.00  0.00     0.124 A 
ATOM      2  C1  UNL d   1       1.901  -1.333   0.596  0.00  0.00     0.062 A 
ATOM      3  C2  UNL d   1       2.718  -2.458   0.650  0.00  0.00     0.162 A 
ATOM      4  C3  UNL d   1       4.085  -2.348   0.394  0.00  0.00    -0.034 A 
ATOM      5  C4  UNL d   1       4.621  -1.097   0.082  0.00  0.00     0.162 A 
ATOM      6  C5  UNL d   1       3.799   0.024   0.029  0.00  0.00     0.062 A 
ATOM      7  F   UNL d   1       4.323   1.222  -0.270  0.00  0.00    -0.097 F 
ATOM      8  F1  UNL d   1       5.930  -0.956  -0.170  0.00  0.00    -0.096 F 
ATOM      9  I   UNL d   1       5.311  -4.029   0.473  0.00  0.00    -0.060 I 
ATOM     10  F2  UNL d   1       2.170  -3.645   0.952  0.00  0.00    -0.096 F 
ATOM     11  F3  UNL d   1       0.588  -1.449   0.844  0.00  0.00    -0.097 F 
ATOM     12  F4  UNL d   1       1.652   0.988   0.234  0.00  0.00    -0.092 F 
ENDROOT
TORSDOF 0
ENDMDL
