MODEL 1
REMARK minimizedAffinity 9.04473019
REMARK minimizedRMSD -1
REMARK  0 active torsions:
REMARK  status: ('A' for Active; 'I' for Inactive)
ROOT
ATOM      1  C   UNL d   1      -4.291  -1.886  -2.673  0.00  0.00     0.124 A 
ATOM      2  C1  UNL d   1      -3.599  -0.771  -2.221  0.00  0.00     0.062 A 
ATOM      3  C2  UNL d   1      -3.454   0.343  -3.043  0.00  0.00     0.162 A 
ATOM      4  C3  UNL d   1      -4.003   0.348  -4.326  0.00  0.00    -0.034 A 
ATOM      5  C4  UNL d   1      -4.697  -0.778  -4.773  0.00  0.00     0.162 A 
ATOM      6  C5  UNL d   1      -4.840  -1.888  -3.947  0.00  0.00     0.062 A 
ATOM      7  F   UNL d   1      -5.509  -2.965  -4.385  0.00  0.00    -0.097 F 
ATOM      8  F1  UNL d   1      -5.238  -0.807  -6.000  0.00  0.00    -0.096 F 
ATOM      9  I   UNL d   1      -3.788   2.011  -5.558  0.00  0.00    -0.060 I 
ATOM     10  F2  UNL d   1      -2.780   1.407  -2.581  0.00  0.00    -0.096 F 
ATOM     11  F3  UNL d   1      -3.067  -0.766  -0.990  0.00  0.00    -0.097 F 
ATOM     12  F4  UNL d   1      -4.429  -2.957  -1.880  0.00  0.00    -0.092 F 
ENDROOT
TORSDOF 0
ENDMDL
