MODEL 1
REMARK minimizedAffinity 7.80698442
REMARK minimizedRMSD -1
REMARK  0 active torsions:
REMARK  status: ('A' for Active; 'I' for Inactive)
ROOT
ATOM      1  C   UNL d   1      -2.571  -1.161  -4.719  0.00  0.00     0.124 A 
ATOM      2  C1  UNL d   1      -2.259   0.045  -5.331  0.00  0.00     0.062 A 
ATOM      3  C2  UNL d   1      -3.207   1.061  -5.400  0.00  0.00     0.162 A 
ATOM      4  C3  UNL d   1      -4.477   0.877  -4.854  0.00  0.00    -0.034 A 
ATOM      5  C4  UNL d   1      -4.784  -0.339  -4.240  0.00  0.00     0.162 A 
ATOM      6  C5  UNL d   1      -3.833  -1.352  -4.174  0.00  0.00     0.062 A 
ATOM      7  F   UNL d   1      -4.136  -2.516  -3.582  0.00  0.00    -0.097 F 
ATOM      8  F1  UNL d   1      -5.996  -0.550  -3.705  0.00  0.00    -0.096 F 
ATOM      9  I   UNL d   1      -5.898   2.394  -4.955  0.00  0.00    -0.060 I 
ATOM     10  F2  UNL d   1      -2.878   2.216  -5.998  0.00  0.00    -0.096 F 
ATOM     11  F3  UNL d   1      -1.040   0.231  -5.859  0.00  0.00    -0.097 F 
ATOM     12  F4  UNL d   1      -1.656  -2.137  -4.655  0.00  0.00    -0.092 F 
ENDROOT
TORSDOF 0
ENDMDL
