MODEL 1
REMARK minimizedAffinity 2.94582677
REMARK minimizedRMSD -1
REMARK  0 active torsions:
REMARK  status: ('A' for Active; 'I' for Inactive)
ROOT
ATOM      1  C   UNL d   1      -4.015  -1.165  -3.794  0.00  0.00     0.124 A 
ATOM      2  C1  UNL d   1      -4.194  -0.300  -4.864  0.00  0.00     0.062 A 
ATOM      3  C2  UNL d   1      -3.797   1.030  -4.764  0.00  0.00     0.162 A 
ATOM      4  C3  UNL d   1      -3.216   1.504  -3.588  0.00  0.00    -0.034 A 
ATOM      5  C4  UNL d   1      -3.040   0.629  -2.515  0.00  0.00     0.162 A 
ATOM      6  C5  UNL d   1      -3.438  -0.700  -2.620  0.00  0.00     0.062 A 
ATOM      7  F   UNL d   1      -3.264  -1.534  -1.585  0.00  0.00    -0.097 F 
ATOM      8  F1  UNL d   1      -2.484   1.051  -1.369  0.00  0.00    -0.096 F 
ATOM      9  I   UNL d   1      -2.621   3.493  -3.433  0.00  0.00    -0.060 I 
ATOM     10  F2  UNL d   1      -3.983   1.844  -5.814  0.00  0.00    -0.096 F 
ATOM     11  F3  UNL d   1      -4.752  -0.746  -5.999  0.00  0.00    -0.097 F 
ATOM     12  F4  UNL d   1      -4.399  -2.444  -3.893  0.00  0.00    -0.092 F 
ENDROOT
TORSDOF 0
ENDMDL
