MODEL 1
REMARK minimizedAffinity 5.40723276
REMARK minimizedRMSD -1
REMARK  0 active torsions:
REMARK  status: ('A' for Active; 'I' for Inactive)
ROOT
ATOM      1  C   UNL d   1       3.238  -3.163   0.670  0.00  0.00     0.124 A 
ATOM      2  C1  UNL d   1       2.675  -2.371   1.661  0.00  0.00     0.062 A 
ATOM      3  C2  UNL d   1       3.172  -2.416   2.960  0.00  0.00     0.162 A 
ATOM      4  C3  UNL d   1       4.239  -3.257   3.277  0.00  0.00    -0.034 A 
ATOM      5  C4  UNL d   1       4.799  -4.052   2.275  0.00  0.00     0.162 A 
ATOM      6  C5  UNL d   1       4.299  -4.003   0.978  0.00  0.00     0.062 A 
ATOM      7  F   UNL d   1       4.844  -4.770   0.022  0.00  0.00    -0.097 F 
ATOM      8  F1  UNL d   1       5.826  -4.872   2.545  0.00  0.00    -0.096 F 
ATOM      9  I   UNL d   1       4.984  -3.328   5.218  0.00  0.00    -0.060 I 
ATOM     10  F2  UNL d   1       2.608  -1.639   3.897  0.00  0.00    -0.096 F 
ATOM     11  F3  UNL d   1       1.649  -1.559   1.366  0.00  0.00    -0.097 F 
ATOM     12  F4  UNL d   1       2.757  -3.118  -0.579  0.00  0.00    -0.092 F 
ENDROOT
TORSDOF 0
ENDMDL
