MODEL 1
REMARK minimizedAffinity 6.98931217
REMARK minimizedRMSD -1
REMARK  0 active torsions:
REMARK  status: ('A' for Active; 'I' for Inactive)
ROOT
ATOM      1  C   UNL d   1       4.565  -1.709   0.317  0.00  0.00     0.124 A 
ATOM      2  C1  UNL d   1       3.332  -1.125   0.061  0.00  0.00     0.062 A 
ATOM      3  C2  UNL d   1       2.164  -1.723   0.527  0.00  0.00     0.162 A 
ATOM      4  C3  UNL d   1       2.224  -2.911   1.255  0.00  0.00    -0.034 A 
ATOM      5  C4  UNL d   1       3.468  -3.493   1.508  0.00  0.00     0.162 A 
ATOM      6  C5  UNL d   1       4.632  -2.891   1.040  0.00  0.00     0.062 A 
ATOM      7  F   UNL d   1       5.823  -3.456   1.288  0.00  0.00    -0.097 F 
ATOM      8  F1  UNL d   1       3.562  -4.635   2.205  0.00  0.00    -0.096 F 
ATOM      9  I   UNL d   1       0.481  -3.808   1.954  0.00  0.00    -0.060 I 
ATOM     10  F2  UNL d   1       0.987  -1.137   0.265  0.00  0.00    -0.096 F 
ATOM     11  F3  UNL d   1       3.264   0.017  -0.638  0.00  0.00    -0.097 F 
ATOM     12  F4  UNL d   1       5.686  -1.132  -0.134  0.00  0.00    -0.092 F 
ENDROOT
TORSDOF 0
ENDMDL
