MODEL 1
REMARK minimizedAffinity -4.64204741
REMARK minimizedRMSD -1
REMARK  0 active torsions:
REMARK  status: ('A' for Active; 'I' for Inactive)
ROOT
ATOM      1  C2' OXE d   1       0.872   1.892   0.030  0.00  0.00     0.078 C 
ATOM      2  C1' OXE d   1       2.648  -0.277   0.177  0.00  0.00     0.078 C 
ATOM      3  C1  OXE d   1       1.202  -0.527   0.526  0.00  0.00    -0.078 A 
ATOM      4  C2  OXE d   1       0.349   0.551   0.497  0.00  0.00    -0.078 A 
ATOM      5  C3  OXE d   1      -1.005   0.365   0.757  0.00  0.00     0.003 A 
ATOM      6  C4  OXE d   1      -1.478  -0.877   1.198  0.00  0.00    -0.002 A 
ATOM      7  C5  OXE d   1      -0.619  -1.978   1.273  0.00  0.00    -0.002 A 
ATOM      8  C6  OXE d   1       0.713  -1.830   0.901  0.00  0.00     0.003 A 
ENDROOT
TORSDOF 0
ENDMDL
