MODEL 1
REMARK minimizedAffinity -1.91077101
REMARK minimizedRMSD -1
REMARK  0 active torsions:
REMARK  status: ('A' for Active; 'I' for Inactive)
ROOT
ATOM      1  C2' OXE d   1      -1.071   0.271  -1.051  0.00  0.00     0.078 C 
ATOM      2  C1' OXE d   1      -0.001   2.320   0.543  0.00  0.00     0.078 C 
ATOM      3  C1  OXE d   1       0.761   1.020   0.462  0.00  0.00    -0.078 A 
ATOM      4  C2  OXE d   1       0.206   0.007  -0.283  0.00  0.00    -0.078 A 
ATOM      5  C3  OXE d   1       0.894  -1.193  -0.434  0.00  0.00     0.003 A 
ATOM      6  C4  OXE d   1       2.070  -1.432   0.288  0.00  0.00    -0.002 A 
ATOM      7  C5  OXE d   1       2.631  -0.428   1.084  0.00  0.00    -0.002 A 
ATOM      8  C6  OXE d   1       2.013   0.816   1.148  0.00  0.00     0.003 A 
ENDROOT
TORSDOF 0
ENDMDL
