MODEL 1
REMARK minimizedAffinity -5.31006718
REMARK minimizedRMSD -1
REMARK  0 active torsions:
REMARK  status: ('A' for Active; 'I' for Inactive)
ROOT
ATOM      1  C2' OXE d   1      -0.963  -0.264   0.304  0.00  0.00     0.078 C 
ATOM      2  C1' OXE d   1       0.982   1.602  -0.481  0.00  0.00     0.078 C 
ATOM      3  C1  OXE d   1       1.444   0.379   0.272  0.00  0.00    -0.078 A 
ATOM      4  C2  OXE d   1       0.480  -0.505   0.693  0.00  0.00    -0.078 A 
ATOM      5  C3  OXE d   1       0.856  -1.676   1.344  0.00  0.00     0.003 A 
ATOM      6  C4  OXE d   1       2.192  -1.887   1.709  0.00  0.00    -0.002 A 
ATOM      7  C5  OXE d   1       3.184  -0.979   1.324  0.00  0.00    -0.002 A 
ATOM      8  C6  OXE d   1       2.833   0.135   0.570  0.00  0.00     0.003 A 
ENDROOT
TORSDOF 0
ENDMDL
