MODEL 1
REMARK minimizedAffinity -5.81548214
REMARK minimizedRMSD -1
REMARK  0 active torsions:
REMARK  status: ('A' for Active; 'I' for Inactive)
ROOT
ATOM      1  C2' OXE d   1       1.447  -2.793   1.874  0.00  0.00     0.078 C 
ATOM      2  C1' OXE d   1       3.314  -0.833   1.131  0.00  0.00     0.078 C 
ATOM      3  C1  OXE d   1       1.850  -0.507   0.972  0.00  0.00    -0.078 A 
ATOM      4  C2  OXE d   1       0.945  -1.489   1.294  0.00  0.00    -0.078 A 
ATOM      5  C3  OXE d   1      -0.419  -1.221   1.217  0.00  0.00     0.003 A 
ATOM      6  C4  OXE d   1      -0.875  -0.015   0.670  0.00  0.00    -0.002 A 
ATOM      7  C5  OXE d   1       0.031   0.983   0.299  0.00  0.00    -0.002 A 
ATOM      8  C6  OXE d   1       1.393   0.771   0.483  0.00  0.00     0.003 A 
ENDROOT
TORSDOF 0
ENDMDL
