MODEL 1
REMARK minimizedAffinity -4.4942503
REMARK minimizedRMSD -1
REMARK  0 active torsions:
REMARK  status: ('A' for Active; 'I' for Inactive)
ROOT
ATOM      1  C2' OXE d   1      -0.750   0.723  -0.506  0.00  0.00     0.078 C 
ATOM      2  C1' OXE d   1       1.487   2.416  -0.607  0.00  0.00     0.078 C 
ATOM      3  C1  OXE d   1       1.664   1.053   0.013  0.00  0.00    -0.078 A 
ATOM      4  C2  OXE d   1       0.553   0.249   0.101  0.00  0.00    -0.078 A 
ATOM      5  C3  OXE d   1       0.673  -1.039   0.614  0.00  0.00     0.003 A 
ATOM      6  C4  OXE d   1       1.879  -1.466   1.183  0.00  0.00    -0.002 A 
ATOM      7  C5  OXE d   1       3.013  -0.648   1.140  0.00  0.00    -0.002 A 
ATOM      8  C6  OXE d   1       2.933   0.595   0.522  0.00  0.00     0.003 A 
ENDROOT
TORSDOF 0
ENDMDL
