MODEL 1
REMARK minimizedAffinity 1.70996726
REMARK minimizedRMSD -1
REMARK  0 active torsions:
REMARK  status: ('A' for Active; 'I' for Inactive)
ROOT
ATOM      1  C2' OXE d   1      -0.804   1.544  -0.575  0.00  0.00     0.078 C 
ATOM      2  C1' OXE d   1       0.422   3.918   0.286  0.00  0.00     0.078 C 
ATOM      3  C1  OXE d   1       0.981   2.613   0.795  0.00  0.00    -0.078 A 
ATOM      4  C2  OXE d   1       0.346   1.458   0.406  0.00  0.00    -0.078 A 
ATOM      5  C3  OXE d   1       0.854   0.225   0.803  0.00  0.00     0.003 A 
ATOM      6  C4  OXE d   1       1.911   0.155   1.718  0.00  0.00    -0.002 A 
ATOM      7  C5  OXE d   1       2.547   1.320   2.158  0.00  0.00    -0.002 A 
ATOM      8  C6  OXE d   1       2.123   2.553   1.674  0.00  0.00     0.003 A 
ENDROOT
TORSDOF 0
ENDMDL
