MODEL 1
REMARK minimizedAffinity 1.21655095
REMARK minimizedRMSD -1
REMARK  0 active torsions:
REMARK  status: ('A' for Active; 'I' for Inactive)
ROOT
ATOM      1  C2' OXE d   1       1.775  -1.104   3.614  0.00  0.00     0.078 C 
ATOM      2  C1' OXE d   1       2.435   1.437   2.619  0.00  0.00     0.078 C 
ATOM      3  C1  OXE d   1       1.314   0.687   1.944  0.00  0.00    -0.078 A 
ATOM      4  C2  OXE d   1       1.029  -0.575   2.408  0.00  0.00    -0.078 A 
ATOM      5  C3  OXE d   1      -0.031  -1.289   1.856  0.00  0.00     0.003 A 
ATOM      6  C4  OXE d   1      -0.710  -0.797   0.735  0.00  0.00    -0.002 A 
ATOM      7  C5  OXE d   1      -0.409   0.469   0.222  0.00  0.00    -0.002 A 
ATOM      8  C6  OXE d   1       0.569   1.240   0.840  0.00  0.00     0.003 A 
ENDROOT
TORSDOF 0
ENDMDL
