MODEL 1
REMARK minimizedAffinity -1.05241919
REMARK minimizedRMSD -1
REMARK  0 active torsions:
REMARK  status: ('A' for Active; 'I' for Inactive)
ROOT
ATOM      1  C2' OXE d   1       0.187   0.365   0.046  0.00  0.00     0.078 C 
ATOM      2  C1' OXE d   1      -0.556  -2.052   1.265  0.00  0.00     0.078 C 
ATOM      3  C1  OXE d   1       0.793  -1.475   1.612  0.00  0.00    -0.078 A 
ATOM      4  C2  OXE d   1       1.168  -0.316   0.976  0.00  0.00    -0.078 A 
ATOM      5  C3  OXE d   1       2.380   0.287   1.300  0.00  0.00     0.003 A 
ATOM      6  C4  OXE d   1       3.286  -0.355   2.153  0.00  0.00    -0.002 A 
ATOM      7  C5  OXE d   1       2.940  -1.556   2.782  0.00  0.00    -0.002 A 
ATOM      8  C6  OXE d   1       1.683  -2.106   2.555  0.00  0.00     0.003 A 
ENDROOT
TORSDOF 0
ENDMDL
