MODEL 1
REMARK minimizedAffinity -3.99935484
REMARK minimizedRMSD -1
REMARK  0 active torsions:
REMARK  status: ('A' for Active; 'I' for Inactive)
ROOT
ATOM      1  C2' OXE d   1       0.303   1.789   0.815  0.00  0.00     0.078 C 
ATOM      2  C1' OXE d   1      -0.597  -0.723  -0.057  0.00  0.00     0.078 C 
ATOM      3  C1  OXE d   1       0.789  -0.637   0.531  0.00  0.00    -0.078 A 
ATOM      4  C2  OXE d   1       1.239   0.604   0.912  0.00  0.00    -0.078 A 
ATOM      5  C3  OXE d   1       2.490   0.730   1.510  0.00  0.00     0.003 A 
ATOM      6  C4  OXE d   1       3.353  -0.369   1.587  0.00  0.00    -0.002 A 
ATOM      7  C5  OXE d   1       2.930  -1.635   1.168  0.00  0.00    -0.002 A 
ATOM      8  C6  OXE d   1       1.638  -1.794   0.678  0.00  0.00     0.003 A 
ENDROOT
TORSDOF 0
ENDMDL
