MODEL 1
REMARK minimizedAffinity -5.64001131
REMARK minimizedRMSD -1
REMARK  0 active torsions:
REMARK  status: ('A' for Active; 'I' for Inactive)
ROOT
ATOM      1  C2' OXE d   1      -0.347  -0.062   0.087  0.00  0.00     0.078 C 
ATOM      2  C1' OXE d   1      -0.901  -2.419   1.508  0.00  0.00     0.078 C 
ATOM      3  C1  OXE d   1       0.508  -1.884   1.556  0.00  0.00    -0.078 A 
ATOM      4  C2  OXE d   1       0.781  -0.756   0.820  0.00  0.00    -0.078 A 
ATOM      5  C3  OXE d   1       2.052  -0.189   0.872  0.00  0.00     0.003 A 
ATOM      6  C4  OXE d   1       3.092  -0.843   1.544  0.00  0.00    -0.002 A 
ATOM      7  C5  OXE d   1       2.844  -2.014   2.267  0.00  0.00    -0.002 A 
ATOM      8  C6  OXE d   1       1.551  -2.523   2.318  0.00  0.00     0.003 A 
ENDROOT
TORSDOF 0
ENDMDL
