MODEL 1
REMARK minimizedAffinity -4.57128143
REMARK minimizedRMSD -1
REMARK  0 active torsions:
REMARK  status: ('A' for Active; 'I' for Inactive)
ROOT
ATOM      1  C   UNL d   1       0.334  -1.106  -1.541  0.00  0.00     0.020 A 
ATOM      2  C1  UNL d   1      -0.038   0.174  -1.950  0.00  0.00     0.020 A 
ATOM      3  C2  UNL d   1      -0.087   1.216  -1.023  0.00  0.00     0.034 A 
ATOM      4  C3  UNL d   1       0.237   0.981   0.319  0.00  0.00     0.017 A 
ATOM      5  C4  UNL d   1       0.609  -0.304   0.728  0.00  0.00     0.017 A 
ATOM      6  C5  UNL d   1       0.657  -1.345  -0.205  0.00  0.00     0.034 A 
ATOM      7 Cl   UNL d   1       1.022  -0.672   2.366  0.00  0.00    -0.070 Cl
ATOM      8 Cl1  UNL d   1       0.155   2.317   1.411  0.00  0.00    -0.070 Cl
ENDROOT
TORSDOF 0
ENDMDL
