MODEL 1
REMARK minimizedAffinity -1.62507129
REMARK minimizedRMSD -1
REMARK  0 active torsions:
REMARK  status: ('A' for Active; 'I' for Inactive)
ROOT
ATOM      1  C   UNL d   1      -0.654  -3.874  -1.913  0.00  0.00     0.020 A 
ATOM      2  C1  UNL d   1      -1.222  -3.900  -0.640  0.00  0.00     0.020 A 
ATOM      3  C2  UNL d   1      -1.073  -2.804   0.213  0.00  0.00     0.034 A 
ATOM      4  C3  UNL d   1      -0.355  -1.678  -0.206  0.00  0.00     0.017 A 
ATOM      5  C4  UNL d   1       0.215  -1.654  -1.485  0.00  0.00     0.017 A 
ATOM      6  C5  UNL d   1       0.062  -2.754  -2.334  0.00  0.00     0.034 A 
ATOM      7 Cl   UNL d   1       1.115  -0.300  -2.072  0.00  0.00    -0.070 Cl
ATOM      8 Cl1  UNL d   1      -0.211  -0.359   0.901  0.00  0.00    -0.070 Cl
ENDROOT
TORSDOF 0
ENDMDL
