MODEL 1
REMARK minimizedAffinity -5.28677416
REMARK minimizedRMSD -1
REMARK  0 active torsions:
REMARK  status: ('A' for Active; 'I' for Inactive)
ROOT
ATOM      1  C   UNL d   1      -1.453   2.999  -0.014  0.00  0.00     0.020 A 
ATOM      2  C1  UNL d   1      -1.182   3.127   1.348  0.00  0.00     0.020 A 
ATOM      3  C2  UNL d   1      -0.495   2.114   2.021  0.00  0.00     0.034 A 
ATOM      4  C3  UNL d   1      -0.078   0.969   1.332  0.00  0.00     0.017 A 
ATOM      5  C4  UNL d   1      -0.350   0.842  -0.035  0.00  0.00     0.017 A 
ATOM      6  C5  UNL d   1      -1.038   1.859  -0.704  0.00  0.00     0.034 A 
ATOM      7 Cl   UNL d   1       0.134  -0.540  -0.952  0.00  0.00    -0.070 Cl
ATOM      8 Cl1  UNL d   1       0.767  -0.244   2.227  0.00  0.00    -0.070 Cl
ENDROOT
TORSDOF 0
ENDMDL
