MODEL 1
REMARK minimizedAffinity -1.59642839
REMARK minimizedRMSD -1
REMARK  0 active torsions:
REMARK  status: ('A' for Active; 'I' for Inactive)
ROOT
ATOM      1  C   UNL d   1       0.626  -1.557  -0.746  0.00  0.00     0.020 A 
ATOM      2  C1  UNL d   1       0.644  -1.657   0.645  0.00  0.00     0.020 A 
ATOM      3  C2  UNL d   1       0.351  -0.539   1.429  0.00  0.00     0.034 A 
ATOM      4  C3  UNL d   1       0.039   0.683   0.823  0.00  0.00     0.017 A 
ATOM      5  C4  UNL d   1       0.021   0.782  -0.573  0.00  0.00     0.017 A 
ATOM      6  C5  UNL d   1       0.315  -0.340  -1.353  0.00  0.00     0.034 A 
ATOM      7 Cl   UNL d   1      -0.356   2.257  -1.393  0.00  0.00    -0.070 Cl
ATOM      8 Cl1  UNL d   1      -0.314   2.024   1.854  0.00  0.00    -0.070 Cl
ENDROOT
TORSDOF 0
ENDMDL
