MODEL 1
REMARK minimizedAffinity -5.30983448
REMARK minimizedRMSD -1
REMARK  0 active torsions:
REMARK  status: ('A' for Active; 'I' for Inactive)
ROOT
ATOM      1  C   UNL d   1      -1.170   2.486  -0.046  0.00  0.00     0.020 A 
ATOM      2  C1  UNL d   1      -0.932   2.619   1.321  0.00  0.00     0.020 A 
ATOM      3  C2  UNL d   1      -0.229   1.626   2.007  0.00  0.00     0.034 A 
ATOM      4  C3  UNL d   1       0.239   0.496   1.326  0.00  0.00     0.017 A 
ATOM      5  C4  UNL d   1      -0.001   0.364  -0.046  0.00  0.00     0.017 A 
ATOM      6  C5  UNL d   1      -0.705   1.361  -0.728  0.00  0.00     0.034 A 
ATOM      7 Cl   UNL d   1       0.545  -1.001  -0.955  0.00  0.00    -0.070 Cl
ATOM      8 Cl1  UNL d   1       1.102  -0.691   2.237  0.00  0.00    -0.070 Cl
ENDROOT
TORSDOF 0
ENDMDL
