MODEL 1
REMARK minimizedAffinity -5.69820261
REMARK minimizedRMSD -1
REMARK  0 active torsions:
REMARK  status: ('A' for Active; 'I' for Inactive)
ROOT
ATOM      1  C   UNL d   1      -1.208   3.763   0.401  0.00  0.00     0.020 A 
ATOM      2  C1  UNL d   1      -0.891   3.746  -0.957  0.00  0.00     0.020 A 
ATOM      3  C2  UNL d   1      -0.223   2.649  -1.504  0.00  0.00     0.034 A 
ATOM      4  C3  UNL d   1       0.131   1.564  -0.693  0.00  0.00     0.017 A 
ATOM      5  C4  UNL d   1      -0.187   1.583   0.670  0.00  0.00     0.017 A 
ATOM      6  C5  UNL d   1      -0.857   2.684   1.212  0.00  0.00     0.034 A 
ATOM      7 Cl   UNL d   1       0.217   0.282   1.734  0.00  0.00    -0.070 Cl
ATOM      8 Cl1  UNL d   1       0.957   0.241  -1.436  0.00  0.00    -0.070 Cl
ENDROOT
TORSDOF 0
ENDMDL
