MODEL 1
REMARK minimizedAffinity -5.57702017
REMARK minimizedRMSD -1
REMARK  0 active torsions:
REMARK  status: ('A' for Active; 'I' for Inactive)
ROOT
ATOM      1  C   UNL d   1      -1.362   3.159  -0.272  0.00  0.00     0.020 A 
ATOM      2  C1  UNL d   1      -1.410   2.919   1.101  0.00  0.00     0.020 A 
ATOM      3  C2  UNL d   1      -0.755   1.809   1.639  0.00  0.00     0.034 A 
ATOM      4  C3  UNL d   1      -0.049   0.935   0.804  0.00  0.00     0.017 A 
ATOM      5  C4  UNL d   1      -0.001   1.177  -0.574  0.00  0.00     0.017 A 
ATOM      6  C5  UNL d   1      -0.659   2.290  -1.107  0.00  0.00     0.034 A 
ATOM      7 Cl   UNL d   1       0.850   0.144  -1.668  0.00  0.00    -0.070 Cl
ATOM      8 Cl1  UNL d   1       0.738  -0.417   1.537  0.00  0.00    -0.070 Cl
ENDROOT
TORSDOF 0
ENDMDL
