MODEL 1
REMARK minimizedAffinity -2.19096541
REMARK minimizedRMSD -1
REMARK  0 active torsions:
REMARK  status: ('A' for Active; 'I' for Inactive)
ROOT
ATOM      1  C   UNL d   1       1.034   4.245   1.594  0.00  0.00     0.020 A 
ATOM      2  C1  UNL d   1       0.717   4.586   0.280  0.00  0.00     0.020 A 
ATOM      3  C2  UNL d   1       0.277   3.604  -0.609  0.00  0.00     0.034 A 
ATOM      4  C3  UNL d   1       0.154   2.275  -0.187  0.00  0.00     0.017 A 
ATOM      5  C4  UNL d   1       0.472   1.934   1.133  0.00  0.00     0.017 A 
ATOM      6  C5  UNL d   1       0.912   2.921   2.020  0.00  0.00     0.034 A 
ATOM      7 Cl   UNL d   1       0.345   0.316   1.728  0.00  0.00    -0.070 Cl
ATOM      8 Cl1  UNL d   1      -0.396   1.113  -1.340  0.00  0.00    -0.070 Cl
ENDROOT
TORSDOF 0
ENDMDL
