MODEL 1
REMARK minimizedAffinity -1.80722296
REMARK minimizedRMSD -1
REMARK  0 active torsions:
REMARK  status: ('A' for Active; 'I' for Inactive)
ROOT
ATOM      1  C   UNL d   1      -0.254   0.994   2.513  0.00  0.00     0.020 A 
ATOM      2  C1  UNL d   1       0.774   1.935   2.460  0.00  0.00     0.020 A 
ATOM      3  C2  UNL d   1       0.804   2.879   1.432  0.00  0.00     0.034 A 
ATOM      4  C3  UNL d   1      -0.195   2.884   0.451  0.00  0.00     0.017 A 
ATOM      5  C4  UNL d   1      -1.226   1.939   0.505  0.00  0.00     0.017 A 
ATOM      6  C5  UNL d   1      -1.252   0.996   1.538  0.00  0.00     0.034 A 
ATOM      7 Cl   UNL d   1      -2.494   1.883  -0.668  0.00  0.00    -0.070 Cl
ATOM      8 Cl1  UNL d   1      -0.095   4.080  -0.792  0.00  0.00    -0.070 Cl
ENDROOT
TORSDOF 0
ENDMDL
