MODEL 1
REMARK minimizedAffinity 6.59785366
REMARK minimizedRMSD -1
REMARK  0 active torsions:
REMARK  status: ('A' for Active; 'I' for Inactive)
ROOT
ATOM      1  C   UNL d   1       1.804  -1.616   1.201  0.00  0.00     0.020 A 
ATOM      2  C1  UNL d   1       1.661  -1.170   2.515  0.00  0.00     0.020 A 
ATOM      3  C2  UNL d   1       0.993   0.028   2.777  0.00  0.00     0.034 A 
ATOM      4  C3  UNL d   1       0.466   0.785   1.724  0.00  0.00     0.017 A 
ATOM      5  C4  UNL d   1       0.610   0.336   0.406  0.00  0.00     0.017 A 
ATOM      6  C5  UNL d   1       1.279  -0.864   0.149  0.00  0.00     0.034 A 
ATOM      7 Cl   UNL d   1      -0.014   1.215  -0.946  0.00  0.00    -0.070 Cl
ATOM      8 Cl1  UNL d   1      -0.348   2.256   2.121  0.00  0.00    -0.070 Cl
ENDROOT
TORSDOF 0
ENDMDL
