MODEL 1
REMARK minimizedAffinity 3.27642822
REMARK minimizedRMSD -1
REMARK  0 active torsions:
REMARK  status: ('A' for Active; 'I' for Inactive)
ROOT
ATOM      1  C   UNL d   1       0.300   3.784   0.886  0.00  0.00     0.020 A 
ATOM      2  C1  UNL d   1       0.312   3.528   2.257  0.00  0.00     0.020 A 
ATOM      3  C2  UNL d   1       0.257   2.212   2.722  0.00  0.00     0.034 A 
ATOM      4  C3  UNL d   1       0.189   1.148   1.816  0.00  0.00     0.017 A 
ATOM      5  C4  UNL d   1       0.177   1.405   0.441  0.00  0.00     0.017 A 
ATOM      6  C5  UNL d   1       0.232   2.724  -0.020  0.00  0.00     0.034 A 
ATOM      7 Cl   UNL d   1       0.094   0.144  -0.738  0.00  0.00    -0.070 Cl
ATOM      8 Cl1  UNL d   1       0.123  -0.454   2.462  0.00  0.00    -0.070 Cl
ENDROOT
TORSDOF 0
ENDMDL
