MODEL 1
REMARK minimizedAffinity 19.9220009
REMARK minimizedRMSD -1
REMARK  0 active torsions:
REMARK  status: ('A' for Active; 'I' for Inactive)
ROOT
ATOM      1  C   UNL d   1      -2.126  -0.031   1.505  0.00  0.00     0.124 A 
ATOM      2  C1  UNL d   1      -3.416  -0.535   1.418  0.00  0.00     0.062 A 
ATOM      3  C2  UNL d   1      -4.510   0.302   1.620  0.00  0.00     0.162 A 
ATOM      4  C3  UNL d   1      -4.317   1.653   1.912  0.00  0.00    -0.034 A 
ATOM      5  C4  UNL d   1      -3.016   2.152   1.999  0.00  0.00     0.162 A 
ATOM      6  C5  UNL d   1      -1.927   1.311   1.795  0.00  0.00     0.062 A 
ATOM      7  F   UNL d   1      -0.681   1.799   1.880  0.00  0.00    -0.097 F 
ATOM      8  F1  UNL d   1      -2.796   3.445   2.278  0.00  0.00    -0.096 F 
ATOM      9  I   UNL d   1      -5.949   2.908   2.216  0.00  0.00    -0.060 I 
ATOM     10  F2  UNL d   1      -5.745  -0.211   1.530  0.00  0.00    -0.096 F 
ATOM     11  F3  UNL d   1      -3.611  -1.832   1.138  0.00  0.00    -0.097 F 
ATOM     12  F4  UNL d   1      -1.076  -0.839   1.310  0.00  0.00    -0.092 F 
ENDROOT
TORSDOF 0
ENDMDL
