MODEL 1
REMARK minimizedAffinity 32.0922813
REMARK minimizedRMSD -1
REMARK  0 active torsions:
REMARK  status: ('A' for Active; 'I' for Inactive)
ROOT
ATOM      1  C   UNL d   1      -4.017  -2.280   4.871  0.00  0.00     0.124 A 
ATOM      2  C1  UNL d   1      -4.829  -2.168   3.750  0.00  0.00     0.062 A 
ATOM      3  C2  UNL d   1      -4.431  -1.381   2.674  0.00  0.00     0.162 A 
ATOM      4  C3  UNL d   1      -3.215  -0.699   2.711  0.00  0.00    -0.034 A 
ATOM      5  C4  UNL d   1      -2.405  -0.815   3.842  0.00  0.00     0.162 A 
ATOM      6  C5  UNL d   1      -2.806  -1.604   4.916  0.00  0.00     0.062 A 
ATOM      7  F   UNL d   1      -2.021  -1.710   5.997  0.00  0.00    -0.097 F 
ATOM      8  F1  UNL d   1      -1.229  -0.174   3.912  0.00  0.00    -0.096 F 
ATOM      9  I   UNL d   1      -2.617   0.480   1.104  0.00  0.00    -0.060 I 
ATOM     10  F2  UNL d   1      -5.236  -1.291   1.604  0.00  0.00    -0.096 F 
ATOM     11  F3  UNL d   1      -6.000  -2.819   3.705  0.00  0.00    -0.097 F 
ATOM     12  F4  UNL d   1      -4.403  -3.037   5.906  0.00  0.00    -0.092 F 
ENDROOT
TORSDOF 0
ENDMDL
