MODEL 1
REMARK minimizedAffinity 28.146843
REMARK minimizedRMSD -1
REMARK  0 active torsions:
REMARK  status: ('A' for Active; 'I' for Inactive)
ROOT
ATOM      1  C   UNL d   1      -4.144  -2.714   0.982  0.00  0.00     0.124 A 
ATOM      2  C1  UNL d   1      -4.464  -1.455   1.470  0.00  0.00     0.062 A 
ATOM      3  C2  UNL d   1      -3.477  -0.481   1.595  0.00  0.00     0.162 A 
ATOM      4  C3  UNL d   1      -2.160  -0.763   1.230  0.00  0.00    -0.034 A 
ATOM      5  C4  UNL d   1      -1.846  -2.032   0.742  0.00  0.00     0.162 A 
ATOM      6  C5  UNL d   1      -2.836  -3.002   0.619  0.00  0.00     0.062 A 
ATOM      7  F   UNL d   1      -2.526  -4.218   0.147  0.00  0.00    -0.097 F 
ATOM      8  F1  UNL d   1      -0.591  -2.337   0.382  0.00  0.00    -0.096 F 
ATOM      9  I   UNL d   1      -0.682   0.690   1.416  0.00  0.00    -0.060 I 
ATOM     10  F2  UNL d   1      -3.814   0.727   2.069  0.00  0.00    -0.096 F 
ATOM     11  F3  UNL d   1      -5.727  -1.175   1.823  0.00  0.00    -0.097 F 
ATOM     12  F4  UNL d   1      -5.096  -3.649   0.864  0.00  0.00    -0.092 F 
ENDROOT
TORSDOF 0
ENDMDL
