MODEL 1
REMARK minimizedAffinity 26.0124321
REMARK minimizedRMSD -1
REMARK  0 active torsions:
REMARK  status: ('A' for Active; 'I' for Inactive)
ROOT
ATOM      1  C   UNL d   1      -1.573  -1.592  -5.018  0.00  0.00     0.124 A 
ATOM      2  C1  UNL d   1      -2.676  -0.902  -4.536  0.00  0.00     0.062 A 
ATOM      3  C2  UNL d   1      -3.933  -1.500  -4.539  0.00  0.00     0.162 A 
ATOM      4  C3  UNL d   1      -4.093  -2.797  -5.027  0.00  0.00    -0.034 A 
ATOM      5  C4  UNL d   1      -2.979  -3.485  -5.511  0.00  0.00     0.162 A 
ATOM      6  C5  UNL d   1      -1.725  -2.882  -5.505  0.00  0.00     0.062 A 
ATOM      7  F   UNL d   1      -0.660  -3.551  -5.972  0.00  0.00    -0.097 F 
ATOM      8  F1  UNL d   1      -3.098  -4.733  -5.987  0.00  0.00    -0.096 F 
ATOM      9  I   UNL d   1      -5.971  -3.695  -5.034  0.00  0.00    -0.060 I 
ATOM     10  F2  UNL d   1      -4.981  -0.809  -4.067  0.00  0.00    -0.096 F 
ATOM     11  F3  UNL d   1      -2.531   0.345  -4.065  0.00  0.00    -0.097 F 
ATOM     12  F4  UNL d   1      -0.365  -1.014  -5.014  0.00  0.00    -0.092 F 
ENDROOT
TORSDOF 0
ENDMDL
