MODEL 1
REMARK minimizedAffinity 20.6570263
REMARK minimizedRMSD -1
REMARK  0 active torsions:
REMARK  status: ('A' for Active; 'I' for Inactive)
ROOT
ATOM      1  C   UNL d   1       1.652   0.336  -3.249  0.00  0.00     0.124 A 
ATOM      2  C1  UNL d   1       2.434   0.403  -4.394  0.00  0.00     0.062 A 
ATOM      3  C2  UNL d   1       3.118   1.574  -4.707  0.00  0.00     0.162 A 
ATOM      4  C3  UNL d   1       3.026   2.688  -3.872  0.00  0.00    -0.034 A 
ATOM      5  C4  UNL d   1       2.237   2.613  -2.723  0.00  0.00     0.162 A 
ATOM      6  C5  UNL d   1       1.555   1.440  -2.415  0.00  0.00     0.062 A 
ATOM      7  F   UNL d   1       0.800   1.377  -1.308  0.00  0.00    -0.097 F 
ATOM      8  F1  UNL d   1       2.126   3.665  -1.898  0.00  0.00    -0.096 F 
ATOM      9  I   UNL d   1       4.048   4.440  -4.336  0.00  0.00    -0.060 I 
ATOM     10  F2  UNL d   1       3.866   1.611  -5.820  0.00  0.00    -0.096 F 
ATOM     11  F3  UNL d   1       2.529  -0.662  -5.203  0.00  0.00    -0.097 F 
ATOM     12  F4  UNL d   1       0.994  -0.791  -2.951  0.00  0.00    -0.092 F 
ENDROOT
TORSDOF 0
ENDMDL
