MODEL 1
REMARK minimizedAffinity 14.6107864
REMARK minimizedRMSD -1
REMARK  0 active torsions:
REMARK  status: ('A' for Active; 'I' for Inactive)
ROOT
ATOM      1  C   UNL d   1      -4.685   1.445   1.898  0.00  0.00     0.124 A 
ATOM      2  C1  UNL d   1      -4.186   2.737   1.811  0.00  0.00     0.062 A 
ATOM      3  C2  UNL d   1      -2.820   2.971   1.942  0.00  0.00     0.162 A 
ATOM      4  C3  UNL d   1      -1.943   1.909   2.161  0.00  0.00    -0.034 A 
ATOM      5  C4  UNL d   1      -2.452   0.612   2.249  0.00  0.00     0.162 A 
ATOM      6  C5  UNL d   1      -3.818   0.384   2.117  0.00  0.00     0.062 A 
ATOM      7  F   UNL d   1      -4.298  -0.865   2.202  0.00  0.00    -0.097 F 
ATOM      8  F1  UNL d   1      -1.637  -0.432   2.459  0.00  0.00    -0.096 F 
ATOM      9  I   UNL d   1       0.100   2.253   2.358  0.00  0.00    -0.060 I 
ATOM     10  F2  UNL d   1      -2.366   4.230   1.853  0.00  0.00    -0.096 F 
ATOM     11  F3  UNL d   1      -5.022   3.765   1.600  0.00  0.00    -0.097 F 
ATOM     12  F4  UNL d   1      -6.000   1.224   1.772  0.00  0.00    -0.092 F 
ENDROOT
TORSDOF 0
ENDMDL
