MODEL 1
REMARK minimizedAffinity 20.6545143
REMARK minimizedRMSD -1
REMARK  0 active torsions:
REMARK  status: ('A' for Active; 'I' for Inactive)
ROOT
ATOM      1  C   UNL d   1       0.891   0.866  -2.649  0.00  0.00     0.124 A 
ATOM      2  C1  UNL d   1      -0.437   0.937  -3.048  0.00  0.00     0.062 A 
ATOM      3  C2  UNL d   1      -0.929   0.052  -4.003  0.00  0.00     0.162 A 
ATOM      4  C3  UNL d   1      -0.094  -0.913  -4.565  0.00  0.00    -0.034 A 
ATOM      5  C4  UNL d   1       1.240  -0.978  -4.160  0.00  0.00     0.162 A 
ATOM      6  C5  UNL d   1       1.728  -0.091  -3.205  0.00  0.00     0.062 A 
ATOM      7  F   UNL d   1       3.011  -0.161  -2.821  0.00  0.00    -0.097 F 
ATOM      8  F1  UNL d   1       2.071  -1.894  -4.680  0.00  0.00    -0.096 F 
ATOM      9  I   UNL d   1      -0.827  -2.238  -5.993  0.00  0.00    -0.060 I 
ATOM     10  F2  UNL d   1      -2.216   0.144  -4.370  0.00  0.00    -0.096 F 
ATOM     11  F3  UNL d   1      -1.248   1.862  -2.513  0.00  0.00    -0.097 F 
ATOM     12  F4  UNL d   1       1.362   1.719  -1.731  0.00  0.00    -0.092 F 
ENDROOT
TORSDOF 0
ENDMDL
