MODEL 1
REMARK minimizedAffinity 18.1868477
REMARK minimizedRMSD -1
REMARK  0 active torsions:
REMARK  status: ('A' for Active; 'I' for Inactive)
ROOT
ATOM      1  C   UNL d   1      -2.193  -0.027   1.352  0.00  0.00     0.124 A 
ATOM      2  C1  UNL d   1      -1.171  -0.040   2.291  0.00  0.00     0.062 A 
ATOM      3  C2  UNL d   1      -0.412  -1.191   2.484  0.00  0.00     0.162 A 
ATOM      4  C3  UNL d   1      -0.672  -2.339   1.735  0.00  0.00    -0.034 A 
ATOM      5  C4  UNL d   1      -1.701  -2.318   0.792  0.00  0.00     0.162 A 
ATOM      6  C5  UNL d   1      -2.457  -1.165   0.603  0.00  0.00     0.062 A 
ATOM      7  F   UNL d   1      -3.444  -1.154  -0.305  0.00  0.00    -0.097 F 
ATOM      8  F1  UNL d   1      -1.978  -3.404   0.055  0.00  0.00    -0.096 F 
ATOM      9  I   UNL d   1       0.461  -4.061   2.020  0.00  0.00    -0.060 I 
ATOM     10  F2  UNL d   1       0.569  -1.175   3.398  0.00  0.00    -0.096 F 
ATOM     11  F3  UNL d   1      -0.914   1.058   3.016  0.00  0.00    -0.097 F 
ATOM     12  F4  UNL d   1      -2.922   1.082   1.169  0.00  0.00    -0.092 F 
ENDROOT
TORSDOF 0
ENDMDL
