MODEL 1
REMARK minimizedAffinity 12.0179873
REMARK minimizedRMSD -1
REMARK  0 active torsions:
REMARK  status: ('A' for Active; 'I' for Inactive)
ROOT
ATOM      1  C   UNL d   1       1.720   0.468  -3.319  0.00  0.00     0.124 A 
ATOM      2  C1  UNL d   1       1.396   1.552  -2.514  0.00  0.00     0.062 A 
ATOM      3  C2  UNL d   1       1.907   2.814  -2.801  0.00  0.00     0.162 A 
ATOM      4  C3  UNL d   1       2.748   3.000  -3.899  0.00  0.00    -0.034 A 
ATOM      5  C4  UNL d   1       3.070   1.905  -4.702  0.00  0.00     0.162 A 
ATOM      6  C5  UNL d   1       2.557   0.645  -4.412  0.00  0.00     0.062 A 
ATOM      7  F   UNL d   1       2.871  -0.401  -5.190  0.00  0.00    -0.097 F 
ATOM      8  F1  UNL d   1       3.876   2.048  -5.765  0.00  0.00    -0.096 F 
ATOM      9  I   UNL d   1       3.515   4.886  -4.331  0.00  0.00    -0.060 I 
ATOM     10  F2  UNL d   1       1.577   3.843  -2.007  0.00  0.00    -0.096 F 
ATOM     11  F3  UNL d   1       0.589   1.383  -1.457  0.00  0.00    -0.097 F 
ATOM     12  F4  UNL d   1       1.227  -0.746  -3.040  0.00  0.00    -0.092 F 
ENDROOT
TORSDOF 0
ENDMDL
