MODEL 1
REMARK minimizedAffinity 24.1410236
REMARK minimizedRMSD -1
REMARK  0 active torsions:
REMARK  status: ('A' for Active; 'I' for Inactive)
ROOT
ATOM      1  C   UNL d   1       0.046   1.459   2.106  0.00  0.00     0.124 A 
ATOM      2  C1  UNL d   1      -0.883   0.517   1.684  0.00  0.00     0.062 A 
ATOM      3  C2  UNL d   1      -2.224   0.867   1.553  0.00  0.00     0.162 A 
ATOM      4  C3  UNL d   1      -2.645   2.165   1.843  0.00  0.00    -0.034 A 
ATOM      5  C4  UNL d   1      -1.705   3.106   2.268  0.00  0.00     0.162 A 
ATOM      6  C5  UNL d   1      -0.366   2.752   2.397  0.00  0.00     0.062 A 
ATOM      7  F   UNL d   1       0.530   3.662   2.805  0.00  0.00    -0.097 F 
ATOM      8  F1  UNL d   1      -2.075   4.363   2.555  0.00  0.00    -0.096 F 
ATOM      9  I   UNL d   1      -4.649   2.691   1.648  0.00  0.00    -0.060 I 
ATOM     10  F2  UNL d   1      -3.100  -0.063   1.143  0.00  0.00    -0.096 F 
ATOM     11  F3  UNL d   1      -0.488  -0.733   1.403  0.00  0.00    -0.097 F 
ATOM     12  F4  UNL d   1       1.335   1.119   2.232  0.00  0.00    -0.092 F 
ENDROOT
TORSDOF 0
ENDMDL
