MODEL 1
REMARK minimizedAffinity 21.7929745
REMARK minimizedRMSD -1
REMARK  0 active torsions:
REMARK  status: ('A' for Active; 'I' for Inactive)
ROOT
ATOM      1  C   UNL d   1      -2.248  -0.207   1.356  0.00  0.00     0.124 A 
ATOM      2  C1  UNL d   1      -2.007   1.143   1.569  0.00  0.00     0.062 A 
ATOM      3  C2  UNL d   1      -3.070   2.031   1.705  0.00  0.00     0.162 A 
ATOM      4  C3  UNL d   1      -4.385   1.572   1.628  0.00  0.00    -0.034 A 
ATOM      5  C4  UNL d   1      -4.619   0.213   1.413  0.00  0.00     0.162 A 
ATOM      6  C5  UNL d   1      -3.554  -0.671   1.278  0.00  0.00     0.062 A 
ATOM      7  F   UNL d   1      -3.789  -1.975   1.072  0.00  0.00    -0.097 F 
ATOM      8  F1  UNL d   1      -5.871  -0.263   1.334  0.00  0.00    -0.096 F 
ATOM      9  I   UNL d   1      -5.977   2.897   1.831  0.00  0.00    -0.060 I 
ATOM     10  F2  UNL d   1      -2.807   3.330   1.910  0.00  0.00    -0.096 F 
ATOM     11  F3  UNL d   1      -0.746   1.594   1.644  0.00  0.00    -0.097 F 
ATOM     12  F4  UNL d   1      -1.223  -1.059   1.225  0.00  0.00    -0.092 F 
ENDROOT
TORSDOF 0
ENDMDL
