MODEL 1
REMARK minimizedAffinity 23.3170872
REMARK minimizedRMSD -1
REMARK  0 active torsions:
REMARK  status: ('A' for Active; 'I' for Inactive)
ROOT
ATOM      1  C   UNL d   1       2.263  -0.545  -5.905  0.00  0.00     0.124 A 
ATOM      2  C1  UNL d   1       3.619  -0.836  -5.937  0.00  0.00     0.062 A 
ATOM      3  C2  UNL d   1       4.557   0.193  -5.913  0.00  0.00     0.162 A 
ATOM      4  C3  UNL d   1       4.140   1.523  -5.856  0.00  0.00    -0.034 A 
ATOM      5  C4  UNL d   1       2.774   1.808  -5.826  0.00  0.00     0.162 A 
ATOM      6  C5  UNL d   1       1.841   0.776  -5.850  0.00  0.00     0.062 A 
ATOM      7  F   UNL d   1       0.531   1.059  -5.820  0.00  0.00    -0.097 F 
ATOM      8  F1  UNL d   1       2.340   3.075  -5.771  0.00  0.00    -0.096 F 
ATOM      9  I   UNL d   1       5.539   3.064  -5.821  0.00  0.00    -0.060 I 
ATOM     10  F2  UNL d   1       5.861  -0.118  -5.944  0.00  0.00    -0.096 F 
ATOM     11  F3  UNL d   1       4.029  -2.112  -5.991  0.00  0.00    -0.097 F 
ATOM     12  F4  UNL d   1       1.363  -1.537  -5.929  0.00  0.00    -0.092 F 
ENDROOT
TORSDOF 0
ENDMDL
