MODEL 1
REMARK minimizedAffinity 8.68575382
REMARK minimizedRMSD -1
REMARK  0 active torsions:
REMARK  status: ('A' for Active; 'I' for Inactive)
ROOT
ATOM      1  C   UNL d   1      -0.449   2.482   3.054  0.00  0.00     0.124 A 
ATOM      2  C1  UNL d   1      -0.241   1.118   2.898  0.00  0.00     0.062 A 
ATOM      3  C2  UNL d   1      -1.278   0.298   2.462  0.00  0.00     0.162 A 
ATOM      4  C3  UNL d   1      -2.532   0.838   2.179  0.00  0.00    -0.034 A 
ATOM      5  C4  UNL d   1      -2.733   2.210   2.339  0.00  0.00     0.162 A 
ATOM      6  C5  UNL d   1      -1.694   3.026   2.774  0.00  0.00     0.062 A 
ATOM      7  F   UNL d   1      -1.897   4.343   2.924  0.00  0.00    -0.097 F 
ATOM      8  F1  UNL d   1      -3.926   2.763   2.075  0.00  0.00    -0.096 F 
ATOM      9  I   UNL d   1      -4.084  -0.385   1.527  0.00  0.00    -0.060 I 
ATOM     10  F2  UNL d   1      -1.049  -1.016   2.321  0.00  0.00    -0.096 F 
ATOM     11  F3  UNL d   1       0.961   0.589   3.168  0.00  0.00    -0.097 F 
ATOM     12  F4  UNL d   1       0.550   3.269   3.474  0.00  0.00    -0.092 F 
ENDROOT
TORSDOF 0
ENDMDL
