MODEL 1
REMARK minimizedAffinity 6.74209547
REMARK minimizedRMSD -1
REMARK  3 active torsions:
REMARK  status: ('A' for Active; 'I' for Inactive)
REMARK    1  A    between atoms: C3'_2  and  C2'_3 
REMARK    2  A    between atoms: C2'_3  and  C1'_4 
REMARK    3  A    between atoms: C1'_4  and  C1_5 
ROOT
ATOM      1  C1  N4B d   1      -0.431  -1.853  -3.771  0.00  0.00    -0.075 A 
ATOM      2  C2  N4B d   1      -1.218  -3.009  -3.970  0.00  0.00     0.002 A 
ATOM      3  C3  N4B d   1      -2.560  -2.984  -3.679  0.00  0.00     0.002 A 
ATOM      4  C4  N4B d   1      -3.131  -1.825  -3.174  0.00  0.00    -0.004 A 
ATOM      5  C5  N4B d   1      -2.369  -0.706  -3.009  0.00  0.00     0.002 A 
ATOM      6  C6  N4B d   1      -1.020  -0.715  -3.301  0.00  0.00     0.002 A 
ENDROOT
BRANCH   1   7
ATOM      7  C1' N4B d   1       1.057  -1.858  -3.993  0.00  0.00     0.057 C 
BRANCH   7   8
ATOM      8  C2' N4B d   1       1.725  -1.002  -2.921  0.00  0.00     0.009 C 
BRANCH   8   9
ATOM      9  C3' N4B d   1       3.230  -0.924  -3.114  0.00  0.00     0.004 C 
ATOM     10  C4' N4B d   1       3.714   0.476  -3.351  0.00  0.00     0.003 C 
ENDBRANCH   8   9
ENDBRANCH   7   8
ENDBRANCH   1   7
TORSDOF 3
ENDMDL
