MODEL 1
REMARK minimizedAffinity 7.13855934
REMARK minimizedRMSD -1
REMARK  3 active torsions:
REMARK  status: ('A' for Active; 'I' for Inactive)
REMARK    1  A    between atoms: C3'_2  and  C2'_3 
REMARK    2  A    between atoms: C2'_3  and  C1'_4 
REMARK    3  A    between atoms: C1'_4  and  C1_5 
ROOT
ATOM      1  C1  N4B d   1      -1.510  -5.935   2.669  0.00  0.00    -0.075 A 
ATOM      2  C2  N4B d   1      -1.127  -5.943   4.028  0.00  0.00     0.002 A 
ATOM      3  C3  N4B d   1       0.204  -5.965   4.366  0.00  0.00     0.002 A 
ATOM      4  C4  N4B d   1       1.165  -5.998   3.366  0.00  0.00    -0.004 A 
ATOM      5  C5  N4B d   1       0.787  -5.965   2.056  0.00  0.00     0.002 A 
ATOM      6  C6  N4B d   1      -0.547  -5.939   1.702  0.00  0.00     0.002 A 
ENDROOT
BRANCH   1   7
ATOM      7  C1' N4B d   1      -2.954  -5.998   2.250  0.00  0.00     0.057 C 
BRANCH   7   8
ATOM      8  C2' N4B d   1      -3.109  -5.337   0.884  0.00  0.00     0.009 C 
BRANCH   8   9
ATOM      9  C3' N4B d   1      -3.832  -4.004   0.976  0.00  0.00     0.004 C 
ATOM     10  C4' N4B d   1      -3.041  -2.872   0.392  0.00  0.00     0.003 C 
ENDBRANCH   8   9
ENDBRANCH   7   8
ENDBRANCH   1   7
TORSDOF 3
ENDMDL
