MODEL 1
REMARK minimizedAffinity 13.3818331
REMARK minimizedRMSD -1
REMARK  3 active torsions:
REMARK  status: ('A' for Active; 'I' for Inactive)
REMARK    1  A    between atoms: C3'_2  and  C2'_3 
REMARK    2  A    between atoms: C2'_3  and  C1'_4 
REMARK    3  A    between atoms: C1'_4  and  C1_5 
ROOT
ATOM      1  C1  N4B d   1       0.013  -5.970   1.561  0.00  0.00    -0.075 A 
ATOM      2  C2  N4B d   1       1.406  -5.983   1.333  0.00  0.00     0.002 A 
ATOM      3  C3  N4B d   1       2.276  -5.998   2.396  0.00  0.00     0.002 A 
ATOM      4  C4  N4B d   1       1.777  -5.982   3.690  0.00  0.00    -0.004 A 
ATOM      5  C5  N4B d   1       0.430  -5.995   3.902  0.00  0.00     0.002 A 
ATOM      6  C6  N4B d   1      -0.456  -5.984   2.843  0.00  0.00     0.002 A 
ENDROOT
BRANCH   1   7
ATOM      7  C1' N4B d   1      -0.976  -5.867   0.432  0.00  0.00     0.057 C 
BRANCH   7   8
ATOM      8  C2' N4B d   1      -2.208  -5.105   0.912  0.00  0.00     0.009 C 
BRANCH   8   9
ATOM      9  C3' N4B d   1      -2.230  -3.677   0.395  0.00  0.00     0.004 C 
ATOM     10  C4' N4B d   1      -1.819  -2.677   1.433  0.00  0.00     0.003 C 
ENDBRANCH   8   9
ENDBRANCH   7   8
ENDBRANCH   1   7
TORSDOF 3
ENDMDL
