MODEL 1
REMARK minimizedAffinity 15.6314125
REMARK minimizedRMSD -1
REMARK  3 active torsions:
REMARK  status: ('A' for Active; 'I' for Inactive)
REMARK    1  A    between atoms: C3'_2  and  C2'_3 
REMARK    2  A    between atoms: C2'_3  and  C1'_4 
REMARK    3  A    between atoms: C1'_4  and  C1_5 
ROOT
ATOM      1  C1  N4B d   1      -0.397  -4.565   3.375  0.00  0.00    -0.075 A 
ATOM      2  C2  N4B d   1       0.555  -5.332   2.668  0.00  0.00     0.002 A 
ATOM      3  C3  N4B d   1       1.544  -5.998   3.351  0.00  0.00     0.002 A 
ATOM      4  C4  N4B d   1       1.611  -5.895   4.732  0.00  0.00    -0.004 A 
ATOM      5  C5  N4B d   1       0.673  -5.172   5.409  0.00  0.00     0.002 A 
ATOM      6  C6  N4B d   1      -0.329  -4.502   4.736  0.00  0.00     0.002 A 
ENDROOT
BRANCH   1   7
ATOM      7  C1' N4B d   1      -1.444  -3.750   2.666  0.00  0.00     0.057 C 
BRANCH   7   8
ATOM      8  C2' N4B d   1      -1.552  -2.382   3.333  0.00  0.00     0.009 C 
BRANCH   8   9
ATOM      9  C3' N4B d   1      -2.813  -1.645   2.917  0.00  0.00     0.004 C 
ATOM     10  C4' N4B d   1      -3.488  -0.956   4.065  0.00  0.00     0.003 C 
ENDBRANCH   8   9
ENDBRANCH   7   8
ENDBRANCH   1   7
TORSDOF 3
ENDMDL
