MODEL 1
REMARK minimizedAffinity 3.95669246
REMARK minimizedRMSD -1
REMARK  3 active torsions:
REMARK  status: ('A' for Active; 'I' for Inactive)
REMARK    1  A    between atoms: C3'_2  and  C2'_3 
REMARK    2  A    between atoms: C2'_3  and  C1'_4 
REMARK    3  A    between atoms: C1'_4  and  C1_5 
ROOT
ATOM      1  C1  N4B d   1       0.588  -5.990   2.465  0.00  0.00    -0.075 A 
ATOM      2  C2  N4B d   1       1.932  -5.994   2.032  0.00  0.00     0.002 A 
ATOM      3  C3  N4B d   1       2.951  -5.998   2.953  0.00  0.00     0.002 A 
ATOM      4  C4  N4B d   1       2.651  -5.979   4.307  0.00  0.00    -0.004 A 
ATOM      5  C5  N4B d   1       1.350  -6.000   4.717  0.00  0.00     0.002 A 
ATOM      6  C6  N4B d   1       0.316  -6.000   3.803  0.00  0.00     0.002 A 
ENDROOT
BRANCH   1   7
ATOM      7  C1' N4B d   1      -0.559  -5.898   1.496  0.00  0.00     0.057 C 
BRANCH   7   8
ATOM      8  C2' N4B d   1      -1.450  -4.722   1.884  0.00  0.00     0.009 C 
BRANCH   8   9
ATOM      9  C3' N4B d   1      -0.639  -3.488   2.240  0.00  0.00     0.004 C 
ATOM     10  C4' N4B d   1      -1.498  -2.296   2.543  0.00  0.00     0.003 C 
ENDBRANCH   8   9
ENDBRANCH   7   8
ENDBRANCH   1   7
TORSDOF 3
ENDMDL
