MODEL 1
REMARK minimizedAffinity 13.3035536
REMARK minimizedRMSD -1
REMARK  3 active torsions:
REMARK  status: ('A' for Active; 'I' for Inactive)
REMARK    1  A    between atoms: C3'_2  and  C2'_3 
REMARK    2  A    between atoms: C2'_3  and  C1'_4 
REMARK    3  A    between atoms: C1'_4  and  C1_5 
ROOT
ATOM      1  C1  N4B d   1       4.982   2.801   1.974  0.00  0.00    -0.075 A 
ATOM      2  C2  N4B d   1       4.856   3.991   1.224  0.00  0.00     0.002 A 
ATOM      3  C3  N4B d   1       3.969   4.052   0.178  0.00  0.00     0.002 A 
ATOM      4  C4  N4B d   1       3.213   2.935  -0.147  0.00  0.00    -0.004 A 
ATOM      5  C5  N4B d   1       3.322   1.798   0.599  0.00  0.00     0.002 A 
ATOM      6  C6  N4B d   1       4.207   1.724   1.656  0.00  0.00     0.002 A 
ENDROOT
BRANCH   1   7
ATOM      7  C1' N4B d   1       6.000   2.659   3.073  0.00  0.00     0.057 C 
BRANCH   7   8
ATOM      8  C2' N4B d   1       5.882   1.267   3.687  0.00  0.00     0.009 C 
BRANCH   8   9
ATOM      9  C3' N4B d   1       6.000   1.303   5.202  0.00  0.00     0.004 C 
ATOM     10  C4' N4B d   1       5.697  -0.020   5.839  0.00  0.00     0.003 C 
ENDBRANCH   8   9
ENDBRANCH   7   8
ENDBRANCH   1   7
TORSDOF 3
ENDMDL
