MODEL 1
REMARK minimizedAffinity 10.8418961
REMARK minimizedRMSD -1
REMARK  3 active torsions:
REMARK  status: ('A' for Active; 'I' for Inactive)
REMARK    1  A    between atoms: C3'_2  and  C2'_3 
REMARK    2  A    between atoms: C2'_3  and  C1'_4 
REMARK    3  A    between atoms: C1'_4  and  C1_5 
ROOT
ATOM      1  C1  N4B d   1      -0.052  -0.865   0.214  0.00  0.00    -0.075 A 
ATOM      2  C2  N4B d   1       0.449   0.394   0.614  0.00  0.00     0.002 A 
ATOM      3  C3  N4B d   1       0.133   0.897   1.852  0.00  0.00     0.002 A 
ATOM      4  C4  N4B d   1      -0.695   0.171   2.696  0.00  0.00    -0.004 A 
ATOM      5  C5  N4B d   1      -1.154  -1.055   2.313  0.00  0.00     0.002 A 
ATOM      6  C6  N4B d   1      -0.841  -1.575   1.073  0.00  0.00     0.002 A 
ENDROOT
BRANCH   1   7
ATOM      7  C1' N4B d   1       0.196  -1.418  -1.163  0.00  0.00     0.057 C 
BRANCH   7   8
ATOM      8  C2' N4B d   1       1.641  -1.135  -1.563  0.00  0.00     0.009 C 
BRANCH   8   9
ATOM      9  C3' N4B d   1       1.790  -0.958  -3.064  0.00  0.00     0.004 C 
ATOM     10  C4' N4B d   1       2.996  -0.147  -3.436  0.00  0.00     0.003 C 
ENDBRANCH   8   9
ENDBRANCH   7   8
ENDBRANCH   1   7
TORSDOF 3
ENDMDL
