MODEL 1
REMARK minimizedAffinity -3.43216443
REMARK minimizedRMSD -1
REMARK  0 active torsions:
REMARK  status: ('A' for Active; 'I' for Inactive)
ROOT
ATOM      1  C   UNL d   1      -0.287   0.347  -0.036  0.00  0.00     0.172 C 
ATOM      2  N   UNL d   1       0.885  -0.497  -0.044  0.00  0.00    -0.070 N 
ATOM      3  C1  UNL d   1       0.887  -1.861   0.076  0.00  0.00    -0.004 A 
ATOM      4  C2  UNL d   1       2.196  -2.287   0.020  0.00  0.00    -0.047 A 
ATOM      5  C3  UNL d   1       3.009  -1.140  -0.138  0.00  0.00    -0.047 A 
ATOM      6  C4  UNL d   1       2.172  -0.045  -0.175  0.00  0.00    -0.004 A 
ENDROOT
TORSDOF 0
ENDMDL
