MODEL 1
REMARK minimizedAffinity -2.98795557
REMARK minimizedRMSD -1
REMARK  0 active torsions:
REMARK  status: ('A' for Active; 'I' for Inactive)
ROOT
ATOM      1  C   UNL d   1       1.504  -1.487   0.002  0.00  0.00     0.172 C 
ATOM      2  N   UNL d   1       0.921  -0.169  -0.076  0.00  0.00    -0.070 N 
ATOM      3  C1  UNL d   1       1.585   1.011   0.128  0.00  0.00    -0.004 A 
ATOM      4  C2  UNL d   1       0.680   2.038  -0.037  0.00  0.00    -0.047 A 
ATOM      5  C3  UNL d   1      -0.571   1.455  -0.348  0.00  0.00    -0.047 A 
ATOM      6  C4  UNL d   1      -0.393   0.088  -0.366  0.00  0.00    -0.004 A 
ENDROOT
TORSDOF 0
ENDMDL
