MODEL 1
REMARK minimizedAffinity -1.22915721
REMARK minimizedRMSD -1
REMARK  0 active torsions:
REMARK  status: ('A' for Active; 'I' for Inactive)
ROOT
ATOM      1  C   UNL d   1      -0.871   0.525  -0.579  0.00  0.00     0.172 C 
ATOM      2  N   UNL d   1      -2.113   0.643   0.148  0.00  0.00    -0.070 N 
ATOM      3  C1  UNL d   1      -3.353   0.810  -0.410  0.00  0.00    -0.004 A 
ATOM      4  C2  UNL d   1      -4.271   0.877   0.615  0.00  0.00    -0.047 A 
ATOM      5  C3  UNL d   1      -3.560   0.746   1.831  0.00  0.00    -0.047 A 
ATOM      6  C4  UNL d   1      -2.226   0.603   1.513  0.00  0.00    -0.004 A 
ENDROOT
TORSDOF 0
ENDMDL
