MODEL 1
REMARK minimizedAffinity -1.85512912
REMARK minimizedRMSD -1
REMARK  0 active torsions:
REMARK  status: ('A' for Active; 'I' for Inactive)
ROOT
ATOM      1  C   UNL d   1      -1.552   0.818  -0.466  0.00  0.00     0.172 C 
ATOM      2  N   UNL d   1      -0.126   0.864  -0.243  0.00  0.00    -0.070 N 
ATOM      3  C1  UNL d   1       0.688   1.935  -0.500  0.00  0.00    -0.004 A 
ATOM      4  C2  UNL d   1       1.974   1.580  -0.153  0.00  0.00    -0.047 A 
ATOM      5  C3  UNL d   1       1.932   0.250   0.328  0.00  0.00    -0.047 A 
ATOM      6  C4  UNL d   1       0.620  -0.169   0.261  0.00  0.00    -0.004 A 
ENDROOT
TORSDOF 0
ENDMDL
