MODEL 1
REMARK minimizedAffinity -3.51589274
REMARK minimizedRMSD -1
REMARK  0 active torsions:
REMARK  status: ('A' for Active; 'I' for Inactive)
ROOT
ATOM      1  C   UNL d   1       2.896   0.642  -0.082  0.00  0.00     0.172 C 
ATOM      2  N   UNL d   1       1.894  -0.393  -0.180  0.00  0.00    -0.070 N 
ATOM      3  C1  UNL d   1       0.539  -0.198  -0.147  0.00  0.00    -0.004 A 
ATOM      4  C2  UNL d   1      -0.068  -1.429  -0.270  0.00  0.00    -0.047 A 
ATOM      5  C3  UNL d   1       0.958  -2.398  -0.379  0.00  0.00    -0.047 A 
ATOM      6  C4  UNL d   1       2.162  -1.729  -0.321  0.00  0.00    -0.004 A 
ENDROOT
TORSDOF 0
ENDMDL
