MODEL 1
REMARK minimizedAffinity -1.56015992
REMARK minimizedRMSD -1
REMARK  0 active torsions:
REMARK  status: ('A' for Active; 'I' for Inactive)
ROOT
ATOM      1  C   UNL d   1       1.828  -1.827  -0.476  0.00  0.00     0.172 C 
ATOM      2  N   UNL d   1       0.987  -0.658  -0.584  0.00  0.00    -0.070 N 
ATOM      3  C1  UNL d   1       1.254   0.570  -0.040  0.00  0.00    -0.004 A 
ATOM      4  C2  UNL d   1       0.213   1.412  -0.367  0.00  0.00    -0.047 A 
ATOM      5  C3  UNL d   1      -0.711   0.664  -1.134  0.00  0.00    -0.047 A 
ATOM      6  C4  UNL d   1      -0.207  -0.614  -1.253  0.00  0.00    -0.004 A 
ENDROOT
TORSDOF 0
ENDMDL
