MODEL 1
REMARK minimizedAffinity -2.25922942
REMARK minimizedRMSD -1
REMARK  0 active torsions:
REMARK  status: ('A' for Active; 'I' for Inactive)
ROOT
ATOM      1  C   UNL d   1      -0.666   0.505  -0.656  0.00  0.00     0.172 C 
ATOM      2  N   UNL d   1      -1.918   0.425   0.060  0.00  0.00    -0.070 N 
ATOM      3  C1  UNL d   1      -3.164   0.559  -0.493  0.00  0.00    -0.004 A 
ATOM      4  C2  UNL d   1      -4.091   0.419   0.516  0.00  0.00    -0.047 A 
ATOM      5  C3  UNL d   1      -3.379   0.195   1.718  0.00  0.00    -0.047 A 
ATOM      6  C4  UNL d   1      -2.035   0.204   1.407  0.00  0.00    -0.004 A 
ENDROOT
TORSDOF 0
ENDMDL
