MODEL 1
REMARK minimizedAffinity -2.67257881
REMARK minimizedRMSD -1
REMARK  0 active torsions:
REMARK  status: ('A' for Active; 'I' for Inactive)
ROOT
ATOM      1  C   UNL d   1      -0.836   0.886  -0.329  0.00  0.00     0.172 C 
ATOM      2  N   UNL d   1       0.278  -0.004  -0.098  0.00  0.00    -0.070 N 
ATOM      3  C1  UNL d   1       1.591   0.371   0.008  0.00  0.00    -0.004 A 
ATOM      4  C2  UNL d   1       2.338  -0.766   0.227  0.00  0.00    -0.047 A 
ATOM      5  C3  UNL d   1       1.443  -1.862   0.254  0.00  0.00    -0.047 A 
ATOM      6  C4  UNL d   1       0.174  -1.362   0.050  0.00  0.00    -0.004 A 
ENDROOT
TORSDOF 0
ENDMDL
