MODEL 1
REMARK minimizedAffinity -1.03424191
REMARK minimizedRMSD -1
REMARK  0 active torsions:
REMARK  status: ('A' for Active; 'I' for Inactive)
ROOT
ATOM      1  C   UNL d   1      -0.090  -1.189  -0.757  0.00  0.00     0.172 C 
ATOM      2  N   UNL d   1       0.252   0.178  -0.445  0.00  0.00    -0.070 N 
ATOM      3  C1  UNL d   1       0.671   0.638   0.775  0.00  0.00    -0.004 A 
ATOM      4  C2  UNL d   1       0.896   1.993   0.661  0.00  0.00    -0.047 A 
ATOM      5  C3  UNL d   1       0.601   2.361  -0.673  0.00  0.00    -0.047 A 
ATOM      6  C4  UNL d   1       0.205   1.218  -1.336  0.00  0.00    -0.004 A 
ENDROOT
TORSDOF 0
ENDMDL
