MODEL 1
REMARK minimizedAffinity -2.75383091
REMARK minimizedRMSD -1
REMARK  2 active torsions:
REMARK  status: ('A' for Active; 'I' for Inactive)
REMARK    1  A    between atoms: C2'_3  and  C1'_4 
REMARK    2  A    between atoms: C1'_4  and  C1_5 
ROOT
ATOM      1  C1  I4B d   1       0.788  -0.259  -1.470  0.00  0.00    -0.075 A 
ATOM      2  C2  I4B d   1       2.029   0.314  -1.597  0.00  0.00     0.003 A 
ATOM      3  C3  I4B d   1       2.551   0.606  -2.880  0.00  0.00     0.002 A 
ATOM      4  C4  I4B d   1       1.826   0.265  -4.003  0.00  0.00    -0.004 A 
ATOM      5  C5  I4B d   1       0.558  -0.295  -3.873  0.00  0.00     0.002 A 
ATOM      6  C6  I4B d   1       0.030  -0.547  -2.598  0.00  0.00     0.003 A 
ENDROOT
BRANCH   1   7
ATOM      7  C1' I4B d   1       0.281  -0.584  -0.101  0.00  0.00     0.060 C 
BRANCH   7   8
ATOM      8  C2' I4B d   1      -0.929   0.287   0.168  0.00  0.00    -0.013 C 
ATOM      9  C4' I4B d   1      -2.209  -0.474  -0.055  0.00  0.00     0.013 C 
ATOM     10  C3' I4B d   1      -0.835   0.788   1.578  0.00  0.00     0.013 C 
ENDBRANCH   7   8
ENDBRANCH   1   7
TORSDOF 2
ENDMDL
