MODEL 1
REMARK minimizedAffinity -4.74150229
REMARK minimizedRMSD -1
REMARK  2 active torsions:
REMARK  status: ('A' for Active; 'I' for Inactive)
REMARK    1  A    between atoms: C2'_3  and  C1'_4 
REMARK    2  A    between atoms: C1'_4  and  C1_5 
ROOT
ATOM      1  C1  I4B d   1      -0.007  -0.064  -0.410  0.00  0.00    -0.075 A 
ATOM      2  C2  I4B d   1      -1.380  -0.056  -0.396  0.00  0.00     0.003 A 
ATOM      3  C3  I4B d   1      -2.079   0.515   0.695  0.00  0.00     0.002 A 
ATOM      4  C4  I4B d   1      -1.371   1.017   1.768  0.00  0.00    -0.004 A 
ATOM      5  C5  I4B d   1       0.021   1.028   1.742  0.00  0.00     0.002 A 
ATOM      6  C6  I4B d   1       0.707   0.495   0.641  0.00  0.00     0.003 A 
ENDROOT
BRANCH   1   7
ATOM      7  C1' I4B d   1       0.698  -0.705  -1.563  0.00  0.00     0.060 C 
BRANCH   7   8
ATOM      8  C2' I4B d   1       0.523   0.190  -2.773  0.00  0.00    -0.013 C 
ATOM      9  C4' I4B d   1       1.836   0.786  -3.205  0.00  0.00     0.013 C 
ATOM     10  C3' I4B d   1      -0.087  -0.631  -3.870  0.00  0.00     0.013 C 
ENDBRANCH   7   8
ENDBRANCH   1   7
TORSDOF 2
ENDMDL
