MODEL 1
REMARK minimizedAffinity -4.08654499
REMARK minimizedRMSD -1
REMARK  2 active torsions:
REMARK  status: ('A' for Active; 'I' for Inactive)
REMARK    1  A    between atoms: C2'_3  and  C1'_4 
REMARK    2  A    between atoms: C1'_4  and  C1_5 
ROOT
ATOM      1  C1  I4B d   1       1.017  -0.635  -0.959  0.00  0.00    -0.075 A 
ATOM      2  C2  I4B d   1       2.072  -1.297  -0.381  0.00  0.00     0.003 A 
ATOM      3  C3  I4B d   1       2.356  -1.122   0.995  0.00  0.00     0.002 A 
ATOM      4  C4  I4B d   1       1.596  -0.244   1.739  0.00  0.00    -0.004 A 
ATOM      5  C5  I4B d   1       0.512   0.408   1.158  0.00  0.00     0.002 A 
ATOM      6  C6  I4B d   1       0.213   0.202  -0.197  0.00  0.00     0.003 A 
ENDROOT
BRANCH   1   7
ATOM      7  C1' I4B d   1       0.766  -0.818  -2.422  0.00  0.00     0.060 C 
BRANCH   7   8
ATOM      8  C2' I4B d   1       1.032   0.506  -3.110  0.00  0.00    -0.013 C 
ATOM      9  C4' I4B d   1       2.471   0.618  -3.538  0.00  0.00     0.013 C 
ATOM     10  C3' I4B d   1       0.107   0.610  -4.286  0.00  0.00     0.013 C 
ENDBRANCH   7   8
ENDBRANCH   1   7
TORSDOF 2
ENDMDL
