MODEL 1
REMARK minimizedAffinity -1.98402631
REMARK minimizedRMSD -1
REMARK  2 active torsions:
REMARK  status: ('A' for Active; 'I' for Inactive)
REMARK    1  A    between atoms: C2'_3  and  C1'_4 
REMARK    2  A    between atoms: C1'_4  and  C1_5 
ROOT
ATOM      1  C1  I4B d   1      -1.346  -0.147   0.148  0.00  0.00    -0.075 A 
ATOM      2  C2  I4B d   1      -0.089   0.330  -0.129  0.00  0.00     0.003 A 
ATOM      3  C3  I4B d   1       0.675  -0.238  -1.177  0.00  0.00     0.002 A 
ATOM      4  C4  I4B d   1       0.167  -1.308  -1.885  0.00  0.00    -0.004 A 
ATOM      5  C5  I4B d   1      -1.117  -1.776  -1.618  0.00  0.00     0.002 A 
ATOM      6  C6  I4B d   1      -1.883  -1.184  -0.604  0.00  0.00     0.003 A 
ENDROOT
BRANCH   1   7
ATOM      7  C1' I4B d   1      -2.111   0.455   1.283  0.00  0.00     0.060 C 
BRANCH   7   8
ATOM      8  C2' I4B d   1      -1.319   0.225   2.554  0.00  0.00    -0.013 C 
ATOM      9  C4' I4B d   1      -0.862   1.529   3.155  0.00  0.00     0.013 C 
ATOM     10  C3' I4B d   1      -2.188  -0.536   3.510  0.00  0.00     0.013 C 
ENDBRANCH   7   8
ENDBRANCH   1   7
TORSDOF 2
ENDMDL
