MODEL 1
REMARK minimizedAffinity -4.56248713
REMARK minimizedRMSD -1
REMARK  1 active torsions:
REMARK  status: ('A' for Active; 'I' for Inactive)
REMARK    1  A    between atoms: N_2  and  C1_3 
ROOT
ATOM      1  C1  UNL d   1       0.186   0.815  -0.159  0.00  0.00     0.143 A 
ATOM      2  C2  UNL d   1      -0.092   2.185  -0.106  0.00  0.00    -0.057 A 
ATOM      3  C3  UNL d   1       0.918   3.122   0.145  0.00  0.00     0.033 A 
ATOM      4  C4  UNL d   1       2.223   2.701   0.377  0.00  0.00    -0.042 A 
ATOM      5  C5  UNL d   1       2.518   1.343   0.354  0.00  0.00     0.033 A 
ATOM      6  C6  UNL d   1       1.507   0.412   0.096  0.00  0.00    -0.057 A 
ENDROOT
BRANCH   1   7
ATOM      7  N   UNL d   1      -0.791  -0.172  -0.306  0.00  0.00    -0.732 N 
ATOM      8  C   UNL d   1      -0.532  -1.353  -1.102  0.00  0.00     0.284 C 
ATOM      9  H3  UNL d   1      -1.290  -0.357   0.561  0.00  0.00     0.395 HD
ENDBRANCH   1   7
TORSDOF 1
ENDMDL
