MODEL 1
REMARK minimizedAffinity -3.8725822
REMARK minimizedRMSD -1
REMARK  1 active torsions:
REMARK  status: ('A' for Active; 'I' for Inactive)
REMARK    1  A    between atoms: N_2  and  C1_3 
ROOT
ATOM      1  C1  UNL d   1      -0.318  -0.148   0.094  0.00  0.00     0.143 A 
ATOM      2  C2  UNL d   1      -1.156   0.662   0.867  0.00  0.00    -0.057 A 
ATOM      3  C3  UNL d   1      -1.014   2.055   0.876  0.00  0.00     0.033 A 
ATOM      4  C4  UNL d   1      -0.009   2.662   0.131  0.00  0.00    -0.042 A 
ATOM      5  C5  UNL d   1       0.852   1.875  -0.626  0.00  0.00     0.033 A 
ATOM      6  C6  UNL d   1       0.701   0.485  -0.636  0.00  0.00    -0.057 A 
ENDROOT
BRANCH   1   7
ATOM      7  N   UNL d   1      -0.345  -1.545   0.119  0.00  0.00    -0.732 N 
ATOM      8  C   UNL d   1      -0.471  -2.302  -1.107  0.00  0.00     0.284 C 
ATOM      9  H3  UNL d   1       0.322  -1.934   0.782  0.00  0.00     0.395 HD
ENDBRANCH   1   7
TORSDOF 1
ENDMDL
