MODEL 1
REMARK minimizedAffinity -3.01559043
REMARK minimizedRMSD -1
REMARK  1 active torsions:
REMARK  status: ('A' for Active; 'I' for Inactive)
REMARK    1  A    between atoms: N_2  and  C1_3 
ROOT
ATOM      1  C1  UNL d   1      -0.109   1.715   0.685  0.00  0.00     0.143 A 
ATOM      2  C2  UNL d   1       0.891   1.244  -0.172  0.00  0.00    -0.057 A 
ATOM      3  C3  UNL d   1       0.881  -0.074  -0.644  0.00  0.00     0.033 A 
ATOM      4  C4  UNL d   1      -0.117  -0.956  -0.242  0.00  0.00    -0.042 A 
ATOM      5  C5  UNL d   1      -1.107  -0.516   0.630  0.00  0.00     0.033 A 
ATOM      6  C6  UNL d   1      -1.095   0.803   1.093  0.00  0.00    -0.057 A 
ENDROOT
BRANCH   1   7
ATOM      7  N   UNL d   1      -0.100   2.986   1.267  0.00  0.00    -0.732 N 
ATOM      8  C   UNL d   1      -0.755   3.221   2.535  0.00  0.00     0.284 C 
ATOM      9  H3  UNL d   1       0.801   3.450   1.172  0.00  0.00     0.395 HD
ENDBRANCH   1   7
TORSDOF 1
ENDMDL
