MODEL 1
REMARK minimizedAffinity -3.53635192
REMARK minimizedRMSD -1
REMARK  1 active torsions:
REMARK  status: ('A' for Active; 'I' for Inactive)
REMARK    1  A    between atoms: N_2  and  C1_3 
ROOT
ATOM      1  C1  UNL d   1      -0.316   0.467   0.255  0.00  0.00     0.143 A 
ATOM      2  C2  UNL d   1      -0.837   1.519   1.015  0.00  0.00    -0.057 A 
ATOM      3  C3  UNL d   1      -0.381   2.832   0.847  0.00  0.00     0.033 A 
ATOM      4  C4  UNL d   1       0.628   3.113  -0.068  0.00  0.00    -0.042 A 
ATOM      5  C5  UNL d   1       1.178   2.079  -0.818  0.00  0.00     0.033 A 
ATOM      6  C6  UNL d   1       0.714   0.771  -0.650  0.00  0.00    -0.057 A 
ENDROOT
BRANCH   1   7
ATOM      7  N   UNL d   1      -0.658  -0.874   0.445  0.00  0.00    -0.732 N 
ATOM      8  C   UNL d   1       0.039  -1.921  -0.272  0.00  0.00     0.284 C 
ATOM      9  H3  UNL d   1      -0.846  -1.092   1.421  0.00  0.00     0.395 HD
ENDBRANCH   1   7
TORSDOF 1
ENDMDL
