MODEL 1
REMARK minimizedAffinity -2.59976625
REMARK minimizedRMSD -1
REMARK  1 active torsions:
REMARK  status: ('A' for Active; 'I' for Inactive)
REMARK    1  A    between atoms: N_2  and  C1_3 
ROOT
ATOM      1  C1  UNL d   1      -0.049   1.311   0.123  0.00  0.00     0.143 A 
ATOM      2  C2  UNL d   1       1.305   0.958   0.123  0.00  0.00    -0.057 A 
ATOM      3  C3  UNL d   1       1.710  -0.366   0.329  0.00  0.00     0.033 A 
ATOM      4  C4  UNL d   1       0.767  -1.359   0.569  0.00  0.00    -0.042 A 
ATOM      5  C5  UNL d   1      -0.583  -1.028   0.598  0.00  0.00     0.033 A 
ATOM      6  C6  UNL d   1      -0.982   0.295   0.385  0.00  0.00    -0.057 A 
ENDROOT
BRANCH   1   7
ATOM      7  N   UNL d   1      -0.511   2.625   0.022  0.00  0.00    -0.732 N 
ATOM      8  C   UNL d   1       0.361   3.738   0.332  0.00  0.00     0.284 C 
ATOM      9  H3  UNL d   1      -1.094   2.770  -0.800  0.00  0.00     0.395 HD
ENDBRANCH   1   7
TORSDOF 1
ENDMDL
