MODEL 1
REMARK minimizedAffinity -3.41111898
REMARK minimizedRMSD -1
REMARK  1 active torsions:
REMARK  status: ('A' for Active; 'I' for Inactive)
REMARK    1  A    between atoms: N_2  and  C1_3 
ROOT
ATOM      1  C1  UNL d   1       0.039   0.367  -0.789  0.00  0.00     0.143 A 
ATOM      2  C2  UNL d   1      -0.253   0.216   0.571  0.00  0.00    -0.057 A 
ATOM      3  C3  UNL d   1      -0.439   1.328   1.401  0.00  0.00     0.033 A 
ATOM      4  C4  UNL d   1      -0.309   2.615   0.889  0.00  0.00    -0.042 A 
ATOM      5  C5  UNL d   1       0.005   2.789  -0.454  0.00  0.00     0.033 A 
ATOM      6  C6  UNL d   1       0.184   1.674  -1.279  0.00  0.00    -0.057 A 
ENDROOT
BRANCH   1   7
ATOM      7  N   UNL d   1       0.333  -0.699  -1.644  0.00  0.00    -0.732 N 
ATOM      8  C   UNL d   1       1.673  -0.885  -2.156  0.00  0.00     0.284 C 
ATOM      9  H3  UNL d   1      -0.128  -1.561  -1.362  0.00  0.00     0.395 HD
ENDBRANCH   1   7
TORSDOF 1
ENDMDL
