MODEL 1
REMARK minimizedAffinity -4.07303667
REMARK minimizedRMSD -1
REMARK  1 active torsions:
REMARK  status: ('A' for Active; 'I' for Inactive)
REMARK    1  A    between atoms: N_2  and  C1_3 
ROOT
ATOM      1  C1  UNL d   1       0.309   0.507   0.206  0.00  0.00     0.143 A 
ATOM      2  C2  UNL d   1      -0.842   1.249   0.493  0.00  0.00    -0.057 A 
ATOM      3  C3  UNL d   1      -0.855   2.644   0.376  0.00  0.00     0.033 A 
ATOM      4  C4  UNL d   1       0.295   3.327  -0.005  0.00  0.00    -0.042 A 
ATOM      5  C5  UNL d   1       1.458   2.612  -0.272  0.00  0.00     0.033 A 
ATOM      6  C6  UNL d   1       1.463   1.219  -0.159  0.00  0.00    -0.057 A 
ENDROOT
BRANCH   1   7
ATOM      7  N   UNL d   1       0.414  -0.872   0.398  0.00  0.00    -0.732 N 
ATOM      8  C   UNL d   1      -0.498  -1.780  -0.264  0.00  0.00     0.284 C 
ATOM      9  H3  UNL d   1       1.380  -1.190   0.413  0.00  0.00     0.395 HD
ENDBRANCH   1   7
TORSDOF 1
ENDMDL
