MODEL 1
REMARK minimizedAffinity 2.53020954
REMARK minimizedRMSD -1
REMARK  1 active torsions:
REMARK  status: ('A' for Active; 'I' for Inactive)
REMARK    1  A    between atoms: N_2  and  C1_3 
ROOT
ATOM      1  C1  UNL d   1       1.000   1.357  -1.273  0.00  0.00     0.143 A 
ATOM      2  C2  UNL d   1       2.364   1.329  -0.964  0.00  0.00    -0.057 A 
ATOM      3  C3  UNL d   1       2.917   0.288  -0.208  0.00  0.00     0.033 A 
ATOM      4  C4  UNL d   1       2.106  -0.733   0.278  0.00  0.00    -0.042 A 
ATOM      5  C5  UNL d   1       0.743  -0.712   0.004  0.00  0.00     0.033 A 
ATOM      6  C6  UNL d   1       0.198   0.327  -0.757  0.00  0.00    -0.057 A 
ENDROOT
BRANCH   1   7
ATOM      7  N   UNL d   1       0.374   2.415  -1.936  0.00  0.00    -0.732 N 
ATOM      8  C   UNL d   1      -0.199   2.226  -3.251  0.00  0.00     0.284 C 
ATOM      9  H3  UNL d   1      -0.196   2.981  -1.312  0.00  0.00     0.395 HD
ENDBRANCH   1   7
TORSDOF 1
ENDMDL
