MODEL 1
REMARK minimizedAffinity -3.72320795
REMARK minimizedRMSD -1
REMARK  1 active torsions:
REMARK  status: ('A' for Active; 'I' for Inactive)
REMARK    1  A    between atoms: N_2  and  C1_3 
ROOT
ATOM      1  C1  UNL d   1      -0.213   0.525  -0.151  0.00  0.00     0.143 A 
ATOM      2  C2  UNL d   1      -0.967   1.241   0.785  0.00  0.00    -0.057 A 
ATOM      3  C3  UNL d   1      -0.844   2.630   0.907  0.00  0.00     0.033 A 
ATOM      4  C4  UNL d   1       0.061   3.327   0.112  0.00  0.00    -0.042 A 
ATOM      5  C5  UNL d   1       0.839   2.633  -0.808  0.00  0.00     0.033 A 
ATOM      6  C6  UNL d   1       0.706   1.246  -0.930  0.00  0.00    -0.057 A 
ENDROOT
BRANCH   1   7
ATOM      7  N   UNL d   1      -0.219  -0.868  -0.253  0.00  0.00    -0.732 N 
ATOM      8  C   UNL d   1      -0.443  -1.692   0.916  0.00  0.00     0.284 C 
ATOM      9  H3  UNL d   1      -0.698  -1.195  -1.089  0.00  0.00     0.395 HD
ENDBRANCH   1   7
TORSDOF 1
ENDMDL
