MODEL 1
REMARK minimizedAffinity -2.31913495
REMARK minimizedRMSD -1
REMARK  1 active torsions:
REMARK  status: ('A' for Active; 'I' for Inactive)
REMARK    1  A    between atoms: N_2  and  C1_3 
ROOT
ATOM      1  C1  UNL d   1       0.427  -0.155   0.565  0.00  0.00     0.143 A 
ATOM      2  C2  UNL d   1       1.803   0.089   0.621  0.00  0.00    -0.057 A 
ATOM      3  C3  UNL d   1       2.304   1.384   0.803  0.00  0.00     0.033 A 
ATOM      4  C4  UNL d   1       1.434   2.465   0.903  0.00  0.00    -0.042 A 
ATOM      5  C5  UNL d   1       0.063   2.249   0.825  0.00  0.00     0.033 A 
ATOM      6  C6  UNL d   1      -0.431   0.953   0.651  0.00  0.00    -0.057 A 
ENDROOT
BRANCH   1   7
ATOM      7  N   UNL d   1      -0.131  -1.406   0.288  0.00  0.00    -0.732 N 
ATOM      8  C   UNL d   1      -0.183  -1.905  -1.069  0.00  0.00     0.284 C 
ATOM      9  H3  UNL d   1       0.125  -2.107   0.979  0.00  0.00     0.395 HD
ENDBRANCH   1   7
TORSDOF 1
ENDMDL
