MODEL 1
REMARK minimizedAffinity -0.056551002
REMARK minimizedRMSD -1
REMARK  2 active torsions:
REMARK  status: ('A' for Active; 'I' for Inactive)
REMARK    1  A    between atoms: C2'_3  and  C1'_4 
REMARK    2  A    between atoms: C1'_4  and  C1_5 
ROOT
ATOM      1  C1  I4B d   1       0.527  -1.234  -0.653  0.00  0.00    -0.075 A 
ATOM      2  C2  I4B d   1       0.670  -0.982   0.688  0.00  0.00     0.003 A 
ATOM      3  C3  I4B d   1       0.391   0.307   1.205  0.00  0.00     0.002 A 
ATOM      4  C4  I4B d   1       0.024   1.320   0.343  0.00  0.00    -0.004 A 
ATOM      5  C5  I4B d   1      -0.143   1.056  -1.014  0.00  0.00     0.002 A 
ATOM      6  C6  I4B d   1       0.098  -0.232  -1.513  0.00  0.00     0.003 A 
ENDROOT
BRANCH   1   7
ATOM      7  C1' I4B d   1       0.861  -2.598  -1.170  0.00  0.00     0.060 C 
BRANCH   7   8
ATOM      8  C2' I4B d   1      -0.215  -3.553  -0.695  0.00  0.00    -0.013 C 
ATOM      9  C4' I4B d   1      -1.160  -3.909  -1.813  0.00  0.00     0.013 C 
ATOM     10  C3' I4B d   1       0.460  -4.775  -0.147  0.00  0.00     0.013 C 
ENDBRANCH   7   8
ENDBRANCH   1   7
TORSDOF 2
ENDMDL
