MODEL 1
REMARK minimizedAffinity 0.959086061
REMARK minimizedRMSD -1
REMARK  2 active torsions:
REMARK  status: ('A' for Active; 'I' for Inactive)
REMARK    1  A    between atoms: C2'_3  and  C1'_4 
REMARK    2  A    between atoms: C1'_4  and  C1_5 
ROOT
ATOM      1  C1  I4B d   1       0.049   0.789   0.637  0.00  0.00    -0.075 A 
ATOM      2  C2  I4B d   1      -0.870   0.864  -0.380  0.00  0.00     0.003 A 
ATOM      3  C3  I4B d   1      -1.769   1.955  -0.450  0.00  0.00     0.002 A 
ATOM      4  C4  I4B d   1      -1.748   2.917   0.539  0.00  0.00    -0.004 A 
ATOM      5  C5  I4B d   1      -0.800   2.852   1.557  0.00  0.00     0.002 A 
ATOM      6  C6  I4B d   1       0.113   1.788   1.599  0.00  0.00     0.003 A 
ENDROOT
BRANCH   1   7
ATOM      7  C1' I4B d   1       0.962  -0.394   0.698  0.00  0.00     0.060 C 
BRANCH   7   8
ATOM      8  C2' I4B d   1       0.957  -1.058  -0.664  0.00  0.00    -0.013 C 
ATOM      9  C4' I4B d   1       2.117  -0.590  -1.503  0.00  0.00     0.013 C 
ATOM     10  C3' I4B d   1       1.005  -2.543  -0.455  0.00  0.00     0.013 C 
ENDBRANCH   7   8
ENDBRANCH   1   7
TORSDOF 2
ENDMDL
