MODEL 1
REMARK minimizedAffinity 0.553612232
REMARK minimizedRMSD -1
REMARK  1 active torsions:
REMARK  status: ('A' for Active; 'I' for Inactive)
REMARK    1  A    between atoms: C1_2  and  C2_3 
ROOT
ATOM      1  C2  UNL d   1      -0.277  -0.861   0.689  0.00  0.00    -0.081 A 
ATOM      2  C3  UNL d   1       0.631  -1.060  -0.358  0.00  0.00     0.006 A 
ATOM      3  C4  UNL d   1       1.553  -2.107  -0.307  0.00  0.00     0.002 A 
ATOM      4  C5  UNL d   1       1.579  -2.978   0.788  0.00  0.00    -0.080 A 
ATOM      5  C6  UNL d   1       2.544  -4.124   0.842  0.00  0.00     0.076 C 
ATOM      6  C7  UNL d   1       0.683  -2.769   1.843  0.00  0.00     0.002 A 
ATOM      7  C8  UNL d   1      -0.239  -1.722   1.792  0.00  0.00     0.006 A 
ENDROOT
BRANCH   1   8
ATOM      8  C1  UNL d   1      -1.316   0.228   0.607  0.00  0.00     0.054 C 
ATOM      9  C   UNL d   1      -2.613  -0.290   0.002  0.00  0.00     0.018 C 
ENDBRANCH   1   8
TORSDOF 1
ENDMDL
