MODEL 1
REMARK minimizedAffinity 5.10773373
REMARK minimizedRMSD -1
REMARK  1 active torsions:
REMARK  status: ('A' for Active; 'I' for Inactive)
REMARK    1  A    between atoms: C1_2  and  C2_3 
ROOT
ATOM      1  C2  UNL d   1       0.625  -1.947   0.771  0.00  0.00    -0.081 A 
ATOM      2  C3  UNL d   1       0.580  -3.274   1.217  0.00  0.00     0.006 A 
ATOM      3  C4  UNL d   1       1.549  -4.192   0.805  0.00  0.00     0.002 A 
ATOM      4  C5  UNL d   1       2.582  -3.798  -0.052  0.00  0.00    -0.080 A 
ATOM      5  C6  UNL d   1       3.645  -4.766  -0.478  0.00  0.00     0.076 C 
ATOM      6  C7  UNL d   1       2.616  -2.477  -0.511  0.00  0.00     0.002 A 
ATOM      7  C8  UNL d   1       1.648  -1.558  -0.100  0.00  0.00     0.006 A 
ENDROOT
BRANCH   1   8
ATOM      8  C1  UNL d   1      -0.381  -0.939   1.265  0.00  0.00     0.054 C 
ATOM      9  C   UNL d   1       0.252   0.041   2.243  0.00  0.00     0.018 C 
ENDBRANCH   1   8
TORSDOF 1
ENDMDL
