MODEL 1
REMARK minimizedAffinity 10.0357895
REMARK minimizedRMSD -1
REMARK  1 active torsions:
REMARK  status: ('A' for Active; 'I' for Inactive)
REMARK    1  A    between atoms: C1_2  and  C2_3 
ROOT
ATOM      1  C2  UNL d   1       1.955   0.738   1.429  0.00  0.00    -0.081 A 
ATOM      2  C3  UNL d   1       0.903  -0.118   1.776  0.00  0.00     0.006 A 
ATOM      3  C4  UNL d   1       0.806  -1.389   1.205  0.00  0.00     0.002 A 
ATOM      4  C5  UNL d   1       1.763  -1.828   0.284  0.00  0.00    -0.080 A 
ATOM      5  C6  UNL d   1       1.688  -3.202  -0.313  0.00  0.00     0.076 C 
ATOM      6  C7  UNL d   1       2.805  -0.967  -0.076  0.00  0.00     0.002 A 
ATOM      7  C8  UNL d   1       2.902   0.305   0.495  0.00  0.00     0.006 A 
ENDROOT
BRANCH   1   8
ATOM      8  C1  UNL d   1       2.099   2.085   2.092  0.00  0.00     0.054 C 
ATOM      9  C   UNL d   1       3.337   2.817   1.594  0.00  0.00     0.018 C 
ENDBRANCH   1   8
TORSDOF 1
ENDMDL
