MODEL 1
REMARK minimizedAffinity -4.83583689
REMARK minimizedRMSD -1
REMARK  1 active torsions:
REMARK  status: ('A' for Active; 'I' for Inactive)
REMARK    1  A    between atoms: C1_2  and  C2_3 
ROOT
ATOM      1  C2  UNL d   1       1.848  -3.566   1.278  0.00  0.00    -0.081 A 
ATOM      2  C3  UNL d   1       0.697  -3.315   2.033  0.00  0.00     0.006 A 
ATOM      3  C4  UNL d   1      -0.079  -2.179   1.786  0.00  0.00     0.002 A 
ATOM      4  C5  UNL d   1       0.280  -1.281   0.775  0.00  0.00    -0.080 A 
ATOM      5  C6  UNL d   1      -0.561  -0.074   0.479  0.00  0.00     0.076 C 
ATOM      6  C7  UNL d   1       1.440  -1.523   0.032  0.00  0.00     0.002 A 
ATOM      7  C8  UNL d   1       2.216  -2.657   0.279  0.00  0.00     0.006 A 
ENDROOT
BRANCH   1   8
ATOM      8  C1  UNL d   1       2.651  -4.822   1.498  0.00  0.00     0.054 C 
ATOM      9  C   UNL d   1       3.633  -4.657   2.649  0.00  0.00     0.018 C 
ENDBRANCH   1   8
TORSDOF 1
ENDMDL
