MODEL 1
REMARK minimizedAffinity -3.33560348
REMARK minimizedRMSD -1
REMARK  1 active torsions:
REMARK  status: ('A' for Active; 'I' for Inactive)
REMARK    1  A    between atoms: C1_2  and  C2_3 
ROOT
ATOM      1  C2  UNL d   1       0.495  -1.525   0.894  0.00  0.00    -0.081 A 
ATOM      2  C3  UNL d   1       1.232  -1.471  -0.295  0.00  0.00     0.006 A 
ATOM      3  C4  UNL d   1       2.185  -2.450  -0.584  0.00  0.00     0.002 A 
ATOM      4  C5  UNL d   1       2.411  -3.505   0.307  0.00  0.00    -0.080 A 
ATOM      5  C6  UNL d   1       3.409  -4.580  -0.005  0.00  0.00     0.076 C 
ATOM      6  C7  UNL d   1       1.688  -3.550   1.504  0.00  0.00     0.002 A 
ATOM      7  C8  UNL d   1       0.736  -2.570   1.793  0.00  0.00     0.006 A 
ENDROOT
BRANCH   1   8
ATOM      8  C1  UNL d   1      -0.578  -0.506   1.179  0.00  0.00     0.054 C 
ATOM      9  C   UNL d   1      -0.713  -0.246   2.672  0.00  0.00     0.018 C 
ENDBRANCH   1   8
TORSDOF 1
ENDMDL
