MODEL 1
REMARK minimizedAffinity 6.79793358
REMARK minimizedRMSD -1
REMARK  1 active torsions:
REMARK  status: ('A' for Active; 'I' for Inactive)
REMARK    1  A    between atoms: C1_2  and  C2_3 
ROOT
ATOM      1  C2  UNL d   1       2.294  -3.411   0.459  0.00  0.00    -0.081 A 
ATOM      2  C3  UNL d   1       1.120  -3.635   1.189  0.00  0.00     0.006 A 
ATOM      3  C4  UNL d   1       0.266  -2.574   1.499  0.00  0.00     0.002 A 
ATOM      4  C5  UNL d   1       0.567  -1.274   1.078  0.00  0.00    -0.080 A 
ATOM      5  C6  UNL d   1      -0.357  -0.131   1.379  0.00  0.00     0.076 C 
ATOM      6  C7  UNL d   1       1.748  -1.048   0.364  0.00  0.00     0.002 A 
ATOM      7  C8  UNL d   1       2.603  -2.108   0.054  0.00  0.00     0.006 A 
ENDROOT
BRANCH   1   8
ATOM      8  C1  UNL d   1       3.184  -4.563   0.067  0.00  0.00     0.054 C 
ATOM      9  C   UNL d   1       4.238  -4.834   1.130  0.00  0.00     0.018 C 
ENDBRANCH   1   8
TORSDOF 1
ENDMDL
