MODEL 1
REMARK minimizedAffinity 6.64250803
REMARK minimizedRMSD -1
REMARK  1 active torsions:
REMARK  status: ('A' for Active; 'I' for Inactive)
REMARK    1  A    between atoms: C1_2  and  C2_3 
ROOT
ATOM      1  C2  UNL d   1      -5.376   1.643   3.090  0.00  0.00    -0.081 A 
ATOM      2  C3  UNL d   1      -5.994   1.801   4.336  0.00  0.00     0.006 A 
ATOM      3  C4  UNL d   1      -5.466   2.683   5.282  0.00  0.00     0.002 A 
ATOM      4  C5  UNL d   1      -4.316   3.427   4.995  0.00  0.00    -0.080 A 
ATOM      5  C6  UNL d   1      -3.756   4.399   5.990  0.00  0.00     0.076 C 
ATOM      6  C7  UNL d   1      -3.689   3.256   3.756  0.00  0.00     0.002 A 
ATOM      7  C8  UNL d   1      -4.216   2.374   2.811  0.00  0.00     0.006 A 
ENDROOT
BRANCH   1   8
ATOM      8  C1  UNL d   1      -5.980   0.742   2.044  0.00  0.00     0.054 C 
ATOM      9  C   UNL d   1      -5.039   0.559   0.861  0.00  0.00     0.018 C 
ENDBRANCH   1   8
TORSDOF 1
ENDMDL
