MODEL 1
REMARK minimizedAffinity -2.59836674
REMARK minimizedRMSD -1
REMARK  0 active torsions:
REMARK  status: ('A' for Active; 'I' for Inactive)
ROOT
ATOM      1  C   UNL d   1       4.157  -4.929  -5.997  0.00  0.00     0.023 A 
ATOM      2  C1  UNL d   1       3.153  -3.961  -5.998  0.00  0.00     0.003 A 
ATOM      3  C2  UNL d   1       3.487  -2.605  -5.998  0.00  0.00     0.048 A 
ATOM      4  C3  UNL d   1       4.829  -2.224  -5.998  0.00  0.00     0.023 A 
ATOM      5  C4  UNL d   1       5.837  -3.189  -5.999  0.00  0.00     0.048 A 
ATOM      6  C5  UNL d   1       5.498  -4.543  -5.998  0.00  0.00     0.003 A 
ATOM      7  I   UNL d   1       5.329  -0.207  -5.999  0.00  0.00    -0.146 I 
ENDROOT
TORSDOF 0
ENDMDL
