MODEL 1
REMARK minimizedAffinity 4.53028584
REMARK minimizedRMSD -1
REMARK  0 active torsions:
REMARK  status: ('A' for Active; 'I' for Inactive)
ROOT
ATOM      1  C   UNL d   1       0.968  -2.321   2.225  0.00  0.00     0.023 A 
ATOM      2  C1  UNL d   1       1.820  -1.294   2.630  0.00  0.00     0.003 A 
ATOM      3  C2  UNL d   1       1.836  -0.083   1.934  0.00  0.00     0.048 A 
ATOM      4  C3  UNL d   1       0.996   0.095   0.836  0.00  0.00     0.023 A 
ATOM      5  C4  UNL d   1       0.141  -0.930   0.427  0.00  0.00     0.048 A 
ATOM      6  C5  UNL d   1       0.129  -2.139   1.125  0.00  0.00     0.003 A 
ATOM      7  I   UNL d   1       1.018   1.896  -0.201  0.00  0.00    -0.146 I 
ENDROOT
TORSDOF 0
ENDMDL
