MODEL 1
REMARK minimizedAffinity 5.78836107
REMARK minimizedRMSD -1
REMARK  0 active torsions:
REMARK  status: ('A' for Active; 'I' for Inactive)
ROOT
ATOM      1  C   UNL d   1       0.616  -2.423  -1.073  0.00  0.00     0.023 A 
ATOM      2  C1  UNL d   1       0.521  -2.481  -2.463  0.00  0.00     0.003 A 
ATOM      3  C2  UNL d   1      -0.637  -2.034  -3.104  0.00  0.00     0.048 A 
ATOM      4  C3  UNL d   1      -1.695  -1.530  -2.348  0.00  0.00     0.023 A 
ATOM      5  C4  UNL d   1      -1.604  -1.470  -0.956  0.00  0.00     0.048 A 
ATOM      6  C5  UNL d   1      -0.445  -1.919  -0.320  0.00  0.00     0.003 A 
ATOM      7  I   UNL d   1      -3.419  -0.865  -3.299  0.00  0.00    -0.146 I 
ENDROOT
TORSDOF 0
ENDMDL
