MODEL 1
REMARK minimizedAffinity -3.32601142
REMARK minimizedRMSD -1
REMARK  2 active torsions:
REMARK  status: ('A' for Active; 'I' for Inactive)
REMARK    1  A    between atoms: C1_2  and  C2_3 
REMARK    2  A    between atoms: C2_3  and  C3_4 
ROOT
ATOM      1  C3  UNL d   1       4.514   3.867  -0.548  0.00  0.00    -0.075 A 
ATOM      2  C4  UNL d   1       5.396   4.943  -0.726  0.00  0.00     0.002 A 
ATOM      3  C5  UNL d   1       5.416   6.000   0.185  0.00  0.00     0.002 A 
ATOM      4  C6  UNL d   1       4.551   6.000   1.277  0.00  0.00    -0.004 A 
ATOM      5  C7  UNL d   1       3.659   4.944   1.454  0.00  0.00     0.002 A 
ATOM      6  C8  UNL d   1       3.639   3.883   0.547  0.00  0.00     0.002 A 
ENDROOT
BRANCH   1   7
ATOM      7  C2  UNL d   1       4.507   2.706  -1.513  0.00  0.00     0.056 C 
BRANCH   7   8
ATOM      8  C1  UNL d   1       3.468   2.832  -2.632  0.00  0.00     0.007 C 
ATOM      9  C   UNL d   1       3.024   1.487  -3.193  0.00  0.00     0.009 C 
ENDBRANCH   7   8
ENDBRANCH   1   7
TORSDOF 2
ENDMDL
