MODEL 1
REMARK minimizedAffinity -4.88841391
REMARK minimizedRMSD -1
REMARK  2 active torsions:
REMARK  status: ('A' for Active; 'I' for Inactive)
REMARK    1  A    between atoms: C1_2  and  C2_3 
REMARK    2  A    between atoms: C2_3  and  C3_4 
ROOT
ATOM      1  C3  UNL d   1      -0.314  -0.807   1.466  0.00  0.00    -0.075 A 
ATOM      2  C4  UNL d   1       0.549   0.065   0.786  0.00  0.00     0.002 A 
ATOM      3  C5  UNL d   1       1.602  -0.435   0.020  0.00  0.00     0.002 A 
ATOM      4  C6  UNL d   1       1.811  -1.810  -0.069  0.00  0.00    -0.004 A 
ATOM      5  C7  UNL d   1       0.970  -2.684   0.615  0.00  0.00     0.002 A 
ATOM      6  C8  UNL d   1      -0.087  -2.187   1.379  0.00  0.00     0.002 A 
ENDROOT
BRANCH   1   7
ATOM      7  C2  UNL d   1      -1.473  -0.273   2.273  0.00  0.00     0.056 C 
BRANCH   7   8
ATOM      8  C1  UNL d   1      -1.873   1.162   1.917  0.00  0.00     0.007 C 
ATOM      9  C   UNL d   1      -3.052   1.236   0.956  0.00  0.00     0.009 C 
ENDBRANCH   7   8
ENDBRANCH   1   7
TORSDOF 2
ENDMDL
