MODEL 1
REMARK minimizedAffinity 2.83394241
REMARK minimizedRMSD -1
REMARK  2 active torsions:
REMARK  status: ('A' for Active; 'I' for Inactive)
REMARK    1  A    between atoms: C1_2  and  C2_3 
REMARK    2  A    between atoms: C2_3  and  C3_4 
ROOT
ATOM      1  C3  UNL d   1       1.793  -1.215   0.063  0.00  0.00    -0.075 A 
ATOM      2  C4  UNL d   1       1.052  -0.178   0.648  0.00  0.00     0.002 A 
ATOM      3  C5  UNL d   1      -0.218  -0.423   1.171  0.00  0.00     0.002 A 
ATOM      4  C6  UNL d   1      -0.766  -1.702   1.106  0.00  0.00    -0.004 A 
ATOM      5  C7  UNL d   1      -0.045  -2.736   0.512  0.00  0.00     0.002 A 
ATOM      6  C8  UNL d   1       1.227  -2.494  -0.008  0.00  0.00     0.002 A 
ENDROOT
BRANCH   1   7
ATOM      7  C2  UNL d   1       3.180  -0.962  -0.478  0.00  0.00     0.056 C 
BRANCH   7   8
ATOM      8  C1  UNL d   1       4.170  -2.102  -0.214  0.00  0.00     0.007 C 
ATOM      9  C   UNL d   1       5.473  -1.631   0.418  0.00  0.00     0.009 C 
ENDBRANCH   7   8
ENDBRANCH   1   7
TORSDOF 2
ENDMDL
