MODEL 1
REMARK minimizedAffinity -0.224987134
REMARK minimizedRMSD -1
REMARK  2 active torsions:
REMARK  status: ('A' for Active; 'I' for Inactive)
REMARK    1  A    between atoms: C1_2  and  C2_3 
REMARK    2  A    between atoms: C2_3  and  C3_4 
ROOT
ATOM      1  C3  UNL d   1      -0.843  -0.545   0.655  0.00  0.00    -0.075 A 
ATOM      2  C4  UNL d   1      -0.342  -1.471  -0.271  0.00  0.00     0.002 A 
ATOM      3  C5  UNL d   1       0.983  -1.902  -0.195  0.00  0.00     0.002 A 
ATOM      4  C6  UNL d   1       1.824  -1.407   0.799  0.00  0.00    -0.004 A 
ATOM      5  C7  UNL d   1       1.341  -0.475   1.714  0.00  0.00     0.002 A 
ATOM      6  C8  UNL d   1       0.015  -0.044   1.643  0.00  0.00     0.002 A 
ENDROOT
BRANCH   1   7
ATOM      7  C2  UNL d   1      -2.284  -0.096   0.596  0.00  0.00     0.056 C 
BRANCH   7   8
ATOM      8  C1  UNL d   1      -2.496   1.372   0.979  0.00  0.00     0.007 C 
ATOM      9  C   UNL d   1      -3.518   2.080   0.100  0.00  0.00     0.009 C 
ENDBRANCH   7   8
ENDBRANCH   1   7
TORSDOF 2
ENDMDL
