MODEL 1
REMARK minimizedAffinity -3.35370994
REMARK minimizedRMSD -1
REMARK  2 active torsions:
REMARK  status: ('A' for Active; 'I' for Inactive)
REMARK    1  A    between atoms: C1_2  and  C2_3 
REMARK    2  A    between atoms: C2_3  and  C3_4 
ROOT
ATOM      1  C3  UNL d   1      -0.278  -0.727   1.760  0.00  0.00    -0.075 A 
ATOM      2  C4  UNL d   1      -0.900  -1.879   1.256  0.00  0.00     0.002 A 
ATOM      3  C5  UNL d   1      -0.345  -2.569   0.178  0.00  0.00     0.002 A 
ATOM      4  C6  UNL d   1       0.830  -2.113  -0.415  0.00  0.00    -0.004 A 
ATOM      5  C7  UNL d   1       1.448  -0.961   0.067  0.00  0.00     0.002 A 
ATOM      6  C8  UNL d   1       0.897  -0.270   1.148  0.00  0.00     0.002 A 
ENDROOT
BRANCH   1   7
ATOM      7  C2  UNL d   1      -0.857   0.008   2.945  0.00  0.00     0.056 C 
BRANCH   7   8
ATOM      8  C1  UNL d   1      -0.148  -0.289   4.270  0.00  0.00     0.007 C 
ATOM      9  C   UNL d   1       1.076  -1.181   4.110  0.00  0.00     0.009 C 
ENDBRANCH   7   8
ENDBRANCH   1   7
TORSDOF 2
ENDMDL
