MODEL 1
REMARK minimizedAffinity -1.63608575
REMARK minimizedRMSD -1
REMARK  2 active torsions:
REMARK  status: ('A' for Active; 'I' for Inactive)
REMARK    1  A    between atoms: C1_2  and  C2_3 
REMARK    2  A    between atoms: C2_3  and  C3_4 
ROOT
ATOM      1  C3  UNL d   1       0.934  -2.652  -0.120  0.00  0.00    -0.075 A 
ATOM      2  C4  UNL d   1       1.431  -1.341  -0.097  0.00  0.00     0.002 A 
ATOM      3  C5  UNL d   1       0.693  -0.314   0.492  0.00  0.00     0.002 A 
ATOM      4  C6  UNL d   1      -0.553  -0.582   1.055  0.00  0.00    -0.004 A 
ATOM      5  C7  UNL d   1      -1.064  -1.878   1.022  0.00  0.00     0.002 A 
ATOM      6  C8  UNL d   1      -0.326  -2.908   0.437  0.00  0.00     0.002 A 
ENDROOT
BRANCH   1   7
ATOM      7  C2  UNL d   1       1.741  -3.773  -0.730  0.00  0.00     0.056 C 
BRANCH   7   8
ATOM      8  C1  UNL d   1       3.257  -3.596  -0.593  0.00  0.00     0.007 C 
ATOM      9  C   UNL d   1       4.004  -4.915  -0.440  0.00  0.00     0.009 C 
ENDBRANCH   7   8
ENDBRANCH   1   7
TORSDOF 2
ENDMDL
