MODEL 1
REMARK minimizedAffinity -0.876511991
REMARK minimizedRMSD -1
REMARK  2 active torsions:
REMARK  status: ('A' for Active; 'I' for Inactive)
REMARK    1  A    between atoms: C1_2  and  C2_3 
REMARK    2  A    between atoms: C2_3  and  C3_4 
ROOT
ATOM      1  C3  UNL d   1       1.469  -2.624  -0.062  0.00  0.00    -0.075 A 
ATOM      2  C4  UNL d   1       2.107  -1.492   0.466  0.00  0.00     0.002 A 
ATOM      3  C5  UNL d   1       1.359  -0.421   0.956  0.00  0.00     0.002 A 
ATOM      4  C6  UNL d   1      -0.033  -0.464   0.917  0.00  0.00    -0.004 A 
ATOM      5  C7  UNL d   1      -0.677  -1.576   0.380  0.00  0.00     0.002 A 
ATOM      6  C8  UNL d   1       0.068  -2.651  -0.108  0.00  0.00     0.002 A 
ENDROOT
BRANCH   1   7
ATOM      7  C2  UNL d   1       2.272  -3.799  -0.567  0.00  0.00     0.056 C 
BRANCH   7   8
ATOM      8  C1  UNL d   1       3.774  -3.695  -0.284  0.00  0.00     0.007 C 
ATOM      9  C   UNL d   1       4.486  -5.041  -0.318  0.00  0.00     0.009 C 
ENDBRANCH   7   8
ENDBRANCH   1   7
TORSDOF 2
ENDMDL
