MODEL 1
REMARK minimizedAffinity 7.44191742
REMARK minimizedRMSD -1
REMARK  2 active torsions:
REMARK  status: ('A' for Active; 'I' for Inactive)
REMARK    1  A    between atoms: C1_2  and  C2_3 
REMARK    2  A    between atoms: C2_3  and  C3_4 
ROOT
ATOM      1  C3  UNL d   1       0.508  -0.883   1.506  0.00  0.00    -0.075 A 
ATOM      2  C4  UNL d   1       1.839  -0.671   1.121  0.00  0.00     0.002 A 
ATOM      3  C5  UNL d   1       2.819  -0.402   2.077  0.00  0.00     0.002 A 
ATOM      4  C6  UNL d   1       2.479  -0.331   3.426  0.00  0.00    -0.004 A 
ATOM      5  C7  UNL d   1       1.156  -0.523   3.818  0.00  0.00     0.002 A 
ATOM      6  C8  UNL d   1       0.175  -0.797   2.864  0.00  0.00     0.002 A 
ENDROOT
BRANCH   1   7
ATOM      7  C2  UNL d   1      -0.552  -1.204   0.479  0.00  0.00     0.056 C 
BRANCH   7   8
ATOM      8  C1  UNL d   1      -0.894  -2.694   0.381  0.00  0.00     0.007 C 
ATOM      9  C   UNL d   1       0.311  -3.566   0.053  0.00  0.00     0.009 C 
ENDBRANCH   7   8
ENDBRANCH   1   7
TORSDOF 2
ENDMDL
