MODEL 1
REMARK minimizedAffinity 2.26416492
REMARK minimizedRMSD -1
REMARK  2 active torsions:
REMARK  status: ('A' for Active; 'I' for Inactive)
REMARK    1  A    between atoms: C1_2  and  C2_3 
REMARK    2  A    between atoms: C2_3  and  C3_4 
ROOT
ATOM      1  C3  UNL d   1       1.521  -1.057  -0.679  0.00  0.00    -0.075 A 
ATOM      2  C4  UNL d   1       0.877  -2.005  -1.487  0.00  0.00     0.002 A 
ATOM      3  C5  UNL d   1      -0.235  -2.701  -1.013  0.00  0.00     0.002 A 
ATOM      4  C6  UNL d   1      -0.711  -2.466   0.275  0.00  0.00    -0.004 A 
ATOM      5  C7  UNL d   1      -0.068  -1.538   1.093  0.00  0.00     0.002 A 
ATOM      6  C8  UNL d   1       1.042  -0.837   0.619  0.00  0.00     0.002 A 
ENDROOT
BRANCH   1   7
ATOM      7  C2  UNL d   1       2.708  -0.279  -1.197  0.00  0.00     0.056 C 
BRANCH   7   8
ATOM      8  C1  UNL d   1       2.537   0.238  -2.629  0.00  0.00     0.007 C 
ATOM      9  C   UNL d   1       3.310   1.523  -2.899  0.00  0.00     0.009 C 
ENDBRANCH   7   8
ENDBRANCH   1   7
TORSDOF 2
ENDMDL
