MODEL 1
REMARK minimizedAffinity -1.50006247
REMARK minimizedRMSD -1
REMARK  2 active torsions:
REMARK  status: ('A' for Active; 'I' for Inactive)
REMARK    1  A    between atoms: C1_2  and  C2_3 
REMARK    2  A    between atoms: C2_3  and  C3_4 
ROOT
ATOM      1  C3  UNL d   1       2.030   4.480  -4.500  0.00  0.00    -0.075 A 
ATOM      2  C4  UNL d   1       1.323   4.487  -3.289  0.00  0.00     0.002 A 
ATOM      3  C5  UNL d   1       0.150   5.232  -3.158  0.00  0.00     0.002 A 
ATOM      4  C6  UNL d   1      -0.323   5.986  -4.229  0.00  0.00    -0.004 A 
ATOM      5  C7  UNL d   1       0.380   5.999  -5.432  0.00  0.00     0.002 A 
ATOM      6  C8  UNL d   1       1.551   5.251  -5.568  0.00  0.00     0.002 A 
ENDROOT
BRANCH   1   7
ATOM      7  C2  UNL d   1       3.283   3.652  -4.658  0.00  0.00     0.056 C 
BRANCH   7   8
ATOM      8  C1  UNL d   1       3.345   2.432  -3.733  0.00  0.00     0.007 C 
ATOM      9  C   UNL d   1       4.384   2.570  -2.627  0.00  0.00     0.009 C 
ENDBRANCH   7   8
ENDBRANCH   1   7
TORSDOF 2
ENDMDL
