MODEL 1
REMARK minimizedAffinity 7.15964651
REMARK minimizedRMSD -1
REMARK  0 active torsions:
REMARK  status: ('A' for Active; 'I' for Inactive)
ROOT
ATOM      1  C1  BNZ d   1       0.402   2.193   4.684  0.00  0.00     0.000 A 
ATOM      2  C2  BNZ d   1      -0.569   2.566   3.793  0.00  0.00     0.000 A 
ATOM      3  C3  BNZ d   1      -0.749   1.879   2.625  0.00  0.00     0.000 A 
ATOM      4  C4  BNZ d   1       0.067   0.846   2.331  0.00  0.00     0.000 A 
ATOM      5  C5  BNZ d   1       1.056   0.463   3.215  0.00  0.00     0.000 A 
ATOM      6  C6  BNZ d   1       1.209   1.133   4.407  0.00  0.00     0.000 A 
ENDROOT
TORSDOF 0
ENDMDL
