MODEL 1
REMARK minimizedAffinity 5.55301237
REMARK minimizedRMSD -1
REMARK  0 active torsions:
REMARK  status: ('A' for Active; 'I' for Inactive)
ROOT
ATOM      1  C1  BNZ d   1      -5.502  -3.285  -6.000  0.00  0.00     0.000 A 
ATOM      2  C2  BNZ d   1      -4.658  -2.450  -5.318  0.00  0.00     0.000 A 
ATOM      3  C3  BNZ d   1      -3.579  -2.945  -4.640  0.00  0.00     0.000 A 
ATOM      4  C4  BNZ d   1      -3.370  -4.277  -4.611  0.00  0.00     0.000 A 
ATOM      5  C5  BNZ d   1      -4.217  -5.134  -5.285  0.00  0.00     0.000 A 
ATOM      6  C6  BNZ d   1      -5.280  -4.628  -5.999  0.00  0.00     0.000 A 
ENDROOT
TORSDOF 0
ENDMDL
