MODEL 1
REMARK minimizedAffinity 4.7101202
REMARK minimizedRMSD -1
REMARK  0 active torsions:
REMARK  status: ('A' for Active; 'I' for Inactive)
ROOT
ATOM      1  C1  BNZ d   1      -2.637  -4.545  -2.542  0.00  0.00     0.000 A 
ATOM      2  C2  BNZ d   1      -1.346  -4.797  -2.161  0.00  0.00     0.000 A 
ATOM      3  C3  BNZ d   1      -0.297  -4.439  -2.961  0.00  0.00     0.000 A 
ATOM      4  C4  BNZ d   1      -0.542  -3.866  -4.158  0.00  0.00     0.000 A 
ATOM      5  C5  BNZ d   1      -1.838  -3.614  -4.560  0.00  0.00     0.000 A 
ATOM      6  C6  BNZ d   1      -2.889  -3.940  -3.734  0.00  0.00     0.000 A 
ENDROOT
TORSDOF 0
ENDMDL
