MODEL 1
REMARK minimizedAffinity 8.14330673
REMARK minimizedRMSD -1
REMARK  0 active torsions:
REMARK  status: ('A' for Active; 'I' for Inactive)
ROOT
ATOM      1  C1  BNZ d   1      -3.514  -4.041  -6.000  0.00  0.00     0.000 A 
ATOM      2  C2  BNZ d   1      -2.919  -4.626  -4.914  0.00  0.00     0.000 A 
ATOM      3  C3  BNZ d   1      -2.581  -3.884  -3.817  0.00  0.00     0.000 A 
ATOM      4  C4  BNZ d   1      -2.802  -2.554  -3.822  0.00  0.00     0.000 A 
ATOM      5  C5  BNZ d   1      -3.393  -1.948  -4.913  0.00  0.00     0.000 A 
ATOM      6  C6  BNZ d   1      -3.767  -2.704  -6.000  0.00  0.00     0.000 A 
ENDROOT
TORSDOF 0
ENDMDL
