MODEL 1
REMARK minimizedAffinity 1.71771312
REMARK minimizedRMSD -1
REMARK  0 active torsions:
REMARK  status: ('A' for Active; 'I' for Inactive)
ROOT
ATOM      1  C1  BNZ d   1      -0.271  -4.123  -4.088  0.00  0.00     0.000 A 
ATOM      2  C2  BNZ d   1       0.014  -4.935  -3.023  0.00  0.00     0.000 A 
ATOM      3  C3  BNZ d   1      -0.989  -5.522  -2.303  0.00  0.00     0.000 A 
ATOM      4  C4  BNZ d   1      -2.273  -5.264  -2.623  0.00  0.00     0.000 A 
ATOM      5  C5  BNZ d   1      -2.576  -4.440  -3.689  0.00  0.00     0.000 A 
ATOM      6  C6  BNZ d   1      -1.564  -3.882  -4.435  0.00  0.00     0.000 A 
ENDROOT
TORSDOF 0
ENDMDL
