MODEL 1
REMARK minimizedAffinity 2.907269
REMARK minimizedRMSD -1
REMARK  0 active torsions:
REMARK  status: ('A' for Active; 'I' for Inactive)
ROOT
ATOM      1  C1  BNZ d   1       1.414  -1.535  -2.156  0.00  0.00     0.000 A 
ATOM      2  C2  BNZ d   1       2.473  -1.655  -1.295  0.00  0.00     0.000 A 
ATOM      3  C3  BNZ d   1       2.821  -2.872  -0.779  0.00  0.00     0.000 A 
ATOM      4  C4  BNZ d   1       2.086  -3.959  -1.092  0.00  0.00     0.000 A 
ATOM      5  C5  BNZ d   1       1.011  -3.853  -1.950  0.00  0.00     0.000 A 
ATOM      6  C6  BNZ d   1       0.687  -2.633  -2.499  0.00  0.00     0.000 A 
ENDROOT
TORSDOF 0
ENDMDL
