MODEL 1
REMARK minimizedAffinity 11.6030073
REMARK minimizedRMSD -1
REMARK  0 active torsions:
REMARK  status: ('A' for Active; 'I' for Inactive)
ROOT
ATOM      1  C1  BNZ d   1      -4.589  -2.335   3.681  0.00  0.00     0.000 A 
ATOM      2  C2  BNZ d   1      -3.668  -1.627   4.406  0.00  0.00     0.000 A 
ATOM      3  C3  BNZ d   1      -3.259  -0.387   4.000  0.00  0.00     0.000 A 
ATOM      4  C4  BNZ d   1      -3.741   0.125   2.849  0.00  0.00     0.000 A 
ATOM      5  C5  BNZ d   1      -4.663  -0.580   2.101  0.00  0.00     0.000 A 
ATOM      6  C6  BNZ d   1      -5.101  -1.811   2.534  0.00  0.00     0.000 A 
ENDROOT
TORSDOF 0
ENDMDL
