MODEL 1
REMARK minimizedAffinity 4.7743659
REMARK minimizedRMSD -1
REMARK  0 active torsions:
REMARK  status: ('A' for Active; 'I' for Inactive)
ROOT
ATOM      1  C1  BNZ d   1       1.995   0.008  -2.270  0.00  0.00     0.000 A 
ATOM      2  C2  BNZ d   1       1.487  -1.123  -2.852  0.00  0.00     0.000 A 
ATOM      3  C3  BNZ d   1       1.695  -2.352  -2.293  0.00  0.00     0.000 A 
ATOM      4  C4  BNZ d   1       2.443  -2.454  -1.175  0.00  0.00     0.000 A 
ATOM      5  C5  BNZ d   1       2.969  -1.325  -0.581  0.00  0.00     0.000 A 
ATOM      6  C6  BNZ d   1       2.725  -0.085  -1.125  0.00  0.00     0.000 A 
ENDROOT
TORSDOF 0
ENDMDL
