MODEL 1
REMARK minimizedAffinity 10.2141924
REMARK minimizedRMSD -1
REMARK  0 active torsions:
REMARK  status: ('A' for Active; 'I' for Inactive)
ROOT
ATOM      1  C1  BNZ d   1       0.025   0.721   3.251  0.00  0.00     0.000 A 
ATOM      2  C2  BNZ d   1      -0.321   0.372   4.529  0.00  0.00     0.000 A 
ATOM      3  C3  BNZ d   1       0.409   0.814   5.597  0.00  0.00     0.000 A 
ATOM      4  C4  BNZ d   1       1.506   1.570   5.384  0.00  0.00     0.000 A 
ATOM      5  C5  BNZ d   1       1.872   1.923   4.100  0.00  0.00     0.000 A 
ATOM      6  C6  BNZ d   1       1.113   1.508   3.030  0.00  0.00     0.000 A 
ENDROOT
TORSDOF 0
ENDMDL
