MODEL 1
REMARK minimizedAffinity 8.61198616
REMARK minimizedRMSD -1
REMARK  0 active torsions:
REMARK  status: ('A' for Active; 'I' for Inactive)
ROOT
ATOM      1  C1  BNZ d   1      -4.932   2.247   3.744  0.00  0.00     0.000 A 
ATOM      2  C2  BNZ d   1      -5.280   2.993   4.838  0.00  0.00     0.000 A 
ATOM      3  C3  BNZ d   1      -4.498   3.000   5.959  0.00  0.00     0.000 A 
ATOM      4  C4  BNZ d   1      -3.391   2.230   6.000  0.00  0.00     0.000 A 
ATOM      5  C5  BNZ d   1      -3.032   1.465   4.908  0.00  0.00     0.000 A 
ATOM      6  C6  BNZ d   1      -3.801   1.491   3.768  0.00  0.00     0.000 A 
ENDROOT
TORSDOF 0
ENDMDL
