MODEL 1
REMARK minimizedAffinity 6.5590744
REMARK minimizedRMSD -1
REMARK  0 active torsions:
REMARK  status: ('A' for Active; 'I' for Inactive)
ROOT
ATOM      1  C1  BNZ d   1       2.160   0.083  -2.879  0.00  0.00     0.000 A 
ATOM      2  C2  BNZ d   1       1.893  -1.252  -2.733  0.00  0.00     0.000 A 
ATOM      3  C3  BNZ d   1       2.207  -1.906  -1.574  0.00  0.00     0.000 A 
ATOM      4  C4  BNZ d   1       2.822  -1.234  -0.580  0.00  0.00     0.000 A 
ATOM      5  C5  BNZ d   1       3.107   0.110  -0.715  0.00  0.00     0.000 A 
ATOM      6  C6  BNZ d   1       2.755   0.774  -1.868  0.00  0.00     0.000 A 
ENDROOT
TORSDOF 0
ENDMDL
