MODEL 1
REMARK minimizedAffinity 11.4679451
REMARK minimizedRMSD -1
REMARK  0 active torsions:
REMARK  status: ('A' for Active; 'I' for Inactive)
ROOT
ATOM      1  C1  BNZ d   1      -5.235   2.793   4.815  0.00  0.00     0.000 A 
ATOM      2  C2  BNZ d   1      -4.879   1.977   3.774  0.00  0.00     0.000 A 
ATOM      3  C3  BNZ d   1      -3.759   1.196   3.848  0.00  0.00     0.000 A 
ATOM      4  C4  BNZ d   1      -2.977   1.262   4.944  0.00  0.00     0.000 A 
ATOM      5  C5  BNZ d   1      -3.317   2.086   5.998  0.00  0.00     0.000 A 
ATOM      6  C6  BNZ d   1      -4.466   2.841   5.937  0.00  0.00     0.000 A 
ENDROOT
TORSDOF 0
ENDMDL
