MODEL 1
REMARK minimizedAffinity -4.3555131
REMARK minimizedRMSD -1
REMARK  0 active torsions:
REMARK  status: ('A' for Active; 'I' for Inactive)
ROOT
ATOM      1  C1  BNZ d   1       2.235  -2.759  -3.129  0.00  0.00     0.000 A 
ATOM      2  C2  BNZ d   1       2.677  -3.777  -2.327  0.00  0.00     0.000 A 
ATOM      3  C3  BNZ d   1       2.805  -3.599  -0.977  0.00  0.00     0.000 A 
ATOM      4  C4  BNZ d   1       2.530  -2.394  -0.438  0.00  0.00     0.000 A 
ATOM      5  C5  BNZ d   1       2.092  -1.355  -1.235  0.00  0.00     0.000 A 
ATOM      6  C6  BNZ d   1       1.927  -1.549  -2.587  0.00  0.00     0.000 A 
ENDROOT
TORSDOF 0
ENDMDL
