MODEL 1
REMARK minimizedAffinity 7.93048096
REMARK minimizedRMSD -1
REMARK  0 active torsions:
REMARK  status: ('A' for Active; 'I' for Inactive)
ROOT
ATOM      1  C1  BNZ d   1      -0.742  -0.382   2.857  0.00  0.00     0.000 A 
ATOM      2  C2  BNZ d   1       0.397  -0.096   3.561  0.00  0.00     0.000 A 
ATOM      3  C3  BNZ d   1       0.655   1.176   3.989  0.00  0.00     0.000 A 
ATOM      4  C4  BNZ d   1      -0.206   2.167   3.678  0.00  0.00     0.000 A 
ATOM      5  C5  BNZ d   1      -1.354   1.897   2.961  0.00  0.00     0.000 A 
ATOM      6  C6  BNZ d   1      -1.629   0.608   2.565  0.00  0.00     0.000 A 
ENDROOT
TORSDOF 0
ENDMDL
