MODEL 1
REMARK minimizedAffinity 12.9433107
REMARK minimizedRMSD -1
REMARK  0 active torsions:
REMARK  status: ('A' for Active; 'I' for Inactive)
ROOT
ATOM      1  C1  BNZ d   1      -3.370  -3.519  -3.131  0.00  0.00     0.000 A 
ATOM      2  C2  BNZ d   1      -2.271  -2.701  -3.137  0.00  0.00     0.000 A 
ATOM      3  C3  BNZ d   1      -1.048  -3.171  -2.749  0.00  0.00     0.000 A 
ATOM      4  C4  BNZ d   1      -0.932  -4.443  -2.318  0.00  0.00     0.000 A 
ATOM      5  C5  BNZ d   1      -2.032  -5.277  -2.297  0.00  0.00     0.000 A 
ATOM      6  C6  BNZ d   1      -3.254  -4.812  -2.725  0.00  0.00     0.000 A 
ENDROOT
TORSDOF 0
ENDMDL
