MODEL 1
REMARK minimizedAffinity 2.79065084
REMARK minimizedRMSD -1
REMARK  0 active torsions:
REMARK  status: ('A' for Active; 'I' for Inactive)
ROOT
ATOM      1  C1  BNZ d   1       1.830  -1.754  -2.505  0.00  0.00     0.000 A 
ATOM      2  C2  BNZ d   1       2.366  -1.231  -1.358  0.00  0.00     0.000 A 
ATOM      3  C3  BNZ d   1       2.576  -2.019  -0.262  0.00  0.00     0.000 A 
ATOM      4  C4  BNZ d   1       2.215  -3.317  -0.299  0.00  0.00     0.000 A 
ATOM      5  C5  BNZ d   1       1.665  -3.857  -1.445  0.00  0.00     0.000 A 
ATOM      6  C6  BNZ d   1       1.490  -3.070  -2.560  0.00  0.00     0.000 A 
ENDROOT
TORSDOF 0
ENDMDL
