MODEL 1
REMARK minimizedAffinity 2.90003324
REMARK minimizedRMSD -1
REMARK  2 active torsions:
REMARK  status: ('A' for Active; 'I' for Inactive)
REMARK    1  A    between atoms: C1_2  and  C2_3 
REMARK    2  A    between atoms: C2_3  and  C3_4 
ROOT
ATOM      1  C3  UNL d   1       0.381   2.308   0.538  0.00  0.00    -0.075 A 
ATOM      2  C4  UNL d   1       1.168   3.376   0.993  0.00  0.00     0.002 A 
ATOM      3  C5  UNL d   1       1.468   4.445   0.148  0.00  0.00     0.002 A 
ATOM      4  C6  UNL d   1       0.995   4.455  -1.163  0.00  0.00    -0.004 A 
ATOM      5  C7  UNL d   1       0.226   3.392  -1.630  0.00  0.00     0.002 A 
ATOM      6  C8  UNL d   1      -0.079   2.323  -0.786  0.00  0.00     0.002 A 
ENDROOT
BRANCH   1   7
ATOM      7  C2  UNL d   1       0.028   1.163   1.456  0.00  0.00     0.056 C 
BRANCH   7   8
ATOM      8  C1  UNL d   1       1.239   0.508   2.130  0.00  0.00     0.007 C 
ATOM      9  C   UNL d   1       1.491  -0.917   1.656  0.00  0.00     0.009 C 
ENDBRANCH   7   8
ENDBRANCH   1   7
TORSDOF 2
ENDMDL
