MODEL 1
REMARK minimizedAffinity -0.0750781298
REMARK minimizedRMSD -1
REMARK  2 active torsions:
REMARK  status: ('A' for Active; 'I' for Inactive)
REMARK    1  A    between atoms: C1_2  and  C2_3 
REMARK    2  A    between atoms: C2_3  and  C3_4 
ROOT
ATOM      1  C3  UNL d   1      -0.219   2.855  -0.101  0.00  0.00    -0.075 A 
ATOM      2  C4  UNL d   1       0.885   3.164  -0.909  0.00  0.00     0.002 A 
ATOM      3  C5  UNL d   1       1.032   4.443  -1.448  0.00  0.00     0.002 A 
ATOM      4  C6  UNL d   1       0.075   5.423  -1.195  0.00  0.00    -0.004 A 
ATOM      5  C7  UNL d   1      -1.034   5.121  -0.408  0.00  0.00     0.002 A 
ATOM      6  C8  UNL d   1      -1.182   3.844   0.136  0.00  0.00     0.002 A 
ENDROOT
BRANCH   1   7
ATOM      7  C2  UNL d   1      -0.368   1.482   0.510  0.00  0.00     0.056 C 
BRANCH   7   8
ATOM      8  C1  UNL d   1       0.761   1.102   1.474  0.00  0.00     0.007 C 
ATOM      9  C   UNL d   1       1.053  -0.393   1.497  0.00  0.00     0.009 C 
ENDBRANCH   7   8
ENDBRANCH   1   7
TORSDOF 2
ENDMDL
