MODEL 1
REMARK minimizedAffinity 7.26715088
REMARK minimizedRMSD -1
REMARK  2 active torsions:
REMARK  status: ('A' for Active; 'I' for Inactive)
REMARK    1  A    between atoms: C1_2  and  C2_3 
REMARK    2  A    between atoms: C2_3  and  C3_4 
ROOT
ATOM      1  C3  UNL d   1       0.500   3.684  -0.590  0.00  0.00    -0.075 A 
ATOM      2  C4  UNL d   1       0.907   3.725  -1.932  0.00  0.00     0.002 A 
ATOM      3  C5  UNL d   1       0.626   4.839  -2.723  0.00  0.00     0.002 A 
ATOM      4  C6  UNL d   1      -0.072   5.919  -2.189  0.00  0.00    -0.004 A 
ATOM      5  C7  UNL d   1      -0.495   5.883  -0.862  0.00  0.00     0.002 A 
ATOM      6  C8  UNL d   1      -0.212   4.772  -0.066  0.00  0.00     0.002 A 
ENDROOT
BRANCH   1   7
ATOM      7  C2  UNL d   1       0.827   2.495   0.281  0.00  0.00     0.056 C 
BRANCH   7   8
ATOM      8  C1  UNL d   1      -0.010   2.410   1.561  0.00  0.00     0.007 C 
ATOM      9  C   UNL d   1       0.432   1.291   2.495  0.00  0.00     0.009 C 
ENDBRANCH   7   8
ENDBRANCH   1   7
TORSDOF 2
ENDMDL
