MODEL 1
REMARK minimizedAffinity 6.21944618
REMARK minimizedRMSD -1
REMARK  2 active torsions:
REMARK  status: ('A' for Active; 'I' for Inactive)
REMARK    1  A    between atoms: C1_2  and  C2_3 
REMARK    2  A    between atoms: C2_3  and  C3_4 
ROOT
ATOM      1  C3  UNL d   1      -1.660   1.044   0.178  0.00  0.00    -0.075 A 
ATOM      2  C4  UNL d   1      -0.798   1.640  -0.753  0.00  0.00     0.002 A 
ATOM      3  C5  UNL d   1       0.515   1.956  -0.401  0.00  0.00     0.002 A 
ATOM      4  C6  UNL d   1       0.978   1.690   0.886  0.00  0.00    -0.004 A 
ATOM      5  C7  UNL d   1       0.124   1.113   1.824  0.00  0.00     0.002 A 
ATOM      6  C8  UNL d   1      -1.188   0.791   1.473  0.00  0.00     0.002 A 
ENDROOT
BRANCH   1   7
ATOM      7  C2  UNL d   1      -3.073   0.672  -0.205  0.00  0.00     0.056 C 
BRANCH   7   8
ATOM      8  C1  UNL d   1      -3.997   0.416   0.990  0.00  0.00     0.007 C 
ATOM      9  C   UNL d   1      -4.887  -0.807   0.809  0.00  0.00     0.009 C 
ENDBRANCH   7   8
ENDBRANCH   1   7
TORSDOF 2
ENDMDL
