MODEL 1
REMARK minimizedAffinity -1.42459702
REMARK minimizedRMSD -1
REMARK  2 active torsions:
REMARK  status: ('A' for Active; 'I' for Inactive)
REMARK    1  A    between atoms: C1_2  and  C2_3 
REMARK    2  A    between atoms: C2_3  and  C3_4 
ROOT
ATOM      1  C3  UNL d   1       0.547   3.222  -0.341  0.00  0.00    -0.075 A 
ATOM      2  C4  UNL d   1       0.730   2.840   0.995  0.00  0.00     0.002 A 
ATOM      3  C5  UNL d   1       0.185   1.648   1.472  0.00  0.00     0.002 A 
ATOM      4  C6  UNL d   1      -0.558   0.830   0.624  0.00  0.00    -0.004 A 
ATOM      5  C7  UNL d   1      -0.761   1.208  -0.702  0.00  0.00     0.002 A 
ATOM      6  C8  UNL d   1      -0.212   2.398  -1.183  0.00  0.00     0.002 A 
ENDROOT
BRANCH   1   7
ATOM      7  C2  UNL d   1       1.160   4.497  -0.871  0.00  0.00     0.056 C 
BRANCH   7   8
ATOM      8  C1  UNL d   1       0.181   5.384  -1.647  0.00  0.00     0.007 C 
ATOM      9  C   UNL d   1       0.788   5.992  -2.904  0.00  0.00     0.009 C 
ENDBRANCH   7   8
ENDBRANCH   1   7
TORSDOF 2
ENDMDL
