MODEL 1
REMARK minimizedAffinity -4.14190578
REMARK minimizedRMSD -1
REMARK  0 active torsions:
REMARK  status: ('A' for Active; 'I' for Inactive)
ROOT
ATOM      1  N1  IND d   1      -0.932  -0.910  -0.237  0.00  0.00    -0.196 N 
ATOM      2  C2  IND d   1      -1.543   0.310  -0.312  0.00  0.00     0.054 A 
ATOM      3  C3  IND d   1      -0.635   1.276  -0.574  0.00  0.00    -0.031 A 
ATOM      4  C4  IND d   1       1.892   1.067  -1.021  0.00  0.00     0.051 A 
ATOM      5  C5  IND d   1       2.914   0.160  -1.026  0.00  0.00    -0.031 A 
ATOM      6  C6  IND d   1       2.701  -1.179  -0.766  0.00  0.00     0.015 A 
ATOM      7  C7  IND d   1       1.451  -1.663  -0.502  0.00  0.00    -0.016 A 
ATOM      8  C8  IND d   1       0.412  -0.743  -0.488  0.00  0.00    -0.047 A 
ATOM      9  C9  IND d   1       0.629   0.623  -0.709  0.00  0.00    -0.096 A 
ATOM     10  HN1 IND d   1      -1.321  -1.657  -0.064  0.00  0.00     0.298 HD
ENDROOT
TORSDOF 0
ENDMDL
