MODEL 1
REMARK minimizedAffinity 3.51887131
REMARK minimizedRMSD -1
REMARK  0 active torsions:
REMARK  status: ('A' for Active; 'I' for Inactive)
ROOT
ATOM      1  N1  IND d   1       0.144   0.753   0.218  0.00  0.00    -0.196 N 
ATOM      2  C2  IND d   1      -0.203  -0.510  -0.173  0.00  0.00     0.054 A 
ATOM      3  C3  IND d   1      -0.937  -1.115   0.787  0.00  0.00    -0.031 A 
ATOM      4  C4  IND d   1      -1.776  -0.183   3.035  0.00  0.00     0.051 A 
ATOM      5  C5  IND d   1      -1.684   0.912   3.849  0.00  0.00    -0.031 A 
ATOM      6  C6  IND d   1      -0.967   2.033   3.485  0.00  0.00     0.015 A 
ATOM      7  C7  IND d   1      -0.320   2.106   2.284  0.00  0.00    -0.016 A 
ATOM      8  C8  IND d   1      -0.405   0.994   1.458  0.00  0.00    -0.047 A 
ATOM      9  C9  IND d   1      -1.096  -0.163   1.840  0.00  0.00    -0.096 A 
ATOM     10  HN1 IND d   1       0.624   1.304  -0.235  0.00  0.00     0.298 HD
ENDROOT
TORSDOF 0
ENDMDL
