MODEL 1
REMARK minimizedAffinity 1.10896099
REMARK minimizedRMSD -1
REMARK  0 active torsions:
REMARK  status: ('A' for Active; 'I' for Inactive)
ROOT
ATOM      1  N1  IND d   1       1.705   1.533  -1.467  0.00  0.00    -0.196 N 
ATOM      2  C2  IND d   1       0.611   2.090  -0.867  0.00  0.00     0.054 A 
ATOM      3  C3  IND d   1      -0.137   1.134  -0.271  0.00  0.00    -0.031 A 
ATOM      4  C4  IND d   1       0.301  -1.395  -0.069  0.00  0.00     0.051 A 
ATOM      5  C5  IND d   1       1.154  -2.377  -0.487  0.00  0.00    -0.031 A 
ATOM      6  C6  IND d   1       2.259  -2.101  -1.266  0.00  0.00     0.015 A 
ATOM      7  C7  IND d   1       2.558  -0.824  -1.649  0.00  0.00    -0.016 A 
ATOM      8  C8  IND d   1       1.690   0.175  -1.233  0.00  0.00    -0.047 A 
ATOM      9  C9  IND d   1       0.544  -0.105  -0.477  0.00  0.00    -0.096 A 
ATOM     10  HN1 IND d   1       2.302   1.958  -1.916  0.00  0.00     0.298 HD
ENDROOT
TORSDOF 0
ENDMDL
