MODEL 1
REMARK minimizedAffinity -3.06421947
REMARK minimizedRMSD -1
REMARK  0 active torsions:
REMARK  status: ('A' for Active; 'I' for Inactive)
ROOT
ATOM      1  N1  IND d   1       1.992   1.135  -1.296  0.00  0.00    -0.196 N 
ATOM      2  C2  IND d   1       3.056   0.278  -1.357  0.00  0.00     0.054 A 
ATOM      3  C3  IND d   1       2.704  -0.942  -0.893  0.00  0.00    -0.031 A 
ATOM      4  C4  IND d   1       0.411  -1.785  -0.081  0.00  0.00     0.051 A 
ATOM      5  C5  IND d   1      -0.858  -1.358   0.191  0.00  0.00    -0.031 A 
ATOM      6  C6  IND d   1      -1.251  -0.053  -0.026  0.00  0.00     0.015 A 
ATOM      7  C7  IND d   1      -0.388   0.875  -0.535  0.00  0.00    -0.016 A 
ATOM      8  C8  IND d   1       0.904   0.448  -0.806  0.00  0.00    -0.047 A 
ATOM      9  C9  IND d   1       1.320  -0.865  -0.549  0.00  0.00    -0.096 A 
ATOM     10  HN1 IND d   1       2.002   1.964  -1.525  0.00  0.00     0.298 HD
ENDROOT
TORSDOF 0
ENDMDL
