MODEL 1
REMARK minimizedAffinity -4.53212166
REMARK minimizedRMSD -1
REMARK  0 active torsions:
REMARK  status: ('A' for Active; 'I' for Inactive)
ROOT
ATOM      1  N1  IND d   1       0.259   1.546   1.117  0.00  0.00    -0.196 N 
ATOM      2  C2  IND d   1      -0.640   0.894   1.914  0.00  0.00     0.054 A 
ATOM      3  C3  IND d   1      -0.603  -0.436   1.674  0.00  0.00    -0.031 A 
ATOM      4  C4  IND d   1       0.927  -1.770   0.091  0.00  0.00     0.051 A 
ATOM      5  C5  IND d   1       1.885  -1.609  -0.871  0.00  0.00    -0.031 A 
ATOM      6  C6  IND d   1       2.360  -0.363  -1.225  0.00  0.00     0.015 A 
ATOM      7  C7  IND d   1       1.903   0.773  -0.619  0.00  0.00    -0.016 A 
ATOM      8  C8  IND d   1       0.925   0.613   0.353  0.00  0.00    -0.047 A 
ATOM      9  C9  IND d   1       0.408  -0.645   0.686  0.00  0.00    -0.096 A 
ATOM     10  HN1 IND d   1       0.386   2.396   1.096  0.00  0.00     0.298 HD
ENDROOT
TORSDOF 0
ENDMDL
