MODEL 1
REMARK minimizedAffinity -2.61174393
REMARK minimizedRMSD -1
REMARK  0 active torsions:
REMARK  status: ('A' for Active; 'I' for Inactive)
ROOT
ATOM      1  N1  IND d   1       1.922  -1.863  -0.903  0.00  0.00    -0.196 N 
ATOM      2  C2  IND d   1       3.007  -1.031  -0.886  0.00  0.00     0.054 A 
ATOM      3  C3  IND d   1       2.630   0.226  -0.564  0.00  0.00    -0.031 A 
ATOM      4  C4  IND d   1       0.302   1.124   0.072  0.00  0.00     0.051 A 
ATOM      5  C5  IND d   1      -1.009   0.749   0.162  0.00  0.00    -0.031 A 
ATOM      6  C6  IND d   1      -1.418  -0.542  -0.102  0.00  0.00     0.015 A 
ATOM      7  C7  IND d   1      -0.525  -1.514  -0.455  0.00  0.00    -0.016 A 
ATOM      8  C8  IND d   1       0.806  -1.136  -0.554  0.00  0.00    -0.047 A 
ATOM      9  C9  IND d   1       1.221   0.183  -0.329  0.00  0.00    -0.096 A 
ATOM     10  HN1 IND d   1       1.935  -2.700  -1.100  0.00  0.00     0.298 HD
ENDROOT
TORSDOF 0
ENDMDL
