MODEL 1
REMARK minimizedAffinity -4.11529446
REMARK minimizedRMSD -1
REMARK  0 active torsions:
REMARK  status: ('A' for Active; 'I' for Inactive)
ROOT
ATOM      1  N1  IND d   1      -0.969  -0.673  -0.659  0.00  0.00    -0.196 N 
ATOM      2  C2  IND d   1      -1.400   0.447  -0.003  0.00  0.00     0.054 A 
ATOM      3  C3  IND d   1      -0.345   1.170   0.434  0.00  0.00    -0.031 A 
ATOM      4  C4  IND d   1       2.174   0.758   0.098  0.00  0.00     0.051 A 
ATOM      5  C5  IND d   1       3.058  -0.155  -0.405  0.00  0.00    -0.031 A 
ATOM      6  C6  IND d   1       2.637  -1.309  -1.034  0.00  0.00     0.015 A 
ATOM      7  C7  IND d   1       1.309  -1.589  -1.193  0.00  0.00    -0.016 A 
ATOM      8  C8  IND d   1       0.408  -0.668  -0.677  0.00  0.00    -0.047 A 
ATOM      9  C9  IND d   1       0.830   0.484  -0.001  0.00  0.00    -0.096 A 
ATOM     10  HN1 IND d   1      -1.474  -1.279  -1.001  0.00  0.00     0.298 HD
ENDROOT
TORSDOF 0
ENDMDL
