MODEL 1
REMARK minimizedAffinity -5.5910182
REMARK minimizedRMSD -1
REMARK  0 active torsions:
REMARK  status: ('A' for Active; 'I' for Inactive)
ROOT
ATOM      1  N1  IND d   1      -0.603   0.794   0.020  0.00  0.00    -0.196 N 
ATOM      2  C2  IND d   1      -1.393  -0.319   0.103  0.00  0.00     0.054 A 
ATOM      3  C3  IND d   1      -0.690  -1.422  -0.238  0.00  0.00    -0.031 A 
ATOM      4  C4  IND d   1       1.797  -1.647  -0.864  0.00  0.00     0.051 A 
ATOM      5  C5  IND d   1       2.917  -0.904  -1.110  0.00  0.00    -0.031 A 
ATOM      6  C6  IND d   1       2.922   0.470  -0.987  0.00  0.00     0.015 A 
ATOM      7  C7  IND d   1       1.805   1.155  -0.600  0.00  0.00    -0.016 A 
ATOM      8  C8  IND d   1       0.664   0.404  -0.356  0.00  0.00    -0.047 A 
ATOM      9  C9  IND d   1       0.641  -0.987  -0.521  0.00  0.00    -0.096 A 
ATOM     10  HN1 IND d   1      -0.855   1.601   0.177  0.00  0.00     0.298 HD
ENDROOT
TORSDOF 0
ENDMDL
