MODEL 1
REMARK minimizedAffinity -4.47669792
REMARK minimizedRMSD -1
REMARK  0 active torsions:
REMARK  status: ('A' for Active; 'I' for Inactive)
ROOT
ATOM      1  N1  IND d   1       0.160   1.525  -1.466  0.00  0.00    -0.196 N 
ATOM      2  C2  IND d   1      -1.138   1.370  -1.068  0.00  0.00     0.054 A 
ATOM      3  C3  IND d   1      -1.325   0.138  -0.544  0.00  0.00    -0.031 A 
ATOM      4  C4  IND d   1       0.384  -1.747  -0.147  0.00  0.00     0.051 A 
ATOM      5  C5  IND d   1       1.687  -2.086  -0.379  0.00  0.00    -0.031 A 
ATOM      6  C6  IND d   1       2.567  -1.219  -0.996  0.00  0.00     0.015 A 
ATOM      7  C7  IND d   1       2.177   0.028  -1.394  0.00  0.00    -0.016 A 
ATOM      8  C8  IND d   1       0.852   0.372  -1.166  0.00  0.00    -0.047 A 
ATOM      9  C9  IND d   1      -0.056  -0.518  -0.580  0.00  0.00    -0.096 A 
ATOM     10  HN1 IND d   1       0.490   2.226  -1.841  0.00  0.00     0.298 HD
ENDROOT
TORSDOF 0
ENDMDL
