MODEL 1
REMARK minimizedAffinity -5.99747133
REMARK minimizedRMSD -1
REMARK  0 active torsions:
REMARK  status: ('A' for Active; 'I' for Inactive)
ROOT
ATOM      1  N1  IND d   1      -0.841   0.733  -0.341  0.00  0.00    -0.196 N 
ATOM      2  C2  IND d   1      -0.965  -0.379   0.444  0.00  0.00     0.054 A 
ATOM      3  C3  IND d   1       0.102  -1.193   0.278  0.00  0.00    -0.031 A 
ATOM      4  C4  IND d   1       2.214  -0.850  -1.153  0.00  0.00     0.051 A 
ATOM      5  C5  IND d   1       2.766  -0.004  -2.074  0.00  0.00    -0.031 A 
ATOM      6  C6  IND d   1       2.132   1.156  -2.470  0.00  0.00     0.015 A 
ATOM      7  C7  IND d   1       0.922   1.520  -1.949  0.00  0.00    -0.016 A 
ATOM      8  C8  IND d   1       0.356   0.660  -1.020  0.00  0.00    -0.047 A 
ATOM      9  C9  IND d   1       0.974  -0.540  -0.645  0.00  0.00    -0.096 A 
ATOM     10  HN1 IND d   1      -1.415   1.371  -0.402  0.00  0.00     0.298 HD
ENDROOT
TORSDOF 0
ENDMDL
