MODEL 1
REMARK minimizedAffinity -2.51792741
REMARK minimizedRMSD -1
REMARK  0 active torsions:
REMARK  status: ('A' for Active; 'I' for Inactive)
ROOT
ATOM      1  N1  IND d   1      -1.535  -0.153   0.562  0.00  0.00    -0.196 N 
ATOM      2  C2  IND d   1      -0.258  -0.128   0.075  0.00  0.00     0.054 A 
ATOM      3  C3  IND d   1       0.572   0.466   0.962  0.00  0.00    -0.031 A 
ATOM      4  C4  IND d   1       0.068   1.379   3.315  0.00  0.00     0.051 A 
ATOM      5  C5  IND d   1      -0.962   1.612   4.183  0.00  0.00    -0.031 A 
ATOM      6  C6  IND d   1      -2.262   1.259   3.883  0.00  0.00     0.015 A 
ATOM      7  C7  IND d   1      -2.579   0.646   2.703  0.00  0.00    -0.016 A 
ATOM      8  C8  IND d   1      -1.537   0.415   1.817  0.00  0.00    -0.047 A 
ATOM      9  C9  IND d   1      -0.222   0.810   2.098  0.00  0.00    -0.096 A 
ATOM     10  HN1 IND d   1      -2.221  -0.470   0.153  0.00  0.00     0.298 HD
ENDROOT
TORSDOF 0
ENDMDL
