MODEL 1
REMARK minimizedAffinity -3.36616755
REMARK minimizedRMSD -1
REMARK  0 active torsions:
REMARK  status: ('A' for Active; 'I' for Inactive)
ROOT
ATOM      1  N1  IND d   1       0.979   1.565   0.325  0.00  0.00    -0.196 N 
ATOM      2  C2  IND d   1      -0.336   1.429   0.671  0.00  0.00     0.054 A 
ATOM      3  C3  IND d   1      -0.824   0.254   0.213  0.00  0.00    -0.031 A 
ATOM      4  C4  IND d   1       0.385  -1.642  -1.038  0.00  0.00     0.051 A 
ATOM      5  C5  IND d   1       1.584  -1.962  -1.611  0.00  0.00    -0.031 A 
ATOM      6  C6  IND d   1       2.666  -1.106  -1.564  0.00  0.00     0.015 A 
ATOM      7  C7  IND d   1       2.591   0.102  -0.930  0.00  0.00    -0.016 A 
ATOM      8  C8  IND d   1       1.373   0.433  -0.354  0.00  0.00    -0.047 A 
ATOM      9  C9  IND d   1       0.260  -0.413  -0.435  0.00  0.00    -0.096 A 
ATOM     10  HN1 IND d   1       1.477   2.244   0.501  0.00  0.00     0.298 HD
ENDROOT
TORSDOF 0
ENDMDL
