MODEL 1
REMARK minimizedAffinity -2.90639544
REMARK minimizedRMSD -1
REMARK  0 active torsions:
REMARK  status: ('A' for Active; 'I' for Inactive)
ROOT
ATOM      1  N1  IND d   1      -1.331   0.077  -0.069  0.00  0.00    -0.196 N 
ATOM      2  C2  IND d   1      -1.217   1.392  -0.424  0.00  0.00     0.054 A 
ATOM      3  C3  IND d   1       0.043   1.661  -0.834  0.00  0.00    -0.031 A 
ATOM      4  C4  IND d   1       2.050   0.072  -1.100  0.00  0.00     0.051 A 
ATOM      5  C5  IND d   1       2.443  -1.216  -0.866  0.00  0.00    -0.031 A 
ATOM      6  C6  IND d   1       1.579  -2.159  -0.347  0.00  0.00     0.015 A 
ATOM      7  C7  IND d   1       0.282  -1.850  -0.051  0.00  0.00    -0.016 A 
ATOM      8  C8  IND d   1      -0.118  -0.541  -0.280  0.00  0.00    -0.047 A 
ATOM      9  C9  IND d   1       0.765   0.431  -0.768  0.00  0.00    -0.096 A 
ATOM     10  HN1 IND d   1      -2.041  -0.301   0.236  0.00  0.00     0.298 HD
ENDROOT
TORSDOF 0
ENDMDL
