MODEL 1
REMARK minimizedAffinity -2.98326874
REMARK minimizedRMSD -1
REMARK  0 active torsions:
REMARK  status: ('A' for Active; 'I' for Inactive)
ROOT
ATOM      1  N1  IND d   1       0.026   0.594   0.517  0.00  0.00    -0.196 N 
ATOM      2  C2  IND d   1      -0.172  -0.580  -0.156  0.00  0.00     0.054 A 
ATOM      3  C3  IND d   1      -1.242  -1.235   0.348  0.00  0.00    -0.031 A 
ATOM      4  C4  IND d   1      -2.873  -0.520   2.206  0.00  0.00     0.051 A 
ATOM      5  C5  IND d   1      -3.081   0.456   3.141  0.00  0.00    -0.031 A 
ATOM      6  C6  IND d   1      -2.248   1.551   3.248  0.00  0.00     0.015 A 
ATOM      7  C7  IND d   1      -1.179   1.718   2.414  0.00  0.00    -0.016 A 
ATOM      8  C8  IND d   1      -0.961   0.725   1.469  0.00  0.00    -0.047 A 
ATOM      9  C9  IND d   1      -1.778  -0.409   1.383  0.00  0.00    -0.096 A 
ATOM     10  HN1 IND d   1       0.660   1.156   0.370  0.00  0.00     0.298 HD
ENDROOT
TORSDOF 0
ENDMDL
