MODEL 1
REMARK minimizedAffinity -5.24589825
REMARK minimizedRMSD -1
REMARK  0 active torsions:
REMARK  status: ('A' for Active; 'I' for Inactive)
ROOT
ATOM      1  N1  IND d   1      -0.502  -1.459  -0.132  0.00  0.00    -0.196 N 
ATOM      2  C2  IND d   1      -1.263  -0.384   0.234  0.00  0.00     0.054 A 
ATOM      3  C3  IND d   1      -0.554   0.760   0.105  0.00  0.00    -0.031 A 
ATOM      4  C4  IND d   1       1.835   1.112  -0.787  0.00  0.00     0.051 A 
ATOM      5  C5  IND d   1       2.939   0.426  -1.209  0.00  0.00    -0.031 A 
ATOM      6  C6  IND d   1       2.952  -0.951  -1.299  0.00  0.00     0.015 A 
ATOM      7  C7  IND d   1       1.852  -1.696  -0.978  0.00  0.00    -0.016 A 
ATOM      8  C8  IND d   1       0.731  -1.003  -0.542  0.00  0.00    -0.047 A 
ATOM      9  C9  IND d   1       0.727   0.391  -0.409  0.00  0.00    -0.096 A 
ATOM     10  HN1 IND d   1      -0.752  -2.281  -0.111  0.00  0.00     0.298 HD
ENDROOT
TORSDOF 0
ENDMDL
