MODEL 1
REMARK minimizedAffinity -1.88317597
REMARK minimizedRMSD -1
REMARK  0 active torsions:
REMARK  status: ('A' for Active; 'I' for Inactive)
ROOT
ATOM      1  N1  IND d   1       2.056  -0.300  -1.525  0.00  0.00    -0.196 N 
ATOM      2  C2  IND d   1       2.214  -1.551  -0.998  0.00  0.00     0.054 A 
ATOM      3  C3  IND d   1       1.231  -1.813  -0.107  0.00  0.00    -0.031 A 
ATOM      4  C4  IND d   1      -0.794  -0.374   0.565  0.00  0.00     0.051 A 
ATOM      5  C5  IND d   1      -1.346   0.863   0.379  0.00  0.00    -0.031 A 
ATOM      6  C6  IND d   1      -0.782   1.793  -0.470  0.00  0.00     0.015 A 
ATOM      7  C7  IND d   1       0.354   1.516  -1.177  0.00  0.00    -0.016 A 
ATOM      8  C8  IND d   1       0.921   0.264  -0.985  0.00  0.00    -0.047 A 
ATOM      9  C9  IND d   1       0.376  -0.669  -0.093  0.00  0.00    -0.096 A 
ATOM     10  HN1 IND d   1       2.579   0.073  -2.097  0.00  0.00     0.298 HD
ENDROOT
TORSDOF 0
ENDMDL
