MODEL 1
REMARK minimizedAffinity 14.8445101
REMARK minimizedRMSD -1
REMARK  0 active torsions:
REMARK  status: ('A' for Active; 'I' for Inactive)
ROOT
ATOM      1  O1  BZF d   1       0.251   2.890   1.566  0.00  0.00    -0.204 OA
ATOM      2  C2  BZF d   1       0.936   3.364   0.463  0.00  0.00     0.174 A 
ATOM      3  C3  BZF d   1       1.952   2.538   0.141  0.00  0.00    -0.012 A 
ATOM      4  C3A BZF d   1       1.842   1.434   1.045  0.00  0.00    -0.107 A 
ATOM      5  C4  BZF d   1       2.556   0.282   1.211  0.00  0.00     0.055 A 
ATOM      6  C5  BZF d   1       2.234  -0.552   2.234  0.00  0.00    -0.016 A 
ATOM      7  C6  BZF d   1       1.209  -0.264   3.111  0.00  0.00     0.022 A 
ATOM      8  C7  BZF d   1       0.469   0.864   2.983  0.00  0.00     0.029 A 
ATOM      9  C7A BZF d   1       0.771   1.694   1.930  0.00  0.00     0.058 A 
ENDROOT
TORSDOF 0
ENDMDL
