MODEL 1
REMARK minimizedAffinity 13.6540871
REMARK minimizedRMSD -1
REMARK  0 active torsions:
REMARK  status: ('A' for Active; 'I' for Inactive)
ROOT
ATOM      1  O1  BZF d   1       3.525   5.651  -6.000  0.00  0.00    -0.204 OA
ATOM      2  C2  BZF d   1       2.203   5.249  -5.979  0.00  0.00     0.174 A 
ATOM      3  C3  BZF d   1       2.041   4.181  -5.172  0.00  0.00    -0.012 A 
ATOM      4  C3A BZF d   1       3.326   3.954  -4.585  0.00  0.00    -0.107 A 
ATOM      5  C4  BZF d   1       3.799   3.043  -3.684  0.00  0.00     0.055 A 
ATOM      6  C5  BZF d   1       5.122   3.046  -3.374  0.00  0.00    -0.016 A 
ATOM      7  C6  BZF d   1       6.000   3.941  -3.949  0.00  0.00     0.022 A 
ATOM      8  C7  BZF d   1       5.576   4.867  -4.844  0.00  0.00     0.029 A 
ATOM      9  C7A BZF d   1       4.234   4.888  -5.134  0.00  0.00     0.058 A 
ENDROOT
TORSDOF 0
ENDMDL
