MODEL 1
REMARK minimizedAffinity 22.486412
REMARK minimizedRMSD -1
REMARK  0 active torsions:
REMARK  status: ('A' for Active; 'I' for Inactive)
ROOT
ATOM      1  O1  BZF d   1       2.529   5.419   0.618  0.00  0.00    -0.204 OA
ATOM      2  C2  BZF d   1       3.874   5.553   0.334  0.00  0.00     0.174 A 
ATOM      3  C3  BZF d   1       4.442   4.347   0.129  0.00  0.00    -0.012 A 
ATOM      4  C3A BZF d   1       3.366   3.406   0.203  0.00  0.00    -0.107 A 
ATOM      5  C4  BZF d   1       3.294   2.050   0.067  0.00  0.00     0.055 A 
ATOM      6  C5  BZF d   1       2.104   1.427   0.271  0.00  0.00    -0.016 A 
ATOM      7  C6  BZF d   1       0.968   2.129   0.618  0.00  0.00     0.022 A 
ATOM      8  C7  BZF d   1       0.989   3.477   0.760  0.00  0.00     0.029 A 
ATOM      9  C7A BZF d   1       2.183   4.112   0.522  0.00  0.00     0.058 A 
ENDROOT
TORSDOF 0
ENDMDL
