MODEL 1
REMARK minimizedAffinity 22.5468025
REMARK minimizedRMSD -1
REMARK  0 active torsions:
REMARK  status: ('A' for Active; 'I' for Inactive)
ROOT
ATOM      1  O1  BZF d   1       1.929   0.865   3.122  0.00  0.00    -0.204 OA
ATOM      2  C2  BZF d   1       0.965   1.548   2.407  0.00  0.00     0.174 A 
ATOM      3  C3  BZF d   1       1.433   1.907   1.194  0.00  0.00    -0.012 A 
ATOM      4  C3A BZF d   1       2.743   1.337   1.113  0.00  0.00    -0.107 A 
ATOM      5  C4  BZF d   1       3.706   1.332   0.145  0.00  0.00     0.055 A 
ATOM      6  C5  BZF d   1       4.903   0.746   0.407  0.00  0.00    -0.016 A 
ATOM      7  C6  BZF d   1       5.173   0.161   1.628  0.00  0.00     0.022 A 
ATOM      8  C7  BZF d   1       4.248   0.137   2.617  0.00  0.00     0.029 A 
ATOM      9  C7A BZF d   1       3.025   0.699   2.343  0.00  0.00     0.058 A 
ENDROOT
TORSDOF 0
ENDMDL
