MODEL 1
REMARK minimizedAffinity 8.48533058
REMARK minimizedRMSD -1
REMARK  0 active torsions:
REMARK  status: ('A' for Active; 'I' for Inactive)
ROOT
ATOM      1  O1  BZF d   1       2.328   0.262   2.469  0.00  0.00    -0.204 OA
ATOM      2  C2  BZF d   1       3.607   0.310   2.990  0.00  0.00     0.174 A 
ATOM      3  C3  BZF d   1       4.505   0.606   2.028  0.00  0.00    -0.012 A 
ATOM      4  C3A BZF d   1       3.729   0.842   0.849  0.00  0.00    -0.107 A 
ATOM      5  C4  BZF d   1       4.050   1.192  -0.431  0.00  0.00     0.055 A 
ATOM      6  C5  BZF d   1       3.063   1.271  -1.361  0.00  0.00    -0.016 A 
ATOM      7  C6  BZF d   1       1.747   1.002  -1.048  0.00  0.00     0.022 A 
ATOM      8  C7  BZF d   1       1.379   0.656   0.210  0.00  0.00     0.029 A 
ATOM      9  C7A BZF d   1       2.370   0.607   1.160  0.00  0.00     0.058 A 
ENDROOT
TORSDOF 0
ENDMDL
