MODEL 1
REMARK minimizedAffinity 9.89198399
REMARK minimizedRMSD -1
REMARK  0 active torsions:
REMARK  status: ('A' for Active; 'I' for Inactive)
ROOT
ATOM      1  O1  BZF d   1       0.826   3.906   1.566  0.00  0.00    -0.204 OA
ATOM      2  C2  BZF d   1       1.695   4.234   0.542  0.00  0.00     0.174 A 
ATOM      3  C3  BZF d   1       2.507   3.197   0.254  0.00  0.00    -0.012 A 
ATOM      4  C3A BZF d   1       2.062   2.125   1.090  0.00  0.00    -0.107 A 
ATOM      5  C4  BZF d   1       2.463   0.830   1.251  0.00  0.00     0.055 A 
ATOM      6  C5  BZF d   1       1.867   0.067   2.204  0.00  0.00    -0.016 A 
ATOM      7  C6  BZF d   1       0.871   0.567   3.016  0.00  0.00     0.022 A 
ATOM      8  C7  BZF d   1       0.435   1.844   2.891  0.00  0.00     0.029 A 
ATOM      9  C7A BZF d   1       1.013   2.608   1.907  0.00  0.00     0.058 A 
ENDROOT
TORSDOF 0
ENDMDL
