MODEL 1
REMARK minimizedAffinity 19.3332882
REMARK minimizedRMSD -1
REMARK  0 active torsions:
REMARK  status: ('A' for Active; 'I' for Inactive)
ROOT
ATOM      1  O1  BZF d   1      -3.420  -1.967  -2.606  0.00  0.00    -0.204 OA
ATOM      2  C2  BZF d   1      -2.360  -1.968  -1.719  0.00  0.00     0.174 A 
ATOM      3  C3  BZF d   1      -2.385  -3.072  -0.945  0.00  0.00    -0.012 A 
ATOM      4  C3A BZF d   1      -3.479  -3.852  -1.438  0.00  0.00    -0.107 A 
ATOM      5  C4  BZF d   1      -4.000  -5.065  -1.088  0.00  0.00     0.055 A 
ATOM      6  C5  BZF d   1      -5.117  -5.511  -1.720  0.00  0.00    -0.016 A 
ATOM      7  C6  BZF d   1      -5.742  -4.770  -2.701  0.00  0.00     0.022 A 
ATOM      8  C7  BZF d   1      -5.259  -3.563  -3.086  0.00  0.00     0.029 A 
ATOM      9  C7A BZF d   1      -4.111  -3.124  -2.472  0.00  0.00     0.058 A 
ENDROOT
TORSDOF 0
ENDMDL
