MODEL 1
REMARK minimizedAffinity 5.45467377
REMARK minimizedRMSD -1
REMARK  0 active torsions:
REMARK  status: ('A' for Active; 'I' for Inactive)
ROOT
ATOM      1  O1  BZF d   1      -3.431  -2.480  -2.991  0.00  0.00    -0.204 OA
ATOM      2  C2  BZF d   1      -2.283  -2.722  -2.262  0.00  0.00     0.174 A 
ATOM      3  C3  BZF d   1      -2.322  -3.948  -1.701  0.00  0.00    -0.012 A 
ATOM      4  C3A BZF d   1      -3.532  -4.542  -2.180  0.00  0.00    -0.107 A 
ATOM      5  C4  BZF d   1      -4.120  -5.760  -1.987  0.00  0.00     0.055 A 
ATOM      6  C5  BZF d   1      -5.338  -5.999  -2.539  0.00  0.00    -0.016 A 
ATOM      7  C6  BZF d   1      -5.999  -5.044  -3.284  0.00  0.00     0.022 A 
ATOM      8  C7  BZF d   1      -5.453  -3.824  -3.506  0.00  0.00     0.029 A 
ATOM      9  C7A BZF d   1      -4.207  -3.590  -2.977  0.00  0.00     0.058 A 
ENDROOT
TORSDOF 0
ENDMDL
