MODEL 1
REMARK minimizedAffinity 10.6099072
REMARK minimizedRMSD -1
REMARK  0 active torsions:
REMARK  status: ('A' for Active; 'I' for Inactive)
ROOT
ATOM      1  O1  BZF d   1       2.233   2.627  -4.129  0.00  0.00    -0.204 OA
ATOM      2  C2  BZF d   1       3.433   2.150  -4.620  0.00  0.00     0.174 A 
ATOM      3  C3  BZF d   1       4.032   1.345  -3.720  0.00  0.00    -0.012 A 
ATOM      4  C3A BZF d   1       3.108   1.243  -2.632  0.00  0.00    -0.107 A 
ATOM      5  C4  BZF d   1       3.126   0.570  -1.444  0.00  0.00     0.055 A 
ATOM      6  C5  BZF d   1       2.098   0.740  -0.573  0.00  0.00    -0.016 A 
ATOM      7  C6  BZF d   1       1.039   1.578  -0.854  0.00  0.00     0.022 A 
ATOM      8  C7  BZF d   1       0.973   2.263  -2.022  0.00  0.00     0.029 A 
ATOM      9  C7A BZF d   1       1.995   2.068  -2.919  0.00  0.00     0.058 A 
ENDROOT
TORSDOF 0
ENDMDL
