MODEL 1
REMARK minimizedAffinity 12.3730469
REMARK minimizedRMSD -1
REMARK  0 active torsions:
REMARK  status: ('A' for Active; 'I' for Inactive)
ROOT
ATOM      1  O1  BZF d   1       0.264   1.858   3.379  0.00  0.00    -0.204 OA
ATOM      2  C2  BZF d   1       0.321   1.181   4.582  0.00  0.00     0.174 A 
ATOM      3  C3  BZF d   1       1.451   0.451   4.668  0.00  0.00    -0.012 A 
ATOM      4  C3A BZF d   1       2.189   0.759   3.481  0.00  0.00    -0.107 A 
ATOM      5  C4  BZF d   1       3.401   0.357   2.998  0.00  0.00     0.055 A 
ATOM      6  C5  BZF d   1       3.800   0.786   1.772  0.00  0.00    -0.016 A 
ATOM      7  C6  BZF d   1       3.010   1.613   1.000  0.00  0.00     0.022 A 
ATOM      8  C7  BZF d   1       1.801   2.042   1.438  0.00  0.00     0.029 A 
ATOM      9  C7A BZF d   1       1.410   1.636   2.691  0.00  0.00     0.058 A 
ENDROOT
TORSDOF 0
ENDMDL
