MODEL 1
REMARK minimizedAffinity 1.49741721
REMARK minimizedRMSD -1
REMARK  0 active torsions:
REMARK  status: ('A' for Active; 'I' for Inactive)
ROOT
ATOM      1  O1  BZF d   1       1.253   5.231  -3.374  0.00  0.00    -0.204 OA
ATOM      2  C2  BZF d   1       0.858   4.011  -2.859  0.00  0.00     0.174 A 
ATOM      3  C3  BZF d   1       1.513   3.001  -3.466  0.00  0.00    -0.012 A 
ATOM      4  C3A BZF d   1       2.438   3.633  -4.356  0.00  0.00    -0.107 A 
ATOM      5  C4  BZF d   1       3.380   3.159  -5.224  0.00  0.00     0.055 A 
ATOM      6  C5  BZF d   1       4.066   4.039  -6.000  0.00  0.00    -0.016 A 
ATOM      7  C6  BZF d   1       3.832   5.397  -5.938  0.00  0.00     0.022 A 
ATOM      8  C7  BZF d   1       2.912   5.915  -5.088  0.00  0.00     0.029 A 
ATOM      9  C7A BZF d   1       2.240   5.031  -4.279  0.00  0.00     0.058 A 
ENDROOT
TORSDOF 0
ENDMDL
