MODEL 1
REMARK minimizedAffinity 16.5776157
REMARK minimizedRMSD -1
REMARK  0 active torsions:
REMARK  status: ('A' for Active; 'I' for Inactive)
ROOT
ATOM      1  O1  BZF d   1       3.477   2.296   0.731  0.00  0.00    -0.204 OA
ATOM      2  C2  BZF d   1       3.955   1.452  -0.253  0.00  0.00     0.174 A 
ATOM      3  C3  BZF d   1       3.202   0.337  -0.334  0.00  0.00    -0.012 A 
ATOM      4  C3A BZF d   1       2.135   0.534   0.598  0.00  0.00    -0.107 A 
ATOM      5  C4  BZF d   1       1.054  -0.218   0.962  0.00  0.00     0.055 A 
ATOM      6  C5  BZF d   1       0.243   0.229   1.956  0.00  0.00    -0.016 A 
ATOM      7  C6  BZF d   1       0.485   1.419   2.611  0.00  0.00     0.022 A 
ATOM      8  C7  BZF d   1       1.542   2.201   2.283  0.00  0.00     0.029 A 
ATOM      9  C7A BZF d   1       2.345   1.769   1.256  0.00  0.00     0.058 A 
ENDROOT
TORSDOF 0
ENDMDL
