MODEL 1
REMARK minimizedAffinity 13.1367245
REMARK minimizedRMSD -1
REMARK  0 active torsions:
REMARK  status: ('A' for Active; 'I' for Inactive)
ROOT
ATOM      1  O1  BZF d   1      -5.999   1.568   5.937  0.00  0.00    -0.204 OA
ATOM      2  C2  BZF d   1      -5.999   2.948   6.000  0.00  0.00     0.174 A 
ATOM      3  C3  BZF d   1      -5.243   3.472   5.014  0.00  0.00    -0.012 A 
ATOM      4  C3A BZF d   1      -4.814   2.352   4.234  0.00  0.00    -0.107 A 
ATOM      5  C4  BZF d   1      -4.049   2.230   3.109  0.00  0.00     0.055 A 
ATOM      6  C5  BZF d   1      -3.756   0.988   2.641  0.00  0.00    -0.016 A 
ATOM      7  C6  BZF d   1      -4.207  -0.151   3.275  0.00  0.00     0.022 A 
ATOM      8  C7  BZF d   1      -4.973  -0.080   4.390  0.00  0.00     0.029 A 
ATOM      9  C7A BZF d   1      -5.298   1.174   4.847  0.00  0.00     0.058 A 
ENDROOT
TORSDOF 0
ENDMDL
