MODEL 1
REMARK minimizedAffinity 7.65312719
REMARK minimizedRMSD -1
REMARK  0 active torsions:
REMARK  status: ('A' for Active; 'I' for Inactive)
ROOT
ATOM      1  O1  BZF d   1      -1.422  -4.680   2.433  0.00  0.00    -0.204 OA
ATOM      2  C2  BZF d   1      -1.942  -5.915   2.097  0.00  0.00     0.174 A 
ATOM      3  C3  BZF d   1      -2.626  -5.847   0.937  0.00  0.00    -0.012 A 
ATOM      4  C3A BZF d   1      -2.449  -4.504   0.474  0.00  0.00    -0.107 A 
ATOM      5  C4  BZF d   1      -2.876  -3.829  -0.633  0.00  0.00     0.055 A 
ATOM      6  C5  BZF d   1      -2.592  -2.505  -0.750  0.00  0.00    -0.016 A 
ATOM      7  C6  BZF d   1      -1.888  -1.825   0.223  0.00  0.00     0.022 A 
ATOM      8  C7  BZF d   1      -1.440  -2.454   1.337  0.00  0.00     0.029 A 
ATOM      9  C7A BZF d   1      -1.698  -3.799   1.442  0.00  0.00     0.058 A 
ENDROOT
TORSDOF 0
ENDMDL
