MODEL 1
REMARK minimizedAffinity 9.27821732
REMARK minimizedRMSD -1
REMARK  0 active torsions:
REMARK  status: ('A' for Active; 'I' for Inactive)
ROOT
ATOM      1  O1  BZF d   1      -5.901   1.766   5.995  0.00  0.00    -0.204 OA
ATOM      2  C2  BZF d   1      -5.994   3.078   5.575  0.00  0.00     0.174 A 
ATOM      3  C3  BZF d   1      -5.491   3.219   4.331  0.00  0.00    -0.012 A 
ATOM      4  C3A BZF d   1      -5.141   1.896   3.915  0.00  0.00    -0.107 A 
ATOM      5  C4  BZF d   1      -4.608   1.383   2.767  0.00  0.00     0.055 A 
ATOM      6  C5  BZF d   1      -4.321   0.056   2.707  0.00  0.00    -0.016 A 
ATOM      7  C6  BZF d   1      -4.549  -0.785   3.777  0.00  0.00     0.022 A 
ATOM      8  C7  BZF d   1      -5.081  -0.323   4.935  0.00  0.00     0.029 A 
ATOM      9  C7A BZF d   1      -5.403   1.011   4.986  0.00  0.00     0.058 A 
ENDROOT
TORSDOF 0
ENDMDL
