MODEL 1
REMARK minimizedAffinity 8.07049274
REMARK minimizedRMSD -1
REMARK  0 active torsions:
REMARK  status: ('A' for Active; 'I' for Inactive)
ROOT
ATOM      1  O1  BZF d   1      -4.151   4.698   5.236  0.00  0.00    -0.204 OA
ATOM      2  C2  BZF d   1      -5.150   5.311   4.504  0.00  0.00     0.174 A 
ATOM      3  C3  BZF d   1      -5.991   4.395   3.982  0.00  0.00    -0.012 A 
ATOM      4  C3A BZF d   1      -5.539   3.136   4.489  0.00  0.00    -0.107 A 
ATOM      5  C4  BZF d   1      -5.978   1.851   4.340  0.00  0.00     0.055 A 
ATOM      6  C5  BZF d   1      -5.270   0.841   4.910  0.00  0.00    -0.016 A 
ATOM      7  C6  BZF d   1      -4.118   1.079   5.631  0.00  0.00     0.022 A 
ATOM      8  C7  BZF d   1      -3.647   2.336   5.811  0.00  0.00     0.029 A 
ATOM      9  C7A BZF d   1      -4.378   3.362   5.264  0.00  0.00     0.058 A 
ENDROOT
TORSDOF 0
ENDMDL
