MODEL 1
REMARK minimizedAffinity 7.57883406
REMARK minimizedRMSD -1
REMARK  0 active torsions:
REMARK  status: ('A' for Active; 'I' for Inactive)
ROOT
ATOM      1  O1  BZF d   1      -1.527   2.862   2.459  0.00  0.00    -0.204 OA
ATOM      2  C2  BZF d   1      -0.433   2.182   1.960  0.00  0.00     0.174 A 
ATOM      3  C3  BZF d   1      -0.623   0.849   2.036  0.00  0.00    -0.012 A 
ATOM      4  C3A BZF d   1      -1.954   0.687   2.535  0.00  0.00    -0.107 A 
ATOM      5  C4  BZF d   1      -2.725  -0.405   2.812  0.00  0.00     0.055 A 
ATOM      6  C5  BZF d   1      -3.957  -0.223   3.357  0.00  0.00    -0.016 A 
ATOM      7  C6  BZF d   1      -4.446   1.035   3.641  0.00  0.00     0.022 A 
ATOM      8  C7  BZF d   1      -3.719   2.149   3.379  0.00  0.00     0.029 A 
ATOM      9  C7A BZF d   1      -2.488   1.969   2.798  0.00  0.00     0.058 A 
ENDROOT
TORSDOF 0
ENDMDL
