MODEL 1
REMARK minimizedAffinity 12.9239998
REMARK minimizedRMSD -1
REMARK  0 active torsions:
REMARK  status: ('A' for Active; 'I' for Inactive)
ROOT
ATOM      1  O1  BZF d   1      -4.900  -3.748  -2.531  0.00  0.00    -0.204 OA
ATOM      2  C2  BZF d   1      -4.101  -3.342  -1.479  0.00  0.00     0.174 A 
ATOM      3  C3  BZF d   1      -2.890  -2.949  -1.922  0.00  0.00    -0.012 A 
ATOM      4  C3A BZF d   1      -2.965  -3.034  -3.348  0.00  0.00    -0.107 A 
ATOM      5  C4  BZF d   1      -2.081  -2.759  -4.353  0.00  0.00     0.055 A 
ATOM      6  C5  BZF d   1      -2.440  -3.018  -5.637  0.00  0.00    -0.016 A 
ATOM      7  C6  BZF d   1      -3.671  -3.555  -5.953  0.00  0.00     0.022 A 
ATOM      8  C7  BZF d   1      -4.583  -3.839  -4.991  0.00  0.00     0.029 A 
ATOM      9  C7A BZF d   1      -4.236  -3.548  -3.695  0.00  0.00     0.058 A 
ENDROOT
TORSDOF 0
ENDMDL
