MODEL 1
REMARK minimizedAffinity 3.37878036
REMARK minimizedRMSD -1
REMARK  0 active torsions:
REMARK  status: ('A' for Active; 'I' for Inactive)
ROOT
ATOM      1  C4' PXY d   1       2.506  -0.548   1.139  0.00  0.00     0.077 C 
ATOM      2  C1' PXY d   1      -2.506   2.257   1.791  0.00  0.00     0.077 C 
ATOM      3  C1  PXY d   1      -1.198   1.511   1.624  0.00  0.00    -0.082 A 
ATOM      4  C2  PXY d   1      -0.055   2.175   1.672  0.00  0.00     0.003 A 
ATOM      5  C3  PXY d   1       1.137   1.521   1.491  0.00  0.00     0.003 A 
ATOM      6  C4  PXY d   1       1.161   0.164   1.312  0.00  0.00    -0.082 A 
ATOM      7  C5  PXY d   1      -0.001  -0.523   1.272  0.00  0.00     0.003 A 
ATOM      8  C6  PXY d   1      -1.201   0.166   1.417  0.00  0.00     0.003 A 
ENDROOT
TORSDOF 0
ENDMDL
