MODEL 1
REMARK minimizedAffinity -1.7342608
REMARK minimizedRMSD -1
REMARK  0 active torsions:
REMARK  status: ('A' for Active; 'I' for Inactive)
ROOT
ATOM      1  C4' PXY d   1      -4.370   1.323   4.140  0.00  0.00     0.077 C 
ATOM      2  C1' PXY d   1       0.377   1.553   0.849  0.00  0.00     0.077 C 
ATOM      3  C1  PXY d   1      -0.871   1.481   1.707  0.00  0.00    -0.082 A 
ATOM      4  C2  PXY d   1      -1.443   2.598   2.124  0.00  0.00     0.003 A 
ATOM      5  C3  PXY d   1      -2.554   2.551   2.927  0.00  0.00     0.003 A 
ATOM      6  C4  PXY d   1      -3.114   1.348   3.264  0.00  0.00    -0.082 A 
ATOM      7  C5  PXY d   1      -2.542   0.204   2.834  0.00  0.00     0.003 A 
ATOM      8  C6  PXY d   1      -1.392   0.272   2.054  0.00  0.00     0.003 A 
ENDROOT
TORSDOF 0
ENDMDL
