MODEL 1
REMARK minimizedAffinity -3.02214241
REMARK minimizedRMSD -1
REMARK  0 active torsions:
REMARK  status: ('A' for Active; 'I' for Inactive)
ROOT
ATOM      1  C4' PXY d   1      -3.777   1.740   3.805  0.00  0.00     0.077 C 
ATOM      2  C1' PXY d   1       0.865   0.856   0.475  0.00  0.00     0.077 C 
ATOM      3  C1  PXY d   1      -0.358   1.077   1.343  0.00  0.00    -0.082 A 
ATOM      4  C2  PXY d   1      -0.637   2.294   1.783  0.00  0.00     0.003 A 
ATOM      5  C3  PXY d   1      -1.721   2.506   2.596  0.00  0.00     0.003 A 
ATOM      6  C4  PXY d   1      -2.558   1.472   2.918  0.00  0.00    -0.082 A 
ATOM      7  C5  PXY d   1      -2.286   0.230   2.465  0.00  0.00     0.003 A 
ATOM      8  C6  PXY d   1      -1.158   0.028   1.675  0.00  0.00     0.003 A 
ENDROOT
TORSDOF 0
ENDMDL
