MODEL 1
REMARK minimizedAffinity -0.0134195881
REMARK minimizedRMSD -1
REMARK  0 active torsions:
REMARK  status: ('A' for Active; 'I' for Inactive)
ROOT
ATOM      1  C4' PXY d   1       1.067  -0.348   2.565  0.00  0.00     0.077 C 
ATOM      2  C1' PXY d   1      -1.837   4.437   1.120  0.00  0.00     0.077 C 
ATOM      3  C1  PXY d   1      -1.077   3.177   1.487  0.00  0.00    -0.082 A 
ATOM      4  C2  PXY d   1      -1.037   2.782   2.749  0.00  0.00     0.003 A 
ATOM      5  C3  PXY d   1      -0.327   1.663   3.103  0.00  0.00     0.003 A 
ATOM      6  C4  PXY d   1       0.303   0.912   2.148  0.00  0.00    -0.082 A 
ATOM      7  C5  PXY d   1       0.258   1.303   0.857  0.00  0.00     0.003 A 
ATOM      8  C6  PXY d   1      -0.433   2.464   0.524  0.00  0.00     0.003 A 
ENDROOT
TORSDOF 0
ENDMDL
