MODEL 1
REMARK minimizedAffinity -4.75857306
REMARK minimizedRMSD -1
REMARK  0 active torsions:
REMARK  status: ('A' for Active; 'I' for Inactive)
ROOT
ATOM      1  C4' PXY d   1      -3.857   1.166   3.520  0.00  0.00     0.077 C 
ATOM      2  C1' PXY d   1       1.096   1.113   0.540  0.00  0.00     0.077 C 
ATOM      3  C1  PXY d   1      -0.207   1.117   1.315  0.00  0.00    -0.082 A 
ATOM      4  C2  PXY d   1      -0.617   2.231   1.899  0.00  0.00     0.003 A 
ATOM      5  C3  PXY d   1      -1.777   2.244   2.630  0.00  0.00     0.003 A 
ATOM      6  C4  PXY d   1      -2.552   1.119   2.720  0.00  0.00    -0.082 A 
ATOM      7  C5  PXY d   1      -2.146  -0.019   2.117  0.00  0.00     0.003 A 
ATOM      8  C6  PXY d   1      -0.945  -0.022   1.414  0.00  0.00     0.003 A 
ENDROOT
TORSDOF 0
ENDMDL
