MODEL 1
REMARK minimizedAffinity 0.760769725
REMARK minimizedRMSD -1
REMARK  0 active torsions:
REMARK  status: ('A' for Active; 'I' for Inactive)
ROOT
ATOM      1  C4' PXY d   1       2.409  -0.448   1.675  0.00  0.00     0.077 C 
ATOM      2  C1' PXY d   1      -1.993   3.259   1.131  0.00  0.00     0.077 C 
ATOM      3  C1  PXY d   1      -0.843   2.283   1.286  0.00  0.00    -0.082 A 
ATOM      4  C2  PXY d   1       0.254   2.446   0.563  0.00  0.00     0.003 A 
ATOM      5  C3  PXY d   1       1.291   1.555   0.668  0.00  0.00     0.003 A 
ATOM      6  C4  PXY d   1       1.226   0.517   1.559  0.00  0.00    -0.082 A 
ATOM      7  C5  PXY d   1       0.115   0.351   2.307  0.00  0.00     0.003 A 
ATOM      8  C6  PXY d   1      -0.943   1.243   2.157  0.00  0.00     0.003 A 
ENDROOT
TORSDOF 0
ENDMDL
