MODEL 1
REMARK minimizedAffinity -2.23519206
REMARK minimizedRMSD -1
REMARK  0 active torsions:
REMARK  status: ('A' for Active; 'I' for Inactive)
ROOT
ATOM      1  C4' PXY d   1      -4.330   1.473   3.283  0.00  0.00     0.077 C 
ATOM      2  C1' PXY d   1       0.851   0.517   0.905  0.00  0.00     0.077 C 
ATOM      3  C1  PXY d   1      -0.512   0.756   1.524  0.00  0.00    -0.082 A 
ATOM      4  C2  PXY d   1      -0.907   1.993   1.778  0.00  0.00     0.003 A 
ATOM      5  C3  PXY d   1      -2.123   2.225   2.367  0.00  0.00     0.003 A 
ATOM      6  C4  PXY d   1      -2.966   1.184   2.650  0.00  0.00    -0.082 A 
ATOM      7  C5  PXY d   1      -2.575  -0.080   2.384  0.00  0.00     0.003 A 
ATOM      8  C6  PXY d   1      -1.319  -0.297   1.824  0.00  0.00     0.003 A 
ENDROOT
TORSDOF 0
ENDMDL
