MODEL 1
REMARK minimizedAffinity 0.55191797
REMARK minimizedRMSD -1
REMARK  0 active torsions:
REMARK  status: ('A' for Active; 'I' for Inactive)
ROOT
ATOM      1  C4' PXY d   1      -2.837  -0.545   2.642  0.00  0.00     0.077 C 
ATOM      2  C1' PXY d   1       1.744   2.653   1.157  0.00  0.00     0.077 C 
ATOM      3  C1  PXY d   1       0.550   1.805   1.552  0.00  0.00    -0.082 A 
ATOM      4  C2  PXY d   1      -0.599   1.957   0.915  0.00  0.00     0.003 A 
ATOM      5  C3  PXY d   1      -1.697   1.222   1.280  0.00  0.00     0.003 A 
ATOM      6  C4  PXY d   1      -1.603   0.282   2.272  0.00  0.00    -0.082 A 
ATOM      7  C5  PXY d   1      -0.431   0.114   2.919  0.00  0.00     0.003 A 
ATOM      8  C6  PXY d   1       0.661   0.900   2.561  0.00  0.00     0.003 A 
ENDROOT
TORSDOF 0
ENDMDL
