MODEL 1
REMARK minimizedAffinity -1.44714642
REMARK minimizedRMSD -1
REMARK  0 active torsions:
REMARK  status: ('A' for Active; 'I' for Inactive)
ROOT
ATOM      1  C4' PXY d   1      -4.059   1.501   4.150  0.00  0.00     0.077 C 
ATOM      2  C1' PXY d   1       0.535   1.278   0.648  0.00  0.00     0.077 C 
ATOM      3  C1  PXY d   1      -0.675   1.327   1.560  0.00  0.00    -0.082 A 
ATOM      4  C2  PXY d   1      -0.998   2.462   2.159  0.00  0.00     0.003 A 
ATOM      5  C3  PXY d   1      -2.070   2.515   3.012  0.00  0.00     0.003 A 
ATOM      6  C4  PXY d   1      -2.851   1.409   3.213  0.00  0.00    -0.082 A 
ATOM      7  C5  PXY d   1      -2.535   0.250   2.598  0.00  0.00     0.003 A 
ATOM      8  C6  PXY d   1      -1.418   0.206   1.767  0.00  0.00     0.003 A 
ENDROOT
TORSDOF 0
ENDMDL
