MODEL 1
REMARK minimizedAffinity -0.500235438
REMARK minimizedRMSD -1
REMARK  0 active torsions:
REMARK  status: ('A' for Active; 'I' for Inactive)
ROOT
ATOM      1  C4' PXY d   1      -6.000   1.895   6.000  0.00  0.00     0.077 C 
ATOM      2  C1' PXY d   1      -1.360   1.447   2.582  0.00  0.00     0.077 C 
ATOM      3  C1  PXY d   1      -2.569   1.566   3.489  0.00  0.00    -0.082 A 
ATOM      4  C2  PXY d   1      -3.711   1.000   3.134  0.00  0.00     0.003 A 
ATOM      5  C3  PXY d   1      -4.822   1.125   3.927  0.00  0.00     0.003 A 
ATOM      6  C4  PXY d   1      -4.751   1.792   5.120  0.00  0.00    -0.082 A 
ATOM      7  C5  PXY d   1      -3.586   2.364   5.494  0.00  0.00     0.003 A 
ATOM      8  C6  PXY d   1      -2.480   2.260   4.656  0.00  0.00     0.003 A 
ENDROOT
TORSDOF 0
ENDMDL
