MODEL 1
REMARK minimizedAffinity -1.45045245
REMARK minimizedRMSD -1
REMARK  0 active torsions:
REMARK  status: ('A' for Active; 'I' for Inactive)
ROOT
ATOM      1  C4' PXY d   1      -2.865  -1.186   3.626  0.00  0.00     0.077 C 
ATOM      2  C1' PXY d   1       0.140   2.990   0.991  0.00  0.00     0.077 C 
ATOM      3  C1  PXY d   1      -0.654   1.904   1.690  0.00  0.00    -0.082 A 
ATOM      4  C2  PXY d   1      -0.202   0.660   1.689  0.00  0.00     0.003 A 
ATOM      5  C3  PXY d   1      -0.923  -0.340   2.288  0.00  0.00     0.003 A 
ATOM      6  C4  PXY d   1      -2.093  -0.056   2.942  0.00  0.00    -0.082 A 
ATOM      7  C5  PXY d   1      -2.554   1.213   2.957  0.00  0.00     0.003 A 
ATOM      8  C6  PXY d   1      -1.828   2.207   2.307  0.00  0.00     0.003 A 
ENDROOT
TORSDOF 0
ENDMDL
