MODEL 1
REMARK minimizedAffinity -1.99826121
REMARK minimizedRMSD -1
REMARK  0 active torsions:
REMARK  status: ('A' for Active; 'I' for Inactive)
ROOT
ATOM      1  C4' PXY d   1      -3.599   1.369   3.676  0.00  0.00     0.077 C 
ATOM      2  C1' PXY d   1       1.268   0.747   0.621  0.00  0.00     0.077 C 
ATOM      3  C1  PXY d   1      -0.013   0.899   1.416  0.00  0.00    -0.082 A 
ATOM      4  C2  PXY d   1      -0.344   2.084   1.902  0.00  0.00     0.003 A 
ATOM      5  C3  PXY d   1      -1.483   2.234   2.651  0.00  0.00     0.003 A 
ATOM      6  C4  PXY d   1      -2.320   1.170   2.859  0.00  0.00    -0.082 A 
ATOM      7  C5  PXY d   1      -1.995  -0.040   2.357  0.00  0.00     0.003 A 
ATOM      8  C6  PXY d   1      -0.813  -0.180   1.635  0.00  0.00     0.003 A 
ENDROOT
TORSDOF 0
ENDMDL
