MODEL 1
REMARK minimizedAffinity -1.45633185
REMARK minimizedRMSD -1
REMARK  0 active torsions:
REMARK  status: ('A' for Active; 'I' for Inactive)
ROOT
ATOM      1  C4' PXY d   1      -3.778   1.942   3.492  0.00  0.00     0.077 C 
ATOM      2  C1' PXY d   1       0.908   0.391   0.484  0.00  0.00     0.077 C 
ATOM      3  C1  PXY d   1      -0.314   0.808   1.278  0.00  0.00    -0.082 A 
ATOM      4  C2  PXY d   1      -1.231  -0.094   1.589  0.00  0.00     0.003 A 
ATOM      5  C3  PXY d   1      -2.358   0.272   2.279  0.00  0.00     0.003 A 
ATOM      6  C4  PXY d   1      -2.523   1.565   2.700  0.00  0.00    -0.082 A 
ATOM      7  C5  PXY d   1      -1.587   2.488   2.396  0.00  0.00     0.003 A 
ATOM      8  C6  PXY d   1      -0.470   2.105   1.660  0.00  0.00     0.003 A 
ENDROOT
TORSDOF 0
ENDMDL
