MODEL 1
REMARK minimizedAffinity -3.15992928
REMARK minimizedRMSD -1
REMARK  0 active torsions:
REMARK  status: ('A' for Active; 'I' for Inactive)
ROOT
ATOM      1  C4' PXY d   1      -3.297   1.913   3.418  0.00  0.00     0.077 C 
ATOM      2  C1' PXY d   1       1.240   0.099   0.329  0.00  0.00     0.077 C 
ATOM      3  C1  PXY d   1       0.058   0.584   1.144  0.00  0.00    -0.082 A 
ATOM      4  C2  PXY d   1      -0.900  -0.266   1.478  0.00  0.00     0.003 A 
ATOM      5  C3  PXY d   1      -1.992   0.164   2.187  0.00  0.00     0.003 A 
ATOM      6  C4  PXY d   1      -2.079   1.465   2.604  0.00  0.00    -0.082 A 
ATOM      7  C5  PXY d   1      -1.101   2.336   2.276  0.00  0.00     0.003 A 
ATOM      8  C6  PXY d   1      -0.021   1.890   1.521  0.00  0.00     0.003 A 
ENDROOT
TORSDOF 0
ENDMDL
