MODEL 1
REMARK minimizedAffinity -3.20725298
REMARK minimizedRMSD -1
REMARK  0 active torsions:
REMARK  status: ('A' for Active; 'I' for Inactive)
ROOT
ATOM      1  C4' PXY d   1       0.767   0.742   0.676  0.00  0.00     0.077 C 
ATOM      2  C1' PXY d   1      -3.890   1.975   3.871  0.00  0.00     0.077 C 
ATOM      3  C1  PXY d   1      -2.669   1.640   3.038  0.00  0.00    -0.082 A 
ATOM      4  C2  PXY d   1      -1.884   2.614   2.607  0.00  0.00     0.003 A 
ATOM      5  C3  PXY d   1      -0.793   2.331   1.826  0.00  0.00     0.003 A 
ATOM      6  C4  PXY d   1      -0.472   1.034   1.528  0.00  0.00    -0.082 A 
ATOM      7  C5  PXY d   1      -1.262   0.034   1.974  0.00  0.00     0.003 A 
ATOM      8  C6  PXY d   1      -2.388   0.345   2.731  0.00  0.00     0.003 A 
ENDROOT
TORSDOF 0
ENDMDL
