MODEL 1
REMARK minimizedAffinity 4.02472305
REMARK minimizedRMSD -1
REMARK  0 active torsions:
REMARK  status: ('A' for Active; 'I' for Inactive)
ROOT
ATOM      1  C4' PXY d   1      -3.764   1.696   4.035  0.00  0.00     0.077 C 
ATOM      2  C1' PXY d   1       0.843   2.756   0.709  0.00  0.00     0.077 C 
ATOM      3  C1  PXY d   1      -0.369   2.490   1.580  0.00  0.00    -0.082 A 
ATOM      4  C2  PXY d   1      -0.328   1.523   2.481  0.00  0.00     0.003 A 
ATOM      5  C3  PXY d   1      -1.426   1.248   3.255  0.00  0.00     0.003 A 
ATOM      6  C4  PXY d   1      -2.560   2.006   3.141  0.00  0.00    -0.082 A 
ATOM      7  C5  PXY d   1      -2.607   3.001   2.231  0.00  0.00     0.003 A 
ATOM      8  C6  PXY d   1      -1.496   3.238   1.427  0.00  0.00     0.003 A 
ENDROOT
TORSDOF 0
ENDMDL
