MODEL 1
REMARK minimizedAffinity 0.307835013
REMARK minimizedRMSD -1
REMARK  0 active torsions:
REMARK  status: ('A' for Active; 'I' for Inactive)
ROOT
ATOM      1  C4' PXY d   1      -3.376  -0.321  -2.168  0.00  0.00     0.077 C 
ATOM      2  C1' PXY d   1      -2.800  -6.000  -1.255  0.00  0.00     0.077 C 
ATOM      3  C1  PXY d   1      -2.942  -4.511  -1.504  0.00  0.00    -0.082 A 
ATOM      4  C2  PXY d   1      -3.379  -3.724  -0.534  0.00  0.00     0.003 A 
ATOM      5  C3  PXY d   1      -3.543  -2.381  -0.752  0.00  0.00     0.003 A 
ATOM      6  C4  PXY d   1      -3.208  -1.828  -1.959  0.00  0.00    -0.082 A 
ATOM      7  C5  PXY d   1      -2.752  -2.623  -2.950  0.00  0.00     0.003 A 
ATOM      8  C6  PXY d   1      -2.631  -3.990  -2.722  0.00  0.00     0.003 A 
ENDROOT
TORSDOF 0
ENDMDL
