MODEL 1
REMARK minimizedAffinity 1.27500451
REMARK minimizedRMSD -1
REMARK  0 active torsions:
REMARK  status: ('A' for Active; 'I' for Inactive)
ROOT
ATOM      1  C4' PXY d   1      -3.543   2.172   4.197  0.00  0.00     0.077 C 
ATOM      2  C1' PXY d   1       0.784   2.160   0.364  0.00  0.00     0.077 C 
ATOM      3  C1  PXY d   1      -0.351   2.150   1.368  0.00  0.00    -0.082 A 
ATOM      4  C2  PXY d   1      -1.071   3.245   1.552  0.00  0.00     0.003 A 
ATOM      5  C3  PXY d   1      -2.082   3.263   2.479  0.00  0.00     0.003 A 
ATOM      6  C4  PXY d   1      -2.393   2.133   3.187  0.00  0.00    -0.082 A 
ATOM      7  C5  PXY d   1      -1.669   1.009   2.997  0.00  0.00     0.003 A 
ATOM      8  C6  PXY d   1      -0.622   1.023   2.082  0.00  0.00     0.003 A 
ENDROOT
TORSDOF 0
ENDMDL
