MODEL 1
REMARK minimizedAffinity 5.51424026
REMARK minimizedRMSD -1
REMARK  2 active torsions:
REMARK  status: ('A' for Active; 'I' for Inactive)
REMARK    1  A    between atoms: C2'_3  and  C1'_4 
REMARK    2  A    between atoms: C1'_4  and  C1_5 
ROOT
ATOM      1  C1  I4B d   1      -0.037   3.309  -1.111  0.00  0.00    -0.075 A 
ATOM      2  C2  I4B d   1      -1.192   3.921  -1.530  0.00  0.00     0.003 A 
ATOM      3  C3  I4B d   1      -1.173   5.278  -1.934  0.00  0.00     0.002 A 
ATOM      4  C4  I4B d   1       0.003   5.994  -1.855  0.00  0.00    -0.004 A 
ATOM      5  C5  I4B d   1       1.178   5.366  -1.452  0.00  0.00     0.002 A 
ATOM      6  C6  I4B d   1       1.161   4.011  -1.089  0.00  0.00     0.003 A 
ENDROOT
BRANCH   1   7
ATOM      7  C1' I4B d   1      -0.099   1.884  -0.660  0.00  0.00     0.060 C 
BRANCH   7   8
ATOM      8  C2' I4B d   1      -0.424   1.876   0.820  0.00  0.00    -0.013 C 
ATOM      9  C4' I4B d   1      -1.666   1.072   1.101  0.00  0.00     0.013 C 
ATOM     10  C3' I4B d   1       0.760   1.317   1.551  0.00  0.00     0.013 C 
ENDBRANCH   7   8
ENDBRANCH   1   7
TORSDOF 2
ENDMDL
