MODEL 1
REMARK minimizedAffinity 4.16529512
REMARK minimizedRMSD -1
REMARK  2 active torsions:
REMARK  status: ('A' for Active; 'I' for Inactive)
REMARK    1  A    between atoms: C2'_3  and  C1'_4 
REMARK    2  A    between atoms: C1'_4  and  C1_5 
ROOT
ATOM      1  C1  I4B d   1       0.378   2.972   0.498  0.00  0.00    -0.075 A 
ATOM      2  C2  I4B d   1       0.634   4.256   0.083  0.00  0.00     0.003 A 
ATOM      3  C3  I4B d   1       0.381   4.635  -1.257  0.00  0.00     0.002 A 
ATOM      4  C4  I4B d   1      -0.077   3.693  -2.156  0.00  0.00    -0.004 A 
ATOM      5  C5  I4B d   1      -0.358   2.399  -1.728  0.00  0.00     0.002 A 
ATOM      6  C6  I4B d   1      -0.141   2.039  -0.390  0.00  0.00     0.003 A 
ENDROOT
BRANCH   1   7
ATOM      7  C1' I4B d   1       0.688   2.597   1.912  0.00  0.00     0.060 C 
BRANCH   7   8
ATOM      8  C2' I4B d   1       2.003   3.247   2.291  0.00  0.00    -0.013 C 
ATOM      9  C4' I4B d   1       2.220   3.213   3.780  0.00  0.00     0.013 C 
ATOM     10  C3' I4B d   1       3.101   2.527   1.567  0.00  0.00     0.013 C 
ENDBRANCH   7   8
ENDBRANCH   1   7
TORSDOF 2
ENDMDL
