MODEL 1
REMARK minimizedAffinity -0.356125683
REMARK minimizedRMSD -1
REMARK  2 active torsions:
REMARK  status: ('A' for Active; 'I' for Inactive)
REMARK    1  A    between atoms: C2'_3  and  C1'_4 
REMARK    2  A    between atoms: C1'_4  and  C1_5 
ROOT
ATOM      1  C1  I4B d   1       0.238   1.218   0.967  0.00  0.00    -0.075 A 
ATOM      2  C2  I4B d   1       1.543   0.798   1.027  0.00  0.00     0.003 A 
ATOM      3  C3  I4B d   1       1.852  -0.505   1.487  0.00  0.00     0.002 A 
ATOM      4  C4  I4B d   1       0.836  -1.331   1.922  0.00  0.00    -0.004 A 
ATOM      5  C5  I4B d   1      -0.488  -0.912   1.840  0.00  0.00     0.002 A 
ATOM      6  C6  I4B d   1      -0.791   0.366   1.347  0.00  0.00     0.003 A 
ENDROOT
BRANCH   1   7
ATOM      7  C1' I4B d   1      -0.051   2.612   0.507  0.00  0.00     0.060 C 
BRANCH   7   8
ATOM      8  C2' I4B d   1       0.538   2.777  -0.879  0.00  0.00    -0.013 C 
ATOM      9  C4' I4B d   1      -0.321   2.109  -1.920  0.00  0.00     0.013 C 
ATOM     10  C3' I4B d   1       0.676   4.246  -1.151  0.00  0.00     0.013 C 
ENDBRANCH   7   8
ENDBRANCH   1   7
TORSDOF 2
ENDMDL
