MODEL 1
REMARK minimizedAffinity 4.46111536
REMARK minimizedRMSD -1
REMARK  2 active torsions:
REMARK  status: ('A' for Active; 'I' for Inactive)
REMARK    1  A    between atoms: C2'_3  and  C1'_4 
REMARK    2  A    between atoms: C1'_4  and  C1_5 
ROOT
ATOM      1  C1  I4B d   1      -0.239   2.636  -0.054  0.00  0.00    -0.075 A 
ATOM      2  C2  I4B d   1      -0.265   3.934   0.391  0.00  0.00     0.003 A 
ATOM      3  C3  I4B d   1      -0.029   5.001  -0.509  0.00  0.00     0.002 A 
ATOM      4  C4  I4B d   1       0.277   4.725  -1.826  0.00  0.00    -0.004 A 
ATOM      5  C5  I4B d   1       0.280   3.409  -2.281  0.00  0.00     0.002 A 
ATOM      6  C6  I4B d   1       0.008   2.358  -1.392  0.00  0.00     0.003 A 
ENDROOT
BRANCH   1   7
ATOM      7  C1' I4B d   1      -0.460   1.532   0.931  0.00  0.00     0.060 C 
BRANCH   7   8
ATOM      8  C2' I4B d   1       0.894   0.967   1.310  0.00  0.00    -0.013 C 
ATOM      9  C4' I4B d   1       1.640   1.905   2.222  0.00  0.00     0.013 C 
ATOM     10  C3' I4B d   1       0.673  -0.363   1.966  0.00  0.00     0.013 C 
ENDBRANCH   7   8
ENDBRANCH   1   7
TORSDOF 2
ENDMDL
