MODEL 1
REMARK minimizedAffinity 5.10432386
REMARK minimizedRMSD -1
REMARK  2 active torsions:
REMARK  status: ('A' for Active; 'I' for Inactive)
REMARK    1  A    between atoms: C2'_3  and  C1'_4 
REMARK    2  A    between atoms: C1'_4  and  C1_5 
ROOT
ATOM      1  C1  I4B d   1      -0.331   2.639   0.042  0.00  0.00    -0.075 A 
ATOM      2  C2  I4B d   1      -1.153   3.662   0.446  0.00  0.00     0.003 A 
ATOM      3  C3  I4B d   1      -1.181   4.880  -0.275  0.00  0.00     0.002 A 
ATOM      4  C4  I4B d   1      -0.340   5.050  -1.356  0.00  0.00    -0.004 A 
ATOM      5  C5  I4B d   1       0.475   4.004  -1.777  0.00  0.00     0.002 A 
ATOM      6  C6  I4B d   1       0.472   2.787  -1.082  0.00  0.00     0.003 A 
ENDROOT
BRANCH   1   7
ATOM      7  C1' I4B d   1      -0.301   1.378   0.846  0.00  0.00     0.060 C 
BRANCH   7   8
ATOM      8  C2' I4B d   1       1.149   1.011   1.085  0.00  0.00    -0.013 C 
ATOM      9  C4' I4B d   1       1.808   1.979   2.032  0.00  0.00     0.013 C 
ATOM     10  C3' I4B d   1       1.190  -0.387   1.626  0.00  0.00     0.013 C 
ENDBRANCH   7   8
ENDBRANCH   1   7
TORSDOF 2
ENDMDL
