MODEL 1
REMARK minimizedAffinity -3.93435144
REMARK minimizedRMSD -1
REMARK  2 active torsions:
REMARK  status: ('A' for Active; 'I' for Inactive)
REMARK    1  A    between atoms: C1_2  and  C2_3 
REMARK    2  A    between atoms: C2_3  and  C3_4 
ROOT
ATOM      1  C3  UNL d   1      -0.106  -0.052   0.504  0.00  0.00    -0.075 A 
ATOM      2  C4  UNL d   1      -1.151  -0.815   1.044  0.00  0.00     0.002 A 
ATOM      3  C5  UNL d   1      -1.363  -0.850   2.423  0.00  0.00     0.002 A 
ATOM      4  C6  UNL d   1      -0.529  -0.133   3.278  0.00  0.00    -0.004 A 
ATOM      5  C7  UNL d   1       0.523   0.615   2.753  0.00  0.00     0.002 A 
ATOM      6  C8  UNL d   1       0.735   0.656   1.374  0.00  0.00     0.002 A 
ENDROOT
BRANCH   1   7
ATOM      7  C2  UNL d   1       0.111   0.014  -0.989  0.00  0.00     0.056 C 
BRANCH   7   8
ATOM      8  C1  UNL d   1       0.061  -1.349  -1.687  0.00  0.00     0.007 C 
ATOM      9  C   UNL d   1       0.638  -1.323  -3.096  0.00  0.00     0.009 C 
ENDBRANCH   7   8
ENDBRANCH   1   7
TORSDOF 2
ENDMDL
