MODEL 1
REMARK minimizedAffinity 0.559887171
REMARK minimizedRMSD -1
REMARK  2 active torsions:
REMARK  status: ('A' for Active; 'I' for Inactive)
REMARK    1  A    between atoms: C1_2  and  C2_3 
REMARK    2  A    between atoms: C2_3  and  C3_4 
ROOT
ATOM      1  C3  UNL d   1      -0.628   0.077   2.188  0.00  0.00    -0.075 A 
ATOM      2  C4  UNL d   1      -1.238  -1.171   2.380  0.00  0.00     0.002 A 
ATOM      3  C5  UNL d   1      -1.330  -2.084   1.329  0.00  0.00     0.002 A 
ATOM      4  C6  UNL d   1      -0.822  -1.759   0.073  0.00  0.00    -0.004 A 
ATOM      5  C7  UNL d   1      -0.229  -0.515  -0.133  0.00  0.00     0.002 A 
ATOM      6  C8  UNL d   1      -0.132   0.399   0.917  0.00  0.00     0.002 A 
ENDROOT
BRANCH   1   7
ATOM      7  C2  UNL d   1      -0.500   1.058   3.328  0.00  0.00     0.056 C 
BRANCH   7   8
ATOM      8  C1  UNL d   1       0.646   2.061   3.162  0.00  0.00     0.007 C 
ATOM      9  C   UNL d   1       0.660   3.140   4.237  0.00  0.00     0.009 C 
ENDBRANCH   7   8
ENDBRANCH   1   7
TORSDOF 2
ENDMDL
