MODEL 1
REMARK minimizedAffinity -5.52994013
REMARK minimizedRMSD -1
REMARK  2 active torsions:
REMARK  status: ('A' for Active; 'I' for Inactive)
REMARK    1  A    between atoms: C1_2  and  C2_3 
REMARK    2  A    between atoms: C2_3  and  C3_4 
ROOT
ATOM      1  C3  UNL d   1       0.178  -0.026  -0.260  0.00  0.00    -0.075 A 
ATOM      2  C4  UNL d   1      -1.064  -0.480   0.208  0.00  0.00     0.002 A 
ATOM      3  C5  UNL d   1      -1.282  -0.660   1.574  0.00  0.00     0.002 A 
ATOM      4  C6  UNL d   1      -0.262  -0.399   2.486  0.00  0.00    -0.004 A 
ATOM      5  C7  UNL d   1       0.980   0.036   2.031  0.00  0.00     0.002 A 
ATOM      6  C8  UNL d   1       1.200   0.221   0.665  0.00  0.00     0.002 A 
ENDROOT
BRANCH   1   7
ATOM      7  C2  UNL d   1       0.412   0.199  -1.735  0.00  0.00     0.056 C 
BRANCH   7   8
ATOM      8  C1  UNL d   1       0.258  -1.063  -2.591  0.00  0.00     0.007 C 
ATOM      9  C   UNL d   1       1.210  -1.102  -3.779  0.00  0.00     0.009 C 
ENDBRANCH   7   8
ENDBRANCH   1   7
TORSDOF 2
ENDMDL
