MODEL 1
REMARK minimizedAffinity -5.20886421
REMARK minimizedRMSD -1
REMARK  2 active torsions:
REMARK  status: ('A' for Active; 'I' for Inactive)
REMARK    1  A    between atoms: C1_2  and  C2_3 
REMARK    2  A    between atoms: C2_3  and  C3_4 
ROOT
ATOM      1  C3  UNL d   1      -0.205   0.274   0.212  0.00  0.00    -0.075 A 
ATOM      2  C4  UNL d   1      -1.170  -0.565   0.787  0.00  0.00     0.002 A 
ATOM      3  C5  UNL d   1      -1.084  -0.928   2.132  0.00  0.00     0.002 A 
ATOM      4  C6  UNL d   1      -0.028  -0.465   2.914  0.00  0.00    -0.004 A 
ATOM      5  C7  UNL d   1       0.946   0.356   2.349  0.00  0.00     0.002 A 
ATOM      6  C8  UNL d   1       0.859   0.723   1.006  0.00  0.00     0.002 A 
ENDROOT
BRANCH   1   7
ATOM      7  C2  UNL d   1      -0.309   0.694  -1.234  0.00  0.00     0.056 C 
BRANCH   7   8
ATOM      8  C1  UNL d   1       0.828   0.172  -2.119  0.00  0.00     0.007 C 
ATOM      9  C   UNL d   1       0.467  -1.101  -2.873  0.00  0.00     0.009 C 
ENDBRANCH   7   8
ENDBRANCH   1   7
TORSDOF 2
ENDMDL
