MODEL 1
REMARK minimizedAffinity -5.78318119
REMARK minimizedRMSD -1
REMARK  2 active torsions:
REMARK  status: ('A' for Active; 'I' for Inactive)
REMARK    1  A    between atoms: C1_2  and  C2_3 
REMARK    2  A    between atoms: C2_3  and  C3_4 
ROOT
ATOM      1  C3  UNL d   1       0.132  -0.023   0.139  0.00  0.00    -0.075 A 
ATOM      2  C4  UNL d   1       1.321   0.137   0.866  0.00  0.00     0.002 A 
ATOM      3  C5  UNL d   1       1.368  -0.177   2.225  0.00  0.00     0.002 A 
ATOM      4  C6  UNL d   1       0.227  -0.643   2.875  0.00  0.00    -0.004 A 
ATOM      5  C7  UNL d   1      -0.963  -0.789   2.167  0.00  0.00     0.002 A 
ATOM      6  C8  UNL d   1      -1.012  -0.480   0.806  0.00  0.00     0.002 A 
ENDROOT
BRANCH   1   7
ATOM      7  C2  UNL d   1       0.083   0.287  -1.338  0.00  0.00     0.056 C 
BRANCH   7   8
ATOM      8  C1  UNL d   1       1.147  -0.443  -2.164  0.00  0.00     0.007 C 
ATOM      9  C   UNL d   1       0.684  -1.803  -2.670  0.00  0.00     0.009 C 
ENDBRANCH   7   8
ENDBRANCH   1   7
TORSDOF 2
ENDMDL
