MODEL 1
REMARK minimizedAffinity -5.50621414
REMARK minimizedRMSD -1
REMARK  2 active torsions:
REMARK  status: ('A' for Active; 'I' for Inactive)
REMARK    1  A    between atoms: C1_2  and  C2_3 
REMARK    2  A    between atoms: C2_3  and  C3_4 
ROOT
ATOM      1  C3  UNL d   1       0.080   0.002   0.311  0.00  0.00    -0.075 A 
ATOM      2  C4  UNL d   1       1.147   0.128   1.212  0.00  0.00     0.002 A 
ATOM      3  C5  UNL d   1       0.949  -0.078   2.578  0.00  0.00     0.002 A 
ATOM      4  C6  UNL d   1      -0.317  -0.401   3.060  0.00  0.00    -0.004 A 
ATOM      5  C7  UNL d   1      -1.388  -0.513   2.176  0.00  0.00     0.002 A 
ATOM      6  C8  UNL d   1      -1.192  -0.312   0.808  0.00  0.00     0.002 A 
ENDROOT
BRANCH   1   7
ATOM      7  C2  UNL d   1       0.294   0.194  -1.172  0.00  0.00     0.056 C 
BRANCH   7   8
ATOM      8  C1  UNL d   1       0.477  -1.113  -1.950  0.00  0.00     0.007 C 
ATOM      9  C   UNL d   1       1.098  -0.910  -3.326  0.00  0.00     0.009 C 
ENDBRANCH   7   8
ENDBRANCH   1   7
TORSDOF 2
ENDMDL
