MODEL 1
REMARK minimizedAffinity -3.84159803
REMARK minimizedRMSD -1
REMARK  2 active torsions:
REMARK  status: ('A' for Active; 'I' for Inactive)
REMARK    1  A    between atoms: C1_2  and  C2_3 
REMARK    2  A    between atoms: C2_3  and  C3_4 
ROOT
ATOM      1  C3  UNL d   1       0.084   0.312  -0.364  0.00  0.00    -0.075 A 
ATOM      2  C4  UNL d   1       1.303   0.537   0.292  0.00  0.00     0.002 A 
ATOM      3  C5  UNL d   1       1.339   0.727   1.673  0.00  0.00     0.002 A 
ATOM      4  C6  UNL d   1       0.159   0.706   2.414  0.00  0.00    -0.004 A 
ATOM      5  C7  UNL d   1      -1.059   0.500   1.770  0.00  0.00     0.002 A 
ATOM      6  C8  UNL d   1      -1.098   0.305   0.388  0.00  0.00     0.002 A 
ENDROOT
BRANCH   1   7
ATOM      7  C2  UNL d   1       0.041   0.076  -1.855  0.00  0.00     0.056 C 
BRANCH   7   8
ATOM      8  C1  UNL d   1       1.400  -0.271  -2.471  0.00  0.00     0.007 C 
ATOM      9  C   UNL d   1       1.298  -1.231  -3.649  0.00  0.00     0.009 C 
ENDBRANCH   7   8
ENDBRANCH   1   7
TORSDOF 2
ENDMDL
