MODEL 1
REMARK minimizedAffinity -5.28944921
REMARK minimizedRMSD -1
REMARK  2 active torsions:
REMARK  status: ('A' for Active; 'I' for Inactive)
REMARK    1  A    between atoms: C1_2  and  C2_3 
REMARK    2  A    between atoms: C2_3  and  C3_4 
ROOT
ATOM      1  C3  UNL d   1       0.201  -0.251  -0.606  0.00  0.00    -0.075 A 
ATOM      2  C4  UNL d   1       0.081  -1.590  -0.205  0.00  0.00     0.002 A 
ATOM      3  C5  UNL d   1       0.081  -2.615  -1.151  0.00  0.00     0.002 A 
ATOM      4  C6  UNL d   1       0.189  -2.316  -2.508  0.00  0.00    -0.004 A 
ATOM      5  C7  UNL d   1       0.291  -0.988  -2.918  0.00  0.00     0.002 A 
ATOM      6  C8  UNL d   1       0.297   0.039  -1.973  0.00  0.00     0.002 A 
ENDROOT
BRANCH   1   7
ATOM      7  C2  UNL d   1       0.232   0.861   0.415  0.00  0.00     0.056 C 
BRANCH   7   8
ATOM      8  C1  UNL d   1       1.073   0.545   1.656  0.00  0.00     0.007 C 
ATOM      9  C   UNL d   1       2.572   0.646   1.407  0.00  0.00     0.009 C 
ENDBRANCH   7   8
ENDBRANCH   1   7
TORSDOF 2
ENDMDL
