MODEL 1
REMARK minimizedAffinity -2.26696396
REMARK minimizedRMSD -1
REMARK  2 active torsions:
REMARK  status: ('A' for Active; 'I' for Inactive)
REMARK    1  A    between atoms: C1_2  and  C2_3 
REMARK    2  A    between atoms: C2_3  and  C3_4 
ROOT
ATOM      1  C3  UNL d   1       0.056  -0.006  -1.624  0.00  0.00    -0.075 A 
ATOM      2  C4  UNL d   1       0.328  -0.764  -0.476  0.00  0.00     0.002 A 
ATOM      3  C5  UNL d   1      -0.430  -0.591   0.683  0.00  0.00     0.002 A 
ATOM      4  C6  UNL d   1      -1.459   0.348   0.712  0.00  0.00    -0.004 A 
ATOM      5  C7  UNL d   1      -1.726   1.119  -0.417  0.00  0.00     0.002 A 
ATOM      6  C8  UNL d   1      -0.973   0.944  -1.579  0.00  0.00     0.002 A 
ENDROOT
BRANCH   1   7
ATOM      7  C2  UNL d   1       0.853  -0.209  -2.890  0.00  0.00     0.056 C 
BRANCH   7   8
ATOM      8  C1  UNL d   1       0.633  -1.573  -3.553  0.00  0.00     0.007 C 
ATOM      9  C   UNL d   1       1.926  -2.345  -3.782  0.00  0.00     0.009 C 
ENDBRANCH   7   8
ENDBRANCH   1   7
TORSDOF 2
ENDMDL
