MODEL 1
REMARK minimizedAffinity -2.38533974
REMARK minimizedRMSD -1
REMARK  2 active torsions:
REMARK  status: ('A' for Active; 'I' for Inactive)
REMARK    1  A    between atoms: C1_2  and  C2_3 
REMARK    2  A    between atoms: C2_3  and  C3_4 
ROOT
ATOM      1  C3  UNL d   1      -1.257   1.119   3.270  0.00  0.00    -0.075 A 
ATOM      2  C4  UNL d   1       0.080   1.354   3.620  0.00  0.00     0.002 A 
ATOM      3  C5  UNL d   1       0.463   2.574   4.178  0.00  0.00     0.002 A 
ATOM      4  C6  UNL d   1      -0.482   3.577   4.382  0.00  0.00    -0.004 A 
ATOM      5  C7  UNL d   1      -1.811   3.361   4.023  0.00  0.00     0.002 A 
ATOM      6  C8  UNL d   1      -2.197   2.139   3.469  0.00  0.00     0.002 A 
ENDROOT
BRANCH   1   7
ATOM      7  C2  UNL d   1      -1.683  -0.210   2.693  0.00  0.00     0.056 C 
BRANCH   7   8
ATOM      8  C1  UNL d   1      -0.887  -0.636   1.455  0.00  0.00     0.007 C 
ATOM      9  C   UNL d   1      -0.754   0.470   0.417  0.00  0.00     0.009 C 
ENDBRANCH   7   8
ENDBRANCH   1   7
TORSDOF 2
ENDMDL
