MODEL 1
REMARK minimizedAffinity -3.78177214
REMARK minimizedRMSD -1
REMARK  2 active torsions:
REMARK  status: ('A' for Active; 'I' for Inactive)
REMARK    1  A    between atoms: C1_2  and  C2_3 
REMARK    2  A    between atoms: C2_3  and  C3_4 
ROOT
ATOM      1  C3  UNL d   1      -1.600  -0.275   1.082  0.00  0.00    -0.075 A 
ATOM      2  C4  UNL d   1      -2.099   0.660   2.001  0.00  0.00     0.002 A 
ATOM      3  C5  UNL d   1      -2.220   0.332   3.351  0.00  0.00     0.002 A 
ATOM      4  C6  UNL d   1      -1.856  -0.936   3.798  0.00  0.00    -0.004 A 
ATOM      5  C7  UNL d   1      -1.375  -1.879   2.892  0.00  0.00     0.002 A 
ATOM      6  C8  UNL d   1      -1.249  -1.552   1.541  0.00  0.00     0.002 A 
ENDROOT
BRANCH   1   7
ATOM      7  C2  UNL d   1      -1.439   0.084  -0.375  0.00  0.00     0.056 C 
BRANCH   7   8
ATOM      8  C1  UNL d   1      -0.058   0.646  -0.730  0.00  0.00     0.007 C 
ATOM      9  C   UNL d   1       0.918   0.623   0.439  0.00  0.00     0.009 C 
ENDBRANCH   7   8
ENDBRANCH   1   7
TORSDOF 2
ENDMDL
