MODEL 1
REMARK minimizedAffinity -4.77468014
REMARK minimizedRMSD -1
REMARK  2 active torsions:
REMARK  status: ('A' for Active; 'I' for Inactive)
REMARK    1  A    between atoms: C1_2  and  C2_3 
REMARK    2  A    between atoms: C2_3  and  C3_4 
ROOT
ATOM      1  C3  UNL d   1       0.060   0.507   0.590  0.00  0.00    -0.075 A 
ATOM      2  C4  UNL d   1      -0.378   0.293   1.905  0.00  0.00     0.002 A 
ATOM      3  C5  UNL d   1       0.340   0.812   2.984  0.00  0.00     0.002 A 
ATOM      4  C6  UNL d   1       1.507   1.540   2.762  0.00  0.00    -0.004 A 
ATOM      5  C7  UNL d   1       1.960   1.744   1.461  0.00  0.00     0.002 A 
ATOM      6  C8  UNL d   1       1.242   1.230   0.380  0.00  0.00     0.002 A 
ENDROOT
BRANCH   1   7
ATOM      7  C2  UNL d   1      -0.728  -0.027  -0.582  0.00  0.00     0.056 C 
BRANCH   7   8
ATOM      8  C1  UNL d   1      -1.941   0.830  -0.960  0.00  0.00     0.007 C 
ATOM      9  C   UNL d   1      -3.218   0.412  -0.243  0.00  0.00     0.009 C 
ENDBRANCH   7   8
ENDBRANCH   1   7
TORSDOF 2
ENDMDL
