MODEL 1
REMARK minimizedAffinity -5.8506093
REMARK minimizedRMSD -1
REMARK  2 active torsions:
REMARK  status: ('A' for Active; 'I' for Inactive)
REMARK    1  A    between atoms: C1_2  and  C2_3 
REMARK    2  A    between atoms: C2_3  and  C3_4 
ROOT
ATOM      1  C3  UNL d   1      -0.876  -0.503   0.792  0.00  0.00    -0.075 A 
ATOM      2  C4  UNL d   1      -2.202  -0.122   0.544  0.00  0.00     0.002 A 
ATOM      3  C5  UNL d   1      -3.037   0.262   1.595  0.00  0.00     0.002 A 
ATOM      4  C6  UNL d   1      -2.560   0.258   2.904  0.00  0.00    -0.004 A 
ATOM      5  C7  UNL d   1      -1.249  -0.135   3.163  0.00  0.00     0.002 A 
ATOM      6  C8  UNL d   1      -0.410  -0.515   2.114  0.00  0.00     0.002 A 
ENDROOT
BRANCH   1   7
ATOM      7  C2  UNL d   1       0.041  -0.891  -0.343  0.00  0.00     0.056 C 
BRANCH   7   8
ATOM      8  C1  UNL d   1       0.054   0.109  -1.504  0.00  0.00     0.007 C 
ATOM      9  C   UNL d   1       0.489  -0.510  -2.826  0.00  0.00     0.009 C 
ENDBRANCH   7   8
ENDBRANCH   1   7
TORSDOF 2
ENDMDL
