MODEL 1
REMARK minimizedAffinity -5.41102886
REMARK minimizedRMSD -1
REMARK  2 active torsions:
REMARK  status: ('A' for Active; 'I' for Inactive)
REMARK    1  A    between atoms: C1_2  and  C2_3 
REMARK    2  A    between atoms: C2_3  and  C3_4 
ROOT
ATOM      1  C3  UNL d   1      -0.181   0.192   0.065  0.00  0.00    -0.075 A 
ATOM      2  C4  UNL d   1       1.000   0.481   0.763  0.00  0.00     0.002 A 
ATOM      3  C5  UNL d   1       1.010   0.516   2.157  0.00  0.00     0.002 A 
ATOM      4  C6  UNL d   1      -0.162   0.273   2.871  0.00  0.00    -0.004 A 
ATOM      5  C7  UNL d   1      -1.345   0.000   2.188  0.00  0.00     0.002 A 
ATOM      6  C8  UNL d   1      -1.356  -0.040   0.793  0.00  0.00     0.002 A 
ENDROOT
BRANCH   1   7
ATOM      7  C2  UNL d   1      -0.191   0.123  -1.443  0.00  0.00     0.056 C 
BRANCH   7   8
ATOM      8  C1  UNL d   1       1.199  -0.026  -2.070  0.00  0.00     0.007 C 
ATOM      9  C   UNL d   1       1.282  -1.160  -3.083  0.00  0.00     0.009 C 
ENDBRANCH   7   8
ENDBRANCH   1   7
TORSDOF 2
ENDMDL
