MODEL 1
REMARK minimizedAffinity -2.58725905
REMARK minimizedRMSD -1
REMARK  1 active torsions:
REMARK  status: ('A' for Active; 'I' for Inactive)
REMARK    1  A    between atoms: C1_2  and  C2_3 
ROOT
ATOM      1  C2  UNL d   1      -5.501  -4.938  -3.382  0.00  0.00    -0.077 A 
ATOM      2  C3  UNL d   1      -4.594  -5.941  -3.751  0.00  0.00     0.002 A 
ATOM      3  C4  UNL d   1      -4.097  -5.999  -5.055  0.00  0.00     0.002 A 
ATOM      4  C5  UNL d   1      -4.499  -5.055  -5.998  0.00  0.00    -0.004 A 
ATOM      5  C6  UNL d   1      -5.402  -4.055  -5.641  0.00  0.00     0.002 A 
ATOM      6  C7  UNL d   1      -5.900  -3.996  -4.339  0.00  0.00     0.002 A 
ENDROOT
BRANCH   1   7
ATOM      7  C1  UNL d   1      -5.999  -4.845  -1.964  0.00  0.00     0.055 C 
ATOM      8  C   UNL d   1      -5.991  -3.406  -1.468  0.00  0.00     0.019 C 
ENDBRANCH   1   7
TORSDOF 1
ENDMDL
