MODEL 1
REMARK minimizedAffinity 0.696698129
REMARK minimizedRMSD -1
REMARK  1 active torsions:
REMARK  status: ('A' for Active; 'I' for Inactive)
REMARK    1  A    between atoms: C1_2  and  C2_3 
ROOT
ATOM      1  C2  UNL d   1      -5.447  -4.533  -3.399  0.00  0.00    -0.077 A 
ATOM      2  C3  UNL d   1      -4.401  -5.467  -3.414  0.00  0.00     0.002 A 
ATOM      3  C4  UNL d   1      -3.910  -5.958  -4.625  0.00  0.00     0.002 A 
ATOM      4  C5  UNL d   1      -4.455  -5.518  -5.829  0.00  0.00    -0.004 A 
ATOM      5  C6  UNL d   1      -5.497  -4.592  -5.825  0.00  0.00     0.002 A 
ATOM      6  C7  UNL d   1      -5.990  -4.101  -4.615  0.00  0.00     0.002 A 
ENDROOT
BRANCH   1   7
ATOM      7  C1  UNL d   1      -5.945  -3.966  -2.095  0.00  0.00     0.055 C 
ATOM      8  C   UNL d   1      -5.790  -2.452  -2.056  0.00  0.00     0.019 C 
ENDBRANCH   1   7
TORSDOF 1
ENDMDL
