MODEL 1
REMARK minimizedAffinity 0.733564019
REMARK minimizedRMSD -1
REMARK  1 active torsions:
REMARK  status: ('A' for Active; 'I' for Inactive)
REMARK    1  A    between atoms: C1_2  and  C2_3 
ROOT
ATOM      1  C2  UNL d   1       1.402  -1.556   2.299  0.00  0.00    -0.077 A 
ATOM      2  C3  UNL d   1       1.191  -1.536   3.685  0.00  0.00     0.002 A 
ATOM      3  C4  UNL d   1       1.392  -2.688   4.447  0.00  0.00     0.002 A 
ATOM      4  C5  UNL d   1       1.810  -3.867   3.832  0.00  0.00    -0.004 A 
ATOM      5  C6  UNL d   1       2.020  -3.898   2.454  0.00  0.00     0.002 A 
ATOM      6  C7  UNL d   1       1.818  -2.747   1.691  0.00  0.00     0.002 A 
ENDROOT
BRANCH   1   7
ATOM      7  C1  UNL d   1       1.233  -0.301   1.483  0.00  0.00     0.055 C 
ATOM      8  C   UNL d   1       2.542   0.113   0.826  0.00  0.00     0.019 C 
ENDBRANCH   1   7
TORSDOF 1
ENDMDL
