MODEL 1
REMARK minimizedAffinity 1.01444292
REMARK minimizedRMSD -1
REMARK  1 active torsions:
REMARK  status: ('A' for Active; 'I' for Inactive)
REMARK    1  A    between atoms: C1_2  and  C2_3 
ROOT
ATOM      1  C2  UNL d   1      -5.371  -4.518  -4.771  0.00  0.00    -0.077 A 
ATOM      2  C3  UNL d   1      -5.998  -4.353  -3.528  0.00  0.00     0.002 A 
ATOM      3  C4  UNL d   1      -5.466  -4.949  -2.383  0.00  0.00     0.002 A 
ATOM      4  C5  UNL d   1      -4.303  -5.711  -2.469  0.00  0.00    -0.004 A 
ATOM      5  C6  UNL d   1      -3.673  -5.883  -3.701  0.00  0.00     0.002 A 
ATOM      6  C7  UNL d   1      -4.204  -5.289  -4.847  0.00  0.00     0.002 A 
ENDROOT
BRANCH   1   7
ATOM      7  C1  UNL d   1      -5.916  -3.835  -5.998  0.00  0.00     0.055 C 
ATOM      8  C   UNL d   1      -5.581  -2.351  -6.000  0.00  0.00     0.019 C 
ENDBRANCH   1   7
TORSDOF 1
ENDMDL
