MODEL 1
REMARK minimizedAffinity 0.633451939
REMARK minimizedRMSD -1
REMARK  1 active torsions:
REMARK  status: ('A' for Active; 'I' for Inactive)
REMARK    1  A    between atoms: C1_2  and  C2_3 
ROOT
ATOM      1  C2  UNL d   1      -4.857  -4.529  -3.422  0.00  0.00    -0.077 A 
ATOM      2  C3  UNL d   1      -3.890  -5.453  -3.844  0.00  0.00     0.002 A 
ATOM      3  C4  UNL d   1      -3.948  -5.999  -5.127  0.00  0.00     0.002 A 
ATOM      4  C5  UNL d   1      -4.968  -5.626  -6.000  0.00  0.00    -0.004 A 
ATOM      5  C6  UNL d   1      -5.935  -4.709  -5.589  0.00  0.00     0.002 A 
ATOM      6  C7  UNL d   1      -5.879  -4.163  -4.306  0.00  0.00     0.002 A 
ENDROOT
BRANCH   1   7
ATOM      7  C1  UNL d   1      -4.767  -3.901  -2.056  0.00  0.00     0.055 C 
ATOM      8  C   UNL d   1      -5.628  -2.649  -1.964  0.00  0.00     0.019 C 
ENDBRANCH   1   7
TORSDOF 1
ENDMDL
