MODEL 1
REMARK minimizedAffinity -3.03244877
REMARK minimizedRMSD -1
REMARK  1 active torsions:
REMARK  status: ('A' for Active; 'I' for Inactive)
REMARK    1  A    between atoms: C1_2  and  C2_3 
ROOT
ATOM      1  C2  UNL d   1      -5.163  -4.873  -3.852  0.00  0.00    -0.077 A 
ATOM      2  C3  UNL d   1      -5.930  -3.969  -3.104  0.00  0.00     0.002 A 
ATOM      3  C4  UNL d   1      -5.998  -4.082  -1.714  0.00  0.00     0.002 A 
ATOM      4  C5  UNL d   1      -5.299  -5.094  -1.060  0.00  0.00    -0.004 A 
ATOM      5  C6  UNL d   1      -4.535  -6.000  -1.795  0.00  0.00     0.002 A 
ATOM      6  C7  UNL d   1      -4.466  -5.889  -3.185  0.00  0.00     0.002 A 
ENDROOT
BRANCH   1   7
ATOM      7  C1  UNL d   1      -5.048  -4.724  -5.346  0.00  0.00     0.055 C 
ATOM      8  C   UNL d   1      -4.479  -5.981  -5.987  0.00  0.00     0.019 C 
ENDBRANCH   1   7
TORSDOF 1
ENDMDL
