MODEL 1
REMARK minimizedAffinity -1.16214728
REMARK minimizedRMSD -1
REMARK  1 active torsions:
REMARK  status: ('A' for Active; 'I' for Inactive)
REMARK    1  A    between atoms: C1_2  and  C2_3 
ROOT
ATOM      1  C2  UNL d   1      -4.966  -5.213  -3.514  0.00  0.00    -0.077 A 
ATOM      2  C3  UNL d   1      -5.575  -3.953  -3.610  0.00  0.00     0.002 A 
ATOM      3  C4  UNL d   1      -5.997  -3.466  -4.849  0.00  0.00     0.002 A 
ATOM      4  C5  UNL d   1      -5.819  -4.233  -5.998  0.00  0.00    -0.004 A 
ATOM      5  C6  UNL d   1      -5.213  -5.486  -5.913  0.00  0.00     0.002 A 
ATOM      6  C7  UNL d   1      -4.789  -5.974  -4.676  0.00  0.00     0.002 A 
ENDROOT
BRANCH   1   7
ATOM      7  C1  UNL d   1      -4.554  -5.761  -2.172  0.00  0.00     0.055 C 
ATOM      8  C   UNL d   1      -5.757  -5.952  -1.260  0.00  0.00     0.019 C 
ENDBRANCH   1   7
TORSDOF 1
ENDMDL
