MODEL 1
REMARK minimizedAffinity 8.49144936
REMARK minimizedRMSD -1
REMARK  1 active torsions:
REMARK  status: ('A' for Active; 'I' for Inactive)
REMARK    1  A    between atoms: C1_2  and  C2_3 
ROOT
ATOM      1  C2  UNL d   1       4.606  -5.534  -2.935  0.00  0.00    -0.077 A 
ATOM      2  C3  UNL d   1       3.321  -5.731  -3.458  0.00  0.00     0.002 A 
ATOM      3  C4  UNL d   1       3.141  -5.959  -4.824  0.00  0.00     0.002 A 
ATOM      4  C5  UNL d   1       4.243  -5.997  -5.677  0.00  0.00    -0.004 A 
ATOM      5  C6  UNL d   1       5.525  -5.800  -5.166  0.00  0.00     0.002 A 
ATOM      6  C7  UNL d   1       5.706  -5.571  -3.801  0.00  0.00     0.002 A 
ENDROOT
BRANCH   1   7
ATOM      7  C1  UNL d   1       4.806  -5.337  -1.455  0.00  0.00     0.055 C 
ATOM      8  C   UNL d   1       3.573  -5.759  -0.669  0.00  0.00     0.019 C 
ENDBRANCH   1   7
TORSDOF 1
ENDMDL
