MODEL 1
REMARK minimizedAffinity -3.54881144
REMARK minimizedRMSD -1
REMARK  0 active torsions:
REMARK  status: ('A' for Active; 'I' for Inactive)
ROOT
ATOM      1  C   UNL d   1       0.255   0.270  -0.008  0.00  0.00     0.078 C 
ATOM      2  C1  UNL d   1       1.222   1.305   0.485  0.00  0.00    -0.077 A 
ATOM      3  C2  UNL d   1       2.034   1.060   1.599  0.00  0.00    -0.001 A 
ATOM      4  C3  UNL d   1       2.923   2.036   2.053  0.00  0.00     0.003 A 
ATOM      5  C4  UNL d   1       3.007   3.264   1.399  0.00  0.00    -0.005 A 
ATOM      6  C5  UNL d   1       2.202   3.517   0.290  0.00  0.00     0.003 A 
ATOM      7  C6  UNL d   1       1.312   2.542  -0.165  0.00  0.00    -0.001 A 
ENDROOT
TORSDOF 0
ENDMDL
