MODEL 1
REMARK minimizedAffinity -4.98922062
REMARK minimizedRMSD -1
REMARK  0 active torsions:
REMARK  status: ('A' for Active; 'I' for Inactive)
ROOT
ATOM      1  C   UNL d   1       1.173   0.207   0.262  0.00  0.00     0.078 C 
ATOM      2  C1  UNL d   1      -0.178  -0.414   0.070  0.00  0.00    -0.077 A 
ATOM      3  C2  UNL d   1      -0.620  -1.451   0.901  0.00  0.00    -0.001 A 
ATOM      4  C3  UNL d   1      -1.876  -2.026   0.705  0.00  0.00     0.003 A 
ATOM      5  C4  UNL d   1      -2.701  -1.572  -0.323  0.00  0.00    -0.005 A 
ATOM      6  C5  UNL d   1      -2.269  -0.542  -1.156  0.00  0.00     0.003 A 
ATOM      7  C6  UNL d   1      -1.013   0.034  -0.961  0.00  0.00    -0.001 A 
ENDROOT
TORSDOF 0
ENDMDL
