MODEL 1
REMARK minimizedAffinity -4.59905243
REMARK minimizedRMSD -1
REMARK  0 active torsions:
REMARK  status: ('A' for Active; 'I' for Inactive)
ROOT
ATOM      1  C   UNL d   1      -0.938  -2.628   1.303  0.00  0.00     0.078 C 
ATOM      2  C1  UNL d   1      -1.052  -1.527   0.291  0.00  0.00    -0.077 A 
ATOM      3  C2  UNL d   1      -2.188  -1.406  -0.518  0.00  0.00    -0.001 A 
ATOM      4  C3  UNL d   1      -2.276  -0.382  -1.463  0.00  0.00     0.003 A 
ATOM      5  C4  UNL d   1      -1.230   0.527  -1.608  0.00  0.00    -0.005 A 
ATOM      6  C5  UNL d   1      -0.094   0.413  -0.809  0.00  0.00     0.003 A 
ATOM      7  C6  UNL d   1      -0.005  -0.610   0.136  0.00  0.00    -0.001 A 
ENDROOT
TORSDOF 0
ENDMDL
