MODEL 1
REMARK minimizedAffinity -4.57004452
REMARK minimizedRMSD -1
REMARK  0 active torsions:
REMARK  status: ('A' for Active; 'I' for Inactive)
ROOT
ATOM      1  C   UNL d   1      -1.612  -2.934   1.109  0.00  0.00     0.078 C 
ATOM      2  C1  UNL d   1      -1.211  -1.681   0.390  0.00  0.00    -0.077 A 
ATOM      3  C2  UNL d   1      -2.054  -1.095  -0.562  0.00  0.00    -0.001 A 
ATOM      4  C3  UNL d   1      -1.663   0.066  -1.231  0.00  0.00     0.003 A 
ATOM      5  C4  UNL d   1      -0.429   0.651  -0.955  0.00  0.00    -0.005 A 
ATOM      6  C5  UNL d   1       0.417   0.074  -0.011  0.00  0.00     0.003 A 
ATOM      7  C6  UNL d   1       0.029  -1.088   0.659  0.00  0.00    -0.001 A 
ENDROOT
TORSDOF 0
ENDMDL
