MODEL 1
REMARK minimizedAffinity -3.19807887
REMARK minimizedRMSD -1
REMARK  0 active torsions:
REMARK  status: ('A' for Active; 'I' for Inactive)
ROOT
ATOM      1  C   UNL d   1       1.558   0.282   0.676  0.00  0.00     0.078 C 
ATOM      2  C1  UNL d   1       0.272  -0.011  -0.038  0.00  0.00    -0.077 A 
ATOM      3  C2  UNL d   1      -0.496  -1.134   0.293  0.00  0.00    -0.001 A 
ATOM      4  C3  UNL d   1      -1.686  -1.400  -0.386  0.00  0.00     0.003 A 
ATOM      5  C4  UNL d   1      -2.119  -0.548  -1.400  0.00  0.00    -0.005 A 
ATOM      6  C5  UNL d   1      -1.360   0.571  -1.737  0.00  0.00     0.003 A 
ATOM      7  C6  UNL d   1      -0.170   0.839  -1.060  0.00  0.00    -0.001 A 
ENDROOT
TORSDOF 0
ENDMDL
