MODEL 1
REMARK minimizedAffinity -2.15651202
REMARK minimizedRMSD -1
REMARK  0 active torsions:
REMARK  status: ('A' for Active; 'I' for Inactive)
ROOT
ATOM      1  C   UNL d   1      -5.190   4.854  -0.342  0.00  0.00     0.078 C 
ATOM      2  C1  UNL d   1      -4.741   4.820   1.088  0.00  0.00    -0.077 A 
ATOM      3  C2  UNL d   1      -4.655   5.995   1.845  0.00  0.00    -0.001 A 
ATOM      4  C3  UNL d   1      -4.226   5.950   3.173  0.00  0.00     0.003 A 
ATOM      5  C4  UNL d   1      -3.879   4.732   3.755  0.00  0.00    -0.005 A 
ATOM      6  C5  UNL d   1      -3.960   3.558   3.009  0.00  0.00     0.003 A 
ATOM      7  C6  UNL d   1      -4.389   3.601   1.682  0.00  0.00    -0.001 A 
ENDROOT
TORSDOF 0
ENDMDL
