MODEL 1
REMARK minimizedAffinity -3.89022493
REMARK minimizedRMSD -1
REMARK  0 active torsions:
REMARK  status: ('A' for Active; 'I' for Inactive)
ROOT
ATOM      1  C   UNL d   1      -2.261  -3.016   0.425  0.00  0.00     0.078 C 
ATOM      2  C1  UNL d   1      -1.595  -1.789  -0.122  0.00  0.00    -0.077 A 
ATOM      3  C2  UNL d   1      -2.085  -1.154  -1.269  0.00  0.00    -0.001 A 
ATOM      4  C3  UNL d   1      -1.449  -0.018  -1.773  0.00  0.00     0.003 A 
ATOM      5  C4  UNL d   1      -0.319   0.492  -1.136  0.00  0.00    -0.005 A 
ATOM      6  C5  UNL d   1       0.176  -0.135   0.006  0.00  0.00     0.003 A 
ATOM      7  C6  UNL d   1      -0.458  -1.271   0.511  0.00  0.00    -0.001 A 
ENDROOT
TORSDOF 0
ENDMDL
