MODEL 1
REMARK minimizedAffinity -0.180872723
REMARK minimizedRMSD -1
REMARK  0 active torsions:
REMARK  status: ('A' for Active; 'I' for Inactive)
ROOT
ATOM      1  C   UNL d   1       1.980   2.358   1.544  0.00  0.00     0.078 C 
ATOM      2  C1  UNL d   1       1.115   1.498   0.672  0.00  0.00    -0.077 A 
ATOM      3  C2  UNL d   1      -0.053   2.005   0.090  0.00  0.00    -0.001 A 
ATOM      4  C3  UNL d   1      -0.854   1.190  -0.712  0.00  0.00     0.003 A 
ATOM      5  C4  UNL d   1      -0.496  -0.138  -0.937  0.00  0.00    -0.005 A 
ATOM      6  C5  UNL d   1       0.663  -0.652  -0.360  0.00  0.00     0.003 A 
ATOM      7  C6  UNL d   1       1.465   0.161   0.441  0.00  0.00    -0.001 A 
ENDROOT
TORSDOF 0
ENDMDL
