MODEL 1
REMARK minimizedAffinity -2.84344983
REMARK minimizedRMSD -1
REMARK  0 active torsions:
REMARK  status: ('A' for Active; 'I' for Inactive)
ROOT
ATOM      1  C   UNL d   1       0.345   0.055  -0.010  0.00  0.00     0.078 C 
ATOM      2  C1  UNL d   1       1.220   1.184   0.444  0.00  0.00    -0.077 A 
ATOM      3  C2  UNL d   1       0.785   2.087   1.422  0.00  0.00    -0.001 A 
ATOM      4  C3  UNL d   1       1.607   3.139   1.828  0.00  0.00     0.003 A 
ATOM      5  C4  UNL d   1       2.869   3.301   1.259  0.00  0.00    -0.005 A 
ATOM      6  C5  UNL d   1       3.310   2.409   0.283  0.00  0.00     0.003 A 
ATOM      7  C6  UNL d   1       2.489   1.356  -0.123  0.00  0.00    -0.001 A 
ENDROOT
TORSDOF 0
ENDMDL
