MODEL 1
REMARK minimizedAffinity -3.03220963
REMARK minimizedRMSD -1
REMARK  0 active torsions:
REMARK  status: ('A' for Active; 'I' for Inactive)
ROOT
ATOM      1  C   UNL d   1       0.046  -0.022  -0.394  0.00  0.00     0.078 C 
ATOM      2  C1  UNL d   1       0.779   1.085   0.302  0.00  0.00    -0.077 A 
ATOM      3  C2  UNL d   1       2.177   1.090   0.375  0.00  0.00    -0.001 A 
ATOM      4  C3  UNL d   1       2.846   2.122   1.035  0.00  0.00     0.003 A 
ATOM      5  C4  UNL d   1       2.125   3.157   1.628  0.00  0.00    -0.005 A 
ATOM      6  C5  UNL d   1       0.734   3.160   1.562  0.00  0.00     0.003 A 
ATOM      7  C6  UNL d   1       0.063   2.128   0.902  0.00  0.00    -0.001 A 
ENDROOT
TORSDOF 0
ENDMDL
