MODEL 1
REMARK minimizedAffinity -4.92381048
REMARK minimizedRMSD -1
REMARK  0 active torsions:
REMARK  status: ('A' for Active; 'I' for Inactive)
ROOT
ATOM      1  C   UNL d   1      -3.556  -1.485  -0.351  0.00  0.00     0.078 C 
ATOM      2  C1  UNL d   1      -2.167  -1.137   0.096  0.00  0.00    -0.077 A 
ATOM      3  C2  UNL d   1      -1.450  -0.102  -0.517  0.00  0.00    -0.001 A 
ATOM      4  C3  UNL d   1      -0.155   0.204  -0.097  0.00  0.00     0.003 A 
ATOM      5  C4  UNL d   1       0.436  -0.522   0.935  0.00  0.00    -0.005 A 
ATOM      6  C5  UNL d   1      -0.268  -1.556   1.549  0.00  0.00     0.003 A 
ATOM      7  C6  UNL d   1      -1.564  -1.863   1.131  0.00  0.00    -0.001 A 
ENDROOT
TORSDOF 0
ENDMDL
