MODEL 1
REMARK minimizedAffinity -1.62477601
REMARK minimizedRMSD -1
REMARK  0 active torsions:
REMARK  status: ('A' for Active; 'I' for Inactive)
ROOT
ATOM      1  C   UNL d   1       2.298   1.258   0.309  0.00  0.00     0.078 C 
ATOM      2  C1  UNL d   1       1.002   0.705  -0.203  0.00  0.00    -0.077 A 
ATOM      3  C2  UNL d   1       0.621   0.881  -1.539  0.00  0.00    -0.001 A 
ATOM      4  C3  UNL d   1      -0.593   0.369  -2.000  0.00  0.00     0.003 A 
ATOM      5  C4  UNL d   1      -1.437  -0.321  -1.131  0.00  0.00    -0.005 A 
ATOM      6  C5  UNL d   1      -1.067  -0.498   0.200  0.00  0.00     0.003 A 
ATOM      7  C6  UNL d   1       0.147   0.013   0.663  0.00  0.00    -0.001 A 
ENDROOT
TORSDOF 0
ENDMDL
