MODEL 1
REMARK minimizedAffinity 3.99752331
REMARK minimizedRMSD -1
REMARK  0 active torsions:
REMARK  status: ('A' for Active; 'I' for Inactive)
ROOT
ATOM      1  C   UNL d   1      -1.567  -3.820   1.753  0.00  0.00     0.078 C 
ATOM      2  C1  UNL d   1      -1.580  -2.600   0.882  0.00  0.00    -0.077 A 
ATOM      3  C2  UNL d   1      -2.764  -2.157   0.279  0.00  0.00    -0.001 A 
ATOM      4  C3  UNL d   1      -2.760  -1.025  -0.537  0.00  0.00     0.003 A 
ATOM      5  C4  UNL d   1      -1.575  -0.326  -0.759  0.00  0.00    -0.005 A 
ATOM      6  C5  UNL d   1      -0.392  -0.760  -0.165  0.00  0.00     0.003 A 
ATOM      7  C6  UNL d   1      -0.394  -1.892   0.652  0.00  0.00    -0.001 A 
ENDROOT
TORSDOF 0
ENDMDL
