MODEL 1
REMARK minimizedAffinity -3.49821424
REMARK minimizedRMSD -1
REMARK  0 active torsions:
REMARK  status: ('A' for Active; 'I' for Inactive)
ROOT
ATOM      1  C   UNL d   1      -0.124  -0.405   0.903  0.00  0.00     0.078 C 
ATOM      2  C1  UNL d   1       0.920   0.666   0.790  0.00  0.00    -0.077 A 
ATOM      3  C2  UNL d   1       0.952   1.740   1.688  0.00  0.00    -0.001 A 
ATOM      4  C3  UNL d   1       1.924   2.734   1.564  0.00  0.00     0.003 A 
ATOM      5  C4  UNL d   1       2.869   2.665   0.543  0.00  0.00    -0.005 A 
ATOM      6  C5  UNL d   1       2.844   1.601  -0.357  0.00  0.00     0.003 A 
ATOM      7  C6  UNL d   1       1.873   0.606  -0.235  0.00  0.00    -0.001 A 
ENDROOT
TORSDOF 0
ENDMDL
