MODEL 1
REMARK minimizedAffinity -5.4604373
REMARK minimizedRMSD -1
REMARK  0 active torsions:
REMARK  status: ('A' for Active; 'I' for Inactive)
ROOT
ATOM      1  C   UNL d   1       0.552  -0.386  -0.024  0.00  0.00     0.078 C 
ATOM      2  C1  UNL d   1      -0.885  -0.806  -0.099  0.00  0.00    -0.077 A 
ATOM      3  C2  UNL d   1      -1.363  -1.881   0.661  0.00  0.00    -0.001 A 
ATOM      4  C3  UNL d   1      -2.701  -2.267   0.574  0.00  0.00     0.003 A 
ATOM      5  C4  UNL d   1      -3.573  -1.586  -0.272  0.00  0.00    -0.005 A 
ATOM      6  C5  UNL d   1      -3.106  -0.516  -1.034  0.00  0.00     0.003 A 
ATOM      7  C6  UNL d   1      -1.768  -0.128  -0.949  0.00  0.00    -0.001 A 
ENDROOT
TORSDOF 0
ENDMDL
