MODEL 1
REMARK minimizedAffinity -3.37582612
REMARK minimizedRMSD -1
REMARK  0 active torsions:
REMARK  status: ('A' for Active; 'I' for Inactive)
ROOT
ATOM      1  C   UNL d   1       0.193   0.403  -0.005  0.00  0.00     0.078 C 
ATOM      2  C1  UNL d   1      -0.659  -0.827   0.092  0.00  0.00    -0.077 A 
ATOM      3  C2  UNL d   1      -0.373  -1.830   1.026  0.00  0.00    -0.001 A 
ATOM      4  C3  UNL d   1      -1.169  -2.975   1.098  0.00  0.00     0.003 A 
ATOM      5  C4  UNL d   1      -2.255  -3.128   0.238  0.00  0.00    -0.005 A 
ATOM      6  C5  UNL d   1      -2.545  -2.136  -0.696  0.00  0.00     0.003 A 
ATOM      7  C6  UNL d   1      -1.751  -0.991  -0.770  0.00  0.00    -0.001 A 
ENDROOT
TORSDOF 0
ENDMDL
