MODEL 1
REMARK minimizedAffinity -1.83814073
REMARK minimizedRMSD -1
REMARK  0 active torsions:
REMARK  status: ('A' for Active; 'I' for Inactive)
ROOT
ATOM      1  C   UNL d   1       0.704   0.286   0.645  0.00  0.00     0.078 C 
ATOM      2  C1  UNL d   1      -0.412  -0.694   0.437  0.00  0.00    -0.077 A 
ATOM      3  C2  UNL d   1      -1.352  -0.511  -0.585  0.00  0.00    -0.001 A 
ATOM      4  C3  UNL d   1      -2.391  -1.426  -0.761  0.00  0.00     0.003 A 
ATOM      5  C4  UNL d   1      -2.500  -2.531   0.082  0.00  0.00    -0.005 A 
ATOM      6  C5  UNL d   1      -1.571  -2.721   1.102  0.00  0.00     0.003 A 
ATOM      7  C6  UNL d   1      -0.531  -1.806   1.280  0.00  0.00    -0.001 A 
ENDROOT
TORSDOF 0
ENDMDL
