MODEL 1
REMARK minimizedAffinity -4.38547611
REMARK minimizedRMSD -1
REMARK  0 active torsions:
REMARK  status: ('A' for Active; 'I' for Inactive)
ROOT
ATOM      1  C   UNL d   1       1.102   0.362   0.508  0.00  0.00     0.078 C 
ATOM      2  C1  UNL d   1      -0.181  -0.338   0.173  0.00  0.00    -0.077 A 
ATOM      3  C2  UNL d   1      -0.600  -1.460   0.897  0.00  0.00    -0.001 A 
ATOM      4  C3  UNL d   1      -1.792  -2.108   0.568  0.00  0.00     0.003 A 
ATOM      5  C4  UNL d   1      -2.573  -1.642  -0.487  0.00  0.00    -0.005 A 
ATOM      6  C5  UNL d   1      -2.163  -0.527  -1.216  0.00  0.00     0.003 A 
ATOM      7  C6  UNL d   1      -0.972   0.122  -0.888  0.00  0.00    -0.001 A 
ENDROOT
TORSDOF 0
ENDMDL
