MODEL 1
REMARK minimizedAffinity 15.6062965
REMARK minimizedRMSD -1
REMARK  0 active torsions:
REMARK  status: ('A' for Active; 'I' for Inactive)
ROOT
ATOM      1  N1  IND d   1      -1.115  -2.570   0.179  0.00  0.00    -0.196 N 
ATOM      2  C2  IND d   1      -1.951  -2.218  -0.843  0.00  0.00     0.054 A 
ATOM      3  C3  IND d   1      -2.932  -3.137  -0.985  0.00  0.00    -0.031 A 
ATOM      4  C4  IND d   1      -3.416  -5.243   0.415  0.00  0.00     0.051 A 
ATOM      5  C5  IND d   1      -2.908  -6.000   1.433  0.00  0.00    -0.031 A 
ATOM      6  C6  IND d   1      -1.754  -5.643   2.100  0.00  0.00     0.015 A 
ATOM      7  C7  IND d   1      -1.069  -4.505   1.781  0.00  0.00    -0.016 A 
ATOM      8  C8  IND d   1      -1.578  -3.738   0.743  0.00  0.00    -0.047 A 
ATOM      9  C9  IND d   1      -2.725  -4.117   0.033  0.00  0.00    -0.096 A 
ATOM     10  HN1 IND d   1      -0.416  -2.134   0.429  0.00  0.00     0.298 HD
ENDROOT
TORSDOF 0
ENDMDL
