MODEL 1
REMARK minimizedAffinity 15.6039867
REMARK minimizedRMSD -1
REMARK  0 active torsions:
REMARK  status: ('A' for Active; 'I' for Inactive)
ROOT
ATOM      1  N1  IND d   1       0.406   1.477   3.003  0.00  0.00    -0.196 N 
ATOM      2  C2  IND d   1       0.808   0.761   4.097  0.00  0.00     0.054 A 
ATOM      3  C3  IND d   1       1.954   0.096   3.829  0.00  0.00    -0.031 A 
ATOM      4  C4  IND d   1       3.398   0.118   1.698  0.00  0.00     0.051 A 
ATOM      5  C5  IND d   1       3.421   0.595   0.417  0.00  0.00    -0.031 A 
ATOM      6  C6  IND d   1       2.421   1.408  -0.076  0.00  0.00     0.015 A 
ATOM      7  C7  IND d   1       1.363   1.787   0.700  0.00  0.00    -0.016 A 
ATOM      8  C8  IND d   1       1.332   1.299   1.999  0.00  0.00    -0.047 A 
ATOM      9  C9  IND d   1       2.322   0.438   2.492  0.00  0.00    -0.096 A 
ATOM     10  HN1 IND d   1      -0.305   1.957   2.951  0.00  0.00     0.298 HD
ENDROOT
TORSDOF 0
ENDMDL
