MODEL 1
REMARK minimizedAffinity 14.878397
REMARK minimizedRMSD -1
REMARK  0 active torsions:
REMARK  status: ('A' for Active; 'I' for Inactive)
ROOT
ATOM      1  N1  IND d   1       2.322  -0.013   0.036  0.00  0.00    -0.196 N 
ATOM      2  C2  IND d   1       1.555   0.206   1.146  0.00  0.00     0.054 A 
ATOM      3  C3  IND d   1       2.324   0.193   2.258  0.00  0.00    -0.031 A 
ATOM      4  C4  IND d   1       4.876  -0.067   2.480  0.00  0.00     0.051 A 
ATOM      5  C5  IND d   1       6.000  -0.327   1.747  0.00  0.00    -0.031 A 
ATOM      6  C6  IND d   1       5.955  -0.496   0.378  0.00  0.00     0.015 A 
ATOM      7  C7  IND d   1       4.780  -0.400  -0.313  0.00  0.00    -0.016 A 
ATOM      8  C8  IND d   1       3.636  -0.143   0.429  0.00  0.00    -0.047 A 
ATOM      9  C9  IND d   1       3.669  -0.013   1.823  0.00  0.00    -0.096 A 
ATOM     10  HN1 IND d   1       2.032  -0.061  -0.772  0.00  0.00     0.298 HD
ENDROOT
TORSDOF 0
ENDMDL
