MODEL 1
REMARK minimizedAffinity 23.8685818
REMARK minimizedRMSD -1
REMARK  0 active torsions:
REMARK  status: ('A' for Active; 'I' for Inactive)
ROOT
ATOM      1  N1  IND d   1       4.947  -0.014   1.918  0.00  0.00    -0.196 N 
ATOM      2  C2  IND d   1       5.999  -0.387   1.128  0.00  0.00     0.054 A 
ATOM      3  C3  IND d   1       5.571  -0.668  -0.123  0.00  0.00    -0.031 A 
ATOM      4  C4  IND d   1       3.206  -0.487  -1.122  0.00  0.00     0.051 A 
ATOM      5  C5  IND d   1       1.909  -0.225  -0.780  0.00  0.00    -0.031 A 
ATOM      6  C6  IND d   1       1.552   0.131   0.505  0.00  0.00     0.015 A 
ATOM      7  C7  IND d   1       2.484   0.249   1.497  0.00  0.00    -0.016 A 
ATOM      8  C8  IND d   1       3.801  -0.023   1.154  0.00  0.00    -0.047 A 
ATOM      9  C9  IND d   1       4.164  -0.426  -0.138  0.00  0.00    -0.096 A 
ATOM     10  HN1 IND d   1       4.994   0.191   2.752  0.00  0.00     0.298 HD
ENDROOT
TORSDOF 0
ENDMDL
