MODEL 1
REMARK minimizedAffinity 16.0824699
REMARK minimizedRMSD -1
REMARK  0 active torsions:
REMARK  status: ('A' for Active; 'I' for Inactive)
ROOT
ATOM      1  N1  IND d   1       3.266  -0.302   0.159  0.00  0.00    -0.196 N 
ATOM      2  C2  IND d   1       3.665   0.434  -0.921  0.00  0.00     0.054 A 
ATOM      3  C3  IND d   1       2.982   1.599  -0.975  0.00  0.00    -0.031 A 
ATOM      4  C4  IND d   1       1.236   2.548   0.662  0.00  0.00     0.051 A 
ATOM      5  C5  IND d   1       0.518   2.224   1.779  0.00  0.00    -0.031 A 
ATOM      6  C6  IND d   1       0.685   1.018   2.428  0.00  0.00     0.015 A 
ATOM      7  C7  IND d   1       1.588   0.092   1.989  0.00  0.00    -0.016 A 
ATOM      8  C8  IND d   1       2.313   0.414   0.850  0.00  0.00    -0.047 A 
ATOM      9  C9  IND d   1       2.118   1.619   0.163  0.00  0.00    -0.096 A 
ATOM     10  HN1 IND d   1       3.559  -1.082   0.372  0.00  0.00     0.298 HD
ENDROOT
TORSDOF 0
ENDMDL
