MODEL 1
REMARK minimizedAffinity 22.7798538
REMARK minimizedRMSD -1
REMARK  0 active torsions:
REMARK  status: ('A' for Active; 'I' for Inactive)
ROOT
ATOM      1  N1  IND d   1      -3.772  -2.109  -1.684  0.00  0.00    -0.196 N 
ATOM      2  C2  IND d   1      -3.602  -3.129  -2.578  0.00  0.00     0.054 A 
ATOM      3  C3  IND d   1      -2.625  -3.964  -2.158  0.00  0.00    -0.031 A 
ATOM      4  C4  IND d   1      -1.243  -3.903   0.013  0.00  0.00     0.051 A 
ATOM      5  C5  IND d   1      -1.014  -3.140   1.124  0.00  0.00    -0.031 A 
ATOM      6  C6  IND d   1      -1.710  -1.972   1.361  0.00  0.00     0.015 A 
ATOM      7  C7  IND d   1      -2.671  -1.527   0.499  0.00  0.00    -0.016 A 
ATOM      8  C8  IND d   1      -2.901  -2.296  -0.634  0.00  0.00    -0.047 A 
ATOM      9  C9  IND d   1      -2.169  -3.460  -0.902  0.00  0.00    -0.096 A 
ATOM     10  HN1 IND d   1      -4.329  -1.459  -1.765  0.00  0.00     0.298 HD
ENDROOT
TORSDOF 0
ENDMDL
