MODEL 1
REMARK minimizedAffinity 11.4682016
REMARK minimizedRMSD -1
REMARK  0 active torsions:
REMARK  status: ('A' for Active; 'I' for Inactive)
ROOT
ATOM      1  N1  IND d   1       2.049  -0.792   2.773  0.00  0.00    -0.196 N 
ATOM      2  C2  IND d   1       1.051  -0.192   3.489  0.00  0.00     0.054 A 
ATOM      3  C3  IND d   1       0.634   0.932   2.864  0.00  0.00    -0.031 A 
ATOM      4  C4  IND d   1       1.379   1.921   0.606  0.00  0.00     0.051 A 
ATOM      5  C5  IND d   1       2.290   1.747  -0.398  0.00  0.00    -0.031 A 
ATOM      6  C6  IND d   1       3.183   0.695  -0.398  0.00  0.00     0.015 A 
ATOM      7  C7  IND d   1       3.191  -0.233   0.605  0.00  0.00    -0.016 A 
ATOM      8  C8  IND d   1       2.273  -0.055   1.630  0.00  0.00    -0.047 A 
ATOM      9  C9  IND d   1       1.392   1.034   1.657  0.00  0.00    -0.096 A 
ATOM     10  HN1 IND d   1       2.467  -1.508   2.998  0.00  0.00     0.298 HD
ENDROOT
TORSDOF 0
ENDMDL
