MODEL 1
REMARK minimizedAffinity 10.6895294
REMARK minimizedRMSD -1
REMARK  0 active torsions:
REMARK  status: ('A' for Active; 'I' for Inactive)
ROOT
ATOM      1  N1  IND d   1       3.150  -0.349  -0.669  0.00  0.00    -0.196 N 
ATOM      2  C2  IND d   1       3.673   0.428  -1.666  0.00  0.00     0.054 A 
ATOM      3  C3  IND d   1       3.220   1.697  -1.559  0.00  0.00    -0.031 A 
ATOM      4  C4  IND d   1       1.696   2.745   0.231  0.00  0.00     0.051 A 
ATOM      5  C5  IND d   1       0.939   2.425   1.323  0.00  0.00    -0.031 A 
ATOM      6  C6  IND d   1       0.881   1.138   1.818  0.00  0.00     0.015 A 
ATOM      7  C7  IND d   1       1.591   0.122   1.244  0.00  0.00    -0.016 A 
ATOM      8  C8  IND d   1       2.355   0.442   0.131  0.00  0.00    -0.047 A 
ATOM      9  C9  IND d   1       2.384   1.737  -0.402  0.00  0.00    -0.096 A 
ATOM     10  HN1 IND d   1       3.294  -1.189  -0.561  0.00  0.00     0.298 HD
ENDROOT
TORSDOF 0
ENDMDL
