MODEL 1
REMARK minimizedAffinity 11.7375622
REMARK minimizedRMSD -1
REMARK  0 active torsions:
REMARK  status: ('A' for Active; 'I' for Inactive)
ROOT
ATOM      1  N1  IND d   1      -4.102  -3.090  -1.243  0.00  0.00    -0.196 N 
ATOM      2  C2  IND d   1      -3.546  -3.258  -2.480  0.00  0.00     0.054 A 
ATOM      3  C3  IND d   1      -2.219  -3.000  -2.439  0.00  0.00    -0.031 A 
ATOM      4  C4  IND d   1      -0.735  -2.386  -0.427  0.00  0.00     0.051 A 
ATOM      5  C5  IND d   1      -0.797  -2.082   0.904  0.00  0.00    -0.031 A 
ATOM      6  C6  IND d   1      -1.987  -2.102   1.602  0.00  0.00     0.015 A 
ATOM      7  C7  IND d   1      -3.164  -2.439   0.995  0.00  0.00    -0.016 A 
ATOM      8  C8  IND d   1      -3.106  -2.741  -0.358  0.00  0.00    -0.047 A 
ATOM      9  C9  IND d   1      -1.908  -2.681  -1.081  0.00  0.00    -0.096 A 
ATOM     10  HN1 IND d   1      -4.934  -3.187  -1.050  0.00  0.00     0.298 HD
ENDROOT
TORSDOF 0
ENDMDL
