MODEL 1
REMARK minimizedAffinity 13.9648323
REMARK minimizedRMSD -1
REMARK  0 active torsions:
REMARK  status: ('A' for Active; 'I' for Inactive)
ROOT
ATOM      1  N1  IND d   1      -0.364  -2.792   2.930  0.00  0.00    -0.196 N 
ATOM      2  C2  IND d   1      -0.877  -1.677   2.327  0.00  0.00     0.054 A 
ATOM      3  C3  IND d   1      -2.030  -1.976   1.688  0.00  0.00    -0.031 A 
ATOM      4  C4  IND d   1      -3.312  -4.206   1.586  0.00  0.00     0.051 A 
ATOM      5  C5  IND d   1      -3.220  -5.520   1.953  0.00  0.00    -0.031 A 
ATOM      6  C6  IND d   1      -2.151  -6.000   2.681  0.00  0.00     0.015 A 
ATOM      7  C7  IND d   1      -1.135  -5.179   3.081  0.00  0.00    -0.016 A 
ATOM      8  C8  IND d   1      -1.222  -3.846   2.705  0.00  0.00    -0.047 A 
ATOM      9  C9  IND d   1      -2.283  -3.361   1.929  0.00  0.00    -0.096 A 
ATOM     10  HN1 IND d   1       0.371  -2.828   3.375  0.00  0.00     0.298 HD
ENDROOT
TORSDOF 0
ENDMDL
