MODEL 1
REMARK minimizedAffinity 18.3087883
REMARK minimizedRMSD -1
REMARK  0 active torsions:
REMARK  status: ('A' for Active; 'I' for Inactive)
ROOT
ATOM      1  N1  IND d   1      -2.176  -6.000   2.432  0.00  0.00    -0.196 N 
ATOM      2  C2  IND d   1      -2.989  -6.000   1.333  0.00  0.00     0.054 A 
ATOM      3  C3  IND d   1      -2.998  -4.777   0.755  0.00  0.00    -0.031 A 
ATOM      4  C4  IND d   1      -1.676  -2.660   1.386  0.00  0.00     0.051 A 
ATOM      5  C5  IND d   1      -0.831  -2.162   2.337  0.00  0.00    -0.031 A 
ATOM      6  C6  IND d   1      -0.379  -2.933   3.388  0.00  0.00     0.015 A 
ATOM      7  C7  IND d   1      -0.749  -4.242   3.521  0.00  0.00    -0.016 A 
ATOM      8  C8  IND d   1      -1.613  -4.749   2.561  0.00  0.00    -0.047 A 
ATOM      9  C9  IND d   1      -2.108  -3.959   1.516  0.00  0.00    -0.096 A 
ATOM     10  HN1 IND d   1      -2.040  -6.669   2.955  0.00  0.00     0.298 HD
ENDROOT
TORSDOF 0
ENDMDL
