MODEL 1
REMARK minimizedAffinity 19.2008171
REMARK minimizedRMSD -1
REMARK  0 active torsions:
REMARK  status: ('A' for Active; 'I' for Inactive)
ROOT
ATOM      1  N1  IND d   1       3.142  -0.588   3.582  0.00  0.00    -0.196 N 
ATOM      2  C2  IND d   1       4.351  -0.924   3.041  0.00  0.00     0.054 A 
ATOM      3  C3  IND d   1       4.371  -0.637   1.720  0.00  0.00    -0.031 A 
ATOM      4  C4  IND d   1       2.568   0.481   0.262  0.00  0.00     0.051 A 
ATOM      5  C5  IND d   1       1.279   0.934   0.302  0.00  0.00    -0.031 A 
ATOM      6  C6  IND d   1       0.531   0.905   1.461  0.00  0.00     0.015 A 
ATOM      7  C7  IND d   1       1.050   0.430   2.632  0.00  0.00    -0.016 A 
ATOM      8  C8  IND d   1       2.356  -0.038   2.594  0.00  0.00    -0.047 A 
ATOM      9  C9  IND d   1       3.106  -0.050   1.410  0.00  0.00    -0.096 A 
ATOM     10  HN1 IND d   1       2.911  -0.702   4.403  0.00  0.00     0.298 HD
ENDROOT
TORSDOF 0
ENDMDL
