MODEL 1
REMARK minimizedAffinity 20.3629665
REMARK minimizedRMSD -1
REMARK  0 active torsions:
REMARK  status: ('A' for Active; 'I' for Inactive)
ROOT
ATOM      1  N1  IND d   1      -0.793  -2.564   1.380  0.00  0.00    -0.196 N 
ATOM      2  C2  IND d   1      -1.565  -1.847   0.509  0.00  0.00     0.054 A 
ATOM      3  C3  IND d   1      -2.633  -2.578   0.116  0.00  0.00    -0.031 A 
ATOM      4  C4  IND d   1      -3.364  -4.933   0.856  0.00  0.00     0.051 A 
ATOM      5  C5  IND d   1      -2.960  -6.000   1.609  0.00  0.00    -0.031 A 
ATOM      6  C6  IND d   1      -1.790  -5.974   2.342  0.00  0.00     0.015 A 
ATOM      7  C7  IND d   1      -0.984  -4.871   2.357  0.00  0.00    -0.016 A 
ATOM      8  C8  IND d   1      -1.387  -3.789   1.588  0.00  0.00    -0.047 A 
ATOM      9  C9  IND d   1      -2.551  -3.825   0.809  0.00  0.00    -0.096 A 
ATOM     10  HN1 IND d   1      -0.059  -2.294   1.738  0.00  0.00     0.298 HD
ENDROOT
TORSDOF 0
ENDMDL
