MODEL 1
REMARK minimizedAffinity 15.4939547
REMARK minimizedRMSD -1
REMARK  0 active torsions:
REMARK  status: ('A' for Active; 'I' for Inactive)
ROOT
ATOM      1  N1  IND d   1      -4.876   5.612   5.999  0.00  0.00    -0.196 N 
ATOM      2  C2  IND d   1      -5.982   5.999   5.295  0.00  0.00     0.054 A 
ATOM      3  C3  IND d   1      -6.000   5.403   4.082  0.00  0.00    -0.031 A 
ATOM      4  C4  IND d   1      -4.369   3.679   3.083  0.00  0.00     0.051 A 
ATOM      5  C5  IND d   1      -3.186   3.043   3.335  0.00  0.00    -0.031 A 
ATOM      6  C6  IND d   1      -2.494   3.233   4.513  0.00  0.00     0.015 A 
ATOM      7  C7  IND d   1      -2.966   4.060   5.492  0.00  0.00    -0.016 A 
ATOM      8  C8  IND d   1      -4.163   4.713   5.237  0.00  0.00    -0.047 A 
ATOM      9  C9  IND d   1      -4.849   4.558   4.025  0.00  0.00    -0.096 A 
ATOM     10  HN1 IND d   1      -4.662   5.884   6.786  0.00  0.00     0.298 HD
ENDROOT
TORSDOF 0
ENDMDL
