MODEL 1
REMARK minimizedAffinity 10.1232424
REMARK minimizedRMSD -1
REMARK  0 active torsions:
REMARK  status: ('A' for Active; 'I' for Inactive)
ROOT
ATOM      1  N1  IND d   1      -4.248   3.030   3.141  0.00  0.00    -0.196 N 
ATOM      2  C2  IND d   1      -3.204   2.463   3.817  0.00  0.00     0.054 A 
ATOM      3  C3  IND d   1      -2.976   3.127   4.972  0.00  0.00    -0.031 A 
ATOM      4  C4  IND d   1      -4.257   5.110   6.000  0.00  0.00     0.051 A 
ATOM      5  C5  IND d   1      -5.263   5.996   5.734  0.00  0.00    -0.031 A 
ATOM      6  C6  IND d   1      -5.999   5.936   4.568  0.00  0.00     0.015 A 
ATOM      7  C7  IND d   1      -5.762   4.976   3.625  0.00  0.00    -0.016 A 
ATOM      8  C8  IND d   1      -4.737   4.079   3.888  0.00  0.00    -0.047 A 
ATOM      9  C9  IND d   1      -3.959   4.161   5.050  0.00  0.00    -0.096 A 
ATOM     10  HN1 IND d   1      -4.548   2.775   2.377  0.00  0.00     0.298 HD
ENDROOT
TORSDOF 0
ENDMDL
