MODEL 1
REMARK minimizedAffinity 14.3109531
REMARK minimizedRMSD -1
REMARK  0 active torsions:
REMARK  status: ('A' for Active; 'I' for Inactive)
ROOT
ATOM      1  N1  IND d   1       3.011   2.060  -2.602  0.00  0.00    -0.196 N 
ATOM      2  C2  IND d   1       4.264   1.713  -3.025  0.00  0.00     0.054 A 
ATOM      3  C3  IND d   1       4.851   0.888  -2.129  0.00  0.00    -0.031 A 
ATOM      4  C4  IND d   1       3.901  -0.102   0.049  0.00  0.00     0.051 A 
ATOM      5  C5  IND d   1       2.811  -0.047   0.872  0.00  0.00    -0.031 A 
ATOM      6  C6  IND d   1       1.709   0.727   0.572  0.00  0.00     0.015 A 
ATOM      7  C7  IND d   1       1.650   1.469  -0.574  0.00  0.00    -0.016 A 
ATOM      8  C8  IND d   1       2.758   1.421  -1.408  0.00  0.00    -0.047 A 
ATOM      9  C9  IND d   1       3.897   0.671  -1.088  0.00  0.00    -0.096 A 
ATOM     10  HN1 IND d   1       2.472   2.589  -3.013  0.00  0.00     0.298 HD
ENDROOT
TORSDOF 0
ENDMDL
