MODEL 1
REMARK minimizedAffinity 17.4178734
REMARK minimizedRMSD -1
REMARK  0 active torsions:
REMARK  status: ('A' for Active; 'I' for Inactive)
ROOT
ATOM      1  N1  IND d   1      -0.724  -2.584   1.227  0.00  0.00    -0.196 N 
ATOM      2  C2  IND d   1      -1.476  -1.856   0.348  0.00  0.00     0.054 A 
ATOM      3  C3  IND d   1      -2.545  -2.574  -0.063  0.00  0.00    -0.031 A 
ATOM      4  C4  IND d   1      -3.310  -4.925   0.652  0.00  0.00     0.051 A 
ATOM      5  C5  IND d   1      -2.927  -6.000   1.405  0.00  0.00    -0.031 A 
ATOM      6  C6  IND d   1      -1.768  -5.990   2.155  0.00  0.00     0.015 A 
ATOM      7  C7  IND d   1      -0.951  -4.895   2.188  0.00  0.00    -0.016 A 
ATOM      8  C8  IND d   1      -1.333  -3.805   1.419  0.00  0.00    -0.047 A 
ATOM      9  C9  IND d   1      -2.486  -3.825   0.623  0.00  0.00    -0.096 A 
ATOM     10  HN1 IND d   1       0.008  -2.324   1.597  0.00  0.00     0.298 HD
ENDROOT
TORSDOF 0
ENDMDL
