MODEL 1
REMARK minimizedAffinity 3.08788204
REMARK minimizedRMSD -1
REMARK  0 active torsions:
REMARK  status: ('A' for Active; 'I' for Inactive)
ROOT
ATOM      1  C   UNL d   1       5.985  -4.216  -1.850  0.00  0.00     0.023 A 
ATOM      2  C1  UNL d   1       5.368  -5.467  -1.818  0.00  0.00     0.003 A 
ATOM      3  C2  UNL d   1       4.762  -5.977  -2.967  0.00  0.00     0.048 A 
ATOM      4  C3  UNL d   1       4.776  -5.231  -4.145  0.00  0.00     0.023 A 
ATOM      5  C4  UNL d   1       5.392  -3.979  -4.182  0.00  0.00     0.048 A 
ATOM      6  C5  UNL d   1       5.997  -3.473  -3.030  0.00  0.00     0.003 A 
ATOM      7  I   UNL d   1       3.873  -5.988  -5.858  0.00  0.00    -0.146 I 
ENDROOT
TORSDOF 0
ENDMDL
