MODEL 1
REMARK minimizedAffinity 6.14258909
REMARK minimizedRMSD -1
REMARK  0 active torsions:
REMARK  status: ('A' for Active; 'I' for Inactive)
ROOT
ATOM      1  C   UNL d   1       3.009   1.868  -4.183  0.00  0.00     0.023 A 
ATOM      2  C1  UNL d   1       4.070   2.347  -3.413  0.00  0.00     0.003 A 
ATOM      3  C2  UNL d   1       4.930   3.317  -3.934  0.00  0.00     0.048 A 
ATOM      4  C3  UNL d   1       4.722   3.804  -5.223  0.00  0.00     0.023 A 
ATOM      5  C4  UNL d   1       3.661   3.329  -5.996  0.00  0.00     0.048 A 
ATOM      6  C5  UNL d   1       2.805   2.359  -5.472  0.00  0.00     0.003 A 
ATOM      7  I   UNL d   1       6.000   5.248  -6.000  0.00  0.00    -0.146 I 
ENDROOT
TORSDOF 0
ENDMDL
