MODEL 1
REMARK minimizedAffinity 4.41332769
REMARK minimizedRMSD -1
REMARK  0 active torsions:
REMARK  status: ('A' for Active; 'I' for Inactive)
ROOT
ATOM      1  C   UNL d   1       3.217   1.701   1.626  0.00  0.00     0.023 A 
ATOM      2  C1  UNL d   1       2.175   1.799   0.704  0.00  0.00     0.003 A 
ATOM      3  C2  UNL d   1       0.876   2.069   1.141  0.00  0.00     0.048 A 
ATOM      4  C3  UNL d   1       0.627   2.242   2.503  0.00  0.00     0.023 A 
ATOM      5  C4  UNL d   1       1.667   2.146   3.429  0.00  0.00     0.048 A 
ATOM      6  C5  UNL d   1       2.963   1.875   2.987  0.00  0.00     0.003 A 
ATOM      7  I   UNL d   1      -1.304   2.645   3.156  0.00  0.00    -0.146 I 
ENDROOT
TORSDOF 0
ENDMDL
