MODEL 1
REMARK minimizedAffinity 12.1419783
REMARK minimizedRMSD -1
REMARK  0 active torsions:
REMARK  status: ('A' for Active; 'I' for Inactive)
ROOT
ATOM      1  C   UNL d   1      -1.728  -5.146  -0.028  0.00  0.00     0.023 A 
ATOM      2  C1  UNL d   1      -0.493  -5.795  -0.013  0.00  0.00     0.003 A 
ATOM      3  C2  UNL d   1       0.259  -5.895  -1.186  0.00  0.00     0.048 A 
ATOM      4  C3  UNL d   1      -0.229  -5.341  -2.369  0.00  0.00     0.023 A 
ATOM      5  C4  UNL d   1      -1.463  -4.690  -2.388  0.00  0.00     0.048 A 
ATOM      6  C5  UNL d   1      -2.212  -4.594  -1.214  0.00  0.00     0.003 A 
ATOM      7  I   UNL d   1       0.889  -5.487  -4.115  0.00  0.00    -0.146 I 
ENDROOT
TORSDOF 0
ENDMDL
