MODEL 1
REMARK minimizedAffinity 1.47786593
REMARK minimizedRMSD -1
REMARK  0 active torsions:
REMARK  status: ('A' for Active; 'I' for Inactive)
ROOT
ATOM      1  C   UNL d   1      -3.569   1.846  -4.946  0.00  0.00     0.023 A 
ATOM      2  C1  UNL d   1      -4.946   1.912  -4.733  0.00  0.00     0.003 A 
ATOM      3  C2  UNL d   1      -5.644   3.084  -5.033  0.00  0.00     0.048 A 
ATOM      4  C3  UNL d   1      -4.960   4.185  -5.546  0.00  0.00     0.023 A 
ATOM      5  C4  UNL d   1      -3.583   4.123  -5.762  0.00  0.00     0.048 A 
ATOM      6  C5  UNL d   1      -2.888   2.950  -5.460  0.00  0.00     0.003 A 
ATOM      7  I   UNL d   1      -5.998   5.929  -5.993  0.00  0.00    -0.146 I 
ENDROOT
TORSDOF 0
ENDMDL
