MODEL 1
REMARK minimizedAffinity 15.6745338
REMARK minimizedRMSD -1
REMARK  0 active torsions:
REMARK  status: ('A' for Active; 'I' for Inactive)
ROOT
ATOM      1  C   UNL d   1      -2.991  -5.924   4.604  0.00  0.00     0.023 A 
ATOM      2  C1  UNL d   1      -3.370  -6.000   3.263  0.00  0.00     0.003 A 
ATOM      3  C2  UNL d   1      -2.974  -5.005   2.367  0.00  0.00     0.048 A 
ATOM      4  C3  UNL d   1      -2.199  -3.937   2.818  0.00  0.00     0.023 A 
ATOM      5  C4  UNL d   1      -1.817  -3.857   4.158  0.00  0.00     0.048 A 
ATOM      6  C5  UNL d   1      -2.216  -4.854   5.050  0.00  0.00     0.003 A 
ATOM      7  I   UNL d   1      -1.608  -2.455   1.486  0.00  0.00    -0.146 I 
ENDROOT
TORSDOF 0
ENDMDL
