MODEL 1
REMARK minimizedAffinity 5.11310768
REMARK minimizedRMSD -1
REMARK  0 active torsions:
REMARK  status: ('A' for Active; 'I' for Inactive)
ROOT
ATOM      1  C   UNL d   1       6.000  -4.182  -5.459  0.00  0.00     0.023 A 
ATOM      2  C1  UNL d   1       5.731  -5.474  -5.911  0.00  0.00     0.003 A 
ATOM      3  C2  UNL d   1       4.440  -5.997  -5.805  0.00  0.00     0.048 A 
ATOM      4  C3  UNL d   1       3.424  -5.223  -5.246  0.00  0.00     0.023 A 
ATOM      5  C4  UNL d   1       3.689  -3.930  -4.793  0.00  0.00     0.048 A 
ATOM      6  C5  UNL d   1       4.980  -3.411  -4.900  0.00  0.00     0.003 A 
ATOM      7  I   UNL d   1       1.503  -6.000  -5.088  0.00  0.00    -0.146 I 
ENDROOT
TORSDOF 0
ENDMDL
