MODEL 1
REMARK minimizedAffinity 0.197256684
REMARK minimizedRMSD -1
REMARK  0 active torsions:
REMARK  status: ('A' for Active; 'I' for Inactive)
ROOT
ATOM      1  C   UNL d   1       6.000  -4.679  -4.535  0.00  0.00     0.023 A 
ATOM      2  C1  UNL d   1       4.890  -4.176  -3.856  0.00  0.00     0.003 A 
ATOM      3  C2  UNL d   1       3.603  -4.552  -4.243  0.00  0.00     0.048 A 
ATOM      4  C3  UNL d   1       3.432  -5.434  -5.311  0.00  0.00     0.023 A 
ATOM      5  C4  UNL d   1       4.539  -5.941  -5.993  0.00  0.00     0.048 A 
ATOM      6  C5  UNL d   1       5.825  -5.561  -5.602  0.00  0.00     0.003 A 
ATOM      7  I   UNL d   1       1.517  -5.996  -5.889  0.00  0.00    -0.146 I 
ENDROOT
TORSDOF 0
ENDMDL
