MODEL 1
REMARK minimizedAffinity 5.80293846
REMARK minimizedRMSD -1
REMARK  0 active torsions:
REMARK  status: ('A' for Active; 'I' for Inactive)
ROOT
ATOM      1  C   UNL d   1       6.000  -4.436  -5.086  0.00  0.00     0.023 A 
ATOM      2  C1  UNL d   1       5.633  -5.457  -5.963  0.00  0.00     0.003 A 
ATOM      3  C2  UNL d   1       4.311  -5.906  -5.999  0.00  0.00     0.048 A 
ATOM      4  C3  UNL d   1       3.362  -5.330  -5.157  0.00  0.00     0.023 A 
ATOM      5  C4  UNL d   1       3.724  -4.307  -4.278  0.00  0.00     0.048 A 
ATOM      6  C5  UNL d   1       5.047  -3.862  -4.245  0.00  0.00     0.003 A 
ATOM      7  I   UNL d   1       1.394  -5.997  -5.209  0.00  0.00    -0.146 I 
ENDROOT
TORSDOF 0
ENDMDL
