MODEL 1
REMARK minimizedAffinity 12.4004488
REMARK minimizedRMSD -1
REMARK  0 active torsions:
REMARK  status: ('A' for Active; 'I' for Inactive)
ROOT
ATOM      1  C   UNL d   1       5.496   2.901   1.042  0.00  0.00     0.023 A 
ATOM      2  C1  UNL d   1       4.778   2.684   2.218  0.00  0.00     0.003 A 
ATOM      3  C2  UNL d   1       3.441   2.287   2.158  0.00  0.00     0.048 A 
ATOM      4  C3  UNL d   1       2.828   2.107   0.919  0.00  0.00     0.023 A 
ATOM      5  C4  UNL d   1       3.542   2.322  -0.261  0.00  0.00     0.048 A 
ATOM      6  C5  UNL d   1       4.879   2.719  -0.196  0.00  0.00     0.003 A 
ATOM      7  I   UNL d   1       0.837   1.516   0.827  0.00  0.00    -0.146 I 
ENDROOT
TORSDOF 0
ENDMDL
