MODEL 1
REMARK minimizedAffinity 6.14640713
REMARK minimizedRMSD -1
REMARK  0 active torsions:
REMARK  status: ('A' for Active; 'I' for Inactive)
ROOT
ATOM      1  C   UNL d   1       3.397   2.575  -5.994  0.00  0.00     0.023 A 
ATOM      2  C1  UNL d   1       4.504   3.414  -5.867  0.00  0.00     0.003 A 
ATOM      3  C2  UNL d   1       5.251   3.414  -4.688  0.00  0.00     0.048 A 
ATOM      4  C3  UNL d   1       4.886   2.571  -3.639  0.00  0.00     0.023 A 
ATOM      5  C4  UNL d   1       3.780   1.728  -3.761  0.00  0.00     0.048 A 
ATOM      6  C5  UNL d   1       3.035   1.733  -4.942  0.00  0.00     0.003 A 
ATOM      7  I   UNL d   1       5.997   2.567  -1.882  0.00  0.00    -0.146 I 
ENDROOT
TORSDOF 0
ENDMDL
