MODEL 1
REMARK minimizedAffinity 16.3780708
REMARK minimizedRMSD -1
REMARK  0 active torsions:
REMARK  status: ('A' for Active; 'I' for Inactive)
ROOT
ATOM      1  C   UNL d   1      -1.879  -5.956  -1.116  0.00  0.00     0.023 A 
ATOM      2  C1  UNL d   1      -1.507  -4.747  -1.702  0.00  0.00     0.003 A 
ATOM      3  C2  UNL d   1      -1.487  -3.577  -0.939  0.00  0.00     0.048 A 
ATOM      4  C3  UNL d   1      -1.840  -3.624   0.409  0.00  0.00     0.023 A 
ATOM      5  C4  UNL d   1      -2.213  -4.832   1.000  0.00  0.00     0.048 A 
ATOM      6  C5  UNL d   1      -2.232  -5.999   0.233  0.00  0.00     0.003 A 
ATOM      7  I   UNL d   1      -1.811  -1.884   1.545  0.00  0.00    -0.146 I 
ENDROOT
TORSDOF 0
ENDMDL
