MODEL 1
REMARK minimizedAffinity 17.149107
REMARK minimizedRMSD -1
REMARK  0 active torsions:
REMARK  status: ('A' for Active; 'I' for Inactive)
ROOT
ATOM      1  C   UNL d   1       1.229   1.501   1.421  0.00  0.00     0.023 A 
ATOM      2  C1  UNL d   1       0.396   2.077   0.462  0.00  0.00     0.003 A 
ATOM      3  C2  UNL d   1       0.699   3.336  -0.062  0.00  0.00     0.048 A 
ATOM      4  C3  UNL d   1       1.837   4.011   0.377  0.00  0.00     0.023 A 
ATOM      5  C4  UNL d   1       2.674   3.438   1.335  0.00  0.00     0.048 A 
ATOM      6  C5  UNL d   1       2.366   2.180   1.857  0.00  0.00     0.003 A 
ATOM      7  I   UNL d   1       2.291   5.884  -0.402  0.00  0.00    -0.146 I 
ENDROOT
TORSDOF 0
ENDMDL
