MODEL 1
REMARK minimizedAffinity 12.2878199
REMARK minimizedRMSD -1
REMARK  0 active torsions:
REMARK  status: ('A' for Active; 'I' for Inactive)
ROOT
ATOM      1  C   UNL d   1       3.337   1.632   0.376  0.00  0.00     0.023 A 
ATOM      2  C1  UNL d   1       3.330   1.297   1.730  0.00  0.00     0.003 A 
ATOM      3  C2  UNL d   1       2.136   1.329   2.453  0.00  0.00     0.048 A 
ATOM      4  C3  UNL d   1       0.952   1.696   1.815  0.00  0.00     0.023 A 
ATOM      5  C4  UNL d   1       0.953   2.031   0.460  0.00  0.00     0.048 A 
ATOM      6  C5  UNL d   1       2.150   1.999  -0.258  0.00  0.00     0.003 A 
ATOM      7  I   UNL d   1      -0.827   1.744   2.888  0.00  0.00    -0.146 I 
ENDROOT
TORSDOF 0
ENDMDL
