MODEL 1
REMARK minimizedAffinity 13.208642
REMARK minimizedRMSD -1
REMARK  0 active torsions:
REMARK  status: ('A' for Active; 'I' for Inactive)
ROOT
ATOM      1  C   UNL d   1       3.661   2.014   0.938  0.00  0.00     0.023 A 
ATOM      2  C1  UNL d   1       2.708   1.865  -0.069  0.00  0.00     0.003 A 
ATOM      3  C2  UNL d   1       1.348   1.873   0.247  0.00  0.00     0.048 A 
ATOM      4  C3  UNL d   1       0.948   2.034   1.574  0.00  0.00     0.023 A 
ATOM      5  C4  UNL d   1       1.898   2.185   2.585  0.00  0.00     0.048 A 
ATOM      6  C5  UNL d   1       3.256   2.174   2.264  0.00  0.00     0.003 A 
ATOM      7  I   UNL d   1      -1.076   2.048   2.047  0.00  0.00    -0.146 I 
ENDROOT
TORSDOF 0
ENDMDL
