MODEL 1
REMARK minimizedAffinity 9.17258167
REMARK minimizedRMSD -1
REMARK  0 active torsions:
REMARK  status: ('A' for Active; 'I' for Inactive)
ROOT
ATOM      1  C   UNL d   1      -2.236  -5.915  -0.995  0.00  0.00     0.023 A 
ATOM      2  C1  UNL d   1      -1.883  -4.690  -1.560  0.00  0.00     0.003 A 
ATOM      3  C2  UNL d   1      -1.831  -3.542  -0.766  0.00  0.00     0.048 A 
ATOM      4  C3  UNL d   1      -2.134  -3.628   0.593  0.00  0.00     0.023 A 
ATOM      5  C4  UNL d   1      -2.487  -4.852   1.162  0.00  0.00     0.048 A 
ATOM      6  C5  UNL d   1      -2.538  -5.996   0.364  0.00  0.00     0.003 A 
ATOM      7  I   UNL d   1      -2.058  -1.921   1.777  0.00  0.00    -0.146 I 
ENDROOT
TORSDOF 0
ENDMDL
