MODEL 1
REMARK minimizedAffinity 0.214689672
REMARK minimizedRMSD -1
REMARK  0 active torsions:
REMARK  status: ('A' for Active; 'I' for Inactive)
ROOT
ATOM      1  C   UNL d   1       2.142   2.273   1.584  0.00  0.00     0.023 A 
ATOM      2  C1  UNL d   1       2.168   1.226   0.662  0.00  0.00     0.003 A 
ATOM      3  C2  UNL d   1       1.017   0.471   0.428  0.00  0.00     0.048 A 
ATOM      4  C3  UNL d   1      -0.157   0.769   1.119  0.00  0.00     0.023 A 
ATOM      5  C4  UNL d   1      -0.188   1.817   2.041  0.00  0.00     0.048 A 
ATOM      6  C5  UNL d   1       0.965   2.568   2.272  0.00  0.00     0.003 A 
ATOM      7  I   UNL d   1      -1.872  -0.353   0.772  0.00  0.00    -0.146 I 
ENDROOT
TORSDOF 0
ENDMDL
