MODEL 1
REMARK minimizedAffinity -2.72167897
REMARK minimizedRMSD -1
REMARK  3 active torsions:
REMARK  status: ('A' for Active; 'I' for Inactive)
REMARK    1  A    between atoms: C3'_2  and  C2'_3 
REMARK    2  A    between atoms: C2'_3  and  C1'_4 
REMARK    3  A    between atoms: C1'_4  and  C1_5 
ROOT
ATOM      1  C1  N4B d   1      -0.278   0.199   0.348  0.00  0.00    -0.075 A 
ATOM      2  C2  N4B d   1      -1.228   0.795  -0.511  0.00  0.00     0.002 A 
ATOM      3  C3  N4B d   1      -2.234   1.570   0.012  0.00  0.00     0.002 A 
ATOM      4  C4  N4B d   1      -2.321   1.748   1.384  0.00  0.00    -0.004 A 
ATOM      5  C5  N4B d   1      -1.384   1.190   2.204  0.00  0.00     0.002 A 
ATOM      6  C6  N4B d   1      -0.365   0.412   1.693  0.00  0.00     0.002 A 
ENDROOT
BRANCH   1   7
ATOM      7  C1' N4B d   1       0.790  -0.726  -0.169  0.00  0.00     0.057 C 
BRANCH   7   8
ATOM      8  C2' N4B d   1       0.344  -1.306  -1.508  0.00  0.00     0.009 C 
BRANCH   8   9
ATOM      9  C3' N4B d   1       0.169  -2.814  -1.445  0.00  0.00     0.004 C 
ATOM     10  C4' N4B d   1      -0.425  -3.383  -2.698  0.00  0.00     0.003 C 
ENDBRANCH   8   9
ENDBRANCH   7   8
ENDBRANCH   1   7
TORSDOF 3
ENDMDL
