MODEL 1
REMARK minimizedAffinity -5.05489397
REMARK minimizedRMSD -1
REMARK  3 active torsions:
REMARK  status: ('A' for Active; 'I' for Inactive)
REMARK    1  A    between atoms: C3'_2  and  C2'_3 
REMARK    2  A    between atoms: C2'_3  and  C1'_4 
REMARK    3  A    between atoms: C1'_4  and  C1_5 
ROOT
ATOM      1  C1  N4B d   1      -0.110   0.213   0.614  0.00  0.00    -0.075 A 
ATOM      2  C2  N4B d   1      -0.275   1.145  -0.434  0.00  0.00     0.002 A 
ATOM      3  C3  N4B d   1      -0.964   2.312  -0.213  0.00  0.00     0.002 A 
ATOM      4  C4  N4B d   1      -1.511   2.559   1.037  0.00  0.00    -0.004 A 
ATOM      5  C5  N4B d   1      -1.326   1.665   2.051  0.00  0.00     0.002 A 
ATOM      6  C6  N4B d   1      -0.632   0.490   1.844  0.00  0.00     0.002 A 
ENDROOT
BRANCH   1   7
ATOM      7  C1' N4B d   1       0.561  -1.116   0.396  0.00  0.00     0.057 C 
BRANCH   7   8
ATOM      8  C2' N4B d   1       0.971  -1.236  -1.069  0.00  0.00     0.009 C 
BRANCH   8   9
ATOM      9  C3' N4B d   1       1.434  -2.641  -1.415  0.00  0.00     0.004 C 
ATOM     10  C4' N4B d   1       0.547  -3.314  -2.420  0.00  0.00     0.003 C 
ENDBRANCH   8   9
ENDBRANCH   7   8
ENDBRANCH   1   7
TORSDOF 3
ENDMDL
