MODEL 1
REMARK minimizedAffinity -5.77845907
REMARK minimizedRMSD -1
REMARK  3 active torsions:
REMARK  status: ('A' for Active; 'I' for Inactive)
REMARK    1  A    between atoms: C3'_2  and  C2'_3 
REMARK    2  A    between atoms: C2'_3  and  C1'_4 
REMARK    3  A    between atoms: C1'_4  and  C1_5 
ROOT
ATOM      1  C1  N4B d   1      -0.083   0.202  -0.033  0.00  0.00    -0.075 A 
ATOM      2  C2  N4B d   1      -0.178  -0.125   1.337  0.00  0.00     0.002 A 
ATOM      3  C3  N4B d   1      -0.975   0.625   2.168  0.00  0.00     0.002 A 
ATOM      4  C4  N4B d   1      -1.669   1.711   1.656  0.00  0.00    -0.004 A 
ATOM      5  C5  N4B d   1      -1.592   2.004   0.326  0.00  0.00     0.002 A 
ATOM      6  C6  N4B d   1      -0.798   1.257  -0.521  0.00  0.00     0.002 A 
ENDROOT
BRANCH   1   7
ATOM      7  C1' N4B d   1       0.842  -0.535  -0.963  0.00  0.00     0.057 C 
BRANCH   7   8
ATOM      8  C2' N4B d   1       0.708  -2.035  -0.717  0.00  0.00     0.009 C 
BRANCH   8   9
ATOM      9  C3' N4B d   1       0.735  -2.828  -2.013  0.00  0.00     0.004 C 
ATOM     10  C4' N4B d   1      -0.021  -2.156  -3.121  0.00  0.00     0.003 C 
ENDBRANCH   8   9
ENDBRANCH   7   8
ENDBRANCH   1   7
TORSDOF 3
ENDMDL
