MODEL 1
REMARK minimizedAffinity -3.91662049
REMARK minimizedRMSD -1
REMARK  3 active torsions:
REMARK  status: ('A' for Active; 'I' for Inactive)
REMARK    1  A    between atoms: C3'_2  and  C2'_3 
REMARK    2  A    between atoms: C2'_3  and  C1'_4 
REMARK    3  A    between atoms: C1'_4  and  C1_5 
ROOT
ATOM      1  C1  N4B d   1      -0.478   0.840   0.347  0.00  0.00    -0.075 A 
ATOM      2  C2  N4B d   1      -0.351   1.648  -0.804  0.00  0.00     0.002 A 
ATOM      3  C3  N4B d   1      -0.983   2.866  -0.860  0.00  0.00     0.002 A 
ATOM      4  C4  N4B d   1      -1.758   3.287   0.210  0.00  0.00    -0.004 A 
ATOM      5  C5  N4B d   1      -1.854   2.511   1.328  0.00  0.00     0.002 A 
ATOM      6  C6  N4B d   1      -1.222   1.286   1.400  0.00  0.00     0.002 A 
ENDROOT
BRANCH   1   7
ATOM      7  C1' N4B d   1       0.124  -0.537   0.420  0.00  0.00     0.057 C 
BRANCH   7   8
ATOM      8  C2' N4B d   1      -0.751  -1.509  -0.367  0.00  0.00     0.009 C 
BRANCH   8   9
ATOM      9  C3' N4B d   1      -0.089  -1.948  -1.662  0.00  0.00     0.004 C 
ATOM     10  C4' N4B d   1       0.095  -3.434  -1.744  0.00  0.00     0.003 C 
ENDBRANCH   8   9
ENDBRANCH   7   8
ENDBRANCH   1   7
TORSDOF 3
ENDMDL
