MODEL 1
REMARK minimizedAffinity -2.31403041
REMARK minimizedRMSD -1
REMARK  3 active torsions:
REMARK  status: ('A' for Active; 'I' for Inactive)
REMARK    1  A    between atoms: C3'_2  and  C2'_3 
REMARK    2  A    between atoms: C2'_3  and  C1'_4 
REMARK    3  A    between atoms: C1'_4  and  C1_5 
ROOT
ATOM      1  C1  N4B d   1      -0.024  -0.229  -0.363  0.00  0.00    -0.075 A 
ATOM      2  C2  N4B d   1      -1.169   0.410   0.162  0.00  0.00     0.002 A 
ATOM      3  C3  N4B d   1      -1.480   1.690  -0.227  0.00  0.00     0.002 A 
ATOM      4  C4  N4B d   1      -0.654   2.355  -1.121  0.00  0.00    -0.004 A 
ATOM      5  C5  N4B d   1       0.436   1.722  -1.643  0.00  0.00     0.002 A 
ATOM      6  C6  N4B d   1       0.758   0.434  -1.264  0.00  0.00     0.002 A 
ENDROOT
BRANCH   1   7
ATOM      7  C1' N4B d   1       0.404  -1.596   0.097  0.00  0.00     0.057 C 
BRANCH   7   8
ATOM      8  C2' N4B d   1       1.143  -2.298  -1.039  0.00  0.00     0.009 C 
BRANCH   8   9
ATOM      9  C3' N4B d   1       0.402  -3.534  -1.520  0.00  0.00     0.004 C 
ATOM     10  C4' N4B d   1       0.234  -3.567  -3.010  0.00  0.00     0.003 C 
ENDBRANCH   8   9
ENDBRANCH   7   8
ENDBRANCH   1   7
TORSDOF 3
ENDMDL
