MODEL 1
REMARK minimizedAffinity -4.14493942
REMARK minimizedRMSD -1
REMARK  3 active torsions:
REMARK  status: ('A' for Active; 'I' for Inactive)
REMARK    1  A    between atoms: C3'_2  and  C2'_3 
REMARK    2  A    between atoms: C2'_3  and  C1'_4 
REMARK    3  A    between atoms: C1'_4  and  C1_5 
ROOT
ATOM      1  C1  N4B d   1      -0.420  -0.132   0.087  0.00  0.00    -0.075 A 
ATOM      2  C2  N4B d   1       0.379  -0.836   1.015  0.00  0.00     0.002 A 
ATOM      3  C3  N4B d   1       0.411  -0.443   2.330  0.00  0.00     0.002 A 
ATOM      4  C4  N4B d   1      -0.329   0.658   2.735  0.00  0.00    -0.004 A 
ATOM      5  C5  N4B d   1      -1.118   1.317   1.838  0.00  0.00     0.002 A 
ATOM      6  C6  N4B d   1      -1.163   0.930   0.513  0.00  0.00     0.002 A 
ENDROOT
BRANCH   1   7
ATOM      7  C1' N4B d   1      -0.420  -0.472  -1.379  0.00  0.00     0.057 C 
BRANCH   7   8
ATOM      8  C2' N4B d   1       0.641  -1.535  -1.647  0.00  0.00     0.009 C 
BRANCH   8   9
ATOM      9  C3' N4B d   1       0.090  -2.697  -2.456  0.00  0.00     0.004 C 
ATOM     10  C4' N4B d   1       0.977  -3.905  -2.414  0.00  0.00     0.003 C 
ENDBRANCH   8   9
ENDBRANCH   7   8
ENDBRANCH   1   7
TORSDOF 3
ENDMDL
