MODEL 1
REMARK minimizedAffinity -4.6113596
REMARK minimizedRMSD -1
REMARK  3 active torsions:
REMARK  status: ('A' for Active; 'I' for Inactive)
REMARK    1  A    between atoms: C3'_2  and  C2'_3 
REMARK    2  A    between atoms: C2'_3  and  C1'_4 
REMARK    3  A    between atoms: C1'_4  and  C1_5 
ROOT
ATOM      1  C1  N4B d   1      -0.780   0.979  -0.317  0.00  0.00    -0.075 A 
ATOM      2  C2  N4B d   1      -0.088   1.946  -1.077  0.00  0.00     0.002 A 
ATOM      3  C3  N4B d   1       1.174   1.676  -1.547  0.00  0.00     0.002 A 
ATOM      4  C4  N4B d   1       1.769   0.458  -1.254  0.00  0.00    -0.004 A 
ATOM      5  C5  N4B d   1       1.083  -0.481  -0.541  0.00  0.00     0.002 A 
ATOM      6  C6  N4B d   1      -0.187  -0.225  -0.066  0.00  0.00     0.002 A 
ENDROOT
BRANCH   1   7
ATOM      7  C1' N4B d   1      -2.127   1.261   0.291  0.00  0.00     0.057 C 
BRANCH   7   8
ATOM      8  C2' N4B d   1      -1.963   2.268   1.426  0.00  0.00     0.009 C 
BRANCH   8   9
ATOM      9  C3' N4B d   1      -1.102   1.721   2.551  0.00  0.00     0.004 C 
ATOM     10  C4' N4B d   1      -0.041   2.685   2.991  0.00  0.00     0.003 C 
ENDBRANCH   8   9
ENDBRANCH   7   8
ENDBRANCH   1   7
TORSDOF 3
ENDMDL
