MODEL 1
REMARK minimizedAffinity -5.75288105
REMARK minimizedRMSD -1
REMARK  3 active torsions:
REMARK  status: ('A' for Active; 'I' for Inactive)
REMARK    1  A    between atoms: C3'_2  and  C2'_3 
REMARK    2  A    between atoms: C2'_3  and  C1'_4 
REMARK    3  A    between atoms: C1'_4  and  C1_5 
ROOT
ATOM      1  C1  N4B d   1       0.086   0.294   0.144  0.00  0.00    -0.075 A 
ATOM      2  C2  N4B d   1      -1.062   0.966  -0.330  0.00  0.00     0.002 A 
ATOM      3  C3  N4B d   1      -2.077   1.287   0.537  0.00  0.00     0.002 A 
ATOM      4  C4  N4B d   1      -1.975   0.932   1.874  0.00  0.00    -0.004 A 
ATOM      5  C5  N4B d   1      -0.852   0.306   2.329  0.00  0.00     0.002 A 
ATOM      6  C6  N4B d   1       0.178  -0.019   1.470  0.00  0.00     0.002 A 
ENDROOT
BRANCH   1   7
ATOM      7  C1' N4B d   1       1.183  -0.155  -0.782  0.00  0.00     0.057 C 
BRANCH   7   8
ATOM      8  C2' N4B d   1       1.180  -1.678  -0.861  0.00  0.00     0.009 C 
BRANCH   8   9
ATOM      9  C3' N4B d   1       0.484  -2.180  -2.114  0.00  0.00     0.004 C 
ATOM     10  C4' N4B d   1       0.001  -3.594  -1.984  0.00  0.00     0.003 C 
ENDBRANCH   8   9
ENDBRANCH   7   8
ENDBRANCH   1   7
TORSDOF 3
ENDMDL
