MODEL 1
REMARK minimizedAffinity -4.75618362
REMARK minimizedRMSD -1
REMARK  3 active torsions:
REMARK  status: ('A' for Active; 'I' for Inactive)
REMARK    1  A    between atoms: C3'_2  and  C2'_3 
REMARK    2  A    between atoms: C2'_3  and  C1'_4 
REMARK    3  A    between atoms: C1'_4  and  C1_5 
ROOT
ATOM      1  C1  N4B d   1       0.462  -0.401  -0.426  0.00  0.00    -0.075 A 
ATOM      2  C2  N4B d   1       0.894  -0.447   0.918  0.00  0.00     0.002 A 
ATOM      3  C3  N4B d   1       0.215   0.256   1.882  0.00  0.00     0.002 A 
ATOM      4  C4  N4B d   1      -0.884   1.024   1.525  0.00  0.00    -0.004 A 
ATOM      5  C5  N4B d   1      -1.310   1.043   0.230  0.00  0.00     0.002 A 
ATOM      6  C6  N4B d   1      -0.639   0.338  -0.750  0.00  0.00     0.002 A 
ENDROOT
BRANCH   1   7
ATOM      7  C1' N4B d   1       1.223  -1.084  -1.529  0.00  0.00     0.057 C 
BRANCH   7   8
ATOM      8  C2' N4B d   1       1.461  -2.542  -1.145  0.00  0.00     0.009 C 
BRANCH   8   9
ATOM      9  C3' N4B d   1       0.602  -3.492  -1.961  0.00  0.00     0.004 C 
ATOM     10  C4' N4B d   1       0.275  -2.956  -3.322  0.00  0.00     0.003 C 
ENDBRANCH   8   9
ENDBRANCH   7   8
ENDBRANCH   1   7
TORSDOF 3
ENDMDL
