MODEL 1
REMARK minimizedAffinity -3.17064047
REMARK minimizedRMSD -1
REMARK  0 active torsions:
REMARK  status: ('A' for Active; 'I' for Inactive)
ROOT
ATOM      1  C   UNL d   1       3.021   0.749   1.996  0.00  0.00     0.078 C 
ATOM      2  C1  UNL d   1       1.747   0.239   1.391  0.00  0.00    -0.077 A 
ATOM      3  C2  UNL d   1       1.073   0.970   0.405  0.00  0.00    -0.001 A 
ATOM      4  C3  UNL d   1      -0.116   0.488  -0.142  0.00  0.00     0.003 A 
ATOM      5  C4  UNL d   1      -0.643  -0.728   0.290  0.00  0.00    -0.005 A 
ATOM      6  C5  UNL d   1       0.019  -1.462   1.272  0.00  0.00     0.003 A 
ATOM      7  C6  UNL d   1       1.209  -0.981   1.821  0.00  0.00    -0.001 A 
ENDROOT
TORSDOF 0
ENDMDL
