MODEL 1
REMARK minimizedAffinity -2.27598691
REMARK minimizedRMSD -1
REMARK  0 active torsions:
REMARK  status: ('A' for Active; 'I' for Inactive)
ROOT
ATOM      1  C   UNL d   1      -2.768  -0.071  -2.269  0.00  0.00     0.078 C 
ATOM      2  C1  UNL d   1      -1.615  -0.170  -1.315  0.00  0.00    -0.077 A 
ATOM      3  C2  UNL d   1      -0.341   0.286  -1.673  0.00  0.00    -0.001 A 
ATOM      4  C3  UNL d   1       0.725   0.178  -0.779  0.00  0.00     0.003 A 
ATOM      5  C4  UNL d   1       0.528  -0.387   0.480  0.00  0.00    -0.005 A 
ATOM      6  C5  UNL d   1      -0.736  -0.846   0.844  0.00  0.00     0.003 A 
ATOM      7  C6  UNL d   1      -1.803  -0.739  -0.049  0.00  0.00    -0.001 A 
ENDROOT
TORSDOF 0
ENDMDL
