MODEL 1
REMARK minimizedAffinity -2.50810695
REMARK minimizedRMSD -1
REMARK  0 active torsions:
REMARK  status: ('A' for Active; 'I' for Inactive)
ROOT
ATOM      1  C   UNL d   1       3.374  -0.637   0.461  0.00  0.00     0.078 C 
ATOM      2  C1  UNL d   1       1.890  -0.489   0.307  0.00  0.00    -0.077 A 
ATOM      3  C2  UNL d   1       1.326   0.721  -0.117  0.00  0.00    -0.001 A 
ATOM      4  C3  UNL d   1      -0.058   0.848  -0.246  0.00  0.00     0.003 A 
ATOM      5  C4  UNL d   1      -0.890  -0.230   0.047  0.00  0.00    -0.005 A 
ATOM      6  C5  UNL d   1      -0.338  -1.437   0.472  0.00  0.00     0.003 A 
ATOM      7  C6  UNL d   1       1.045  -1.566   0.602  0.00  0.00    -0.001 A 
ENDROOT
TORSDOF 0
ENDMDL
