MODEL 1
REMARK minimizedAffinity -4.79808521
REMARK minimizedRMSD -1
REMARK  0 active torsions:
REMARK  status: ('A' for Active; 'I' for Inactive)
ROOT
ATOM      1  C   UNL d   1      -0.407  -0.053  -0.405  0.00  0.00     0.078 C 
ATOM      2  C1  UNL d   1       0.974  -0.270   0.137  0.00  0.00    -0.077 A 
ATOM      3  C2  UNL d   1       1.711  -1.411  -0.202  0.00  0.00    -0.001 A 
ATOM      4  C3  UNL d   1       2.992  -1.605   0.318  0.00  0.00     0.003 A 
ATOM      5  C4  UNL d   1       3.547  -0.662   1.181  0.00  0.00    -0.005 A 
ATOM      6  C5  UNL d   1       2.821   0.476   1.525  0.00  0.00     0.003 A 
ATOM      7  C6  UNL d   1       1.540   0.672   1.007  0.00  0.00    -0.001 A 
ENDROOT
TORSDOF 0
ENDMDL
