MODEL 1
REMARK minimizedAffinity -2.20237207
REMARK minimizedRMSD -1
REMARK  0 active torsions:
REMARK  status: ('A' for Active; 'I' for Inactive)
ROOT
ATOM      1  C   UNL d   1       2.560   1.625   2.222  0.00  0.00     0.078 C 
ATOM      2  C1  UNL d   1       1.539   1.018   1.307  0.00  0.00    -0.077 A 
ATOM      3  C2  UNL d   1       0.506   1.791   0.764  0.00  0.00    -0.001 A 
ATOM      4  C3  UNL d   1      -0.444   1.210  -0.078  0.00  0.00     0.003 A 
ATOM      5  C4  UNL d   1      -0.371  -0.148  -0.383  0.00  0.00    -0.005 A 
ATOM      6  C5  UNL d   1       0.652  -0.926   0.155  0.00  0.00     0.003 A 
ATOM      7  C6  UNL d   1       1.603  -0.347   0.997  0.00  0.00    -0.001 A 
ENDROOT
TORSDOF 0
ENDMDL
