MODEL 1
REMARK minimizedAffinity -3.85460019
REMARK minimizedRMSD -1
REMARK  0 active torsions:
REMARK  status: ('A' for Active; 'I' for Inactive)
ROOT
ATOM      1  C   UNL d   1       3.258  -1.101   0.747  0.00  0.00     0.078 C 
ATOM      2  C1  UNL d   1       1.877  -0.547   0.563  0.00  0.00    -0.077 A 
ATOM      3  C2  UNL d   1       0.756  -1.385   0.577  0.00  0.00    -0.001 A 
ATOM      4  C3  UNL d   1      -0.523  -0.856   0.394  0.00  0.00     0.003 A 
ATOM      5  C4  UNL d   1      -0.692   0.513   0.194  0.00  0.00    -0.005 A 
ATOM      6  C5  UNL d   1       0.418   1.354   0.176  0.00  0.00     0.003 A 
ATOM      7  C6  UNL d   1       1.698   0.827   0.359  0.00  0.00    -0.001 A 
ENDROOT
TORSDOF 0
ENDMDL
