MODEL 1
REMARK minimizedAffinity 8.38919449
REMARK minimizedRMSD -1
REMARK  0 active torsions:
REMARK  status: ('A' for Active; 'I' for Inactive)
ROOT
ATOM      1  C1  DEN d   1       0.319   5.257  -5.998  0.00  0.00     0.130 A 
ATOM      2  C2  DEN d   1       1.185   4.082  -5.951  0.00  0.00    -0.031 A 
ATOM      3  C3  DEN d   1       0.325   2.882  -5.917  0.00  0.00     0.027 A 
ATOM      4  C4  DEN d   1      -2.249   2.729  -5.936  0.00  0.00     0.027 A 
ATOM      5  C5  DEN d   1      -3.417   3.460  -5.959  0.00  0.00    -0.003 A 
ATOM      6  C6  DEN d   1      -3.422   4.829  -5.963  0.00  0.00     0.001 A 
ATOM      7  C7  DEN d   1      -2.234   5.512  -5.988  0.00  0.00     0.017 A 
ATOM      8  C8  DEN d   1      -1.053   4.783  -5.958  0.00  0.00    -0.094 A 
ATOM      9  C9  DEN d   1      -1.069   3.398  -5.967  0.00  0.00    -0.072 A 
ENDROOT
TORSDOF 0
ENDMDL
