MODEL 1
REMARK minimizedAffinity -1.30302405
REMARK minimizedRMSD -1
REMARK  0 active torsions:
REMARK  status: ('A' for Active; 'I' for Inactive)
ROOT
ATOM      1  C1  DEN d   1       2.132   3.135  -5.997  0.00  0.00     0.130 A 
ATOM      2  C2  DEN d   1       1.265   4.310  -5.968  0.00  0.00    -0.031 A 
ATOM      3  C3  DEN d   1       2.124   5.511  -5.955  0.00  0.00     0.027 A 
ATOM      4  C4  DEN d   1       4.698   5.665  -5.982  0.00  0.00     0.027 A 
ATOM      5  C5  DEN d   1       5.867   4.936  -5.996  0.00  0.00    -0.003 A 
ATOM      6  C6  DEN d   1       5.872   3.566  -5.976  0.00  0.00     0.001 A 
ATOM      7  C7  DEN d   1       4.686   2.882  -5.988  0.00  0.00     0.017 A 
ATOM      8  C8  DEN d   1       3.504   3.611  -5.967  0.00  0.00    -0.094 A 
ATOM      9  C9  DEN d   1       3.519   4.995  -6.000  0.00  0.00    -0.072 A 
ENDROOT
TORSDOF 0
ENDMDL
