MODEL 1
REMARK minimizedAffinity 0.380008727
REMARK minimizedRMSD -1
REMARK  0 active torsions:
REMARK  status: ('A' for Active; 'I' for Inactive)
ROOT
ATOM      1  C1  DEN d   1       1.459   5.162  -5.997  0.00  0.00     0.130 A 
ATOM      2  C2  DEN d   1       2.278   3.953  -5.977  0.00  0.00    -0.031 A 
ATOM      3  C3  DEN d   1       1.372   2.788  -5.964  0.00  0.00     0.027 A 
ATOM      4  C4  DEN d   1      -1.207   2.738  -5.980  0.00  0.00     0.027 A 
ATOM      5  C5  DEN d   1      -2.345   3.514  -5.985  0.00  0.00    -0.003 A 
ATOM      6  C6  DEN d   1      -2.295   4.882  -5.960  0.00  0.00     0.001 A 
ATOM      7  C7  DEN d   1      -1.082   5.518  -5.975  0.00  0.00     0.017 A 
ATOM      8  C8  DEN d   1       0.070   4.742  -5.962  0.00  0.00    -0.094 A 
ATOM      9  C9  DEN d   1      -0.001   3.360  -6.000  0.00  0.00    -0.072 A 
ENDROOT
TORSDOF 0
ENDMDL
