MODEL 1
REMARK minimizedAffinity 4.70763159
REMARK minimizedRMSD -1
REMARK  0 active torsions:
REMARK  status: ('A' for Active; 'I' for Inactive)
ROOT
ATOM      1  C1  DEN d   1       3.951   2.049  -2.154  0.00  0.00     0.130 A 
ATOM      2  C2  DEN d   1       2.712   1.318  -2.404  0.00  0.00    -0.031 A 
ATOM      3  C3  DEN d   1       1.588   2.146  -1.922  0.00  0.00     0.027 A 
ATOM      4  C4  DEN d   1       1.646   4.478  -0.823  0.00  0.00     0.027 A 
ATOM      5  C5  DEN d   1       2.467   5.496  -0.392  0.00  0.00    -0.003 A 
ATOM      6  C6  DEN d   1       3.832   5.423  -0.486  0.00  0.00     0.001 A 
ATOM      7  C7  DEN d   1       4.414   4.326  -1.066  0.00  0.00     0.017 A 
ATOM      8  C8  DEN d   1       3.593   3.293  -1.496  0.00  0.00    -0.094 A 
ATOM      9  C9  DEN d   1       2.215   3.391  -1.403  0.00  0.00    -0.072 A 
ENDROOT
TORSDOF 0
ENDMDL
