MODEL 1
REMARK minimizedAffinity -1.29935348
REMARK minimizedRMSD -1
REMARK  0 active torsions:
REMARK  status: ('A' for Active; 'I' for Inactive)
ROOT
ATOM      1  C1  DEN d   1       0.640   2.621  -5.961  0.00  0.00     0.130 A 
ATOM      2  C2  DEN d   1       1.520   3.786  -5.985  0.00  0.00    -0.031 A 
ATOM      3  C3  DEN d   1       0.675   4.997  -6.000  0.00  0.00     0.027 A 
ATOM      4  C4  DEN d   1      -1.897   5.181  -5.985  0.00  0.00     0.027 A 
ATOM      5  C5  DEN d   1      -3.074   4.464  -5.978  0.00  0.00    -0.003 A 
ATOM      6  C6  DEN d   1      -3.095   3.095  -6.000  0.00  0.00     0.001 A 
ATOM      7  C7  DEN d   1      -1.916   2.397  -5.983  0.00  0.00     0.017 A 
ATOM      8  C8  DEN d   1      -0.726   3.113  -5.997  0.00  0.00    -0.094 A 
ATOM      9  C9  DEN d   1      -0.725   4.497  -5.963  0.00  0.00    -0.072 A 
ENDROOT
TORSDOF 0
ENDMDL
