MODEL 1
REMARK minimizedAffinity 0.209320933
REMARK minimizedRMSD -1
REMARK  0 active torsions:
REMARK  status: ('A' for Active; 'I' for Inactive)
ROOT
ATOM      1  C1  DEN d   1      -1.743   3.309  -5.989  0.00  0.00     0.130 A 
ATOM      2  C2  DEN d   1      -2.571   4.511  -5.957  0.00  0.00    -0.031 A 
ATOM      3  C3  DEN d   1      -1.673   5.684  -5.947  0.00  0.00     0.027 A 
ATOM      4  C4  DEN d   1       0.905   5.755  -5.981  0.00  0.00     0.027 A 
ATOM      5  C5  DEN d   1       2.048   4.987  -5.998  0.00  0.00    -0.003 A 
ATOM      6  C6  DEN d   1       2.010   3.618  -5.979  0.00  0.00     0.001 A 
ATOM      7  C7  DEN d   1       0.801   2.973  -5.987  0.00  0.00     0.017 A 
ATOM      8  C8  DEN d   1      -0.356   3.740  -5.963  0.00  0.00    -0.094 A 
ATOM      9  C9  DEN d   1      -0.296   5.123  -5.995  0.00  0.00    -0.072 A 
ENDROOT
TORSDOF 0
ENDMDL
