MODEL 1
REMARK minimizedAffinity 1.97586417
REMARK minimizedRMSD -1
REMARK  0 active torsions:
REMARK  status: ('A' for Active; 'I' for Inactive)
ROOT
ATOM      1  C1  DEN d   1       4.331   5.659  -5.984  0.00  0.00     0.130 A 
ATOM      2  C2  DEN d   1       5.319   4.584  -5.947  0.00  0.00    -0.031 A 
ATOM      3  C3  DEN d   1       4.594   3.298  -5.936  0.00  0.00     0.027 A 
ATOM      4  C4  DEN d   1       2.051   2.868  -5.977  0.00  0.00     0.027 A 
ATOM      5  C5  DEN d   1       0.812   3.468  -5.999  0.00  0.00    -0.003 A 
ATOM      6  C6  DEN d   1       0.659   4.829  -5.983  0.00  0.00     0.001 A 
ATOM      7  C7  DEN d   1       1.766   5.637  -5.990  0.00  0.00     0.017 A 
ATOM      8  C8  DEN d   1       3.019   5.039  -5.960  0.00  0.00    -0.094 A 
ATOM      9  C9  DEN d   1       3.153   3.661  -5.989  0.00  0.00    -0.072 A 
ENDROOT
TORSDOF 0
ENDMDL
