MODEL 1
REMARK minimizedAffinity -1.16686726
REMARK minimizedRMSD -1
REMARK  0 active torsions:
REMARK  status: ('A' for Active; 'I' for Inactive)
ROOT
ATOM      1  C1  DEN d   1       0.668   5.175  -6.000  0.00  0.00     0.130 A 
ATOM      2  C2  DEN d   1       1.516   3.987  -5.966  0.00  0.00    -0.031 A 
ATOM      3  C3  DEN d   1       0.638   2.799  -5.952  0.00  0.00     0.027 A 
ATOM      4  C4  DEN d   1      -1.939   2.687  -5.983  0.00  0.00     0.027 A 
ATOM      5  C5  DEN d   1      -3.095   3.435  -6.000  0.00  0.00    -0.003 A 
ATOM      6  C6  DEN d   1      -3.078   4.805  -5.984  0.00  0.00     0.001 A 
ATOM      7  C7  DEN d   1      -1.880   5.469  -5.995  0.00  0.00     0.017 A 
ATOM      8  C8  DEN d   1      -0.711   4.722  -5.971  0.00  0.00    -0.094 A 
ATOM      9  C9  DEN d   1      -0.748   3.338  -6.000  0.00  0.00    -0.072 A 
ENDROOT
TORSDOF 0
ENDMDL
