MODEL 1
REMARK minimizedAffinity 0.431886286
REMARK minimizedRMSD -1
REMARK  0 active torsions:
REMARK  status: ('A' for Active; 'I' for Inactive)
ROOT
ATOM      1  C1  DEN d   1       4.910   5.769  -6.000  0.00  0.00     0.130 A 
ATOM      2  C2  DEN d   1       5.910   4.706  -5.961  0.00  0.00    -0.031 A 
ATOM      3  C3  DEN d   1       5.200   3.411  -5.944  0.00  0.00     0.027 A 
ATOM      4  C4  DEN d   1       2.662   2.952  -5.978  0.00  0.00     0.027 A 
ATOM      5  C5  DEN d   1       1.415   3.538  -5.999  0.00  0.00    -0.003 A 
ATOM      6  C6  DEN d   1       1.247   4.897  -5.988  0.00  0.00     0.001 A 
ATOM      7  C7  DEN d   1       2.344   5.717  -6.000  0.00  0.00     0.017 A 
ATOM      8  C8  DEN d   1       3.604   5.134  -5.971  0.00  0.00    -0.094 A 
ATOM      9  C9  DEN d   1       3.754   3.758  -5.995  0.00  0.00    -0.072 A 
ENDROOT
TORSDOF 0
ENDMDL
