MODEL 1
REMARK minimizedAffinity -2.3832233
REMARK minimizedRMSD -1
REMARK  0 active torsions:
REMARK  status: ('A' for Active; 'I' for Inactive)
ROOT
ATOM      1  C1  DEN d   1      -2.731   4.280  -5.942  0.00  0.00     0.130 A 
ATOM      2  C2  DEN d   1      -3.525   3.056  -5.971  0.00  0.00    -0.031 A 
ATOM      3  C3  DEN d   1      -2.596   1.908  -6.000  0.00  0.00     0.027 A 
ATOM      4  C4  DEN d   1      -0.017   1.910  -5.997  0.00  0.00     0.027 A 
ATOM      5  C5  DEN d   1       1.105   2.708  -5.989  0.00  0.00    -0.003 A 
ATOM      6  C6  DEN d   1       1.028   4.076  -5.999  0.00  0.00     0.001 A 
ATOM      7  C7  DEN d   1      -0.197   4.687  -5.972  0.00  0.00     0.017 A 
ATOM      8  C8  DEN d   1      -1.333   3.888  -5.987  0.00  0.00    -0.094 A 
ATOM      9  C9  DEN d   1      -1.235   2.508  -5.964  0.00  0.00    -0.072 A 
ENDROOT
TORSDOF 0
ENDMDL
