MODEL 1
REMARK minimizedAffinity -2.2804687
REMARK minimizedRMSD -1
REMARK  0 active torsions:
REMARK  status: ('A' for Active; 'I' for Inactive)
ROOT
ATOM      1  C1  DEN d   1      -0.513   3.000  -5.963  0.00  0.00     0.130 A 
ATOM      2  C2  DEN d   1       0.567   3.983  -5.986  0.00  0.00    -0.031 A 
ATOM      3  C3  DEN d   1      -0.040   5.329  -6.000  0.00  0.00     0.027 A 
ATOM      4  C4  DEN d   1      -2.535   5.983  -5.983  0.00  0.00     0.027 A 
ATOM      5  C5  DEN d   1      -3.823   5.496  -5.976  0.00  0.00    -0.003 A 
ATOM      6  C6  DEN d   1      -4.097   4.154  -5.999  0.00  0.00     0.001 A 
ATOM      7  C7  DEN d   1      -3.067   3.251  -5.984  0.00  0.00     0.017 A 
ATOM      8  C8  DEN d   1      -1.765   3.735  -5.998  0.00  0.00    -0.094 A 
ATOM      9  C9  DEN d   1      -1.509   5.095  -5.963  0.00  0.00    -0.072 A 
ENDROOT
TORSDOF 0
ENDMDL
