MODEL 1
REMARK minimizedAffinity 3.12441707
REMARK minimizedRMSD -1
REMARK  0 active torsions:
REMARK  status: ('A' for Active; 'I' for Inactive)
ROOT
ATOM      1  C1  DEN d   1      -0.354   4.817  -5.966  0.00  0.00     0.130 A 
ATOM      2  C2  DEN d   1       0.017   3.404  -5.961  0.00  0.00    -0.031 A 
ATOM      3  C3  DEN d   1      -1.226   2.606  -5.967  0.00  0.00     0.027 A 
ATOM      4  C4  DEN d   1      -3.675   3.417  -5.990  0.00  0.00     0.027 A 
ATOM      5  C5  DEN d   1      -4.489   4.527  -5.987  0.00  0.00    -0.003 A 
ATOM      6  C6  DEN d   1      -3.988   5.801  -5.942  0.00  0.00     0.001 A 
ATOM      7  C7  DEN d   1      -2.632   5.997  -5.945  0.00  0.00     0.017 A 
ATOM      8  C8  DEN d   1      -1.804   4.882  -5.941  0.00  0.00    -0.094 A 
ATOM      9  C9  DEN d   1      -2.330   3.603  -5.998  0.00  0.00    -0.072 A 
ENDROOT
TORSDOF 0
ENDMDL
