MODEL 1
REMARK minimizedAffinity -3.38350415
REMARK minimizedRMSD -1
REMARK  0 active torsions:
REMARK  status: ('A' for Active; 'I' for Inactive)
ROOT
ATOM      1  C1  DEN d   1      -0.794   2.869  -5.949  0.00  0.00     0.130 A 
ATOM      2  C2  DEN d   1       0.359   3.765  -5.972  0.00  0.00    -0.031 A 
ATOM      3  C3  DEN d   1      -0.142   5.154  -5.993  0.00  0.00     0.027 A 
ATOM      4  C4  DEN d   1      -2.579   6.000  -5.987  0.00  0.00     0.027 A 
ATOM      5  C5  DEN d   1      -3.901   5.614  -5.982  0.00  0.00    -0.003 A 
ATOM      6  C6  DEN d   1      -4.277   4.297  -6.000  0.00  0.00     0.001 A 
ATOM      7  C7  DEN d   1      -3.320   3.317  -5.978  0.00  0.00     0.017 A 
ATOM      8  C8  DEN d   1      -1.985   3.699  -5.990  0.00  0.00    -0.094 A 
ATOM      9  C9  DEN d   1      -1.625   5.035  -5.960  0.00  0.00    -0.072 A 
ENDROOT
TORSDOF 0
ENDMDL
