MODEL 1
REMARK minimizedAffinity -1.40558553
REMARK minimizedRMSD -1
REMARK  0 active torsions:
REMARK  status: ('A' for Active; 'I' for Inactive)
ROOT
ATOM      1  C1  DEN d   1       1.511   5.992  -6.000  0.00  0.00     0.130 A 
ATOM      2  C2  DEN d   1       0.535   4.906  -5.998  0.00  0.00    -0.031 A 
ATOM      3  C3  DEN d   1       1.274   3.628  -5.961  0.00  0.00     0.027 A 
ATOM      4  C4  DEN d   1       3.822   3.228  -5.903  0.00  0.00     0.027 A 
ATOM      5  C5  DEN d   1       5.055   3.842  -5.903  0.00  0.00    -0.003 A 
ATOM      6  C6  DEN d   1       5.192   5.204  -5.969  0.00  0.00     0.001 A 
ATOM      7  C7  DEN d   1       4.077   5.998  -5.992  0.00  0.00     0.017 A 
ATOM      8  C8  DEN d   1       2.830   5.386  -6.000  0.00  0.00    -0.094 A 
ATOM      9  C9  DEN d   1       2.712   4.009  -5.921  0.00  0.00    -0.072 A 
ENDROOT
TORSDOF 0
ENDMDL
