MODEL 1
REMARK minimizedAffinity 3.95309138
REMARK minimizedRMSD -1
REMARK  0 active torsions:
REMARK  status: ('A' for Active; 'I' for Inactive)
ROOT
ATOM      1  C1  BNZ d   1      -1.317  -2.505  -3.254  0.00  0.00     0.000 A 
ATOM      2  C2  BNZ d   1      -1.014  -2.252  -1.943  0.00  0.00     0.000 A 
ATOM      3  C3  BNZ d   1      -0.094  -3.012  -1.278  0.00  0.00     0.000 A 
ATOM      4  C4  BNZ d   1       0.492  -4.049  -1.911  0.00  0.00     0.000 A 
ATOM      5  C5  BNZ d   1       0.190  -4.323  -3.230  0.00  0.00     0.000 A 
ATOM      6  C6  BNZ d   1      -0.708  -3.531  -3.908  0.00  0.00     0.000 A 
ENDROOT
TORSDOF 0
ENDMDL
