MODEL 1
REMARK minimizedAffinity 0.146319419
REMARK minimizedRMSD -1
REMARK  0 active torsions:
REMARK  status: ('A' for Active; 'I' for Inactive)
ROOT
ATOM      1  C1  BNZ d   1       2.025   3.464   2.307  0.00  0.00     0.000 A 
ATOM      2  C2  BNZ d   1       2.239   2.652   3.388  0.00  0.00     0.000 A 
ATOM      3  C3  BNZ d   1       1.284   1.763   3.795  0.00  0.00     0.000 A 
ATOM      4  C4  BNZ d   1       0.102   1.716   3.147  0.00  0.00     0.000 A 
ATOM      5  C5  BNZ d   1      -0.132   2.535   2.060  0.00  0.00     0.000 A 
ATOM      6  C6  BNZ d   1       0.846   3.401   1.629  0.00  0.00     0.000 A 
ENDROOT
TORSDOF 0
ENDMDL
