MODEL 1
REMARK minimizedAffinity 1.00873339
REMARK minimizedRMSD -1
REMARK  0 active torsions:
REMARK  status: ('A' for Active; 'I' for Inactive)
ROOT
ATOM      1  C1  BNZ d   1      -5.999   1.494  -3.025  0.00  0.00     0.000 A 
ATOM      2  C2  BNZ d   1      -6.000   0.645  -4.099  0.00  0.00     0.000 A 
ATOM      3  C3  BNZ d   1      -5.975   1.132  -5.376  0.00  0.00     0.000 A 
ATOM      4  C4  BNZ d   1      -5.991   2.466  -5.578  0.00  0.00     0.000 A 
ATOM      5  C5  BNZ d   1      -5.999   3.335  -4.505  0.00  0.00     0.000 A 
ATOM      6  C6  BNZ d   1      -5.984   2.841  -3.220  0.00  0.00     0.000 A 
ENDROOT
TORSDOF 0
ENDMDL
