MODEL 1
REMARK minimizedAffinity 1.54008269
REMARK minimizedRMSD -1
REMARK  0 active torsions:
REMARK  status: ('A' for Active; 'I' for Inactive)
ROOT
ATOM      1  C1  BNZ d   1      -5.995   0.695  -3.771  0.00  0.00     0.000 A 
ATOM      2  C2  BNZ d   1      -5.998   1.253  -2.520  0.00  0.00     0.000 A 
ATOM      3  C3  BNZ d   1      -5.992   2.610  -2.358  0.00  0.00     0.000 A 
ATOM      4  C4  BNZ d   1      -5.943   3.407  -3.445  0.00  0.00     0.000 A 
ATOM      5  C5  BNZ d   1      -5.930   2.860  -4.713  0.00  0.00     0.000 A 
ATOM      6  C6  BNZ d   1      -5.975   1.494  -4.873  0.00  0.00     0.000 A 
ENDROOT
TORSDOF 0
ENDMDL
