MODEL 1
REMARK minimizedAffinity -2.77083874
REMARK minimizedRMSD -1
REMARK  0 active torsions:
REMARK  status: ('A' for Active; 'I' for Inactive)
ROOT
ATOM      1  C1  BNZ d   1       0.254   3.770  -0.316  0.00  0.00     0.000 A 
ATOM      2  C2  BNZ d   1       0.152   2.595   0.380  0.00  0.00     0.000 A 
ATOM      3  C3  BNZ d   1      -0.343   1.469  -0.216  0.00  0.00     0.000 A 
ATOM      4  C4  BNZ d   1      -0.773   1.529  -1.493  0.00  0.00     0.000 A 
ATOM      5  C5  BNZ d   1      -0.685   2.709  -2.205  0.00  0.00     0.000 A 
ATOM      6  C6  BNZ d   1      -0.150   3.830  -1.614  0.00  0.00     0.000 A 
ENDROOT
TORSDOF 0
ENDMDL
