MODEL 1
REMARK minimizedAffinity 1.59996808
REMARK minimizedRMSD -1
REMARK  0 active torsions:
REMARK  status: ('A' for Active; 'I' for Inactive)
ROOT
ATOM      1  C1  BNZ d   1      -1.423   0.445   1.394  0.00  0.00     0.000 A 
ATOM      2  C2  BNZ d   1      -0.673  -0.525   2.006  0.00  0.00     0.000 A 
ATOM      3  C3  BNZ d   1      -1.121  -1.814   2.078  0.00  0.00     0.000 A 
ATOM      4  C4  BNZ d   1      -2.334  -2.124   1.576  0.00  0.00     0.000 A 
ATOM      5  C5  BNZ d   1      -3.106  -1.156   0.965  0.00  0.00     0.000 A 
ATOM      6  C6  BNZ d   1      -2.635   0.133   0.859  0.00  0.00     0.000 A 
ENDROOT
TORSDOF 0
ENDMDL
