MODEL 1
REMARK minimizedAffinity 8.58592701
REMARK minimizedRMSD -1
REMARK  0 active torsions:
REMARK  status: ('A' for Active; 'I' for Inactive)
ROOT
ATOM      1  C1  BNZ d   1       3.765  -3.028  -0.728  0.00  0.00     0.000 A 
ATOM      2  C2  BNZ d   1       4.874  -2.233  -0.612  0.00  0.00     0.000 A 
ATOM      3  C3  BNZ d   1       5.999  -2.688   0.018  0.00  0.00     0.000 A 
ATOM      4  C4  BNZ d   1       5.999  -3.920   0.566  0.00  0.00     0.000 A 
ATOM      5  C5  BNZ d   1       4.885  -4.730   0.466  0.00  0.00     0.000 A 
ATOM      6  C6  BNZ d   1       3.769  -4.283  -0.203  0.00  0.00     0.000 A 
ENDROOT
TORSDOF 0
ENDMDL
