MODEL 1
REMARK minimizedAffinity 3.02780437
REMARK minimizedRMSD -1
REMARK  0 active torsions:
REMARK  status: ('A' for Active; 'I' for Inactive)
ROOT
ATOM      1  C1  BNZ d   1      -2.999  -6.000  -4.773  0.00  0.00     0.000 A 
ATOM      2  C2  BNZ d   1      -2.680  -5.168  -3.733  0.00  0.00     0.000 A 
ATOM      3  C3  BNZ d   1      -1.612  -4.318  -3.819  0.00  0.00     0.000 A 
ATOM      4  C4  BNZ d   1      -0.843  -4.330  -4.926  0.00  0.00     0.000 A 
ATOM      5  C5  BNZ d   1      -1.146  -5.169  -5.980  0.00  0.00     0.000 A 
ATOM      6  C6  BNZ d   1      -2.244  -5.995  -5.906  0.00  0.00     0.000 A 
ENDROOT
TORSDOF 0
ENDMDL
