MODEL 1
REMARK minimizedAffinity 10.038106
REMARK minimizedRMSD -1
REMARK  0 active torsions:
REMARK  status: ('A' for Active; 'I' for Inactive)
ROOT
ATOM      1  C1  BNZ d   1       0.067   4.443  -3.457  0.00  0.00     0.000 A 
ATOM      2  C2  BNZ d   1       0.595   3.200  -3.226  0.00  0.00     0.000 A 
ATOM      3  C3  BNZ d   1       1.922   3.046  -2.938  0.00  0.00     0.000 A 
ATOM      4  C4  BNZ d   1       2.726   4.128  -2.920  0.00  0.00     0.000 A 
ATOM      5  C5  BNZ d   1       2.211   5.387  -3.160  0.00  0.00     0.000 A 
ATOM      6  C6  BNZ d   1       0.867   5.542  -3.411  0.00  0.00     0.000 A 
ENDROOT
TORSDOF 0
ENDMDL
