MODEL 1
REMARK minimizedAffinity 4.93074417
REMARK minimizedRMSD -1
REMARK  0 active torsions:
REMARK  status: ('A' for Active; 'I' for Inactive)
ROOT
ATOM      1  C1  BNZ d   1      -1.747  -2.432   1.638  0.00  0.00     0.000 A 
ATOM      2  C2  BNZ d   1      -2.556  -1.329   1.569  0.00  0.00     0.000 A 
ATOM      3  C3  BNZ d   1      -2.069  -0.085   1.859  0.00  0.00     0.000 A 
ATOM      4  C4  BNZ d   1      -0.788   0.050   2.256  0.00  0.00     0.000 A 
ATOM      5  C5  BNZ d   1       0.038  -1.053   2.340  0.00  0.00     0.000 A 
ATOM      6  C6  BNZ d   1      -0.444  -2.299   2.010  0.00  0.00     0.000 A 
ENDROOT
TORSDOF 0
ENDMDL
