MODEL 1
REMARK minimizedAffinity 4.12400246
REMARK minimizedRMSD -1
REMARK  0 active torsions:
REMARK  status: ('A' for Active; 'I' for Inactive)
ROOT
ATOM      1  C1  BNZ d   1      -0.386  -5.233  -5.248  0.00  0.00     0.000 A 
ATOM      2  C2  BNZ d   1      -0.813  -4.453  -4.207  0.00  0.00     0.000 A 
ATOM      3  C3  BNZ d   1      -2.128  -4.441  -3.835  0.00  0.00     0.000 A 
ATOM      4  C4  BNZ d   1      -3.020  -5.176  -4.529  0.00  0.00     0.000 A 
ATOM      5  C5  BNZ d   1      -2.607  -5.960  -5.588  0.00  0.00     0.000 A 
ATOM      6  C6  BNZ d   1      -1.276  -6.000  -5.934  0.00  0.00     0.000 A 
ENDROOT
TORSDOF 0
ENDMDL
