MODEL 1
REMARK minimizedAffinity 6.86614656
REMARK minimizedRMSD -1
REMARK  0 active torsions:
REMARK  status: ('A' for Active; 'I' for Inactive)
ROOT
ATOM      1  C1  BNZ d   1       4.884   5.059  -2.110  0.00  0.00     0.000 A 
ATOM      2  C2  BNZ d   1       3.784   4.372  -2.548  0.00  0.00     0.000 A 
ATOM      3  C3  BNZ d   1       3.792   3.736  -3.758  0.00  0.00     0.000 A 
ATOM      4  C4  BNZ d   1       4.884   3.822  -4.545  0.00  0.00     0.000 A 
ATOM      5  C5  BNZ d   1       5.998   4.520  -4.121  0.00  0.00     0.000 A 
ATOM      6  C6  BNZ d   1       6.000   5.126  -2.885  0.00  0.00     0.000 A 
ENDROOT
TORSDOF 0
ENDMDL
