MODEL 1
REMARK minimizedAffinity 7.27705336
REMARK minimizedRMSD -1
REMARK  0 active torsions:
REMARK  status: ('A' for Active; 'I' for Inactive)
ROOT
ATOM      1  C1  BNZ d   1       2.813   2.985  -1.881  0.00  0.00     0.000 A 
ATOM      2  C2  BNZ d   1       2.588   4.295  -1.553  0.00  0.00     0.000 A 
ATOM      3  C3  BNZ d   1       1.467   4.944  -1.991  0.00  0.00     0.000 A 
ATOM      4  C4  BNZ d   1       0.595   4.295  -2.789  0.00  0.00     0.000 A 
ATOM      5  C5  BNZ d   1       0.813   2.976  -3.136  0.00  0.00     0.000 A 
ATOM      6  C6  BNZ d   1       1.922   2.315  -2.661  0.00  0.00     0.000 A 
ENDROOT
TORSDOF 0
ENDMDL
