MODEL 1
REMARK minimizedAffinity 9.13484192
REMARK minimizedRMSD -1
REMARK  0 active torsions:
REMARK  status: ('A' for Active; 'I' for Inactive)
ROOT
ATOM      1  C1  BNZ d   1      -3.826   5.916  -0.721  0.00  0.00     0.000 A 
ATOM      2  C2  BNZ d   1      -3.838   5.726  -2.078  0.00  0.00     0.000 A 
ATOM      3  C3  BNZ d   1      -4.934   5.197  -2.700  0.00  0.00     0.000 A 
ATOM      4  C4  BNZ d   1      -5.999   4.822  -1.963  0.00  0.00     0.000 A 
ATOM      5  C5  BNZ d   1      -5.999   4.998  -0.594  0.00  0.00     0.000 A 
ATOM      6  C6  BNZ d   1      -4.909   5.567   0.025  0.00  0.00     0.000 A 
ENDROOT
TORSDOF 0
ENDMDL
