MODEL 1
REMARK minimizedAffinity 1.21707237
REMARK minimizedRMSD -1
REMARK  0 active torsions:
REMARK  status: ('A' for Active; 'I' for Inactive)
ROOT
ATOM      1  C1  BNZ d   1      -5.798  -5.993   3.413  0.00  0.00     0.000 A 
ATOM      2  C2  BNZ d   1      -5.933  -5.979   4.776  0.00  0.00     0.000 A 
ATOM      3  C3  BNZ d   1      -5.678  -4.843   5.492  0.00  0.00     0.000 A 
ATOM      4  C4  BNZ d   1      -5.252  -3.736   4.851  0.00  0.00     0.000 A 
ATOM      5  C5  BNZ d   1      -5.103  -3.737   3.478  0.00  0.00     0.000 A 
ATOM      6  C6  BNZ d   1      -5.397  -4.871   2.756  0.00  0.00     0.000 A 
ENDROOT
TORSDOF 0
ENDMDL
