MODEL 1
REMARK minimizedAffinity -0.112020329
REMARK minimizedRMSD -1
REMARK  0 active torsions:
REMARK  status: ('A' for Active; 'I' for Inactive)
ROOT
ATOM      1  C1  BNZ d   1       5.295   0.465  -3.764  0.00  0.00     0.000 A 
ATOM      2  C2  BNZ d   1       4.121  -0.096  -3.337  0.00  0.00     0.000 A 
ATOM      3  C3  BNZ d   1       3.037   0.685  -3.047  0.00  0.00     0.000 A 
ATOM      4  C4  BNZ d   1       3.140   2.026  -3.145  0.00  0.00     0.000 A 
ATOM      5  C5  BNZ d   1       4.320   2.607  -3.565  0.00  0.00     0.000 A 
ATOM      6  C6  BNZ d   1       5.397   1.816  -3.894  0.00  0.00     0.000 A 
ENDROOT
TORSDOF 0
ENDMDL
