MODEL 1
REMARK minimizedAffinity 4.64706087
REMARK minimizedRMSD -1
REMARK  0 active torsions:
REMARK  status: ('A' for Active; 'I' for Inactive)
ROOT
ATOM      1  C1  BNZ d   1      -2.979  -6.000  -6.000  0.00  0.00     0.000 A 
ATOM      2  C2  BNZ d   1      -1.780  -5.979  -5.340  0.00  0.00     0.000 A 
ATOM      3  C3  BNZ d   1      -1.373  -4.863  -4.663  0.00  0.00     0.000 A 
ATOM      4  C4  BNZ d   1      -2.146  -3.758  -4.681  0.00  0.00     0.000 A 
ATOM      5  C5  BNZ d   1      -3.354  -3.761  -5.349  0.00  0.00     0.000 A 
ATOM      6  C6  BNZ d   1      -3.778  -4.898  -5.997  0.00  0.00     0.000 A 
ENDROOT
TORSDOF 0
ENDMDL
