MODEL 1
REMARK minimizedAffinity 1.26738644
REMARK minimizedRMSD -1
REMARK  0 active torsions:
REMARK  status: ('A' for Active; 'I' for Inactive)
ROOT
ATOM      1  C1  BNZ d   1      -1.115  -0.610   2.484  0.00  0.00     0.000 A 
ATOM      2  C2  BNZ d   1       0.189  -0.937   2.747  0.00  0.00     0.000 A 
ATOM      3  C3  BNZ d   1       0.845  -1.864   1.987  0.00  0.00     0.000 A 
ATOM      4  C4  BNZ d   1       0.185  -2.492   0.992  0.00  0.00     0.000 A 
ATOM      5  C5  BNZ d   1      -1.132  -2.181   0.720  0.00  0.00     0.000 A 
ATOM      6  C6  BNZ d   1      -1.777  -1.218   1.463  0.00  0.00     0.000 A 
ENDROOT
TORSDOF 0
ENDMDL
