MODEL 1
REMARK minimizedAffinity 0.249464154
REMARK minimizedRMSD -1
REMARK  1 active torsions:
REMARK  status: ('A' for Active; 'I' for Inactive)
REMARK    1  A    between atoms: C1_2  and  C2_3 
ROOT
ATOM      1  C2  UNL d   1      -0.725   1.258   1.514  0.00  0.00    -0.076 A 
ATOM      2  C3  UNL d   1      -0.584   2.068   0.373  0.00  0.00     0.004 A 
ATOM      3  C4  UNL d   1       0.038   1.585  -0.777  0.00  0.00    -0.003 A 
ATOM      4  C5  UNL d   1       0.528   0.284  -0.806  0.00  0.00     0.000 A 
ATOM      5  C6  UNL d   1       0.381  -0.539   0.310  0.00  0.00     0.000 A 
ATOM      6  C7  UNL d   1      -0.258  -0.073   1.472  0.00  0.00    -0.073 A 
ATOM      7  C8  UNL d   1      -0.384  -1.002   2.649  0.00  0.00     0.078 C 
ENDROOT
BRANCH   1   8
ATOM      8  C1  UNL d   1      -1.384   1.845   2.741  0.00  0.00     0.053 C 
ATOM      9  C   UNL d   1      -0.379   2.448   3.710  0.00  0.00     0.018 C 
ENDBRANCH   1   8
TORSDOF 1
ENDMDL
