MODEL 1
REMARK minimizedAffinity -4.01136112
REMARK minimizedRMSD -1
REMARK  1 active torsions:
REMARK  status: ('A' for Active; 'I' for Inactive)
REMARK    1  A    between atoms: C1_2  and  C2_3 
ROOT
ATOM      1  C2  UNL d   1      -1.139   0.727  -0.272  0.00  0.00    -0.076 A 
ATOM      2  C3  UNL d   1      -1.008  -0.611   0.139  0.00  0.00     0.004 A 
ATOM      3  C4  UNL d   1       0.075  -1.385  -0.275  0.00  0.00    -0.003 A 
ATOM      4  C5  UNL d   1       1.044  -0.834  -1.106  0.00  0.00     0.000 A 
ATOM      5  C6  UNL d   1       0.939   0.497  -1.509  0.00  0.00     0.000 A 
ATOM      6  C7  UNL d   1      -0.138   1.296  -1.088  0.00  0.00    -0.073 A 
ATOM      7  C8  UNL d   1      -0.204   2.724  -1.558  0.00  0.00     0.078 C 
ENDROOT
BRANCH   1   8
ATOM      8  C1  UNL d   1      -2.349   1.510   0.186  0.00  0.00     0.053 C 
ATOM      9  C   UNL d   1      -2.110   2.234   1.502  0.00  0.00     0.018 C 
ENDBRANCH   1   8
TORSDOF 1
ENDMDL
