MODEL 1
REMARK minimizedAffinity 0.63914299
REMARK minimizedRMSD -1
REMARK  1 active torsions:
REMARK  status: ('A' for Active; 'I' for Inactive)
REMARK    1  A    between atoms: C1_2  and  C2_3 
ROOT
ATOM      1  C2  UNL d   1      -0.627   0.641   0.817  0.00  0.00    -0.076 A 
ATOM      2  C3  UNL d   1       0.122   1.563   0.065  0.00  0.00     0.004 A 
ATOM      3  C4  UNL d   1       0.706   1.196  -1.146  0.00  0.00    -0.003 A 
ATOM      4  C5  UNL d   1       0.550  -0.100  -1.625  0.00  0.00     0.000 A 
ATOM      5  C6  UNL d   1      -0.205  -1.023  -0.901  0.00  0.00     0.000 A 
ATOM      6  C7  UNL d   1      -0.814  -0.664   0.313  0.00  0.00    -0.073 A 
ATOM      7  C8  UNL d   1      -1.611  -1.701   1.055  0.00  0.00     0.078 C 
ENDROOT
BRANCH   1   8
ATOM      8  C1  UNL d   1      -1.214   1.089   2.136  0.00  0.00     0.053 C 
ATOM      9  C   UNL d   1      -0.158   1.613   3.096  0.00  0.00     0.018 C 
ENDBRANCH   1   8
TORSDOF 1
ENDMDL
