MODEL 1
REMARK minimizedAffinity -2.54758286
REMARK minimizedRMSD -1
REMARK  1 active torsions:
REMARK  status: ('A' for Active; 'I' for Inactive)
REMARK    1  A    between atoms: C1_2  and  C2_3 
ROOT
ATOM      1  C2  UNL d   1       0.077  -0.010  -0.883  0.00  0.00    -0.076 A 
ATOM      2  C3  UNL d   1      -1.132  -0.079  -0.168  0.00  0.00     0.004 A 
ATOM      3  C4  UNL d   1      -1.915   1.058   0.028  0.00  0.00    -0.003 A 
ATOM      4  C5  UNL d   1      -1.503   2.281  -0.488  0.00  0.00     0.000 A 
ATOM      5  C6  UNL d   1      -0.316   2.364  -1.215  0.00  0.00     0.000 A 
ATOM      6  C7  UNL d   1       0.477   1.225  -1.436  0.00  0.00    -0.073 A 
ATOM      7  C8  UNL d   1       1.751   1.373  -2.222  0.00  0.00     0.078 C 
ENDROOT
BRANCH   1   8
ATOM      8  C1  UNL d   1       0.897  -1.270  -1.040  0.00  0.00     0.053 C 
ATOM      9  C   UNL d   1       0.441  -2.120  -2.216  0.00  0.00     0.018 C 
ENDBRANCH   1   8
TORSDOF 1
ENDMDL
