MODEL 1
REMARK minimizedAffinity -3.36206222
REMARK minimizedRMSD -1
REMARK  1 active torsions:
REMARK  status: ('A' for Active; 'I' for Inactive)
REMARK    1  A    between atoms: C1_2  and  C2_3 
ROOT
ATOM      1  C2  UNL d   1      -0.595   0.756  -0.004  0.00  0.00    -0.076 A 
ATOM      2  C3  UNL d   1      -0.319  -0.491   0.582  0.00  0.00     0.004 A 
ATOM      3  C4  UNL d   1       0.791  -1.237   0.190  0.00  0.00    -0.003 A 
ATOM      4  C5  UNL d   1       1.644  -0.747  -0.793  0.00  0.00     0.000 A 
ATOM      5  C6  UNL d   1       1.395   0.497  -1.372  0.00  0.00     0.000 A 
ATOM      6  C7  UNL d   1       0.289   1.269  -0.977  0.00  0.00    -0.073 A 
ATOM      7  C8  UNL d   1       0.064   2.600  -1.639  0.00  0.00     0.078 C 
ENDROOT
BRANCH   1   8
ATOM      8  C1  UNL d   1      -1.829   1.508   0.442  0.00  0.00     0.053 C 
ATOM      9  C   UNL d   1      -1.657   2.152   1.809  0.00  0.00     0.018 C 
ENDBRANCH   1   8
TORSDOF 1
ENDMDL
