MODEL 1
REMARK minimizedAffinity -3.84155202
REMARK minimizedRMSD -1
REMARK  1 active torsions:
REMARK  status: ('A' for Active; 'I' for Inactive)
REMARK    1  A    between atoms: C1_2  and  C2_3 
ROOT
ATOM      1  C2  UNL d   1      -0.538   0.116   0.319  0.00  0.00    -0.076 A 
ATOM      2  C3  UNL d   1      -0.952  -0.480   1.523  0.00  0.00     0.004 A 
ATOM      3  C4  UNL d   1      -1.798   0.193   2.402  0.00  0.00    -0.003 A 
ATOM      4  C5  UNL d   1      -2.246   1.473   2.091  0.00  0.00     0.000 A 
ATOM      5  C6  UNL d   1      -1.860   2.071   0.892  0.00  0.00     0.000 A 
ATOM      6  C7  UNL d   1      -1.020   1.400  -0.013  0.00  0.00    -0.073 A 
ATOM      7  C8  UNL d   1      -0.630   2.096  -1.288  0.00  0.00     0.078 C 
ENDROOT
BRANCH   1   8
ATOM      8  C1  UNL d   1       0.403  -0.652  -0.583  0.00  0.00     0.053 C 
ATOM      9  C   UNL d   1      -0.315  -1.707  -1.411  0.00  0.00     0.018 C 
ENDBRANCH   1   8
TORSDOF 1
ENDMDL
