MODEL 1
REMARK minimizedAffinity -0.952001095
REMARK minimizedRMSD -1
REMARK  1 active torsions:
REMARK  status: ('A' for Active; 'I' for Inactive)
REMARK    1  A    between atoms: C1_2  and  C2_3 
ROOT
ATOM      1  C2  UNL d   1       0.576  -2.329  -1.300  0.00  0.00    -0.076 A 
ATOM      2  C3  UNL d   1       1.977  -2.297  -1.190  0.00  0.00     0.004 A 
ATOM      3  C4  UNL d   1       2.626  -1.218  -0.592  0.00  0.00    -0.003 A 
ATOM      4  C5  UNL d   1       1.884  -0.153  -0.093  0.00  0.00     0.000 A 
ATOM      5  C6  UNL d   1       0.492  -0.176  -0.177  0.00  0.00     0.000 A 
ATOM      6  C7  UNL d   1      -0.178  -1.264  -0.762  0.00  0.00    -0.073 A 
ATOM      7  C8  UNL d   1      -1.680  -1.233  -0.832  0.00  0.00     0.078 C 
ENDROOT
BRANCH   1   8
ATOM      8  C1  UNL d   1      -0.070  -3.512  -1.983  0.00  0.00     0.053 C 
ATOM      9  C   UNL d   1      -0.066  -3.384  -3.498  0.00  0.00     0.018 C 
ENDBRANCH   1   8
TORSDOF 1
ENDMDL
