MODEL 1
REMARK minimizedAffinity -0.367290199
REMARK minimizedRMSD -1
REMARK  1 active torsions:
REMARK  status: ('A' for Active; 'I' for Inactive)
REMARK    1  A    between atoms: C1_2  and  C2_3 
ROOT
ATOM      1  C2  UNL d   1      -4.112  -2.597   3.859  0.00  0.00    -0.076 A 
ATOM      2  C3  UNL d   1      -2.851  -2.597   3.238  0.00  0.00     0.004 A 
ATOM      3  C4  UNL d   1      -1.683  -2.447   3.984  0.00  0.00    -0.003 A 
ATOM      4  C5  UNL d   1      -1.757  -2.297   5.364  0.00  0.00     0.000 A 
ATOM      5  C6  UNL d   1      -2.999  -2.313   5.999  0.00  0.00     0.000 A 
ATOM      6  C7  UNL d   1      -4.184  -2.479   5.264  0.00  0.00    -0.073 A 
ATOM      7  C8  UNL d   1      -5.496  -2.482   6.000  0.00  0.00     0.078 C 
ENDROOT
BRANCH   1   8
ATOM      8  C1  UNL d   1      -5.345  -2.736   2.995  0.00  0.00     0.053 C 
ATOM      9  C   UNL d   1      -5.293  -1.851   1.760  0.00  0.00     0.018 C 
ENDBRANCH   1   8
TORSDOF 1
ENDMDL
