MODEL 1
REMARK minimizedAffinity 0.0527552105
REMARK minimizedRMSD -1
REMARK  1 active torsions:
REMARK  status: ('A' for Active; 'I' for Inactive)
REMARK    1  A    between atoms: C1_2  and  C2_3 
ROOT
ATOM      1  C2  UNL d   1       0.271  -2.348  -1.310  0.00  0.00    -0.076 A 
ATOM      2  C3  UNL d   1       1.173  -3.079  -0.517  0.00  0.00     0.004 A 
ATOM      3  C4  UNL d   1       1.558  -4.370  -0.873  0.00  0.00    -0.003 A 
ATOM      4  C5  UNL d   1       1.048  -4.952  -2.028  0.00  0.00     0.000 A 
ATOM      5  C6  UNL d   1       0.166  -4.235  -2.836  0.00  0.00     0.000 A 
ATOM      6  C7  UNL d   1      -0.220  -2.926  -2.500  0.00  0.00    -0.073 A 
ATOM      7  C8  UNL d   1      -1.178  -2.201  -3.405  0.00  0.00     0.078 C 
ENDROOT
BRANCH   1   8
ATOM      8  C1  UNL d   1      -0.131  -0.962  -0.860  0.00  0.00     0.053 C 
ATOM      9  C   UNL d   1       0.891   0.096  -1.247  0.00  0.00     0.018 C 
ENDBRANCH   1   8
TORSDOF 1
ENDMDL
