MODEL 1
REMARK minimizedAffinity -3.67557955
REMARK minimizedRMSD -1
REMARK  1 active torsions:
REMARK  status: ('A' for Active; 'I' for Inactive)
REMARK    1  A    between atoms: C1_2  and  C2_3 
ROOT
ATOM      1  C2  UNL d   1      -0.385  -0.061   0.369  0.00  0.00    -0.076 A 
ATOM      2  C3  UNL d   1       0.756   0.477  -0.250  0.00  0.00     0.004 A 
ATOM      3  C4  UNL d   1       1.402  -0.204  -1.281  0.00  0.00    -0.003 A 
ATOM      4  C5  UNL d   1       0.916  -1.434  -1.709  0.00  0.00     0.000 A 
ATOM      5  C6  UNL d   1      -0.226  -1.975  -1.118  0.00  0.00     0.000 A 
ATOM      6  C7  UNL d   1      -0.898  -1.293  -0.089  0.00  0.00    -0.073 A 
ATOM      7  C8  UNL d   1      -2.121  -1.926   0.517  0.00  0.00     0.078 C 
ENDROOT
BRANCH   1   8
ATOM      8  C1  UNL d   1      -1.027   0.710   1.500  0.00  0.00     0.053 C 
ATOM      9  C   UNL d   1      -0.395   0.401   2.849  0.00  0.00     0.018 C 
ENDBRANCH   1   8
TORSDOF 1
ENDMDL
