MODEL 1
REMARK minimizedAffinity -4.38211632
REMARK minimizedRMSD -1
REMARK  1 active torsions:
REMARK  status: ('A' for Active; 'I' for Inactive)
REMARK    1  A    between atoms: C1_2  and  C2_3 
ROOT
ATOM      1  C2  UNL d   1       0.185   0.038   0.292  0.00  0.00    -0.076 A 
ATOM      2  C3  UNL d   1      -0.524   1.050  -0.378  0.00  0.00     0.004 A 
ATOM      3  C4  UNL d   1      -1.292   1.976   0.327  0.00  0.00    -0.003 A 
ATOM      4  C5  UNL d   1      -1.362   1.905   1.714  0.00  0.00     0.000 A 
ATOM      5  C6  UNL d   1      -0.651   0.918   2.396  0.00  0.00     0.000 A 
ATOM      6  C7  UNL d   1       0.140  -0.013   1.702  0.00  0.00    -0.073 A 
ATOM      7  C8  UNL d   1       0.881  -1.060   2.488  0.00  0.00     0.078 C 
ENDROOT
BRANCH   1   8
ATOM      8  C1  UNL d   1       0.978  -0.954  -0.527  0.00  0.00     0.053 C 
ATOM      9  C   UNL d   1       0.094  -1.986  -1.209  0.00  0.00     0.018 C 
ENDBRANCH   1   8
TORSDOF 1
ENDMDL
