MODEL 1
REMARK minimizedAffinity -3.26425838
REMARK minimizedRMSD -1
REMARK  1 active torsions:
REMARK  status: ('A' for Active; 'I' for Inactive)
REMARK    1  A    between atoms: C1_2  and  C2_3 
ROOT
ATOM      1  C2  UNL d   1      -0.301  -0.161   0.245  0.00  0.00    -0.076 A 
ATOM      2  C3  UNL d   1       0.250  -0.662   1.438  0.00  0.00     0.004 A 
ATOM      3  C4  UNL d   1       0.079   0.012   2.646  0.00  0.00    -0.003 A 
ATOM      4  C5  UNL d   1      -0.646   1.198   2.681  0.00  0.00     0.000 A 
ATOM      5  C6  UNL d   1      -1.213   1.701   1.511  0.00  0.00     0.000 A 
ATOM      6  C7  UNL d   1      -1.065   1.025   0.287  0.00  0.00    -0.073 A 
ATOM      7  C8  UNL d   1      -1.693   1.615  -0.945  0.00  0.00     0.078 C 
ENDROOT
BRANCH   1   8
ATOM      8  C1  UNL d   1      -0.059  -0.921  -1.039  0.00  0.00     0.053 C 
ATOM      9  C   UNL d   1       1.408  -1.263  -1.248  0.00  0.00     0.018 C 
ENDBRANCH   1   8
TORSDOF 1
ENDMDL
