MODEL 1
REMARK minimizedAffinity -4.92242575
REMARK minimizedRMSD -1
REMARK  1 active torsions:
REMARK  status: ('A' for Active; 'I' for Inactive)
REMARK    1  A    between atoms: C1_2  and  C2_3 
ROOT
ATOM      1  C2  UNL d   1      -0.580   0.609   1.738  0.00  0.00    -0.076 A 
ATOM      2  C3  UNL d   1      -0.884   1.212   0.505  0.00  0.00     0.004 A 
ATOM      3  C4  UNL d   1      -0.609   0.563  -0.698  0.00  0.00    -0.003 A 
ATOM      4  C5  UNL d   1      -0.027  -0.699  -0.687  0.00  0.00     0.000 A 
ATOM      5  C6  UNL d   1       0.265  -1.320   0.527  0.00  0.00     0.000 A 
ATOM      6  C7  UNL d   1      -0.020  -0.686   1.749  0.00  0.00    -0.073 A 
ATOM      7  C8  UNL d   1       0.321  -1.399   3.028  0.00  0.00     0.078 C 
ENDROOT
BRANCH   1   8
ATOM      8  C1  UNL d   1      -0.875   1.372   3.009  0.00  0.00     0.053 C 
ATOM      9  C   UNL d   1       0.293   2.238   3.454  0.00  0.00     0.018 C 
ENDBRANCH   1   8
TORSDOF 1
ENDMDL
