MODEL 1
REMARK minimizedAffinity -4.37350321
REMARK minimizedRMSD -1
REMARK  1 active torsions:
REMARK  status: ('A' for Active; 'I' for Inactive)
REMARK    1  A    between atoms: C1_2  and  C2_3 
ROOT
ATOM      1  C2  UNL d   1       0.209  -0.129   0.152  0.00  0.00    -0.076 A 
ATOM      2  C3  UNL d   1       0.049  -0.957   1.277  0.00  0.00     0.004 A 
ATOM      3  C4  UNL d   1      -0.623  -0.504   2.411  0.00  0.00    -0.003 A 
ATOM      4  C5  UNL d   1      -1.147   0.783   2.438  0.00  0.00     0.000 A 
ATOM      5  C6  UNL d   1      -1.013   1.612   1.325  0.00  0.00     0.000 A 
ATOM      6  C7  UNL d   1      -0.352   1.166   0.167  0.00  0.00    -0.073 A 
ATOM      7  C8  UNL d   1      -0.231   2.104  -1.002  0.00  0.00     0.078 C 
ENDROOT
BRANCH   1   8
ATOM      8  C1  UNL d   1       0.971  -0.665  -1.039  0.00  0.00     0.053 C 
ATOM      9  C   UNL d   1       0.259  -1.829  -1.711  0.00  0.00     0.018 C 
ENDBRANCH   1   8
TORSDOF 1
ENDMDL
