MODEL 1
REMARK minimizedAffinity -3.28238988
REMARK minimizedRMSD -1
REMARK  1 active torsions:
REMARK  status: ('A' for Active; 'I' for Inactive)
REMARK    1  A    between atoms: C1_2  and  C2_3 
ROOT
ATOM      1  C2  UNL d   1      -0.317  -0.507   0.111  0.00  0.00    -0.073 A 
ATOM      2  C3  UNL d   1      -1.421  -0.408   0.965  0.00  0.00    -0.002 A 
ATOM      3  C4  UNL d   1      -1.991   0.836   1.240  0.00  0.00     0.004 A 
ATOM      4  C5  UNL d   1      -1.467   1.991   0.660  0.00  0.00    -0.004 A 
ATOM      5  C6  UNL d   1      -0.372   1.912  -0.206  0.00  0.00    -0.075 A 
ATOM      6  C7  UNL d   1       0.204   3.145  -0.837  0.00  0.00     0.076 C 
ATOM      7  C8  UNL d   1       0.196   0.659  -0.475  0.00  0.00     0.001 A 
ENDROOT
BRANCH   1   8
ATOM      8  C1  UNL d   1       0.297  -1.849  -0.195  0.00  0.00     0.053 C 
ATOM      9  C   UNL d   1      -0.555  -2.659  -1.159  0.00  0.00     0.018 C 
ENDBRANCH   1   8
TORSDOF 1
ENDMDL
