MODEL 1
REMARK minimizedAffinity -5.48860979
REMARK minimizedRMSD -1
REMARK  1 active torsions:
REMARK  status: ('A' for Active; 'I' for Inactive)
REMARK    1  A    between atoms: C1_2  and  C2_3 
ROOT
ATOM      1  C2  UNL d   1       1.015   0.209   0.665  0.00  0.00    -0.073 A 
ATOM      2  C3  UNL d   1       2.389   0.097   0.910  0.00  0.00    -0.002 A 
ATOM      3  C4  UNL d   1       3.226   1.202   0.751  0.00  0.00     0.004 A 
ATOM      4  C5  UNL d   1       2.699   2.430   0.352  0.00  0.00    -0.004 A 
ATOM      5  C6  UNL d   1       1.328   2.565   0.114  0.00  0.00    -0.075 A 
ATOM      6  C7  UNL d   1       0.746   3.879  -0.318  0.00  0.00     0.076 C 
ATOM      7  C8  UNL d   1       0.494   1.451   0.273  0.00  0.00     0.001 A 
ENDROOT
BRANCH   1   8
ATOM      8  C1  UNL d   1       0.106  -0.979   0.842  0.00  0.00     0.053 C 
ATOM      9  C   UNL d   1      -0.223  -1.648  -0.484  0.00  0.00     0.018 C 
ENDBRANCH   1   8
TORSDOF 1
ENDMDL
