MODEL 1
REMARK minimizedAffinity -2.69180751
REMARK minimizedRMSD -1
REMARK  1 active torsions:
REMARK  status: ('A' for Active; 'I' for Inactive)
REMARK    1  A    between atoms: C1_2  and  C2_3 
ROOT
ATOM      1  C2  UNL d   1       1.441   1.531  -0.002  0.00  0.00    -0.073 A 
ATOM      2  C3  UNL d   1       1.008   2.861  -0.046  0.00  0.00    -0.002 A 
ATOM      3  C4  UNL d   1      -0.231   3.217   0.489  0.00  0.00     0.004 A 
ATOM      4  C5  UNL d   1      -1.045   2.250   1.079  0.00  0.00    -0.004 A 
ATOM      5  C6  UNL d   1      -0.624   0.917   1.143  0.00  0.00    -0.075 A 
ATOM      6  C7  UNL d   1      -1.488  -0.135   1.773  0.00  0.00     0.076 C 
ATOM      7  C8  UNL d   1       0.620   0.568   0.601  0.00  0.00     0.001 A 
ENDROOT
BRANCH   1   8
ATOM      8  C1  UNL d   1       2.781   1.144  -0.573  0.00  0.00     0.053 C 
ATOM      9  C   UNL d   1       3.495   0.119   0.294  0.00  0.00     0.018 C 
ENDBRANCH   1   8
TORSDOF 1
ENDMDL
