MODEL 1
REMARK minimizedAffinity -2.91684604
REMARK minimizedRMSD -1
REMARK  1 active torsions:
REMARK  status: ('A' for Active; 'I' for Inactive)
REMARK    1  A    between atoms: C1_2  and  C2_3 
ROOT
ATOM      1  C2  UNL d   1      -0.054  -1.639  -0.748  0.00  0.00    -0.073 A 
ATOM      2  C3  UNL d   1       0.683  -2.043  -1.867  0.00  0.00    -0.002 A 
ATOM      3  C4  UNL d   1       0.116  -2.898  -2.813  0.00  0.00     0.004 A 
ATOM      4  C5  UNL d   1      -1.193  -3.352  -2.654  0.00  0.00    -0.004 A 
ATOM      5  C6  UNL d   1      -1.949  -2.950  -1.548  0.00  0.00    -0.075 A 
ATOM      6  C7  UNL d   1      -3.358  -3.431  -1.361  0.00  0.00     0.076 C 
ATOM      7  C8  UNL d   1      -1.372  -2.093  -0.601  0.00  0.00     0.001 A 
ENDROOT
BRANCH   1   8
ATOM      8  C1  UNL d   1       0.552  -0.710   0.272  0.00  0.00     0.053 C 
ATOM      9  C   UNL d   1      -0.225   0.592   0.390  0.00  0.00     0.018 C 
ENDBRANCH   1   8
TORSDOF 1
ENDMDL
