MODEL 1
REMARK minimizedAffinity 0.744194508
REMARK minimizedRMSD -1
REMARK  1 active torsions:
REMARK  status: ('A' for Active; 'I' for Inactive)
REMARK    1  A    between atoms: C1_2  and  C2_3 
ROOT
ATOM      1  C2  UNL d   1      -0.952  -0.037  -0.642  0.00  0.00    -0.073 A 
ATOM      2  C3  UNL d   1      -1.538   1.074  -0.025  0.00  0.00    -0.002 A 
ATOM      3  C4  UNL d   1      -0.800   1.856   0.866  0.00  0.00     0.004 A 
ATOM      4  C5  UNL d   1       0.529   1.539   1.143  0.00  0.00    -0.004 A 
ATOM      5  C6  UNL d   1       1.136   0.439   0.528  0.00  0.00    -0.075 A 
ATOM      6  C7  UNL d   1       2.564   0.083   0.817  0.00  0.00     0.076 C 
ATOM      7  C8  UNL d   1       0.388  -0.343  -0.364  0.00  0.00     0.001 A 
ENDROOT
BRANCH   1   8
ATOM      8  C1  UNL d   1      -1.743  -0.880  -1.609  0.00  0.00     0.053 C 
ATOM      9  C   UNL d   1      -1.192  -2.294  -1.715  0.00  0.00     0.018 C 
ENDBRANCH   1   8
TORSDOF 1
ENDMDL
