MODEL 1
REMARK minimizedAffinity -4.53494787
REMARK minimizedRMSD -1
REMARK  1 active torsions:
REMARK  status: ('A' for Active; 'I' for Inactive)
REMARK    1  A    between atoms: C1_2  and  C2_3 
ROOT
ATOM      1  C2  UNL d   1       0.848   0.012   0.533  0.00  0.00    -0.073 A 
ATOM      2  C3  UNL d   1      -0.419  -0.246   1.070  0.00  0.00    -0.002 A 
ATOM      3  C4  UNL d   1      -1.405   0.741   1.057  0.00  0.00     0.004 A 
ATOM      4  C5  UNL d   1      -1.139   1.992   0.501  0.00  0.00    -0.004 A 
ATOM      5  C6  UNL d   1       0.117   2.266  -0.051  0.00  0.00    -0.075 A 
ATOM      6  C7  UNL d   1       0.420   3.607  -0.650  0.00  0.00     0.076 C 
ATOM      7  C8  UNL d   1       1.103   1.270  -0.031  0.00  0.00     0.001 A 
ENDROOT
BRANCH   1   8
ATOM      8  C1  UNL d   1       1.914  -1.052   0.540  0.00  0.00     0.053 C 
ATOM      9  C   UNL d   1       3.291  -0.478   0.829  0.00  0.00     0.018 C 
ENDBRANCH   1   8
TORSDOF 1
ENDMDL
