MODEL 1
REMARK minimizedAffinity -2.18642569
REMARK minimizedRMSD -1
REMARK  1 active torsions:
REMARK  status: ('A' for Active; 'I' for Inactive)
REMARK    1  A    between atoms: C1_2  and  C2_3 
ROOT
ATOM      1  C2  UNL d   1      -0.068   1.429   0.461  0.00  0.00    -0.073 A 
ATOM      2  C3  UNL d   1      -1.184   0.584   0.424  0.00  0.00    -0.002 A 
ATOM      3  C4  UNL d   1      -1.018  -0.797   0.311  0.00  0.00     0.004 A 
ATOM      4  C5  UNL d   1       0.261  -1.347   0.243  0.00  0.00    -0.004 A 
ATOM      5  C6  UNL d   1       1.388  -0.521   0.291  0.00  0.00    -0.075 A 
ATOM      6  C7  UNL d   1       2.772  -1.097   0.216  0.00  0.00     0.076 C 
ATOM      7  C8  UNL d   1       1.214   0.865   0.401  0.00  0.00     0.001 A 
ENDROOT
BRANCH   1   8
ATOM      8  C1  UNL d   1      -0.242   2.920   0.589  0.00  0.00     0.053 C 
ATOM      9  C   UNL d   1      -0.755   3.319   1.963  0.00  0.00     0.018 C 
ENDBRANCH   1   8
TORSDOF 1
ENDMDL
