MODEL 1
REMARK minimizedAffinity -0.431504786
REMARK minimizedRMSD -1
REMARK  1 active torsions:
REMARK  status: ('A' for Active; 'I' for Inactive)
REMARK    1  A    between atoms: C1_2  and  C2_3 
ROOT
ATOM      1  C2  UNL d   1       0.880   1.205   0.896  0.00  0.00    -0.073 A 
ATOM      2  C3  UNL d   1      -0.061   2.236   1.006  0.00  0.00    -0.002 A 
ATOM      3  C4  UNL d   1      -1.401   2.003   0.698  0.00  0.00     0.004 A 
ATOM      4  C5  UNL d   1      -1.816   0.737   0.283  0.00  0.00    -0.004 A 
ATOM      5  C6  UNL d   1      -0.894  -0.309   0.178  0.00  0.00    -0.075 A 
ATOM      6  C7  UNL d   1      -1.324  -1.675  -0.268  0.00  0.00     0.076 C 
ATOM      7  C8  UNL d   1       0.451  -0.066   0.487  0.00  0.00     0.001 A 
ENDROOT
BRANCH   1   8
ATOM      8  C1  UNL d   1       2.328   1.451   1.234  0.00  0.00     0.053 C 
ATOM      9  C   UNL d   1       3.220   0.306   0.782  0.00  0.00     0.018 C 
ENDBRANCH   1   8
TORSDOF 1
ENDMDL
