MODEL 1
REMARK minimizedAffinity -1.52776659
REMARK minimizedRMSD -1
REMARK  0 active torsions:
REMARK  status: ('A' for Active; 'I' for Inactive)
ROOT
ATOM      1  C   UNL d   1      -4.524  -4.886  -2.465  0.00  0.00     0.172 C 
ATOM      2  N   UNL d   1      -4.959  -4.998  -3.838  0.00  0.00    -0.070 N 
ATOM      3  C1  UNL d   1      -4.645  -4.130  -4.849  0.00  0.00    -0.004 A 
ATOM      4  C2  UNL d   1      -5.251  -4.585  -6.000  0.00  0.00    -0.047 A 
ATOM      5  C3  UNL d   1      -5.955  -5.767  -5.669  0.00  0.00    -0.047 A 
ATOM      6  C4  UNL d   1      -5.757  -6.000  -4.324  0.00  0.00    -0.004 A 
ENDROOT
TORSDOF 0
ENDMDL
