MODEL 1
REMARK minimizedAffinity 0.82854414
REMARK minimizedRMSD -1
REMARK  0 active torsions:
REMARK  status: ('A' for Active; 'I' for Inactive)
ROOT
ATOM      1  C   UNL d   1      -5.732  -4.492  -2.482  0.00  0.00     0.172 C 
ATOM      2  N   UNL d   1      -5.537  -4.846  -3.869  0.00  0.00    -0.070 N 
ATOM      3  C1  UNL d   1      -4.871  -4.093  -4.799  0.00  0.00    -0.004 A 
ATOM      4  C2  UNL d   1      -4.906  -4.774  -5.996  0.00  0.00    -0.047 A 
ATOM      5  C3  UNL d   1      -5.618  -5.977  -5.779  0.00  0.00    -0.047 A 
ATOM      6  C4  UNL d   1      -5.997  -5.996  -4.453  0.00  0.00    -0.004 A 
ENDROOT
TORSDOF 0
ENDMDL
