MODEL 1
REMARK minimizedAffinity 1.60013127
REMARK minimizedRMSD -1
REMARK  0 active torsions:
REMARK  status: ('A' for Active; 'I' for Inactive)
ROOT
ATOM      1  C   UNL d   1       5.917   5.999  -0.391  0.00  0.00     0.172 C 
ATOM      2  N   UNL d   1       5.134   5.933  -1.602  0.00  0.00    -0.070 N 
ATOM      3  C1  UNL d   1       3.773   5.797  -1.666  0.00  0.00    -0.004 A 
ATOM      4  C2  UNL d   1       3.413   5.775  -2.997  0.00  0.00    -0.047 A 
ATOM      5  C3  UNL d   1       4.599   5.903  -3.758  0.00  0.00    -0.047 A 
ATOM      6  C4  UNL d   1       5.649   5.999  -2.870  0.00  0.00    -0.004 A 
ENDROOT
TORSDOF 0
ENDMDL
