MODEL 1
REMARK minimizedAffinity -2.27468991
REMARK minimizedRMSD -1
REMARK  0 active torsions:
REMARK  status: ('A' for Active; 'I' for Inactive)
ROOT
ATOM      1  C   UNL d   1      -5.251  -4.876  -2.453  0.00  0.00     0.172 C 
ATOM      2  N   UNL d   1      -5.181  -4.865  -3.895  0.00  0.00    -0.070 N 
ATOM      3  C1  UNL d   1      -4.875  -5.939  -4.688  0.00  0.00    -0.004 A 
ATOM      4  C2  UNL d   1      -4.914  -5.519  -6.000  0.00  0.00    -0.047 A 
ATOM      5  C3  UNL d   1      -5.255  -4.146  -5.996  0.00  0.00    -0.047 A 
ATOM      6  C4  UNL d   1      -5.415  -3.766  -4.680  0.00  0.00    -0.004 A 
ENDROOT
TORSDOF 0
ENDMDL
