MODEL 1
REMARK minimizedAffinity -3.14249921
REMARK minimizedRMSD -1
REMARK  0 active torsions:
REMARK  status: ('A' for Active; 'I' for Inactive)
ROOT
ATOM      1  C   UNL d   1      -5.229  -4.535  -5.925  0.00  0.00     0.172 C 
ATOM      2  N   UNL d   1      -5.324  -4.895  -4.530  0.00  0.00    -0.070 N 
ATOM      3  C1  UNL d   1      -4.758  -6.000  -3.951  0.00  0.00    -0.004 A 
ATOM      4  C2  UNL d   1      -5.078  -5.984  -2.610  0.00  0.00    -0.047 A 
ATOM      5  C3  UNL d   1      -5.863  -4.830  -2.376  0.00  0.00    -0.047 A 
ATOM      6  C4  UNL d   1      -6.000  -4.175  -3.581  0.00  0.00    -0.004 A 
ENDROOT
TORSDOF 0
ENDMDL
