MODEL 1
REMARK minimizedAffinity -3.79701447
REMARK minimizedRMSD -1
REMARK  0 active torsions:
REMARK  status: ('A' for Active; 'I' for Inactive)
ROOT
ATOM      1  C   UNL d   1      -5.250  -5.987  -2.420  0.00  0.00     0.172 C 
ATOM      2  N   UNL d   1      -5.359  -5.353  -3.713  0.00  0.00    -0.070 N 
ATOM      3  C1  UNL d   1      -5.621  -4.027  -3.932  0.00  0.00    -0.004 A 
ATOM      4  C2  UNL d   1      -5.642  -3.822  -5.295  0.00  0.00    -0.047 A 
ATOM      5  C3  UNL d   1      -5.386  -5.067  -5.916  0.00  0.00    -0.047 A 
ATOM      6  C4  UNL d   1      -5.214  -5.998  -4.913  0.00  0.00    -0.004 A 
ENDROOT
TORSDOF 0
ENDMDL
