MODEL 1
REMARK minimizedAffinity -2.50347424
REMARK minimizedRMSD -1
REMARK  0 active torsions:
REMARK  status: ('A' for Active; 'I' for Inactive)
ROOT
ATOM      1  C   UNL d   1      -5.561  -3.797  -5.891  0.00  0.00     0.172 C 
ATOM      2  N   UNL d   1      -5.634  -4.439  -4.600  0.00  0.00    -0.070 N 
ATOM      3  C1  UNL d   1      -5.985  -3.830  -3.425  0.00  0.00    -0.004 A 
ATOM      4  C2  UNL d   1      -5.934  -4.779  -2.426  0.00  0.00    -0.047 A 
ATOM      5  C3  UNL d   1      -5.538  -6.000  -3.022  0.00  0.00    -0.047 A 
ATOM      6  C4  UNL d   1      -5.358  -5.761  -4.368  0.00  0.00    -0.004 A 
ENDROOT
TORSDOF 0
ENDMDL
