MODEL 1
REMARK minimizedAffinity -2.83674645
REMARK minimizedRMSD -1
REMARK  0 active torsions:
REMARK  status: ('A' for Active; 'I' for Inactive)
ROOT
ATOM      1  C   UNL d   1      -5.865  -4.477  -5.694  0.00  0.00     0.172 C 
ATOM      2  N   UNL d   1      -5.707  -4.807  -4.297  0.00  0.00    -0.070 N 
ATOM      3  C1  UNL d   1      -5.248  -6.000  -3.805  0.00  0.00    -0.004 A 
ATOM      4  C2  UNL d   1      -5.246  -5.916  -2.429  0.00  0.00    -0.047 A 
ATOM      5  C3  UNL d   1      -5.721  -4.629  -2.082  0.00  0.00    -0.047 A 
ATOM      6  C4  UNL d   1      -5.999  -3.964  -3.257  0.00  0.00    -0.004 A 
ENDROOT
TORSDOF 0
ENDMDL
