MODEL 1
REMARK minimizedAffinity -3.24555659
REMARK minimizedRMSD -1
REMARK  0 active torsions:
REMARK  status: ('A' for Active; 'I' for Inactive)
ROOT
ATOM      1  C   UNL d   1      -4.500  -5.758  -6.000  0.00  0.00     0.172 C 
ATOM      2  N   UNL d   1      -4.829  -5.331  -4.660  0.00  0.00    -0.070 N 
ATOM      3  C1  UNL d   1      -4.505  -5.996  -3.508  0.00  0.00    -0.004 A 
ATOM      4  C2  UNL d   1      -4.995  -5.266  -2.447  0.00  0.00    -0.047 A 
ATOM      5  C3  UNL d   1      -5.636  -4.123  -2.980  0.00  0.00    -0.047 A 
ATOM      6  C4  UNL d   1      -5.519  -4.188  -4.352  0.00  0.00    -0.004 A 
ENDROOT
TORSDOF 0
ENDMDL
