MODEL 1
REMARK minimizedAffinity -1.98254955
REMARK minimizedRMSD -1
REMARK  1 active torsions:
REMARK  status: ('A' for Active; 'I' for Inactive)
REMARK    1  A    between atoms: C1_2  and  C2_3 
ROOT
ATOM      1  C2  UNL d   1       2.047  -3.456   0.687  0.00  0.00    -0.073 A 
ATOM      2  C3  UNL d   1       2.201  -2.082   0.470  0.00  0.00    -0.002 A 
ATOM      3  C4  UNL d   1       1.233  -1.184   0.921  0.00  0.00     0.004 A 
ATOM      4  C5  UNL d   1       0.106  -1.649   1.599  0.00  0.00    -0.004 A 
ATOM      5  C6  UNL d   1      -0.060  -3.017   1.837  0.00  0.00    -0.075 A 
ATOM      6  C7  UNL d   1      -1.267  -3.533   2.563  0.00  0.00     0.076 C 
ATOM      7  C8  UNL d   1       0.915  -3.913   1.378  0.00  0.00     0.001 A 
ENDROOT
BRANCH   1   8
ATOM      8  C1  UNL d   1       3.093  -4.429   0.207  0.00  0.00     0.053 C 
ATOM      9  C   UNL d   1       4.503  -3.922   0.462  0.00  0.00     0.018 C 
ENDBRANCH   1   8
TORSDOF 1
ENDMDL
