MODEL 1
REMARK minimizedAffinity 2.18114495
REMARK minimizedRMSD -1
REMARK  1 active torsions:
REMARK  status: ('A' for Active; 'I' for Inactive)
REMARK    1  A    between atoms: C1_2  and  C2_3 
ROOT
ATOM      1  C2  UNL d   1      -0.004  -1.336   0.805  0.00  0.00    -0.073 A 
ATOM      2  C3  UNL d   1       0.838  -0.801  -0.177  0.00  0.00    -0.002 A 
ATOM      3  C4  UNL d   1       1.938  -1.528  -0.635  0.00  0.00     0.004 A 
ATOM      4  C5  UNL d   1       2.203  -2.797  -0.122  0.00  0.00    -0.004 A 
ATOM      5  C6  UNL d   1       1.367  -3.354   0.851  0.00  0.00    -0.075 A 
ATOM      6  C7  UNL d   1       1.640  -4.718   1.415  0.00  0.00     0.076 C 
ATOM      7  C8  UNL d   1       0.266  -2.617   1.308  0.00  0.00     0.001 A 
ENDROOT
BRANCH   1   8
ATOM      8  C1  UNL d   1      -1.196  -0.558   1.298  0.00  0.00     0.053 C 
ATOM      9  C   UNL d   1      -2.010   0.025   0.154  0.00  0.00     0.018 C 
ENDBRANCH   1   8
TORSDOF 1
ENDMDL
