MODEL 1
REMARK minimizedAffinity 3.85371089
REMARK minimizedRMSD -1
REMARK  1 active torsions:
REMARK  status: ('A' for Active; 'I' for Inactive)
REMARK    1  A    between atoms: C1_2  and  C2_3 
ROOT
ATOM      1  C2  UNL d   1       0.971  -2.194   0.867  0.00  0.00    -0.073 A 
ATOM      2  C3  UNL d   1       1.436  -1.158   1.685  0.00  0.00    -0.002 A 
ATOM      3  C4  UNL d   1       0.569  -0.149   2.106  0.00  0.00     0.004 A 
ATOM      4  C5  UNL d   1      -0.771  -0.168   1.719  0.00  0.00    -0.004 A 
ATOM      5  C6  UNL d   1      -1.257  -1.201   0.912  0.00  0.00    -0.075 A 
ATOM      6  C7  UNL d   1      -2.696  -1.236   0.485  0.00  0.00     0.076 C 
ATOM      7  C8  UNL d   1      -0.380  -2.210   0.491  0.00  0.00     0.001 A 
ENDROOT
BRANCH   1   8
ATOM      8  C1  UNL d   1       1.902  -3.289   0.416  0.00  0.00     0.053 C 
ATOM      9  C   UNL d   1       2.837  -3.737   1.528  0.00  0.00     0.018 C 
ENDBRANCH   1   8
TORSDOF 1
ENDMDL
