MODEL 1
REMARK minimizedAffinity 9.21386147
REMARK minimizedRMSD -1
REMARK  1 active torsions:
REMARK  status: ('A' for Active; 'I' for Inactive)
REMARK    1  A    between atoms: C1_2  and  C2_3 
ROOT
ATOM      1  C2  UNL d   1       1.721  -2.434   0.598  0.00  0.00    -0.073 A 
ATOM      2  C3  UNL d   1       0.413  -2.915   0.726  0.00  0.00    -0.002 A 
ATOM      3  C4  UNL d   1      -0.557  -2.156   1.382  0.00  0.00     0.004 A 
ATOM      4  C5  UNL d   1      -0.232  -0.906   1.909  0.00  0.00    -0.004 A 
ATOM      5  C6  UNL d   1       1.067  -0.403   1.781  0.00  0.00    -0.075 A 
ATOM      6  C7  UNL d   1       1.433   0.939   2.345  0.00  0.00     0.076 C 
ATOM      7  C8  UNL d   1       2.036  -1.173   1.123  0.00  0.00     0.001 A 
ENDROOT
BRANCH   1   8
ATOM      8  C1  UNL d   1       2.769  -3.247  -0.115  0.00  0.00     0.053 C 
ATOM      9  C   UNL d   1       2.844  -4.671   0.414  0.00  0.00     0.018 C 
ENDBRANCH   1   8
TORSDOF 1
ENDMDL
