MODEL 1
REMARK minimizedAffinity 1.94500709
REMARK minimizedRMSD -1
REMARK  1 active torsions:
REMARK  status: ('A' for Active; 'I' for Inactive)
REMARK    1  A    between atoms: C1_2  and  C2_3 
ROOT
ATOM      1  C2  UNL d   1       1.875  -3.286   1.447  0.00  0.00    -0.073 A 
ATOM      2  C3  UNL d   1       1.853  -2.235   0.524  0.00  0.00    -0.002 A 
ATOM      3  C4  UNL d   1       0.761  -1.369   0.467  0.00  0.00     0.004 A 
ATOM      4  C5  UNL d   1      -0.316  -1.540   1.337  0.00  0.00    -0.004 A 
ATOM      5  C6  UNL d   1      -0.308  -2.577   2.275  0.00  0.00    -0.075 A 
ATOM      6  C7  UNL d   1      -1.460  -2.775   3.216  0.00  0.00     0.076 C 
ATOM      7  C8  UNL d   1       0.792  -3.444   2.324  0.00  0.00     0.001 A 
ENDROOT
BRANCH   1   8
ATOM      8  C1  UNL d   1       3.055  -4.221   1.516  0.00  0.00     0.053 C 
ATOM      9  C   UNL d   1       3.920  -4.140   0.268  0.00  0.00     0.018 C 
ENDBRANCH   1   8
TORSDOF 1
ENDMDL
