MODEL 1
REMARK minimizedAffinity 3.54896998
REMARK minimizedRMSD -1
REMARK  1 active torsions:
REMARK  status: ('A' for Active; 'I' for Inactive)
REMARK    1  A    between atoms: C1_2  and  C2_3 
ROOT
ATOM      1  C2  UNL d   1       1.441  -2.551   0.647  0.00  0.00    -0.073 A 
ATOM      2  C3  UNL d   1       1.265  -1.176   0.459  0.00  0.00    -0.002 A 
ATOM      3  C4  UNL d   1       0.228  -0.503   1.106  0.00  0.00     0.004 A 
ATOM      4  C5  UNL d   1      -0.639  -1.195   1.952  0.00  0.00    -0.004 A 
ATOM      5  C6  UNL d   1      -0.472  -2.568   2.162  0.00  0.00    -0.075 A 
ATOM      6  C7  UNL d   1      -1.396  -3.328   3.067  0.00  0.00     0.076 C 
ATOM      7  C8  UNL d   1       0.571  -3.237   1.507  0.00  0.00     0.001 A 
ENDROOT
BRANCH   1   8
ATOM      8  C1  UNL d   1       2.563  -3.281  -0.044  0.00  0.00     0.053 C 
ATOM      9  C   UNL d   1       3.132  -4.399   0.817  0.00  0.00     0.018 C 
ENDBRANCH   1   8
TORSDOF 1
ENDMDL
