MODEL 1
REMARK minimizedAffinity 0.521780491
REMARK minimizedRMSD -1
REMARK  2 active torsions:
REMARK  status: ('A' for Active; 'I' for Inactive)
REMARK    1  A    between atoms: C1_2  and  C2_3 
REMARK    2  A    between atoms: C2_3  and  C3_4 
ROOT
ATOM      1  C3  UNL d   1      -0.624  -2.825  -4.853  0.00  0.00    -0.075 A 
ATOM      2  C4  UNL d   1      -1.291  -2.597  -3.641  0.00  0.00     0.002 A 
ATOM      3  C5  UNL d   1      -1.025  -1.453  -2.890  0.00  0.00     0.002 A 
ATOM      4  C6  UNL d   1      -0.082  -0.528  -3.334  0.00  0.00    -0.004 A 
ATOM      5  C7  UNL d   1       0.599  -0.752  -4.529  0.00  0.00     0.002 A 
ATOM      6  C8  UNL d   1       0.330  -1.894  -5.285  0.00  0.00     0.002 A 
ENDROOT
BRANCH   1   7
ATOM      7  C2  UNL d   1      -0.929  -4.047  -5.686  0.00  0.00     0.056 C 
BRANCH   7   8
ATOM      8  C1  UNL d   1      -2.180  -4.811  -5.237  0.00  0.00     0.007 C 
ATOM      9  C   UNL d   1      -3.437  -4.402  -5.994  0.00  0.00     0.009 C 
ENDBRANCH   7   8
ENDBRANCH   1   7
TORSDOF 2
ENDMDL
