MODEL 1
REMARK minimizedAffinity 3.03816032
REMARK minimizedRMSD -1
REMARK  2 active torsions:
REMARK  status: ('A' for Active; 'I' for Inactive)
REMARK    1  A    between atoms: C1_2  and  C2_3 
REMARK    2  A    between atoms: C2_3  and  C3_4 
ROOT
ATOM      1  C3  UNL d   1      -0.415   1.628   2.483  0.00  0.00    -0.075 A 
ATOM      2  C4  UNL d   1       0.635   1.370   3.377  0.00  0.00     0.002 A 
ATOM      3  C5  UNL d   1       0.950   0.060   3.740  0.00  0.00     0.002 A 
ATOM      4  C6  UNL d   1       0.214  -1.005   3.226  0.00  0.00    -0.004 A 
ATOM      5  C7  UNL d   1      -0.842  -0.759   2.351  0.00  0.00     0.002 A 
ATOM      6  C8  UNL d   1      -1.156   0.550   1.981  0.00  0.00     0.002 A 
ENDROOT
BRANCH   1   7
ATOM      7  C2  UNL d   1      -0.741   3.041   2.063  0.00  0.00     0.056 C 
BRANCH   7   8
ATOM      8  C1  UNL d   1      -0.003   3.503   0.801  0.00  0.00     0.007 C 
ATOM      9  C   UNL d   1      -0.641   4.719   0.144  0.00  0.00     0.009 C 
ENDBRANCH   7   8
ENDBRANCH   1   7
TORSDOF 2
ENDMDL
