MODEL 1
REMARK minimizedAffinity 8.00340366
REMARK minimizedRMSD -1
REMARK  2 active torsions:
REMARK  status: ('A' for Active; 'I' for Inactive)
REMARK    1  A    between atoms: C1_2  and  C2_3 
REMARK    2  A    between atoms: C2_3  and  C3_4 
ROOT
ATOM      1  C3  UNL d   1       0.755  -2.054   3.710  0.00  0.00    -0.075 A 
ATOM      2  C4  UNL d   1       1.341  -0.886   4.220  0.00  0.00     0.002 A 
ATOM      3  C5  UNL d   1       1.137   0.341   3.589  0.00  0.00     0.002 A 
ATOM      4  C6  UNL d   1       0.356   0.416   2.438  0.00  0.00    -0.004 A 
ATOM      5  C7  UNL d   1      -0.217  -0.741   1.914  0.00  0.00     0.002 A 
ATOM      6  C8  UNL d   1      -0.019  -1.970   2.545  0.00  0.00     0.002 A 
ENDROOT
BRANCH   1   7
ATOM      7  C2  UNL d   1       0.946  -3.381   4.405  0.00  0.00     0.056 C 
BRANCH   7   8
ATOM      8  C1  UNL d   1       1.460  -3.263   5.844  0.00  0.00     0.007 C 
ATOM      9  C   UNL d   1       2.919  -3.672   5.996  0.00  0.00     0.009 C 
ENDBRANCH   7   8
ENDBRANCH   1   7
TORSDOF 2
ENDMDL
