MODEL 1
REMARK minimizedAffinity 13.8055172
REMARK minimizedRMSD -1
REMARK  2 active torsions:
REMARK  status: ('A' for Active; 'I' for Inactive)
REMARK    1  A    between atoms: C1_2  and  C2_3 
REMARK    2  A    between atoms: C2_3  and  C3_4 
ROOT
ATOM      1  C3  UNL d   1      -0.671  -0.963   2.501  0.00  0.00    -0.075 A 
ATOM      2  C4  UNL d   1      -0.195  -2.135   3.105  0.00  0.00     0.002 A 
ATOM      3  C5  UNL d   1       1.115  -2.206   3.581  0.00  0.00     0.002 A 
ATOM      4  C6  UNL d   1       1.967  -1.111   3.449  0.00  0.00    -0.004 A 
ATOM      5  C7  UNL d   1       1.509   0.053   2.835  0.00  0.00     0.002 A 
ATOM      6  C8  UNL d   1       0.198   0.128   2.363  0.00  0.00     0.002 A 
ENDROOT
BRANCH   1   7
ATOM      7  C2  UNL d   1      -2.097  -0.870   2.011  0.00  0.00     0.056 C 
BRANCH   7   8
ATOM      8  C1  UNL d   1      -2.823  -2.217   1.948  0.00  0.00     0.007 C 
ATOM      9  C   UNL d   1      -3.903  -2.368   3.011  0.00  0.00     0.009 C 
ENDBRANCH   7   8
ENDBRANCH   1   7
TORSDOF 2
ENDMDL
