MODEL 1
REMARK minimizedAffinity 14.985322
REMARK minimizedRMSD -1
REMARK  2 active torsions:
REMARK  status: ('A' for Active; 'I' for Inactive)
REMARK    1  A    between atoms: C1_2  and  C2_3 
REMARK    2  A    between atoms: C2_3  and  C3_4 
ROOT
ATOM      1  C3  UNL d   1      -0.446  -1.568  -2.591  0.00  0.00    -0.075 A 
ATOM      2  C4  UNL d   1      -1.446  -1.728  -3.561  0.00  0.00     0.002 A 
ATOM      3  C5  UNL d   1      -1.264  -1.239  -4.854  0.00  0.00     0.002 A 
ATOM      4  C6  UNL d   1      -0.086  -0.576  -5.192  0.00  0.00    -0.004 A 
ATOM      5  C7  UNL d   1       0.908  -0.397  -4.232  0.00  0.00     0.002 A 
ATOM      6  C8  UNL d   1       0.730  -0.889  -2.938  0.00  0.00     0.002 A 
ENDROOT
BRANCH   1   7
ATOM      7  C2  UNL d   1      -0.625  -2.121  -1.197  0.00  0.00     0.056 C 
BRANCH   7   8
ATOM      8  C1  UNL d   1       0.573  -1.881  -0.272  0.00  0.00     0.007 C 
ATOM      9  C   UNL d   1       0.178  -1.317   1.086  0.00  0.00     0.009 C 
ENDBRANCH   7   8
ENDBRANCH   1   7
TORSDOF 2
ENDMDL
