MODEL 1
REMARK minimizedAffinity 5.32869005
REMARK minimizedRMSD -1
REMARK  3 active torsions:
REMARK  status: ('A' for Active; 'I' for Inactive)
REMARK    1  A    between atoms: C3'_2  and  C2'_3 
REMARK    2  A    between atoms: C2'_3  and  C1'_4 
REMARK    3  A    between atoms: C1'_4  and  C1_5 
ROOT
ATOM      1  C1  N4B d   1      -1.031  -2.048  -0.741  0.00  0.00    -0.075 A 
ATOM      2  C2  N4B d   1      -1.769  -2.716   0.262  0.00  0.00     0.002 A 
ATOM      3  C3  N4B d   1      -1.769  -2.235   1.548  0.00  0.00     0.002 A 
ATOM      4  C4  N4B d   1      -1.027  -1.106   1.859  0.00  0.00    -0.004 A 
ATOM      5  C5  N4B d   1      -0.337  -0.452   0.879  0.00  0.00     0.002 A 
ATOM      6  C6  N4B d   1      -0.332  -0.921  -0.419  0.00  0.00     0.002 A 
ENDROOT
BRANCH   1   7
ATOM      7  C1' N4B d   1      -0.932  -2.584  -2.143  0.00  0.00     0.057 C 
BRANCH   7   8
ATOM      8  C2' N4B d   1      -1.944  -3.712  -2.321  0.00  0.00     0.009 C 
BRANCH   8   9
ATOM      9  C3' N4B d   1      -1.644  -4.556  -3.548  0.00  0.00     0.004 C 
ATOM     10  C4' N4B d   1      -2.015  -5.998  -3.365  0.00  0.00     0.003 C 
ENDBRANCH   8   9
ENDBRANCH   7   8
ENDBRANCH   1   7
TORSDOF 3
ENDMDL
