MODEL 1
REMARK minimizedAffinity -5.23392773
REMARK minimizedRMSD -1
REMARK  3 active torsions:
REMARK  status: ('A' for Active; 'I' for Inactive)
REMARK    1  A    between atoms: C3'_2  and  C2'_3 
REMARK    2  A    between atoms: C2'_3  and  C1'_4 
REMARK    3  A    between atoms: C1'_4  and  C1_5 
ROOT
ATOM      1  C1  N4B d   1       0.806   1.352   0.244  0.00  0.00    -0.075 A 
ATOM      2  C2  N4B d   1       2.213   1.472   0.227  0.00  0.00     0.002 A 
ATOM      3  C3  N4B d   1       2.801   2.695   0.440  0.00  0.00     0.002 A 
ATOM      4  C4  N4B d   1       2.005   3.810   0.654  0.00  0.00    -0.004 A 
ATOM      5  C5  N4B d   1       0.647   3.681   0.695  0.00  0.00     0.002 A 
ATOM      6  C6  N4B d   1       0.043   2.458   0.486  0.00  0.00     0.002 A 
ENDROOT
BRANCH   1   7
ATOM      7  C1' N4B d   1       0.116   0.053  -0.069  0.00  0.00     0.057 C 
BRANCH   7   8
ATOM      8  C2' N4B d   1      -0.720  -0.373   1.134  0.00  0.00     0.009 C 
BRANCH   8   9
ATOM      9  C3' N4B d   1      -0.623  -1.867   1.393  0.00  0.00     0.004 C 
ATOM     10  C4' N4B d   1      -0.879  -2.688   0.164  0.00  0.00     0.003 C 
ENDBRANCH   8   9
ENDBRANCH   7   8
ENDBRANCH   1   7
TORSDOF 3
ENDMDL
