MODEL 1
REMARK minimizedAffinity -1.42989016
REMARK minimizedRMSD -1
REMARK  3 active torsions:
REMARK  status: ('A' for Active; 'I' for Inactive)
REMARK    1  A    between atoms: C3'_2  and  C2'_3 
REMARK    2  A    between atoms: C2'_3  and  C1'_4 
REMARK    3  A    between atoms: C1'_4  and  C1_5 
ROOT
ATOM      1  C1  N4B d   1      -0.304   0.299   0.281  0.00  0.00    -0.075 A 
ATOM      2  C2  N4B d   1      -0.729  -0.402   1.430  0.00  0.00     0.002 A 
ATOM      3  C3  N4B d   1      -1.088  -1.725   1.334  0.00  0.00     0.002 A 
ATOM      4  C4  N4B d   1      -1.048  -2.358   0.101  0.00  0.00    -0.004 A 
ATOM      5  C5  N4B d   1      -0.611  -1.680  -1.000  0.00  0.00     0.002 A 
ATOM      6  C6  N4B d   1      -0.244  -0.352  -0.917  0.00  0.00     0.002 A 
ENDROOT
BRANCH   1   7
ATOM      7  C1' N4B d   1       0.016   1.769   0.321  0.00  0.00     0.057 C 
BRANCH   7   8
ATOM      8  C2' N4B d   1       1.288   1.982   1.136  0.00  0.00     0.009 C 
BRANCH   8   9
ATOM      9  C3' N4B d   1       1.913   3.341   0.868  0.00  0.00     0.004 C 
ATOM     10  C4' N4B d   1       3.359   3.249   0.482  0.00  0.00     0.003 C 
ENDBRANCH   8   9
ENDBRANCH   7   8
ENDBRANCH   1   7
TORSDOF 3
ENDMDL
