MODEL 1
REMARK minimizedAffinity 1.49370646
REMARK minimizedRMSD -1
REMARK  3 active torsions:
REMARK  status: ('A' for Active; 'I' for Inactive)
REMARK    1  A    between atoms: C3'_2  and  C2'_3 
REMARK    2  A    between atoms: C2'_3  and  C1'_4 
REMARK    3  A    between atoms: C1'_4  and  C1_5 
ROOT
ATOM      1  C1  N4B d   1      -1.241   0.223  -0.187  0.00  0.00    -0.075 A 
ATOM      2  C2  N4B d   1      -1.246  -1.145   0.163  0.00  0.00     0.002 A 
ATOM      3  C3  N4B d   1      -0.326  -2.000  -0.393  0.00  0.00     0.002 A 
ATOM      4  C4  N4B d   1       0.593  -1.515  -1.312  0.00  0.00    -0.004 A 
ATOM      5  C5  N4B d   1       0.607  -0.187  -1.626  0.00  0.00     0.002 A 
ATOM      6  C6  N4B d   1      -0.309   0.684  -1.071  0.00  0.00     0.002 A 
ENDROOT
BRANCH   1   7
ATOM      7  C1' N4B d   1      -2.282   1.179   0.329  0.00  0.00     0.057 C 
BRANCH   7   8
ATOM      8  C2' N4B d   1      -2.942   0.579   1.567  0.00  0.00     0.009 C 
BRANCH   8   9
ATOM      9  C3' N4B d   1      -4.371   1.065   1.740  0.00  0.00     0.004 C 
ATOM     10  C4' N4B d   1      -4.623   1.655   3.096  0.00  0.00     0.003 C 
ENDBRANCH   8   9
ENDBRANCH   7   8
ENDBRANCH   1   7
TORSDOF 3
ENDMDL
