MODEL 1
REMARK minimizedAffinity -4.34074116
REMARK minimizedRMSD -1
REMARK  3 active torsions:
REMARK  status: ('A' for Active; 'I' for Inactive)
REMARK    1  A    between atoms: C3'_2  and  C2'_3 
REMARK    2  A    between atoms: C2'_3  and  C1'_4 
REMARK    3  A    between atoms: C1'_4  and  C1_5 
ROOT
ATOM      1  C1  N4B d   1       0.026   0.176   0.559  0.00  0.00    -0.075 A 
ATOM      2  C2  N4B d   1      -0.669  -0.750  -0.249  0.00  0.00     0.002 A 
ATOM      3  C3  N4B d   1      -1.406  -1.753   0.334  0.00  0.00     0.002 A 
ATOM      4  C4  N4B d   1      -1.446  -1.859   1.716  0.00  0.00    -0.004 A 
ATOM      5  C5  N4B d   1      -0.792  -0.945   2.489  0.00  0.00     0.002 A 
ATOM      6  C6  N4B d   1      -0.051   0.069   1.917  0.00  0.00     0.002 A 
ENDROOT
BRANCH   1   7
ATOM      7  C1' N4B d   1       0.914   1.236  -0.033  0.00  0.00     0.057 C 
BRANCH   7   8
ATOM      8  C2' N4B d   1       0.297   2.608   0.226  0.00  0.00     0.009 C 
BRANCH   8   9
ATOM      9  C3' N4B d   1       1.343   3.638   0.614  0.00  0.00     0.004 C 
ATOM     10  C4' N4B d   1       2.745   3.145   0.414  0.00  0.00     0.003 C 
ENDBRANCH   8   9
ENDBRANCH   7   8
ENDBRANCH   1   7
TORSDOF 3
ENDMDL
