MODEL 1
REMARK minimizedAffinity -5.01899004
REMARK minimizedRMSD -1
REMARK  3 active torsions:
REMARK  status: ('A' for Active; 'I' for Inactive)
REMARK    1  A    between atoms: C3'_2  and  C2'_3 
REMARK    2  A    between atoms: C2'_3  and  C1'_4 
REMARK    3  A    between atoms: C1'_4  and  C1_5 
ROOT
ATOM      1  C1  N4B d   1      -0.378  -0.119  -0.351  0.00  0.00    -0.075 A 
ATOM      2  C2  N4B d   1      -0.812  -0.840   0.783  0.00  0.00     0.002 A 
ATOM      3  C3  N4B d   1      -1.002  -2.198   0.702  0.00  0.00     0.002 A 
ATOM      4  C4  N4B d   1      -0.783  -2.851  -0.501  0.00  0.00    -0.004 A 
ATOM      5  C5  N4B d   1      -0.339  -2.151  -1.585  0.00  0.00     0.002 A 
ATOM      6  C6  N4B d   1      -0.140  -0.787  -1.518  0.00  0.00     0.002 A 
ENDROOT
BRANCH   1   7
ATOM      7  C1' N4B d   1      -0.239   1.378  -0.335  0.00  0.00     0.057 C 
BRANCH   7   8
ATOM      8  C2' N4B d   1       1.067   1.753   0.359  0.00  0.00     0.009 C 
BRANCH   8   9
ATOM      9  C3' N4B d   1       1.273   3.257   0.408  0.00  0.00     0.004 C 
ATOM     10  C4' N4B d   1       2.488   3.651   1.193  0.00  0.00     0.003 C 
ENDBRANCH   8   9
ENDBRANCH   7   8
ENDBRANCH   1   7
TORSDOF 3
ENDMDL
