MODEL 1
REMARK minimizedAffinity -3.86727333
REMARK minimizedRMSD -1
REMARK  3 active torsions:
REMARK  status: ('A' for Active; 'I' for Inactive)
REMARK    1  A    between atoms: C3'_2  and  C2'_3 
REMARK    2  A    between atoms: C2'_3  and  C1'_4 
REMARK    3  A    between atoms: C1'_4  and  C1_5 
ROOT
ATOM      1  C1  N4B d   1      -0.530  -0.111   0.036  0.00  0.00    -0.075 A 
ATOM      2  C2  N4B d   1      -1.123  -0.182   1.315  0.00  0.00     0.002 A 
ATOM      3  C3  N4B d   1      -1.411  -1.405   1.871  0.00  0.00     0.002 A 
ATOM      4  C4  N4B d   1      -1.135  -2.563   1.160  0.00  0.00    -0.004 A 
ATOM      5  C5  N4B d   1      -0.538  -2.486  -0.065  0.00  0.00     0.002 A 
ATOM      6  C6  N4B d   1      -0.239  -1.264  -0.633  0.00  0.00     0.002 A 
ENDROOT
BRANCH   1   7
ATOM      7  C1' N4B d   1      -0.275   1.205  -0.649  0.00  0.00     0.057 C 
BRANCH   7   8
ATOM      8  C2' N4B d   1      -0.010   2.275   0.406  0.00  0.00     0.009 C 
BRANCH   8   9
ATOM      9  C3' N4B d   1       1.471   2.584   0.543  0.00  0.00     0.004 C 
ATOM     10  C4' N4B d   1       1.760   3.570   1.635  0.00  0.00     0.003 C 
ENDBRANCH   8   9
ENDBRANCH   7   8
ENDBRANCH   1   7
TORSDOF 3
ENDMDL
