MODEL 1
REMARK minimizedAffinity -4.75935221
REMARK minimizedRMSD -1
REMARK  3 active torsions:
REMARK  status: ('A' for Active; 'I' for Inactive)
REMARK    1  A    between atoms: C3'_2  and  C2'_3 
REMARK    2  A    between atoms: C2'_3  and  C1'_4 
REMARK    3  A    between atoms: C1'_4  and  C1_5 
ROOT
ATOM      1  C1  N4B d   1       0.103  -0.326   0.377  0.00  0.00    -0.075 A 
ATOM      2  C2  N4B d   1      -0.321  -0.762  -0.898  0.00  0.00     0.002 A 
ATOM      3  C3  N4B d   1      -0.968  -1.966  -1.031  0.00  0.00     0.002 A 
ATOM      4  C4  N4B d   1      -1.183  -2.757   0.088  0.00  0.00    -0.004 A 
ATOM      5  C5  N4B d   1      -0.793  -2.316   1.319  0.00  0.00     0.002 A 
ATOM      6  C6  N4B d   1      -0.146  -1.106   1.468  0.00  0.00     0.002 A 
ENDROOT
BRANCH   1   7
ATOM      7  C1' N4B d   1       0.889   0.943   0.561  0.00  0.00     0.057 C 
BRANCH   7   8
ATOM      8  C2' N4B d   1       0.378   1.996  -0.419  0.00  0.00     0.009 C 
BRANCH   8   9
ATOM      9  C3' N4B d   1       1.363   3.139  -0.589  0.00  0.00     0.004 C 
ATOM     10  C4' N4B d   1       2.330   3.248   0.551  0.00  0.00     0.003 C 
ENDBRANCH   8   9
ENDBRANCH   7   8
ENDBRANCH   1   7
TORSDOF 3
ENDMDL
