MODEL 1
REMARK minimizedAffinity -3.0964005
REMARK minimizedRMSD -1
REMARK  3 active torsions:
REMARK  status: ('A' for Active; 'I' for Inactive)
REMARK    1  A    between atoms: C3'_2  and  C2'_3 
REMARK    2  A    between atoms: C2'_3  and  C1'_4 
REMARK    3  A    between atoms: C1'_4  and  C1_5 
ROOT
ATOM      1  C1  N4B d   1      -0.640  -0.254  -0.260  0.00  0.00    -0.075 A 
ATOM      2  C2  N4B d   1      -0.262  -0.246  -1.620  0.00  0.00     0.002 A 
ATOM      3  C3  N4B d   1      -0.346  -1.398  -2.363  0.00  0.00     0.002 A 
ATOM      4  C4  N4B d   1      -0.786  -2.569  -1.764  0.00  0.00    -0.004 A 
ATOM      5  C5  N4B d   1      -1.174  -2.562  -0.456  0.00  0.00     0.002 A 
ATOM      6  C6  N4B d   1      -1.098  -1.411   0.301  0.00  0.00     0.002 A 
ENDROOT
BRANCH   1   7
ATOM      7  C1' N4B d   1      -0.485   0.961   0.615  0.00  0.00     0.057 C 
BRANCH   7   8
ATOM      8  C2' N4B d   1       0.215   2.061  -0.177  0.00  0.00     0.009 C 
BRANCH   8   9
ATOM      9  C3' N4B d   1       0.698   3.188   0.720  0.00  0.00     0.004 C 
ATOM     10  C4' N4B d   1       2.149   3.509   0.520  0.00  0.00     0.003 C 
ENDBRANCH   8   9
ENDBRANCH   7   8
ENDBRANCH   1   7
TORSDOF 3
ENDMDL
