MODEL 1
REMARK minimizedAffinity -3.79393911
REMARK minimizedRMSD -1
REMARK  0 active torsions:
REMARK  status: ('A' for Active; 'I' for Inactive)
ROOT
ATOM      1  C2' OXE d   1      -0.026   2.755   0.979  0.00  0.00     0.078 C 
ATOM      2  C1' OXE d   1      -2.573   3.901   1.267  0.00  0.00     0.078 C 
ATOM      3  C1  OXE d   1      -2.079   3.628  -0.132  0.00  0.00    -0.078 A 
ATOM      4  C2  OXE d   1      -0.813   3.110  -0.265  0.00  0.00    -0.078 A 
ATOM      5  C3  OXE d   1      -0.329   2.789  -1.530  0.00  0.00     0.003 A 
ATOM      6  C4  OXE d   1      -1.059   3.129  -2.675  0.00  0.00    -0.002 A 
ATOM      7  C5  OXE d   1      -2.334   3.694  -2.563  0.00  0.00    -0.002 A 
ATOM      8  C6  OXE d   1      -2.875   3.910  -1.301  0.00  0.00     0.003 A 
ENDROOT
TORSDOF 0
ENDMDL
