MODEL 1
REMARK minimizedAffinity 4.11640072
REMARK minimizedRMSD -1
REMARK  0 active torsions:
REMARK  status: ('A' for Active; 'I' for Inactive)
ROOT
ATOM      1  C2' OXE d   1      -0.401  -0.563   4.775  0.00  0.00     0.078 C 
ATOM      2  C1' OXE d   1       2.024  -1.056   3.449  0.00  0.00     0.078 C 
ATOM      3  C1  OXE d   1       1.158   0.068   2.937  0.00  0.00    -0.078 A 
ATOM      4  C2  OXE d   1      -0.048   0.272   3.563  0.00  0.00    -0.078 A 
ATOM      5  C3  OXE d   1      -0.860   1.331   3.166  0.00  0.00     0.003 A 
ATOM      6  C4  OXE d   1      -0.532   2.092   2.037  0.00  0.00    -0.002 A 
ATOM      7  C5  OXE d   1       0.674   1.874   1.361  0.00  0.00    -0.002 A 
ATOM      8  C6  OXE d   1       1.548   0.897   1.823  0.00  0.00     0.003 A 
ENDROOT
TORSDOF 0
ENDMDL
