MODEL 1
REMARK minimizedAffinity 3.93529296
REMARK minimizedRMSD -1
REMARK  0 active torsions:
REMARK  status: ('A' for Active; 'I' for Inactive)
ROOT
ATOM      1  C2' OXE d   1      -2.024  -0.403   3.008  0.00  0.00     0.078 C 
ATOM      2  C1' OXE d   1       0.729  -0.092   3.460  0.00  0.00     0.078 C 
ATOM      3  C1  OXE d   1      -0.017   1.064   2.841  0.00  0.00    -0.078 A 
ATOM      4  C2  OXE d   1      -1.355   0.885   2.581  0.00  0.00    -0.078 A 
ATOM      5  C3  OXE d   1      -2.102   1.939   2.062  0.00  0.00     0.003 A 
ATOM      6  C4  OXE d   1      -1.474   3.124   1.660  0.00  0.00    -0.002 A 
ATOM      7  C5  OXE d   1      -0.105   3.311   1.880  0.00  0.00    -0.002 A 
ATOM      8  C6  OXE d   1       0.628   2.309   2.507  0.00  0.00     0.003 A 
ENDROOT
TORSDOF 0
ENDMDL
