MODEL 1
REMARK minimizedAffinity 6.32611418
REMARK minimizedRMSD -1
REMARK  0 active torsions:
REMARK  status: ('A' for Active; 'I' for Inactive)
ROOT
ATOM      1  C2' OXE d   1      -0.857   1.826  -2.709  0.00  0.00     0.078 C 
ATOM      2  C1' OXE d   1      -3.003   0.594  -1.383  0.00  0.00     0.078 C 
ATOM      3  C1  OXE d   1      -3.184   2.019  -1.841  0.00  0.00    -0.078 A 
ATOM      4  C2  OXE d   1      -2.113   2.629  -2.448  0.00  0.00    -0.078 A 
ATOM      5  C3  OXE d   1      -2.245   3.925  -2.938  0.00  0.00     0.003 A 
ATOM      6  C4  OXE d   1      -3.406   4.665  -2.683  0.00  0.00    -0.002 A 
ATOM      7  C5  OXE d   1      -4.494   4.075  -2.031  0.00  0.00    -0.002 A 
ATOM      8  C6  OXE d   1      -4.416   2.743  -1.642  0.00  0.00     0.003 A 
ENDROOT
TORSDOF 0
ENDMDL
