MODEL 1
REMARK minimizedAffinity 3.55006647
REMARK minimizedRMSD -1
REMARK  0 active torsions:
REMARK  status: ('A' for Active; 'I' for Inactive)
ROOT
ATOM      1  C2' OXE d   1       3.011  -4.040  -3.475  0.00  0.00     0.078 C 
ATOM      2  C1' OXE d   1       3.493  -2.119  -1.486  0.00  0.00     0.078 C 
ATOM      3  C1  OXE d   1       4.307  -3.388  -1.450  0.00  0.00    -0.078 A 
ATOM      4  C2  OXE d   1       4.032  -4.342  -2.400  0.00  0.00    -0.078 A 
ATOM      5  C3  OXE d   1       4.791  -5.508  -2.445  0.00  0.00     0.003 A 
ATOM      6  C4  OXE d   1       5.726  -5.785  -1.441  0.00  0.00    -0.002 A 
ATOM      7  C5  OXE d   1       5.994  -4.844  -0.441  0.00  0.00    -0.002 A 
ATOM      8  C6  OXE d   1       5.325  -3.625  -0.456  0.00  0.00     0.003 A 
ENDROOT
TORSDOF 0
ENDMDL
