MODEL 1
REMARK minimizedAffinity 11.3800068
REMARK minimizedRMSD -1
REMARK  0 active torsions:
REMARK  status: ('A' for Active; 'I' for Inactive)
ROOT
ATOM      1  C2' OXE d   1       0.517   0.549  -1.011  0.00  0.00     0.078 C 
ATOM      2  C1' OXE d   1      -0.891  -1.880  -0.993  0.00  0.00     0.078 C 
ATOM      3  C1  OXE d   1       0.591  -1.923  -0.716  0.00  0.00    -0.078 A 
ATOM      4  C2  OXE d   1       1.280  -0.736  -0.774  0.00  0.00    -0.078 A 
ATOM      5  C3  OXE d   1       2.639  -0.712  -0.473  0.00  0.00     0.003 A 
ATOM      6  C4  OXE d   1       3.340  -1.906  -0.264  0.00  0.00    -0.002 A 
ATOM      7  C5  OXE d   1       2.664  -3.131  -0.240  0.00  0.00    -0.002 A 
ATOM      8  C6  OXE d   1       1.286  -3.152  -0.422  0.00  0.00     0.003 A 
ENDROOT
TORSDOF 0
ENDMDL
