MODEL 1
REMARK minimizedAffinity 1.68595695
REMARK minimizedRMSD -1
REMARK  0 active torsions:
REMARK  status: ('A' for Active; 'I' for Inactive)
ROOT
ATOM      1  C2' OXE d   1       1.316  -0.363   3.445  0.00  0.00     0.078 C 
ATOM      2  C1' OXE d   1       1.499   2.404   3.007  0.00  0.00     0.078 C 
ATOM      3  C1  OXE d   1       1.081   1.535   1.848  0.00  0.00    -0.078 A 
ATOM      4  C2  OXE d   1       1.039   0.177   2.058  0.00  0.00    -0.078 A 
ATOM      5  C3  OXE d   1       0.607  -0.666   1.038  0.00  0.00     0.003 A 
ATOM      6  C4  OXE d   1       0.363  -0.159  -0.244  0.00  0.00    -0.002 A 
ATOM      7  C5  OXE d   1       0.438   1.216  -0.491  0.00  0.00    -0.002 A 
ATOM      8  C6  OXE d   1       0.753   2.079   0.553  0.00  0.00     0.003 A 
ENDROOT
TORSDOF 0
ENDMDL
