MODEL 1
REMARK minimizedAffinity 8.79685783
REMARK minimizedRMSD -1
REMARK  0 active torsions:
REMARK  status: ('A' for Active; 'I' for Inactive)
ROOT
ATOM      1  C2' OXE d   1       2.831  -0.266   2.657  0.00  0.00     0.078 C 
ATOM      2  C1' OXE d   1       0.424   0.915   3.489  0.00  0.00     0.078 C 
ATOM      3  C1  OXE d   1       0.593   0.623   2.019  0.00  0.00    -0.078 A 
ATOM      4  C2  OXE d   1       1.792   0.089   1.614  0.00  0.00    -0.078 A 
ATOM      5  C3  OXE d   1       1.980  -0.250   0.277  0.00  0.00     0.003 A 
ATOM      6  C4  OXE d   1       1.018   0.090  -0.682  0.00  0.00    -0.002 A 
ATOM      7  C5  OXE d   1      -0.194   0.672  -0.296  0.00  0.00    -0.002 A 
ATOM      8  C6  OXE d   1      -0.440   0.905   1.053  0.00  0.00     0.003 A 
ENDROOT
TORSDOF 0
ENDMDL
