MODEL 1
REMARK minimizedAffinity 2.06347418
REMARK minimizedRMSD -1
REMARK  1 active torsions:
REMARK  status: ('A' for Active; 'I' for Inactive)
REMARK    1  A    between atoms: C3_4  and  O_7 
ROOT
ATOM      1  C   UNL d   1       3.959   5.778  -3.990  0.00  0.00    -0.033 A 
ATOM      2  C1  UNL d   1       3.261   5.035  -3.037  0.00  0.00     0.039 A 
ATOM      3  C2  UNL d   1       3.932   4.508  -1.931  0.00  0.00    -0.080 A 
ATOM      4  C3  UNL d   1       5.299   4.732  -1.791  0.00  0.00     0.150 A 
ATOM      5  C4  UNL d   1       6.000   5.476  -2.735  0.00  0.00    -0.007 A 
ATOM      6  C5  UNL d   1       5.328   6.000  -3.839  0.00  0.00     0.039 A 
ENDROOT
BRANCH   4   7
ATOM      7  O   UNL d   1       5.998   4.235  -0.732  0.00  0.00    -0.526 OA
ATOM      8  H5  UNL d   1       5.390   3.718  -0.177  0.00  0.00     0.418 HD
ENDBRANCH   4   7
TORSDOF 1
ENDMDL
