MODEL 1
REMARK minimizedAffinity -3.28690505
REMARK minimizedRMSD -1
REMARK  1 active torsions:
REMARK  status: ('A' for Active; 'I' for Inactive)
REMARK    1  A    between atoms: C3_4  and  O_7 
ROOT
ATOM      1  C   UNL d   1       4.900   5.077  -5.359  0.00  0.00    -0.033 A 
ATOM      2  C1  UNL d   1       4.265   5.995  -4.521  0.00  0.00     0.039 A 
ATOM      3  C2  UNL d   1       4.494   5.961  -3.144  0.00  0.00    -0.080 A 
ATOM      4  C3  UNL d   1       5.361   5.006  -2.619  0.00  0.00     0.150 A 
ATOM      5  C4  UNL d   1       6.000   4.091  -3.449  0.00  0.00    -0.007 A 
ATOM      6  C5  UNL d   1       5.768   4.125  -4.823  0.00  0.00     0.039 A 
ENDROOT
BRANCH   4   7
ATOM      7  O   UNL d   1       5.613   4.931  -1.282  0.00  0.00    -0.526 OA
ATOM      8  H5  UNL d   1       5.080   5.607  -0.830  0.00  0.00     0.418 HD
ENDBRANCH   4   7
TORSDOF 1
ENDMDL
