MODEL 1
REMARK minimizedAffinity -2.73032331
REMARK minimizedRMSD -1
REMARK  1 active torsions:
REMARK  status: ('A' for Active; 'I' for Inactive)
REMARK    1  A    between atoms: C3_4  and  O_7 
ROOT
ATOM      1  C   UNL d   1       5.942   4.138  -2.483  0.00  0.00    -0.033 A 
ATOM      2  C1  UNL d   1       6.000   3.412  -3.675  0.00  0.00     0.039 A 
ATOM      3  C2  UNL d   1       5.531   3.977  -4.862  0.00  0.00    -0.080 A 
ATOM      4  C3  UNL d   1       5.008   5.267  -4.845  0.00  0.00     0.150 A 
ATOM      5  C4  UNL d   1       4.951   5.998  -3.662  0.00  0.00    -0.007 A 
ATOM      6  C5  UNL d   1       5.419   5.431  -2.477  0.00  0.00     0.039 A 
ENDROOT
BRANCH   4   7
ATOM      7  O   UNL d   1       4.533   5.859  -5.977  0.00  0.00    -0.526 OA
ATOM      8  H5  UNL d   1       4.611   5.226  -6.711  0.00  0.00     0.418 HD
ENDBRANCH   4   7
TORSDOF 1
ENDMDL
