MODEL 1
REMARK minimizedAffinity 2.36003494
REMARK minimizedRMSD -1
REMARK  1 active torsions:
REMARK  status: ('A' for Active; 'I' for Inactive)
REMARK    1  A    between atoms: C3_4  and  O_7 
ROOT
ATOM      1  C   UNL d   1       4.800   5.993  -1.717  0.00  0.00    -0.033 A 
ATOM      2  C1  UNL d   1       6.000   5.421  -2.145  0.00  0.00     0.039 A 
ATOM      3  C2  UNL d   1       6.000   4.488  -3.183  0.00  0.00    -0.080 A 
ATOM      4  C3  UNL d   1       4.795   4.136  -3.785  0.00  0.00     0.150 A 
ATOM      5  C4  UNL d   1       3.596   4.704  -3.367  0.00  0.00    -0.007 A 
ATOM      6  C5  UNL d   1       3.598   5.635  -2.330  0.00  0.00     0.039 A 
ENDROOT
BRANCH   4   7
ATOM      7  O   UNL d   1       4.745   3.226  -4.799  0.00  0.00    -0.526 OA
ATOM      8  H5  UNL d   1       5.644   2.896  -4.962  0.00  0.00     0.418 HD
ENDBRANCH   4   7
TORSDOF 1
ENDMDL
