MODEL 1
REMARK minimizedAffinity -4.11782932
REMARK minimizedRMSD -1
REMARK  1 active torsions:
REMARK  status: ('A' for Active; 'I' for Inactive)
REMARK    1  A    between atoms: C3_4  and  O_7 
ROOT
ATOM      1  C   UNL d   1       4.753   5.994  -5.219  0.00  0.00    -0.033 A 
ATOM      2  C1  UNL d   1       3.556   6.000  -4.499  0.00  0.00     0.039 A 
ATOM      3  C2  UNL d   1       3.580   6.000  -3.103  0.00  0.00    -0.080 A 
ATOM      4  C3  UNL d   1       4.804   5.994  -2.441  0.00  0.00     0.150 A 
ATOM      5  C4  UNL d   1       6.000   5.992  -3.152  0.00  0.00    -0.007 A 
ATOM      6  C5  UNL d   1       5.974   5.991  -4.546  0.00  0.00     0.039 A 
ENDROOT
BRANCH   4   7
ATOM      7  O   UNL d   1       4.878   5.989  -1.079  0.00  0.00    -0.526 OA
ATOM      8  H5  UNL d   1       3.974   5.962  -0.723  0.00  0.00     0.418 HD
ENDBRANCH   4   7
TORSDOF 1
ENDMDL
