MODEL 1
REMARK minimizedAffinity 0.173269868
REMARK minimizedRMSD -1
REMARK  1 active torsions:
REMARK  status: ('A' for Active; 'I' for Inactive)
REMARK    1  A    between atoms: C3_4  and  O_7 
ROOT
ATOM      1  C   UNL d   1       5.200   4.935  -1.509  0.00  0.00    -0.033 A 
ATOM      2  C1  UNL d   1       3.890   4.588  -1.847  0.00  0.00     0.039 A 
ATOM      3  C2  UNL d   1       3.376   4.931  -3.099  0.00  0.00    -0.080 A 
ATOM      4  C3  UNL d   1       4.181   5.619  -4.003  0.00  0.00     0.150 A 
ATOM      5  C4  UNL d   1       5.488   5.964  -3.675  0.00  0.00    -0.007 A 
ATOM      6  C5  UNL d   1       5.999   5.621  -2.424  0.00  0.00     0.039 A 
ENDROOT
BRANCH   4   7
ATOM      7  O   UNL d   1       3.721   5.979  -5.235  0.00  0.00    -0.526 OA
ATOM      8  H5  UNL d   1       2.794   5.700  -5.311  0.00  0.00     0.418 HD
ENDBRANCH   4   7
TORSDOF 1
ENDMDL
