MODEL 1
REMARK minimizedAffinity 3.76390767
REMARK minimizedRMSD -1
REMARK  1 active torsions:
REMARK  status: ('A' for Active; 'I' for Inactive)
REMARK    1  A    between atoms: C3_4  and  O_7 
ROOT
ATOM      1  C   UNL d   1       4.276   4.502  -4.823  0.00  0.00    -0.033 A 
ATOM      2  C1  UNL d   1       5.409   3.838  -4.347  0.00  0.00     0.039 A 
ATOM      3  C2  UNL d   1       6.000   4.234  -3.146  0.00  0.00    -0.080 A 
ATOM      4  C3  UNL d   1       5.449   5.294  -2.430  0.00  0.00     0.150 A 
ATOM      5  C4  UNL d   1       4.319   5.958  -2.896  0.00  0.00    -0.007 A 
ATOM      6  C5  UNL d   1       3.731   5.561  -4.096  0.00  0.00     0.039 A 
ENDROOT
BRANCH   4   7
ATOM      7  O   UNL d   1       5.994   5.720  -1.255  0.00  0.00    -0.526 OA
ATOM      8  H5  UNL d   1       6.786   5.188  -1.073  0.00  0.00     0.418 HD
ENDBRANCH   4   7
TORSDOF 1
ENDMDL
