MODEL 1
REMARK minimizedAffinity -3.1526444
REMARK minimizedRMSD -1
REMARK  1 active torsions:
REMARK  status: ('A' for Active; 'I' for Inactive)
REMARK    1  A    between atoms: C3_4  and  O_7 
ROOT
ATOM      1  C   UNL d   1       4.731   5.996  -2.556  0.00  0.00    -0.033 A 
ATOM      2  C1  UNL d   1       5.952   5.760  -3.191  0.00  0.00     0.039 A 
ATOM      3  C2  UNL d   1       5.999   4.987  -4.353  0.00  0.00    -0.080 A 
ATOM      4  C3  UNL d   1       4.820   4.459  -4.870  0.00  0.00     0.150 A 
ATOM      5  C4  UNL d   1       3.599   4.693  -4.246  0.00  0.00    -0.007 A 
ATOM      6  C5  UNL d   1       3.554   5.464  -3.085  0.00  0.00     0.039 A 
ENDROOT
BRANCH   4   7
ATOM      7  O   UNL d   1       4.816   3.695  -5.999  0.00  0.00    -0.526 OA
ATOM      8  H5  UNL d   1       5.733   3.593  -6.305  0.00  0.00     0.418 HD
ENDBRANCH   4   7
TORSDOF 1
ENDMDL
