MODEL 1
REMARK minimizedAffinity -4.17583752
REMARK minimizedRMSD -1
REMARK  1 active torsions:
REMARK  status: ('A' for Active; 'I' for Inactive)
REMARK    1  A    between atoms: C3_4  and  O_7 
ROOT
ATOM      1  C   UNL d   1       3.818   5.994  -4.876  0.00  0.00    -0.033 A 
ATOM      2  C1  UNL d   1       4.850   5.960  -5.816  0.00  0.00     0.039 A 
ATOM      3  C2  UNL d   1       5.591   4.792  -6.000  0.00  0.00    -0.080 A 
ATOM      4  C3  UNL d   1       5.290   3.665  -5.240  0.00  0.00     0.150 A 
ATOM      5  C4  UNL d   1       4.260   3.689  -4.306  0.00  0.00    -0.007 A 
ATOM      6  C5  UNL d   1       3.522   4.858  -4.122  0.00  0.00     0.039 A 
ENDROOT
BRANCH   4   7
ATOM      7  O   UNL d   1       5.989   2.503  -5.382  0.00  0.00    -0.526 OA
ATOM      8  H5  UNL d   1       6.688   2.642  -6.042  0.00  0.00     0.418 HD
ENDBRANCH   4   7
TORSDOF 1
ENDMDL
