MODEL 1
REMARK minimizedAffinity -4.62557125
REMARK minimizedRMSD -1
REMARK  1 active torsions:
REMARK  status: ('A' for Active; 'I' for Inactive)
REMARK    1  A    between atoms: C3_4  and  O_7 
ROOT
ATOM      1  C   UNL d   1       4.342   3.820  -4.545  0.00  0.00    -0.033 A 
ATOM      2  C1  UNL d   1       5.676   3.964  -4.162  0.00  0.00     0.039 A 
ATOM      3  C2  UNL d   1       6.000   4.686  -3.011  0.00  0.00    -0.080 A 
ATOM      4  C3  UNL d   1       4.981   5.257  -2.254  0.00  0.00     0.150 A 
ATOM      5  C4  UNL d   1       3.649   5.113  -2.628  0.00  0.00    -0.007 A 
ATOM      6  C5  UNL d   1       3.328   4.393  -3.777  0.00  0.00     0.039 A 
ENDROOT
BRANCH   4   7
ATOM      7  O   UNL d   1       5.248   5.974  -1.126  0.00  0.00    -0.526 OA
ATOM      8  H5  UNL d   1       6.211   6.014  -1.007  0.00  0.00     0.418 HD
ENDBRANCH   4   7
TORSDOF 1
ENDMDL
