MODEL 1
REMARK minimizedAffinity 0.125038132
REMARK minimizedRMSD -1
REMARK  1 active torsions:
REMARK  status: ('A' for Active; 'I' for Inactive)
REMARK    1  A    between atoms: C3_4  and  O_7 
ROOT
ATOM      1  C   UNL d   1       5.999   4.873  -1.861  0.00  0.00    -0.033 A 
ATOM      2  C1  UNL d   1       5.204   3.767  -2.168  0.00  0.00     0.039 A 
ATOM      3  C2  UNL d   1       4.403   3.776  -3.312  0.00  0.00    -0.080 A 
ATOM      4  C3  UNL d   1       4.406   4.896  -4.139  0.00  0.00     0.150 A 
ATOM      5  C4  UNL d   1       5.198   6.000  -3.841  0.00  0.00    -0.007 A 
ATOM      6  C5  UNL d   1       5.997   5.989  -2.698  0.00  0.00     0.039 A 
ENDROOT
BRANCH   4   7
ATOM      7  O   UNL d   1       3.638   4.953  -5.263  0.00  0.00    -0.526 OA
ATOM      8  H5  UNL d   1       3.122   4.132  -5.326  0.00  0.00     0.418 HD
ENDBRANCH   4   7
TORSDOF 1
ENDMDL
