MODEL 1
REMARK minimizedAffinity -3.06089449
REMARK minimizedRMSD -1
REMARK  1 active torsions:
REMARK  status: ('A' for Active; 'I' for Inactive)
REMARK    1  A    between atoms: C3_4  and  O_7 
ROOT
ATOM      1  C   UNL d   1       5.958   3.856  -3.062  0.00  0.00    -0.033 A 
ATOM      2  C1  UNL d   1       6.000   3.408  -4.384  0.00  0.00     0.039 A 
ATOM      3  C2  UNL d   1       5.334   4.120  -5.385  0.00  0.00    -0.080 A 
ATOM      4  C3  UNL d   1       4.633   5.275  -5.051  0.00  0.00     0.150 A 
ATOM      5  C4  UNL d   1       4.591   5.728  -3.736  0.00  0.00    -0.007 A 
ATOM      6  C5  UNL d   1       5.255   5.016  -2.738  0.00  0.00     0.039 A 
ENDROOT
BRANCH   4   7
ATOM      7  O   UNL d   1       3.965   6.000  -5.992  0.00  0.00    -0.526 OA
ATOM      8  H5  UNL d   1       4.058   5.552  -6.849  0.00  0.00     0.418 HD
ENDBRANCH   4   7
TORSDOF 1
ENDMDL
