MODEL 1
REMARK minimizedAffinity -3.08275652
REMARK minimizedRMSD -1
REMARK  1 active torsions:
REMARK  status: ('A' for Active; 'I' for Inactive)
REMARK    1  A    between atoms: C3_4  and  O_7 
ROOT
ATOM      1  C   UNL d   1       4.877   4.986  -6.000  0.00  0.00    -0.033 A 
ATOM      2  C1  UNL d   1       5.674   3.950  -5.508  0.00  0.00     0.039 A 
ATOM      3  C2  UNL d   1       6.000   3.902  -4.151  0.00  0.00    -0.080 A 
ATOM      4  C3  UNL d   1       5.523   4.893  -3.298  0.00  0.00     0.150 A 
ATOM      5  C4  UNL d   1       4.725   5.926  -3.781  0.00  0.00    -0.007 A 
ATOM      6  C5  UNL d   1       4.402   5.973  -5.136  0.00  0.00     0.039 A 
ENDROOT
BRANCH   4   7
ATOM      7  O   UNL d   1       5.819   4.891  -1.967  0.00  0.00    -0.526 OA
ATOM      8  H5  UNL d   1       6.401   4.136  -1.783  0.00  0.00     0.418 HD
ENDBRANCH   4   7
TORSDOF 1
ENDMDL
