MODEL 1
REMARK minimizedAffinity -4.27456999
REMARK minimizedRMSD -1
REMARK  1 active torsions:
REMARK  status: ('A' for Active; 'I' for Inactive)
REMARK    1  A    between atoms: C3_4  and  O_7 
ROOT
ATOM      1  C   UNL d   1       4.152   4.497  -4.861  0.00  0.00    -0.033 A 
ATOM      2  C1  UNL d   1       3.537   5.468  -4.068  0.00  0.00     0.039 A 
ATOM      3  C2  UNL d   1       4.144   5.893  -2.885  0.00  0.00    -0.080 A 
ATOM      4  C3  UNL d   1       5.366   5.343  -2.508  0.00  0.00     0.150 A 
ATOM      5  C4  UNL d   1       5.987   4.378  -3.295  0.00  0.00    -0.007 A 
ATOM      6  C5  UNL d   1       5.378   3.954  -4.475  0.00  0.00     0.039 A 
ENDROOT
BRANCH   4   7
ATOM      7  O   UNL d   1       5.995   5.723  -1.360  0.00  0.00    -0.526 OA
ATOM      8  H5  UNL d   1       5.436   6.374  -0.904  0.00  0.00     0.418 HD
ENDBRANCH   4   7
TORSDOF 1
ENDMDL
