MODEL 1
REMARK minimizedAffinity -2.01249242
REMARK minimizedRMSD -1
REMARK  1 active torsions:
REMARK  status: ('A' for Active; 'I' for Inactive)
REMARK    1  A    between atoms: C3_4  and  O_7 
ROOT
ATOM      1  C   UNL d   1       5.987   4.710  -2.921  0.00  0.00    -0.033 A 
ATOM      2  C1  UNL d   1       5.997   4.429  -4.289  0.00  0.00     0.039 A 
ATOM      3  C2  UNL d   1       4.943   4.857  -5.099  0.00  0.00    -0.080 A 
ATOM      4  C3  UNL d   1       3.888   5.564  -4.530  0.00  0.00     0.150 A 
ATOM      5  C4  UNL d   1       3.873   5.851  -3.169  0.00  0.00    -0.007 A 
ATOM      6  C5  UNL d   1       4.925   5.422  -2.361  0.00  0.00     0.039 A 
ENDROOT
BRANCH   4   7
ATOM      7  O   UNL d   1       2.835   5.998  -5.280  0.00  0.00    -0.526 OA
ATOM      8  H5  UNL d   1       2.967   5.703  -6.196  0.00  0.00     0.418 HD
ENDBRANCH   4   7
TORSDOF 1
ENDMDL
