MODEL 1
REMARK minimizedAffinity -3.15945435
REMARK minimizedRMSD -1
REMARK  1 active torsions:
REMARK  status: ('A' for Active; 'I' for Inactive)
REMARK    1  A    between atoms: C3_4  and  O_7 
ROOT
ATOM      1  C   UNL d   1       4.811   4.750  -5.999  0.00  0.00    -0.033 A 
ATOM      2  C1  UNL d   1       4.353   5.784  -5.181  0.00  0.00     0.039 A 
ATOM      3  C2  UNL d   1       4.716   5.824  -3.833  0.00  0.00    -0.080 A 
ATOM      4  C3  UNL d   1       5.537   4.825  -3.317  0.00  0.00     0.150 A 
ATOM      5  C4  UNL d   1       6.000   3.793  -4.128  0.00  0.00    -0.007 A 
ATOM      6  C5  UNL d   1       5.635   3.755  -5.473  0.00  0.00     0.039 A 
ENDROOT
BRANCH   4   7
ATOM      7  O   UNL d   1       5.915   4.818  -2.007  0.00  0.00    -0.526 OA
ATOM      8  H5  UNL d   1       5.497   5.574  -1.563  0.00  0.00     0.418 HD
ENDBRANCH   4   7
TORSDOF 1
ENDMDL
