MODEL 1
REMARK minimizedAffinity -3.37048721
REMARK minimizedRMSD -1
REMARK  1 active torsions:
REMARK  status: ('A' for Active; 'I' for Inactive)
REMARK    1  A    between atoms: C3_4  and  O_7 
ROOT
ATOM      1  C   UNL d   1       4.891   5.974  -2.502  0.00  0.00    -0.033 A 
ATOM      2  C1  UNL d   1       5.997   5.973  -3.355  0.00  0.00     0.039 A 
ATOM      3  C2  UNL d   1       5.970   5.231  -4.537  0.00  0.00    -0.080 A 
ATOM      4  C3  UNL d   1       4.831   4.495  -4.855  0.00  0.00     0.150 A 
ATOM      5  C4  UNL d   1       3.724   4.495  -4.013  0.00  0.00    -0.007 A 
ATOM      6  C5  UNL d   1       3.754   5.236  -2.832  0.00  0.00     0.039 A 
ENDROOT
BRANCH   4   7
ATOM      7  O   UNL d   1       4.759   3.752  -5.996  0.00  0.00    -0.526 OA
ATOM      8  H5  UNL d   1       5.607   3.825  -6.465  0.00  0.00     0.418 HD
ENDBRANCH   4   7
TORSDOF 1
ENDMDL
