MODEL 1
REMARK minimizedAffinity -3.00425506
REMARK minimizedRMSD -1
REMARK  0 active torsions:
REMARK  status: ('A' for Active; 'I' for Inactive)
ROOT
ATOM      1  C   UNL d   1       5.133  -0.641   2.623  0.00  0.00     0.078 C 
ATOM      2  C1  UNL d   1       3.649  -0.855   2.657  0.00  0.00    -0.077 A 
ATOM      3  C2  UNL d   1       2.852  -0.552   1.546  0.00  0.00    -0.001 A 
ATOM      4  C3  UNL d   1       1.471  -0.748   1.595  0.00  0.00     0.003 A 
ATOM      5  C4  UNL d   1       0.875  -1.246   2.752  0.00  0.00    -0.005 A 
ATOM      6  C5  UNL d   1       1.660  -1.549   3.862  0.00  0.00     0.003 A 
ATOM      7  C6  UNL d   1       3.041  -1.354   3.816  0.00  0.00    -0.001 A 
ENDROOT
TORSDOF 0
ENDMDL
