MODEL 1
REMARK minimizedAffinity -3.51284313
REMARK minimizedRMSD -1
REMARK  0 active torsions:
REMARK  status: ('A' for Active; 'I' for Inactive)
ROOT
ATOM      1  C   UNL d   1       0.802  -0.783   1.063  0.00  0.00     0.078 C 
ATOM      2  C1  UNL d   1       1.853  -0.970   2.117  0.00  0.00    -0.077 A 
ATOM      3  C2  UNL d   1       1.557  -1.612   3.326  0.00  0.00    -0.001 A 
ATOM      4  C3  UNL d   1       2.542  -1.770   4.301  0.00  0.00     0.003 A 
ATOM      5  C4  UNL d   1       3.831  -1.288   4.078  0.00  0.00    -0.005 A 
ATOM      6  C5  UNL d   1       4.135  -0.647   2.879  0.00  0.00     0.003 A 
ATOM      7  C6  UNL d   1       3.151  -0.488   1.903  0.00  0.00    -0.001 A 
ENDROOT
TORSDOF 0
ENDMDL
