MODEL 1
REMARK minimizedAffinity -2.05620646
REMARK minimizedRMSD -1
REMARK  0 active torsions:
REMARK  status: ('A' for Active; 'I' for Inactive)
ROOT
ATOM      1  C   UNL d   1       0.272   0.629   0.148  0.00  0.00     0.078 C 
ATOM      2  C1  UNL d   1       0.864  -0.574   0.820  0.00  0.00    -0.077 A 
ATOM      3  C2  UNL d   1       0.394  -1.863   0.536  0.00  0.00    -0.001 A 
ATOM      4  C3  UNL d   1       0.948  -2.973   1.176  0.00  0.00     0.003 A 
ATOM      5  C4  UNL d   1       1.974  -2.806   2.104  0.00  0.00    -0.005 A 
ATOM      6  C5  UNL d   1       2.446  -1.527   2.395  0.00  0.00     0.003 A 
ATOM      7  C6  UNL d   1       1.893  -0.416   1.756  0.00  0.00    -0.001 A 
ENDROOT
TORSDOF 0
ENDMDL
