MODEL 1
REMARK minimizedAffinity -2.09910035
REMARK minimizedRMSD -1
REMARK  0 active torsions:
REMARK  status: ('A' for Active; 'I' for Inactive)
ROOT
ATOM      1  C   UNL d   1       0.858  -0.882   1.089  0.00  0.00     0.078 C 
ATOM      2  C1  UNL d   1       2.073  -0.875   1.968  0.00  0.00    -0.077 A 
ATOM      3  C2  UNL d   1       1.998  -1.282   3.306  0.00  0.00    -0.001 A 
ATOM      4  C3  UNL d   1       3.134  -1.261   4.115  0.00  0.00     0.003 A 
ATOM      5  C4  UNL d   1       4.355  -0.832   3.596  0.00  0.00    -0.005 A 
ATOM      6  C5  UNL d   1       4.439  -0.423   2.267  0.00  0.00     0.003 A 
ATOM      7  C6  UNL d   1       3.303  -0.444   1.456  0.00  0.00    -0.001 A 
ENDROOT
TORSDOF 0
ENDMDL
