MODEL 1
REMARK minimizedAffinity 0.238942638
REMARK minimizedRMSD -1
REMARK  0 active torsions:
REMARK  status: ('A' for Active; 'I' for Inactive)
ROOT
ATOM      1  C   UNL d   1      -3.517   0.779  -2.667  0.00  0.00     0.078 C 
ATOM      2  C1  UNL d   1      -2.993   1.781  -3.651  0.00  0.00    -0.077 A 
ATOM      3  C2  UNL d   1      -3.840   2.381  -4.591  0.00  0.00    -0.001 A 
ATOM      4  C3  UNL d   1      -3.336   3.305  -5.507  0.00  0.00     0.003 A 
ATOM      5  C4  UNL d   1      -1.982   3.637  -5.494  0.00  0.00    -0.005 A 
ATOM      6  C5  UNL d   1      -1.131   3.044  -4.564  0.00  0.00     0.003 A 
ATOM      7  C6  UNL d   1      -1.633   2.119  -3.647  0.00  0.00    -0.001 A 
ENDROOT
TORSDOF 0
ENDMDL
