MODEL 1
REMARK minimizedAffinity -3.31115603
REMARK minimizedRMSD -1
REMARK  0 active torsions:
REMARK  status: ('A' for Active; 'I' for Inactive)
ROOT
ATOM      1  C   UNL d   1      -0.121   0.556   0.782  0.00  0.00     0.078 C 
ATOM      2  C1  UNL d   1       0.655  -0.597   1.344  0.00  0.00    -0.077 A 
ATOM      3  C2  UNL d   1       1.416  -1.429   0.513  0.00  0.00    -0.001 A 
ATOM      4  C3  UNL d   1       2.126  -2.504   1.050  0.00  0.00     0.003 A 
ATOM      5  C4  UNL d   1       2.082  -2.759   2.419  0.00  0.00    -0.005 A 
ATOM      6  C5  UNL d   1       1.326  -1.938   3.254  0.00  0.00     0.003 A 
ATOM      7  C6  UNL d   1       0.615  -0.862   2.719  0.00  0.00    -0.001 A 
ENDROOT
TORSDOF 0
ENDMDL
