MODEL 1
REMARK minimizedAffinity 2.29993057
REMARK minimizedRMSD -1
REMARK  0 active torsions:
REMARK  status: ('A' for Active; 'I' for Inactive)
ROOT
ATOM      1  C   UNL d   1      -0.071   4.107  -3.819  0.00  0.00     0.078 C 
ATOM      2  C1  UNL d   1      -1.057   3.076  -3.358  0.00  0.00    -0.077 A 
ATOM      3  C2  UNL d   1      -2.419   3.382  -3.240  0.00  0.00    -0.001 A 
ATOM      4  C3  UNL d   1      -3.324   2.414  -2.801  0.00  0.00     0.003 A 
ATOM      5  C4  UNL d   1      -2.878   1.135  -2.475  0.00  0.00    -0.005 A 
ATOM      6  C5  UNL d   1      -1.525   0.822  -2.588  0.00  0.00     0.003 A 
ATOM      7  C6  UNL d   1      -0.618   1.788  -3.027  0.00  0.00    -0.001 A 
ENDROOT
TORSDOF 0
ENDMDL
