MODEL 1
REMARK minimizedAffinity -3.8355031
REMARK minimizedRMSD -1
REMARK  0 active torsions:
REMARK  status: ('A' for Active; 'I' for Inactive)
ROOT
ATOM      1  C   UNL d   1      -3.290  -2.339  -0.150  0.00  0.00     0.078 C 
ATOM      2  C1  UNL d   1      -4.076  -1.171  -0.666  0.00  0.00    -0.077 A 
ATOM      3  C2  UNL d   1      -3.675  -0.484  -1.818  0.00  0.00    -0.001 A 
ATOM      4  C3  UNL d   1      -4.411   0.608  -2.281  0.00  0.00     0.003 A 
ATOM      5  C4  UNL d   1      -5.552   1.024  -1.597  0.00  0.00    -0.005 A 
ATOM      6  C5  UNL d   1      -5.957   0.347  -0.448  0.00  0.00     0.003 A 
ATOM      7  C6  UNL d   1      -5.223  -0.745   0.016  0.00  0.00    -0.001 A 
ENDROOT
TORSDOF 0
ENDMDL
