MODEL 1
REMARK minimizedAffinity 1.30778992
REMARK minimizedRMSD -1
REMARK  0 active torsions:
REMARK  status: ('A' for Active; 'I' for Inactive)
ROOT
ATOM      1  C   UNL d   1      -1.729  -5.598  -5.782  0.00  0.00     0.078 C 
ATOM      2  C1  UNL d   1      -0.340  -5.599  -5.218  0.00  0.00    -0.077 A 
ATOM      3  C2  UNL d   1       0.755  -5.992  -5.998  0.00  0.00    -0.001 A 
ATOM      4  C3  UNL d   1       2.042  -5.997  -5.457  0.00  0.00     0.003 A 
ATOM      5  C4  UNL d   1       2.246  -5.610  -4.134  0.00  0.00    -0.005 A 
ATOM      6  C5  UNL d   1       1.162  -5.219  -3.350  0.00  0.00     0.003 A 
ATOM      7  C6  UNL d   1      -0.125  -5.213  -3.889  0.00  0.00    -0.001 A 
ENDROOT
TORSDOF 0
ENDMDL
