MODEL 1
REMARK minimizedAffinity 5.8153038
REMARK minimizedRMSD -1
REMARK  0 active torsions:
REMARK  status: ('A' for Active; 'I' for Inactive)
ROOT
ATOM      1  C   UNL d   1       1.652  -1.053   1.068  0.00  0.00     0.078 C 
ATOM      2  C1  UNL d   1       2.812  -1.055   2.019  0.00  0.00    -0.077 A 
ATOM      3  C2  UNL d   1       4.106  -0.754   1.578  0.00  0.00    -0.001 A 
ATOM      4  C3  UNL d   1       5.178  -0.769   2.472  0.00  0.00     0.003 A 
ATOM      5  C4  UNL d   1       4.966  -1.085   3.813  0.00  0.00    -0.005 A 
ATOM      6  C5  UNL d   1       3.682  -1.388   4.260  0.00  0.00     0.003 A 
ATOM      7  C6  UNL d   1       2.609  -1.374   3.367  0.00  0.00    -0.001 A 
ENDROOT
TORSDOF 0
ENDMDL
