MODEL 1
REMARK minimizedAffinity -2.36730814
REMARK minimizedRMSD -1
REMARK  0 active torsions:
REMARK  status: ('A' for Active; 'I' for Inactive)
ROOT
ATOM      1  C   UNL d   1       5.269   3.741  -0.764  0.00  0.00     0.078 C 
ATOM      2  C1  UNL d   1       4.025   2.934  -0.537  0.00  0.00    -0.077 A 
ATOM      3  C2  UNL d   1       2.851   3.536  -0.069  0.00  0.00    -0.001 A 
ATOM      4  C3  UNL d   1       1.704   2.771   0.147  0.00  0.00     0.003 A 
ATOM      5  C4  UNL d   1       1.720   1.400  -0.100  0.00  0.00    -0.005 A 
ATOM      6  C5  UNL d   1       2.884   0.792  -0.564  0.00  0.00     0.003 A 
ATOM      7  C6  UNL d   1       4.033   1.555  -0.781  0.00  0.00    -0.001 A 
ENDROOT
TORSDOF 0
ENDMDL
