MODEL 1
REMARK minimizedAffinity 4.42849255
REMARK minimizedRMSD -1
REMARK  0 active torsions:
REMARK  status: ('A' for Active; 'I' for Inactive)
ROOT
ATOM      1  C   UNL d   1       1.323  -0.731   0.398  0.00  0.00     0.078 C 
ATOM      2  C1  UNL d   1       2.462  -0.852   1.365  0.00  0.00    -0.077 A 
ATOM      3  C2  UNL d   1       2.265  -1.371   2.650  0.00  0.00    -0.001 A 
ATOM      4  C3  UNL d   1       3.334  -1.469   3.543  0.00  0.00     0.003 A 
ATOM      5  C4  UNL d   1       4.606  -1.048   3.161  0.00  0.00    -0.005 A 
ATOM      6  C5  UNL d   1       4.811  -0.528   1.885  0.00  0.00     0.003 A 
ATOM      7  C6  UNL d   1       3.744  -0.430   0.990  0.00  0.00    -0.001 A 
ENDROOT
TORSDOF 0
ENDMDL
