MODEL 1
REMARK minimizedAffinity 1.85173273
REMARK minimizedRMSD -1
REMARK  0 active torsions:
REMARK  status: ('A' for Active; 'I' for Inactive)
ROOT
ATOM      1  C   UNL d   1      -1.826  -3.417   0.750  0.00  0.00     0.078 C 
ATOM      2  C1  UNL d   1      -0.680  -2.511   0.412  0.00  0.00    -0.077 A 
ATOM      3  C2  UNL d   1      -0.579  -1.234   0.978  0.00  0.00    -0.001 A 
ATOM      4  C3  UNL d   1       0.488  -0.398   0.647  0.00  0.00     0.003 A 
ATOM      5  C4  UNL d   1       1.461  -0.828  -0.253  0.00  0.00    -0.005 A 
ATOM      6  C5  UNL d   1       1.367  -2.095  -0.823  0.00  0.00     0.003 A 
ATOM      7  C6  UNL d   1       0.301  -2.934  -0.493  0.00  0.00    -0.001 A 
ENDROOT
TORSDOF 0
ENDMDL
