MODEL 1
REMARK minimizedAffinity 4.62337828
REMARK minimizedRMSD -1
REMARK  0 active torsions:
REMARK  status: ('A' for Active; 'I' for Inactive)
ROOT
ATOM      1  C   UNL d   1       3.338  -1.571   2.939  0.00  0.00     0.078 C 
ATOM      2  C1  UNL d   1       2.605  -0.992   1.766  0.00  0.00    -0.077 A 
ATOM      3  C2  UNL d   1       3.259  -0.763   0.549  0.00  0.00    -0.001 A 
ATOM      4  C3  UNL d   1       2.566  -0.214  -0.532  0.00  0.00     0.003 A 
ATOM      5  C4  UNL d   1       1.217   0.111  -0.406  0.00  0.00    -0.005 A 
ATOM      6  C5  UNL d   1       0.559  -0.111   0.801  0.00  0.00     0.003 A 
ATOM      7  C6  UNL d   1       1.250  -0.659   1.883  0.00  0.00    -0.001 A 
ENDROOT
TORSDOF 0
ENDMDL
