MODEL 1
REMARK minimizedAffinity 6.0198698
REMARK minimizedRMSD -1
REMARK  0 active torsions:
REMARK  status: ('A' for Active; 'I' for Inactive)
ROOT
ATOM      1  C   UNL d   1      -1.558  -3.449   0.874  0.00  0.00     0.078 C 
ATOM      2  C1  UNL d   1      -0.656  -2.253   0.802  0.00  0.00    -0.077 A 
ATOM      3  C2  UNL d   1      -1.160  -0.959   0.978  0.00  0.00    -0.001 A 
ATOM      4  C3  UNL d   1      -0.311   0.146   0.899  0.00  0.00     0.003 A 
ATOM      5  C4  UNL d   1       1.047  -0.032   0.642  0.00  0.00    -0.005 A 
ATOM      6  C5  UNL d   1       1.557  -1.316   0.463  0.00  0.00     0.003 A 
ATOM      7  C6  UNL d   1       0.710  -2.422   0.542  0.00  0.00    -0.001 A 
ENDROOT
TORSDOF 0
ENDMDL
