MODEL 1
REMARK minimizedAffinity 2.10607767
REMARK minimizedRMSD -1
REMARK  0 active torsions:
REMARK  status: ('A' for Active; 'I' for Inactive)
ROOT
ATOM      1  C   UNL d   1       1.254  -5.580  -5.043  0.00  0.00     0.078 C 
ATOM      2  C1  UNL d   1      -0.240  -5.548  -4.916  0.00  0.00    -0.077 A 
ATOM      3  C2  UNL d   1      -0.853  -5.157  -3.719  0.00  0.00    -0.001 A 
ATOM      4  C3  UNL d   1      -2.244  -5.141  -3.612  0.00  0.00     0.003 A 
ATOM      5  C4  UNL d   1      -3.034  -5.517  -4.696  0.00  0.00    -0.005 A 
ATOM      6  C5  UNL d   1      -2.433  -5.911  -5.890  0.00  0.00     0.003 A 
ATOM      7  C6  UNL d   1      -1.042  -5.927  -6.000  0.00  0.00    -0.001 A 
ENDROOT
TORSDOF 0
ENDMDL
