MODEL 1
REMARK minimizedAffinity 0.992814004
REMARK minimizedRMSD -1
REMARK  0 active torsions:
REMARK  status: ('A' for Active; 'I' for Inactive)
ROOT
ATOM      1  C   UNL d   1      -1.355  -5.923  -5.410  0.00  0.00     0.078 C 
ATOM      2  C1  UNL d   1       0.000  -5.385  -5.062  0.00  0.00    -0.077 A 
ATOM      3  C2  UNL d   1       1.040  -5.387  -6.000  0.00  0.00    -0.001 A 
ATOM      4  C3  UNL d   1       2.299  -4.892  -5.658  0.00  0.00     0.003 A 
ATOM      5  C4  UNL d   1       2.532  -4.393  -4.378  0.00  0.00    -0.005 A 
ATOM      6  C5  UNL d   1       1.504  -4.389  -3.437  0.00  0.00     0.003 A 
ATOM      7  C6  UNL d   1       0.244  -4.883  -3.777  0.00  0.00    -0.001 A 
ENDROOT
TORSDOF 0
ENDMDL
