MODEL 1
REMARK minimizedAffinity 1.19287682
REMARK minimizedRMSD -1
REMARK  0 active torsions:
REMARK  status: ('A' for Active; 'I' for Inactive)
ROOT
ATOM      1  C   UNL d   1       2.103  -0.017  -1.189  0.00  0.00     0.078 C 
ATOM      2  C1  UNL d   1       2.279  -0.428   0.242  0.00  0.00    -0.077 A 
ATOM      3  C2  UNL d   1       1.183  -0.506   1.110  0.00  0.00    -0.001 A 
ATOM      4  C3  UNL d   1       1.363  -0.881   2.442  0.00  0.00     0.003 A 
ATOM      5  C4  UNL d   1       2.638  -1.180   2.919  0.00  0.00    -0.005 A 
ATOM      6  C5  UNL d   1       3.735  -1.103   2.063  0.00  0.00     0.003 A 
ATOM      7  C6  UNL d   1       3.557  -0.728   0.730  0.00  0.00    -0.001 A 
ENDROOT
TORSDOF 0
ENDMDL
