MODEL 1
REMARK minimizedAffinity 3.09239364
REMARK minimizedRMSD -1
REMARK  0 active torsions:
REMARK  status: ('A' for Active; 'I' for Inactive)
ROOT
ATOM      1  C   UNL d   1      -1.466   1.686   4.070  0.00  0.00     0.023 A 
ATOM      2  C1  UNL d   1      -0.584   2.239   3.142  0.00  0.00     0.003 A 
ATOM      3  C2  UNL d   1      -0.260   1.536   1.980  0.00  0.00     0.048 A 
ATOM      4  C3  UNL d   1      -0.822   0.280   1.752  0.00  0.00     0.023 A 
ATOM      5  C4  UNL d   1      -1.706  -0.277   2.678  0.00  0.00     0.048 A 
ATOM      6  C5  UNL d   1      -2.026   0.429   3.838  0.00  0.00     0.003 A 
ATOM      7  I   UNL d   1      -0.340  -0.768   0.023  0.00  0.00    -0.146 I 
ENDROOT
TORSDOF 0
ENDMDL
