MODEL 1
REMARK minimizedAffinity -2.64673591
REMARK minimizedRMSD -1
REMARK  0 active torsions:
REMARK  status: ('A' for Active; 'I' for Inactive)
ROOT
ATOM      1  C   UNL d   1       2.412  -1.110  -1.177  0.00  0.00     0.023 A 
ATOM      2  C1  UNL d   1       2.205   0.260  -1.014  0.00  0.00     0.003 A 
ATOM      3  C2  UNL d   1       1.038   0.723  -0.404  0.00  0.00     0.048 A 
ATOM      4  C3  UNL d   1       0.082  -0.189   0.043  0.00  0.00     0.023 A 
ATOM      5  C4  UNL d   1       0.286  -1.561  -0.117  0.00  0.00     0.048 A 
ATOM      6  C5  UNL d   1       1.454  -2.019  -0.729  0.00  0.00     0.003 A 
ATOM      7  I   UNL d   1      -1.656   0.497   0.952  0.00  0.00    -0.146 I 
ENDROOT
TORSDOF 0
ENDMDL
