MODEL 1
REMARK minimizedAffinity 0.300551295
REMARK minimizedRMSD -1
REMARK  0 active torsions:
REMARK  status: ('A' for Active; 'I' for Inactive)
ROOT
ATOM      1  C   UNL d   1       1.832  -2.227  -0.761  0.00  0.00     0.023 A 
ATOM      2  C1  UNL d   1       0.578  -1.889  -0.251  0.00  0.00     0.003 A 
ATOM      3  C2  UNL d   1       0.136  -0.566  -0.303  0.00  0.00     0.048 A 
ATOM      4  C3  UNL d   1       0.951   0.414  -0.868  0.00  0.00     0.023 A 
ATOM      5  C4  UNL d   1       2.206   0.080  -1.380  0.00  0.00     0.048 A 
ATOM      6  C5  UNL d   1       2.644  -1.244  -1.325  0.00  0.00     0.003 A 
ATOM      7  I   UNL d   1       0.294   2.384  -0.947  0.00  0.00    -0.146 I 
ENDROOT
TORSDOF 0
ENDMDL
