MODEL 1
REMARK minimizedAffinity -4.7576623
REMARK minimizedRMSD -1
REMARK  0 active torsions:
REMARK  status: ('A' for Active; 'I' for Inactive)
ROOT
ATOM      1  C   UNL d   1       2.348  -0.819  -1.296  0.00  0.00     0.023 A 
ATOM      2  C1  UNL d   1       1.696  -1.763  -0.503  0.00  0.00     0.003 A 
ATOM      3  C2  UNL d   1       0.756  -1.353   0.444  0.00  0.00     0.048 A 
ATOM      4  C3  UNL d   1       0.472   0.005   0.593  0.00  0.00     0.023 A 
ATOM      5  C4  UNL d   1       1.122   0.953  -0.198  0.00  0.00     0.048 A 
ATOM      6  C5  UNL d   1       2.061   0.538  -1.143  0.00  0.00     0.003 A 
ATOM      7  I   UNL d   1      -0.927   0.618   2.003  0.00  0.00    -0.146 I 
ENDROOT
TORSDOF 0
ENDMDL
