MODEL 1
REMARK minimizedAffinity -2.58619857
REMARK minimizedRMSD -1
REMARK  0 active torsions:
REMARK  status: ('A' for Active; 'I' for Inactive)
ROOT
ATOM      1  C   UNL d   1       2.379  -0.886  -1.392  0.00  0.00     0.023 A 
ATOM      2  C1  UNL d   1       1.527  -1.896  -0.945  0.00  0.00     0.003 A 
ATOM      3  C2  UNL d   1       0.378  -1.572  -0.221  0.00  0.00     0.048 A 
ATOM      4  C3  UNL d   1       0.086  -0.236   0.053  0.00  0.00     0.023 A 
ATOM      5  C4  UNL d   1       0.935   0.778  -0.394  0.00  0.00     0.048 A 
ATOM      6  C5  UNL d   1       2.083   0.449  -1.117  0.00  0.00     0.003 A 
ATOM      7  I   UNL d   1      -1.623   0.249   1.131  0.00  0.00    -0.146 I 
ENDROOT
TORSDOF 0
ENDMDL
