MODEL 1
REMARK minimizedAffinity -2.26794338
REMARK minimizedRMSD -1
REMARK  0 active torsions:
REMARK  status: ('A' for Active; 'I' for Inactive)
ROOT
ATOM      1  C   UNL d   1       2.841  -1.181  -0.998  0.00  0.00     0.023 A 
ATOM      2  C1  UNL d   1       1.703  -1.973  -1.147  0.00  0.00     0.003 A 
ATOM      3  C2  UNL d   1       0.453  -1.479  -0.770  0.00  0.00     0.048 A 
ATOM      4  C3  UNL d   1       0.347  -0.192  -0.245  0.00  0.00     0.023 A 
ATOM      5  C4  UNL d   1       1.483   0.605  -0.094  0.00  0.00     0.048 A 
ATOM      6  C5  UNL d   1       2.732   0.107  -0.472  0.00  0.00     0.003 A 
ATOM      7  I   UNL d   1      -1.513   0.546   0.317  0.00  0.00    -0.146 I 
ENDROOT
TORSDOF 0
ENDMDL
