MODEL 1
REMARK minimizedAffinity -3.38294673
REMARK minimizedRMSD -1
REMARK  0 active torsions:
REMARK  status: ('A' for Active; 'I' for Inactive)
ROOT
ATOM      1  C   UNL d   1       2.919  -1.138  -1.090  0.00  0.00     0.023 A 
ATOM      2  C1  UNL d   1       1.672  -1.744  -1.243  0.00  0.00     0.003 A 
ATOM      3  C2  UNL d   1       0.535  -1.157  -0.685  0.00  0.00     0.048 A 
ATOM      4  C3  UNL d   1       0.652   0.037   0.026  0.00  0.00     0.023 A 
ATOM      5  C4  UNL d   1       1.897   0.648   0.181  0.00  0.00     0.048 A 
ATOM      6  C5  UNL d   1       3.031   0.057  -0.378  0.00  0.00     0.003 A 
ATOM      7  I   UNL d   1      -1.039   0.913   0.858  0.00  0.00    -0.146 I 
ENDROOT
TORSDOF 0
ENDMDL
