MODEL 1
REMARK minimizedAffinity -4.44251251
REMARK minimizedRMSD -1
REMARK  0 active torsions:
REMARK  status: ('A' for Active; 'I' for Inactive)
ROOT
ATOM      1  C   UNL d   1       3.200  -0.649  -1.304  0.00  0.00     0.023 A 
ATOM      2  C1  UNL d   1       2.825   0.643  -0.935  0.00  0.00     0.003 A 
ATOM      3  C2  UNL d   1       1.542   0.884  -0.439  0.00  0.00     0.048 A 
ATOM      4  C3  UNL d   1       0.639  -0.172  -0.314  0.00  0.00     0.023 A 
ATOM      5  C4  UNL d   1       1.010  -1.466  -0.681  0.00  0.00     0.048 A 
ATOM      6  C5  UNL d   1       2.294  -1.702  -1.178  0.00  0.00     0.003 A 
ATOM      7  I   UNL d   1      -1.271   0.185   0.425  0.00  0.00    -0.146 I 
ENDROOT
TORSDOF 0
ENDMDL
