MODEL 1
REMARK minimizedAffinity -5.60032606
REMARK minimizedRMSD -1
REMARK  0 active torsions:
REMARK  status: ('A' for Active; 'I' for Inactive)
ROOT
ATOM      1  C   UNL d   1       3.275   1.014  -3.001  0.00  0.00     0.023 A 
ATOM      2  C1  UNL d   1       3.547   0.048  -2.033  0.00  0.00     0.003 A 
ATOM      3  C2  UNL d   1       2.559  -0.326  -1.120  0.00  0.00     0.048 A 
ATOM      4  C3  UNL d   1       1.300   0.270  -1.181  0.00  0.00     0.023 A 
ATOM      5  C4  UNL d   1       1.022   1.237  -2.149  0.00  0.00     0.048 A 
ATOM      6  C5  UNL d   1       2.014   1.608  -3.059  0.00  0.00     0.003 A 
ATOM      7  I   UNL d   1      -0.172  -0.284   0.177  0.00  0.00    -0.146 I 
ENDROOT
TORSDOF 0
ENDMDL
