MODEL 1
REMARK minimizedAffinity -3.12142515
REMARK minimizedRMSD -1
REMARK  0 active torsions:
REMARK  status: ('A' for Active; 'I' for Inactive)
ROOT
ATOM      1  C   UNL d   1       3.016  -0.994  -0.866  0.00  0.00     0.023 A 
ATOM      2  C1  UNL d   1       1.962  -1.906  -0.924  0.00  0.00     0.003 A 
ATOM      3  C2  UNL d   1       0.649  -1.471  -0.727  0.00  0.00     0.048 A 
ATOM      4  C3  UNL d   1       0.398  -0.123  -0.475  0.00  0.00     0.023 A 
ATOM      5  C4  UNL d   1       1.449   0.793  -0.417  0.00  0.00     0.048 A 
ATOM      6  C5  UNL d   1       2.760   0.354  -0.613  0.00  0.00     0.003 A 
ATOM      7  I   UNL d   1      -1.555   0.526  -0.183  0.00  0.00    -0.146 I 
ENDROOT
TORSDOF 0
ENDMDL
