MODEL 1
REMARK minimizedAffinity -3.76308537
REMARK minimizedRMSD -1
REMARK  0 active torsions:
REMARK  status: ('A' for Active; 'I' for Inactive)
ROOT
ATOM      1  C   UNL d   1       1.794   1.564  -1.280  0.00  0.00     0.023 A 
ATOM      2  C1  UNL d   1       2.563   0.403  -1.197  0.00  0.00     0.003 A 
ATOM      3  C2  UNL d   1       1.957  -0.816  -0.887  0.00  0.00     0.048 A 
ATOM      4  C3  UNL d   1       0.582  -0.867  -0.662  0.00  0.00     0.023 A 
ATOM      5  C4  UNL d   1      -0.191   0.292  -0.746  0.00  0.00     0.048 A 
ATOM      6  C5  UNL d   1       0.419   1.509  -1.055  0.00  0.00     0.003 A 
ATOM      7  I   UNL d   1      -0.322  -2.681  -0.201  0.00  0.00    -0.146 I 
ENDROOT
TORSDOF 0
ENDMDL
