MODEL 1
REMARK minimizedAffinity -1.91314542
REMARK minimizedRMSD -1
REMARK  0 active torsions:
REMARK  status: ('A' for Active; 'I' for Inactive)
ROOT
ATOM      1  C   UNL d   1      -2.000   1.303   4.307  0.00  0.00     0.023 A 
ATOM      2  C1  UNL d   1      -0.663   1.628   4.081  0.00  0.00     0.003 A 
ATOM      3  C2  UNL d   1      -0.062   1.310   2.861  0.00  0.00     0.048 A 
ATOM      4  C3  UNL d   1      -0.805   0.669   1.871  0.00  0.00     0.023 A 
ATOM      5  C4  UNL d   1      -2.144   0.342   2.092  0.00  0.00     0.048 A 
ATOM      6  C5  UNL d   1      -2.740   0.661   3.313  0.00  0.00     0.003 A 
ATOM      7  I   UNL d   1       0.087   0.195   0.054  0.00  0.00    -0.146 I 
ENDROOT
TORSDOF 0
ENDMDL
