MODEL 1
REMARK minimizedAffinity -3.11115074
REMARK minimizedRMSD -1
REMARK  0 active torsions:
REMARK  status: ('A' for Active; 'I' for Inactive)
ROOT
ATOM      1  C   UNL d   1       2.551  -1.076  -1.580  0.00  0.00     0.023 A 
ATOM      2  C1  UNL d   1       2.707   0.120  -0.878  0.00  0.00     0.003 A 
ATOM      3  C2  UNL d   1       1.659   0.615  -0.099  0.00  0.00     0.048 A 
ATOM      4  C3  UNL d   1       0.458  -0.090  -0.026  0.00  0.00     0.023 A 
ATOM      5  C4  UNL d   1       0.298  -1.288  -0.725  0.00  0.00     0.048 A 
ATOM      6  C5  UNL d   1       1.349  -1.779  -1.503  0.00  0.00     0.003 A 
ATOM      7  I   UNL d   1      -1.103   0.645   1.133  0.00  0.00    -0.146 I 
ENDROOT
TORSDOF 0
ENDMDL
