MODEL 1
REMARK minimizedAffinity -1.54430056
REMARK minimizedRMSD -1
REMARK  0 active torsions:
REMARK  status: ('A' for Active; 'I' for Inactive)
ROOT
ATOM      1  C   UNL d   1       2.209  -1.481  -1.095  0.00  0.00     0.023 A 
ATOM      2  C1  UNL d   1       1.144  -2.191  -0.540  0.00  0.00     0.003 A 
ATOM      3  C2  UNL d   1       0.056  -1.508   0.007  0.00  0.00     0.048 A 
ATOM      4  C3  UNL d   1       0.038  -0.114  -0.006  0.00  0.00     0.023 A 
ATOM      5  C4  UNL d   1       1.101   0.602  -0.561  0.00  0.00     0.048 A 
ATOM      6  C5  UNL d   1       2.187  -0.086  -1.105  0.00  0.00     0.003 A 
ATOM      7  I   UNL d   1      -1.580   0.906   0.807  0.00  0.00    -0.146 I 
ENDROOT
TORSDOF 0
ENDMDL
