MODEL 1
REMARK minimizedAffinity -2.17940068
REMARK minimizedRMSD -1
REMARK  0 active torsions:
REMARK  status: ('A' for Active; 'I' for Inactive)
ROOT
ATOM      1  C   UNL d   1      -1.969  -0.286   1.263  0.00  0.00     0.023 A 
ATOM      2  C1  UNL d   1      -1.270   0.864   0.894  0.00  0.00     0.003 A 
ATOM      3  C2  UNL d   1      -0.084   0.758   0.165  0.00  0.00     0.048 A 
ATOM      4  C3  UNL d   1       0.397  -0.501  -0.194  0.00  0.00     0.023 A 
ATOM      5  C4  UNL d   1      -0.300  -1.654   0.172  0.00  0.00     0.048 A 
ATOM      6  C5  UNL d   1      -1.485  -1.543   0.902  0.00  0.00     0.003 A 
ATOM      7  I   UNL d   1       2.162  -0.662  -1.279  0.00  0.00    -0.146 I 
ENDROOT
TORSDOF 0
ENDMDL
