MODEL 1
REMARK minimizedAffinity -4.91067934
REMARK minimizedRMSD -1
REMARK  0 active torsions:
REMARK  status: ('A' for Active; 'I' for Inactive)
ROOT
ATOM      1  C   UNL d   1       2.965  -0.759  -1.430  0.00  0.00     0.023 A 
ATOM      2  C1  UNL d   1       2.687   0.561  -1.076  0.00  0.00     0.003 A 
ATOM      3  C2  UNL d   1       1.465   0.884  -0.484  0.00  0.00     0.048 A 
ATOM      4  C3  UNL d   1       0.524  -0.118  -0.248  0.00  0.00     0.023 A 
ATOM      5  C4  UNL d   1       0.798  -1.441  -0.600  0.00  0.00     0.048 A 
ATOM      6  C5  UNL d   1       2.022  -1.759  -1.192  0.00  0.00     0.003 A 
ATOM      7  I   UNL d   1      -1.296   0.360   0.633  0.00  0.00    -0.146 I 
ENDROOT
TORSDOF 0
ENDMDL
