MODEL 1
REMARK minimizedAffinity 9.36039829
REMARK minimizedRMSD -1
REMARK  0 active torsions:
REMARK  status: ('A' for Active; 'I' for Inactive)
ROOT
ATOM      1  C2' OXE d   1      -5.960   2.986  -0.706  0.00  0.00     0.078 C 
ATOM      2  C1' OXE d   1      -5.128   0.696   0.688  0.00  0.00     0.078 C 
ATOM      3  C1  OXE d   1      -5.365   0.569  -0.796  0.00  0.00    -0.078 A 
ATOM      4  C2  OXE d   1      -5.817   1.683  -1.462  0.00  0.00    -0.078 A 
ATOM      5  C3  OXE d   1      -6.000   1.635  -2.841  0.00  0.00     0.003 A 
ATOM      6  C4  OXE d   1      -5.875   0.423  -3.531  0.00  0.00    -0.002 A 
ATOM      7  C5  OXE d   1      -5.454  -0.733  -2.865  0.00  0.00    -0.002 A 
ATOM      8  C6  OXE d   1      -5.154  -0.667  -1.509  0.00  0.00     0.003 A 
ENDROOT
TORSDOF 0
ENDMDL
