MODEL 1
REMARK minimizedAffinity 11.3286915
REMARK minimizedRMSD -1
REMARK  0 active torsions:
REMARK  status: ('A' for Active; 'I' for Inactive)
ROOT
ATOM      1  C2' OXE d   1       1.255  -2.207   3.248  0.00  0.00     0.078 C 
ATOM      2  C1' OXE d   1       1.561  -4.272   1.371  0.00  0.00     0.078 C 
ATOM      3  C1  OXE d   1       0.174  -3.723   1.594  0.00  0.00    -0.078 A 
ATOM      4  C2  OXE d   1       0.026  -2.745   2.548  0.00  0.00    -0.078 A 
ATOM      5  C3  OXE d   1      -1.222  -2.166   2.754  0.00  0.00     0.003 A 
ATOM      6  C4  OXE d   1      -2.356  -2.676   2.109  0.00  0.00    -0.002 A 
ATOM      7  C5  OXE d   1      -2.234  -3.699   1.163  0.00  0.00    -0.002 A 
ATOM      8  C6  OXE d   1      -0.973  -4.203   0.863  0.00  0.00     0.003 A 
ENDROOT
TORSDOF 0
ENDMDL
