MODEL 1
REMARK minimizedAffinity 5.71600103
REMARK minimizedRMSD -1
REMARK  0 active torsions:
REMARK  status: ('A' for Active; 'I' for Inactive)
ROOT
ATOM      1  C2' OXE d   1       0.366  -0.608   4.519  0.00  0.00     0.078 C 
ATOM      2  C1' OXE d   1      -1.957   0.777   3.766  0.00  0.00     0.078 C 
ATOM      3  C1  OXE d   1      -1.553  -0.419   2.941  0.00  0.00    -0.078 A 
ATOM      4  C2  OXE d   1      -0.389  -1.062   3.288  0.00  0.00    -0.078 A 
ATOM      5  C3  OXE d   1       0.001  -2.204   2.594  0.00  0.00     0.003 A 
ATOM      6  C4  OXE d   1      -0.698  -2.611   1.451  0.00  0.00    -0.002 A 
ATOM      7  C5  OXE d   1      -1.863  -1.946   1.056  0.00  0.00    -0.002 A 
ATOM      8  C6  OXE d   1      -2.327  -0.876   1.814  0.00  0.00     0.003 A 
ENDROOT
TORSDOF 0
ENDMDL
