MODEL 1
REMARK minimizedAffinity 12.8007269
REMARK minimizedRMSD -1
REMARK  0 active torsions:
REMARK  status: ('A' for Active; 'I' for Inactive)
ROOT
ATOM      1  C2' OXE d   1       5.999   4.356  -4.503  0.00  0.00     0.078 C 
ATOM      2  C1' OXE d   1       6.000   3.749  -1.762  0.00  0.00     0.078 C 
ATOM      3  C1  OXE d   1       4.721   3.529  -2.531  0.00  0.00    -0.078 A 
ATOM      4  C2  OXE d   1       4.716   3.873  -3.861  0.00  0.00    -0.078 A 
ATOM      5  C3  OXE d   1       3.580   3.639  -4.630  0.00  0.00     0.003 A 
ATOM      6  C4  OXE d   1       2.394   3.202  -4.027  0.00  0.00    -0.002 A 
ATOM      7  C5  OXE d   1       2.366   2.884  -2.665  0.00  0.00    -0.002 A 
ATOM      8  C6  OXE d   1       3.530   3.001  -1.913  0.00  0.00     0.003 A 
ENDROOT
TORSDOF 0
ENDMDL
