MODEL 1
REMARK minimizedAffinity 15.2857475
REMARK minimizedRMSD -1
REMARK  0 active torsions:
REMARK  status: ('A' for Active; 'I' for Inactive)
ROOT
ATOM      1  C2' OXE d   1       5.995   4.933  -2.082  0.00  0.00     0.078 C 
ATOM      2  C1' OXE d   1       6.000   5.254  -4.871  0.00  0.00     0.078 C 
ATOM      3  C1  OXE d   1       4.817   4.559  -4.245  0.00  0.00    -0.078 A 
ATOM      4  C2  OXE d   1       4.845   4.365  -2.885  0.00  0.00    -0.078 A 
ATOM      5  C3  OXE d   1       3.754   3.777  -2.250  0.00  0.00     0.003 A 
ATOM      6  C4  OXE d   1       2.699   3.245  -3.001  0.00  0.00    -0.002 A 
ATOM      7  C5  OXE d   1       2.670   3.397  -4.392  0.00  0.00    -0.002 A 
ATOM      8  C6  OXE d   1       3.698   4.088  -5.024  0.00  0.00     0.003 A 
ENDROOT
TORSDOF 0
ENDMDL
