MODEL 1
REMARK minimizedAffinity 12.9953737
REMARK minimizedRMSD -1
REMARK  0 active torsions:
REMARK  status: ('A' for Active; 'I' for Inactive)
ROOT
ATOM      1  C2' OXE d   1       3.374   0.374   1.599  0.00  0.00     0.078 C 
ATOM      2  C1' OXE d   1       4.838  -0.002  -0.766  0.00  0.00     0.078 C 
ATOM      3  C1  OXE d   1       5.019   1.300  -0.026  0.00  0.00    -0.078 A 
ATOM      4  C2  OXE d   1       4.264   1.494   1.105  0.00  0.00    -0.078 A 
ATOM      5  C3  OXE d   1       4.432   2.655   1.855  0.00  0.00     0.003 A 
ATOM      6  C4  OXE d   1       5.250   3.690   1.386  0.00  0.00    -0.002 A 
ATOM      7  C5  OXE d   1       5.997   3.528   0.215  0.00  0.00    -0.002 A 
ATOM      8  C6  OXE d   1       5.926   2.325  -0.479  0.00  0.00     0.003 A 
ENDROOT
TORSDOF 0
ENDMDL
