MODEL 1
REMARK minimizedAffinity 6.65060949
REMARK minimizedRMSD -1
REMARK  0 active torsions:
REMARK  status: ('A' for Active; 'I' for Inactive)
ROOT
ATOM      1  C2' OXE d   1       2.235   2.291   0.406  0.00  0.00     0.078 C 
ATOM      2  C1' OXE d   1       4.014   0.618   1.790  0.00  0.00     0.078 C 
ATOM      3  C1  OXE d   1       4.418   2.057   1.582  0.00  0.00    -0.078 A 
ATOM      4  C2  OXE d   1       3.563   2.856   0.863  0.00  0.00    -0.078 A 
ATOM      5  C3  OXE d   1       3.861   4.205   0.690  0.00  0.00     0.003 A 
ATOM      6  C4  OXE d   1       5.096   4.717   1.107  0.00  0.00    -0.002 A 
ATOM      7  C5  OXE d   1       5.999   3.909   1.807  0.00  0.00    -0.002 A 
ATOM      8  C6  OXE d   1       5.658   2.591   2.089  0.00  0.00     0.003 A 
ENDROOT
TORSDOF 0
ENDMDL
