MODEL 1
REMARK minimizedAffinity 13.7248764
REMARK minimizedRMSD -1
REMARK  0 active torsions:
REMARK  status: ('A' for Active; 'I' for Inactive)
ROOT
ATOM      1  C2' OXE d   1      -1.833   0.661   3.828  0.00  0.00     0.078 C 
ATOM      2  C1' OXE d   1      -0.213  -1.166   2.443  0.00  0.00     0.078 C 
ATOM      3  C1  OXE d   1      -1.700  -1.416   2.458  0.00  0.00    -0.078 A 
ATOM      4  C2  OXE d   1      -2.480  -0.543   3.177  0.00  0.00    -0.078 A 
ATOM      5  C3  OXE d   1      -3.864  -0.696   3.179  0.00  0.00     0.003 A 
ATOM      6  C4  OXE d   1      -4.454  -1.817   2.583  0.00  0.00    -0.002 A 
ATOM      7  C5  OXE d   1      -3.673  -2.740   1.879  0.00  0.00    -0.002 A 
ATOM      8  C6  OXE d   1      -2.303  -2.532   1.771  0.00  0.00     0.003 A 
ENDROOT
TORSDOF 0
ENDMDL
