MODEL 1
REMARK minimizedAffinity 24.2532558
REMARK minimizedRMSD -1
REMARK  0 active torsions:
REMARK  status: ('A' for Active; 'I' for Inactive)
ROOT
ATOM      1  C2' OXE d   1       1.260  -2.825   2.423  0.00  0.00     0.078 C 
ATOM      2  C1' OXE d   1       2.686  -0.598   1.480  0.00  0.00     0.078 C 
ATOM      3  C1  OXE d   1       2.943  -1.929   0.819  0.00  0.00    -0.078 A 
ATOM      4  C2  OXE d   1       2.276  -3.022   1.318  0.00  0.00    -0.078 A 
ATOM      5  C3  OXE d   1       2.435  -4.264   0.710  0.00  0.00     0.003 A 
ATOM      6  C4  OXE d   1       3.384  -4.440  -0.305  0.00  0.00    -0.002 A 
ATOM      7  C5  OXE d   1       4.104  -3.347  -0.801  0.00  0.00    -0.002 A 
ATOM      8  C6  OXE d   1       3.865  -2.081  -0.280  0.00  0.00     0.003 A 
ENDROOT
TORSDOF 0
ENDMDL
