MODEL 1
REMARK minimizedAffinity 10.9182968
REMARK minimizedRMSD -1
REMARK  0 active torsions:
REMARK  status: ('A' for Active; 'I' for Inactive)
ROOT
ATOM      1  C2' OXE d   1       4.204   2.405  -6.000  0.00  0.00     0.078 C 
ATOM      2  C1' OXE d   1       6.000   4.129  -4.702  0.00  0.00     0.078 C 
ATOM      3  C1  OXE d   1       4.701   3.811  -4.004  0.00  0.00    -0.078 A 
ATOM      4  C2  OXE d   1       3.808   3.005  -4.668  0.00  0.00    -0.078 A 
ATOM      5  C3  OXE d   1       2.618   2.636  -4.046  0.00  0.00     0.003 A 
ATOM      6  C4  OXE d   1       2.255   3.203  -2.819  0.00  0.00    -0.002 A 
ATOM      7  C5  OXE d   1       3.132   4.058  -2.144  0.00  0.00    -0.002 A 
ATOM      8  C6  OXE d   1       4.375   4.338  -2.702  0.00  0.00     0.003 A 
ENDROOT
TORSDOF 0
ENDMDL
