MODEL 1
REMARK minimizedAffinity 10.6243763
REMARK minimizedRMSD -1
REMARK  0 active torsions:
REMARK  status: ('A' for Active; 'I' for Inactive)
ROOT
ATOM      1  C2' OXE d   1      -5.966   1.586   2.734  0.00  0.00     0.078 C 
ATOM      2  C1' OXE d   1      -5.688   1.038   5.473  0.00  0.00     0.078 C 
ATOM      3  C1  OXE d   1      -5.774   2.483   5.050  0.00  0.00    -0.078 A 
ATOM      4  C2  OXE d   1      -5.863   2.743   3.703  0.00  0.00    -0.078 A 
ATOM      5  C3  OXE d   1      -5.999   4.056   3.262  0.00  0.00     0.003 A 
ATOM      6  C4  OXE d   1      -5.893   5.122   4.165  0.00  0.00    -0.002 A 
ATOM      7  C5  OXE d   1      -5.762   4.880   5.536  0.00  0.00    -0.002 A 
ATOM      8  C6  OXE d   1      -5.744   3.569   5.999  0.00  0.00     0.003 A 
ENDROOT
TORSDOF 0
ENDMDL
