MODEL 1
REMARK minimizedAffinity 17.173254
REMARK minimizedRMSD -1
REMARK  0 active torsions:
REMARK  status: ('A' for Active; 'I' for Inactive)
ROOT
ATOM      1  C2' OXE d   1       0.764   5.626  -1.503  0.00  0.00     0.078 C 
ATOM      2  C1' OXE d   1       1.195   3.280  -2.981  0.00  0.00     0.078 C 
ATOM      3  C1  OXE d   1       2.404   4.080  -2.564  0.00  0.00    -0.078 A 
ATOM      4  C2  OXE d   1       2.181   5.251  -1.881  0.00  0.00    -0.078 A 
ATOM      5  C3  OXE d   1       3.262   6.000  -1.425  0.00  0.00     0.003 A 
ATOM      6  C4  OXE d   1       4.569   5.652  -1.788  0.00  0.00    -0.002 A 
ATOM      7  C5  OXE d   1       4.815   4.484  -2.517  0.00  0.00    -0.002 A 
ATOM      8  C6  OXE d   1       3.749   3.666  -2.876  0.00  0.00     0.003 A 
ENDROOT
TORSDOF 0
ENDMDL
