MODEL 1
REMARK minimizedAffinity 10.743351
REMARK minimizedRMSD -1
REMARK  0 active torsions:
REMARK  status: ('A' for Active; 'I' for Inactive)
ROOT
ATOM      1  C2' OXE d   1       0.335   1.282  -1.471  0.00  0.00     0.078 C 
ATOM      2  C1' OXE d   1      -0.000   3.412  -3.267  0.00  0.00     0.078 C 
ATOM      3  C1  OXE d   1       1.397   2.886  -3.052  0.00  0.00    -0.078 A 
ATOM      4  C2  OXE d   1       1.558   1.875  -2.136  0.00  0.00    -0.078 A 
ATOM      5  C3  OXE d   1       2.817   1.316  -1.940  0.00  0.00     0.003 A 
ATOM      6  C4  OXE d   1       3.945   1.877  -2.553  0.00  0.00    -0.002 A 
ATOM      7  C5  OXE d   1       3.808   2.934  -3.459  0.00  0.00    -0.002 A 
ATOM      8  C6  OXE d   1       2.539   3.421  -3.751  0.00  0.00     0.003 A 
ENDROOT
TORSDOF 0
ENDMDL
