MODEL 1
REMARK minimizedAffinity 8.18846703
REMARK minimizedRMSD -1
REMARK  0 active torsions:
REMARK  status: ('A' for Active; 'I' for Inactive)
ROOT
ATOM      1  C2' OXE d   1       0.783  -0.869   2.232  0.00  0.00     0.078 C 
ATOM      2  C1' OXE d   1      -1.572   0.471   2.966  0.00  0.00     0.078 C 
ATOM      3  C1  OXE d   1      -1.708  -0.860   2.270  0.00  0.00    -0.078 A 
ATOM      4  C2  OXE d   1      -0.551  -1.487   1.872  0.00  0.00    -0.078 A 
ATOM      5  C3  OXE d   1      -0.618  -2.742   1.275  0.00  0.00     0.003 A 
ATOM      6  C4  OXE d   1      -1.856  -3.302   0.937  0.00  0.00    -0.002 A 
ATOM      7  C5  OXE d   1      -3.046  -2.662   1.297  0.00  0.00    -0.002 A 
ATOM      8  C6  OXE d   1      -2.990  -1.464   2.000  0.00  0.00     0.003 A 
ENDROOT
TORSDOF 0
ENDMDL
