MODEL 1
REMARK minimizedAffinity 15.6539278
REMARK minimizedRMSD -1
REMARK  0 active torsions:
REMARK  status: ('A' for Active; 'I' for Inactive)
ROOT
ATOM      1  C2' OXE d   1      -1.693  -1.324   1.498  0.00  0.00     0.078 C 
ATOM      2  C1' OXE d   1      -3.911  -0.937  -0.179  0.00  0.00     0.078 C 
ATOM      3  C1  OXE d   1      -3.753  -2.285   0.479  0.00  0.00    -0.078 A 
ATOM      4  C2  OXE d   1      -2.640  -2.480   1.261  0.00  0.00    -0.078 A 
ATOM      5  C3  OXE d   1      -2.474  -3.687   1.935  0.00  0.00     0.003 A 
ATOM      6  C4  OXE d   1      -3.349  -4.755   1.702  0.00  0.00    -0.002 A 
ATOM      7  C5  OXE d   1      -4.467  -4.590   0.878  0.00  0.00    -0.002 A 
ATOM      8  C6  OXE d   1      -4.706  -3.351   0.294  0.00  0.00     0.003 A 
ENDROOT
TORSDOF 0
ENDMDL
