MODEL 1
REMARK minimizedAffinity 6.04765987
REMARK minimizedRMSD -1
REMARK  0 active torsions:
REMARK  status: ('A' for Active; 'I' for Inactive)
ROOT
ATOM      1  C2' OXE d   1       1.138   5.158  -2.540  0.00  0.00     0.078 C 
ATOM      2  C1' OXE d   1       2.504   3.258  -4.091  0.00  0.00     0.078 C 
ATOM      3  C1  OXE d   1       2.315   2.964  -2.624  0.00  0.00    -0.078 A 
ATOM      4  C2  OXE d   1       1.687   3.921  -1.863  0.00  0.00    -0.078 A 
ATOM      5  C3  OXE d   1       1.439   3.676  -0.515  0.00  0.00     0.003 A 
ATOM      6  C4  OXE d   1       1.959   2.534   0.105  0.00  0.00    -0.002 A 
ATOM      7  C5  OXE d   1       2.636   1.566  -0.643  0.00  0.00    -0.002 A 
ATOM      8  C6  OXE d   1       2.786   1.745  -2.014  0.00  0.00     0.003 A 
ENDROOT
TORSDOF 0
ENDMDL
