MODEL 1
REMARK minimizedAffinity 15.5356464
REMARK minimizedRMSD -1
REMARK  0 active torsions:
REMARK  status: ('A' for Active; 'I' for Inactive)
ROOT
ATOM      1  C2' OXE d   1       4.509  -2.202  -1.140  0.00  0.00     0.078 C 
ATOM      2  C1' OXE d   1       2.633  -4.253  -1.535  0.00  0.00     0.078 C 
ATOM      3  C1  OXE d   1       3.795  -4.530  -0.614  0.00  0.00    -0.078 A 
ATOM      4  C2  OXE d   1       4.732  -3.537  -0.463  0.00  0.00    -0.078 A 
ATOM      5  C3  OXE d   1       5.795  -3.720   0.418  0.00  0.00     0.003 A 
ATOM      6  C4  OXE d   1       6.000  -4.961   1.033  0.00  0.00    -0.002 A 
ATOM      7  C5  OXE d   1       5.078  -6.000   0.861  0.00  0.00    -0.002 A 
ATOM      8  C6  OXE d   1       3.950  -5.787   0.077  0.00  0.00     0.003 A 
ENDROOT
TORSDOF 0
ENDMDL
