MODEL 1
REMARK minimizedAffinity 12.6464195
REMARK minimizedRMSD -1
REMARK  0 active torsions:
REMARK  status: ('A' for Active; 'I' for Inactive)
ROOT
ATOM      1  C2' OXE d   1       5.628   5.249  -1.723  0.00  0.00     0.078 C 
ATOM      2  C1' OXE d   1       5.999   4.183  -4.293  0.00  0.00     0.078 C 
ATOM      3  C1  OXE d   1       4.742   3.807  -3.550  0.00  0.00    -0.078 A 
ATOM      4  C2  OXE d   1       4.591   4.295  -2.275  0.00  0.00    -0.078 A 
ATOM      5  C3  OXE d   1       3.424   4.023  -1.565  0.00  0.00     0.003 A 
ATOM      6  C4  OXE d   1       2.474   3.132  -2.079  0.00  0.00    -0.002 A 
ATOM      7  C5  OXE d   1       2.628   2.591  -3.360  0.00  0.00    -0.002 A 
ATOM      8  C6  OXE d   1       3.732   2.951  -4.124  0.00  0.00     0.003 A 
ENDROOT
TORSDOF 0
ENDMDL
