MODEL 1
REMARK minimizedAffinity -4.21268511
REMARK minimizedRMSD -1
REMARK  0 active torsions:
REMARK  status: ('A' for Active; 'I' for Inactive)
ROOT
ATOM      1  C   UNL d   1       1.840  -1.240  -1.384  0.00  0.00     0.023 A 
ATOM      2  C1  UNL d   1       1.051  -0.145  -1.736  0.00  0.00     0.003 A 
ATOM      3  C2  UNL d   1      -0.009   0.245  -0.916  0.00  0.00     0.048 A 
ATOM      4  C3  UNL d   1      -0.275  -0.464   0.255  0.00  0.00     0.023 A 
ATOM      5  C4  UNL d   1       0.513  -1.560   0.612  0.00  0.00     0.048 A 
ATOM      6  C5  UNL d   1       1.572  -1.946  -0.212  0.00  0.00     0.003 A 
ATOM      7  I   UNL d   1      -1.853   0.115   1.478  0.00  0.00    -0.146 I 
ENDROOT
TORSDOF 0
ENDMDL
