MODEL 1
REMARK minimizedAffinity -2.33489299
REMARK minimizedRMSD -1
REMARK  0 active torsions:
REMARK  status: ('A' for Active; 'I' for Inactive)
ROOT
ATOM      1  C   UNL d   1       5.247  -1.503   4.820  0.00  0.00     0.023 A 
ATOM      2  C1  UNL d   1       5.099  -0.778   3.638  0.00  0.00     0.003 A 
ATOM      3  C2  UNL d   1       5.309   0.603   3.633  0.00  0.00     0.048 A 
ATOM      4  C3  UNL d   1       5.667   1.252   4.814  0.00  0.00     0.023 A 
ATOM      5  C4  UNL d   1       5.817   0.530   6.000  0.00  0.00     0.048 A 
ATOM      6  C5  UNL d   1       5.605  -0.850   6.000  0.00  0.00     0.003 A 
ATOM      7  I   UNL d   1       5.980   3.306   4.810  0.00  0.00    -0.146 I 
ENDROOT
TORSDOF 0
ENDMDL
