MODEL 1
REMARK minimizedAffinity 7.77638006
REMARK minimizedRMSD -1
REMARK  0 active torsions:
REMARK  status: ('A' for Active; 'I' for Inactive)
ROOT
ATOM      1  C   UNL d   1      -0.694   1.306  -0.861  0.00  0.00     0.023 A 
ATOM      2  C1  UNL d   1      -1.548   0.610  -0.006  0.00  0.00     0.003 A 
ATOM      3  C2  UNL d   1      -1.242  -0.698   0.376  0.00  0.00     0.048 A 
ATOM      4  C3  UNL d   1      -0.079  -1.303  -0.100  0.00  0.00     0.023 A 
ATOM      5  C4  UNL d   1       0.779  -0.610  -0.955  0.00  0.00     0.048 A 
ATOM      6  C5  UNL d   1       0.469   0.697  -1.334  0.00  0.00     0.003 A 
ATOM      7  I   UNL d   1       0.379  -3.249   0.467  0.00  0.00    -0.146 I 
ENDROOT
TORSDOF 0
ENDMDL
