MODEL 1
REMARK minimizedAffinity 0.761305749
REMARK minimizedRMSD -1
REMARK  0 active torsions:
REMARK  status: ('A' for Active; 'I' for Inactive)
ROOT
ATOM      1  C   UNL d   1       4.758   4.152   4.022  0.00  0.00     0.023 A 
ATOM      2  C1  UNL d   1       3.601   3.385   3.888  0.00  0.00     0.003 A 
ATOM      3  C2  UNL d   1       3.640   2.011   4.135  0.00  0.00     0.048 A 
ATOM      4  C3  UNL d   1       4.839   1.411   4.518  0.00  0.00     0.023 A 
ATOM      5  C4  UNL d   1       6.000   2.175   4.654  0.00  0.00     0.048 A 
ATOM      6  C5  UNL d   1       5.956   3.548   4.404  0.00  0.00     0.003 A 
ATOM      7  I   UNL d   1       4.899  -0.633   4.887  0.00  0.00    -0.146 I 
ENDROOT
TORSDOF 0
ENDMDL
