MODEL 1
REMARK minimizedAffinity -1.22049749
REMARK minimizedRMSD -1
REMARK  0 active torsions:
REMARK  status: ('A' for Active; 'I' for Inactive)
ROOT
ATOM      1  C   UNL d   1       1.670  -1.401  -0.912  0.00  0.00     0.023 A 
ATOM      2  C1  UNL d   1       0.589  -2.154  -0.453  0.00  0.00     0.003 A 
ATOM      3  C2  UNL d   1      -0.519  -1.516   0.107  0.00  0.00     0.048 A 
ATOM      4  C3  UNL d   1      -0.541  -0.126   0.204  0.00  0.00     0.023 A 
ATOM      5  C4  UNL d   1       0.538   0.632  -0.255  0.00  0.00     0.048 A 
ATOM      6  C5  UNL d   1       1.645  -0.010  -0.813  0.00  0.00     0.003 A 
ATOM      7  I   UNL d   1      -2.190   0.826   1.038  0.00  0.00    -0.146 I 
ENDROOT
TORSDOF 0
ENDMDL
