MODEL 1
REMARK minimizedAffinity -1.69790483
REMARK minimizedRMSD -1
REMARK  0 active torsions:
REMARK  status: ('A' for Active; 'I' for Inactive)
ROOT
ATOM      1  C   UNL d   1      -0.474   1.786   1.099  0.00  0.00     0.023 A 
ATOM      2  C1  UNL d   1      -0.896   0.643   0.420  0.00  0.00     0.003 A 
ATOM      3  C2  UNL d   1      -1.714  -0.289   1.061  0.00  0.00     0.048 A 
ATOM      4  C3  UNL d   1      -2.107  -0.072   2.381  0.00  0.00     0.023 A 
ATOM      5  C4  UNL d   1      -1.688   1.070   3.064  0.00  0.00     0.048 A 
ATOM      6  C5  UNL d   1      -0.869   1.999   2.420  0.00  0.00     0.003 A 
ATOM      7  I   UNL d   1      -3.325  -1.459   3.337  0.00  0.00    -0.146 I 
ENDROOT
TORSDOF 0
ENDMDL
