MODEL 1
REMARK minimizedAffinity -3.88074708
REMARK minimizedRMSD -1
REMARK  0 active torsions:
REMARK  status: ('A' for Active; 'I' for Inactive)
ROOT
ATOM      1  C   UNL d   1       2.527  -1.221  -1.200  0.00  0.00     0.023 A 
ATOM      2  C1  UNL d   1       1.643  -2.086  -0.555  0.00  0.00     0.003 A 
ATOM      3  C2  UNL d   1       0.502  -1.582   0.071  0.00  0.00     0.048 A 
ATOM      4  C3  UNL d   1       0.249  -0.211   0.048  0.00  0.00     0.023 A 
ATOM      5  C4  UNL d   1       1.130   0.659  -0.597  0.00  0.00     0.048 A 
ATOM      6  C5  UNL d   1       2.270   0.150  -1.221  0.00  0.00     0.003 A 
ATOM      7  I   UNL d   1      -1.449   0.543   0.979  0.00  0.00    -0.146 I 
ENDROOT
TORSDOF 0
ENDMDL
