MODEL 1
REMARK minimizedAffinity -3.45496583
REMARK minimizedRMSD -1
REMARK  0 active torsions:
REMARK  status: ('A' for Active; 'I' for Inactive)
ROOT
ATOM      1  C   UNL d   1       2.245  -2.095  -0.615  0.00  0.00     0.023 A 
ATOM      2  C1  UNL d   1       0.876  -2.080  -0.347  0.00  0.00     0.003 A 
ATOM      3  C2  UNL d   1       0.127  -0.929  -0.599  0.00  0.00     0.048 A 
ATOM      4  C3  UNL d   1       0.753   0.203  -1.120  0.00  0.00     0.023 A 
ATOM      5  C4  UNL d   1       2.122   0.192  -1.391  0.00  0.00     0.048 A 
ATOM      6  C5  UNL d   1       2.867  -0.960  -1.137  0.00  0.00     0.003 A 
ATOM      7  I   UNL d   1      -0.360   1.918  -1.496  0.00  0.00    -0.146 I 
ENDROOT
TORSDOF 0
ENDMDL
