MODEL 1
REMARK minimizedAffinity -3.010777
REMARK minimizedRMSD -1
REMARK  0 active torsions:
REMARK  status: ('A' for Active; 'I' for Inactive)
ROOT
ATOM      1  C   UNL d   1       2.402  -1.442  -1.397  0.00  0.00     0.023 A 
ATOM      2  C1  UNL d   1       2.365  -0.052  -1.282  0.00  0.00     0.003 A 
ATOM      3  C2  UNL d   1       1.302   0.567  -0.621  0.00  0.00     0.048 A 
ATOM      4  C3  UNL d   1       0.280  -0.209  -0.077  0.00  0.00     0.023 A 
ATOM      5  C4  UNL d   1       0.312  -1.600  -0.190  0.00  0.00     0.048 A 
ATOM      6  C5  UNL d   1       1.377  -2.215  -0.852  0.00  0.00     0.003 A 
ATOM      7  I   UNL d   1      -1.303   0.710   0.906  0.00  0.00    -0.146 I 
ENDROOT
TORSDOF 0
ENDMDL
