MODEL 1
REMARK minimizedAffinity 0.224303111
REMARK minimizedRMSD -1
REMARK  0 active torsions:
REMARK  status: ('A' for Active; 'I' for Inactive)
ROOT
ATOM      1  C   UNL d   1       0.469   1.035  -0.576  0.00  0.00     0.023 A 
ATOM      2  C1  UNL d   1      -0.904   1.259  -0.679  0.00  0.00     0.003 A 
ATOM      3  C2  UNL d   1      -1.732   1.042   0.423  0.00  0.00     0.048 A 
ATOM      4  C3  UNL d   1      -1.181   0.602   1.627  0.00  0.00     0.023 A 
ATOM      5  C4  UNL d   1       0.192   0.378   1.734  0.00  0.00     0.048 A 
ATOM      6  C5  UNL d   1       1.017   0.595   0.629  0.00  0.00     0.003 A 
ATOM      7  I   UNL d   1      -2.413   0.279   3.269  0.00  0.00    -0.146 I 
ENDROOT
TORSDOF 0
ENDMDL
