MODEL 1
REMARK minimizedAffinity -5.00254869
REMARK minimizedRMSD -1
REMARK  0 active torsions:
REMARK  status: ('A' for Active; 'I' for Inactive)
ROOT
ATOM      1  C   UNL d   1      -0.132  -1.854   0.263  0.00  0.00     0.023 A 
ATOM      2  C1  UNL d   1       1.025  -2.198  -0.436  0.00  0.00     0.003 A 
ATOM      3  C2  UNL d   1       1.661  -1.253  -1.244  0.00  0.00     0.048 A 
ATOM      4  C3  UNL d   1       1.136   0.035  -1.347  0.00  0.00     0.023 A 
ATOM      5  C4  UNL d   1      -0.021   0.384  -0.648  0.00  0.00     0.048 A 
ATOM      6  C5  UNL d   1      -0.654  -0.565   0.157  0.00  0.00     0.003 A 
ATOM      7  I   UNL d   1       2.081   1.443  -2.548  0.00  0.00    -0.146 I 
ENDROOT
TORSDOF 0
ENDMDL
