MODEL 1
REMARK minimizedAffinity -3.68861055
REMARK minimizedRMSD -1
REMARK  0 active torsions:
REMARK  status: ('A' for Active; 'I' for Inactive)
ROOT
ATOM      1  C   UNL d   1      -3.908   0.976   3.699  0.00  0.00     0.023 A 
ATOM      2  C1  UNL d   1      -2.911   1.949   3.629  0.00  0.00     0.003 A 
ATOM      3  C2  UNL d   1      -1.900   1.848   2.671  0.00  0.00     0.048 A 
ATOM      4  C3  UNL d   1      -1.894   0.771   1.784  0.00  0.00     0.023 A 
ATOM      5  C4  UNL d   1      -2.891  -0.204   1.850  0.00  0.00     0.048 A 
ATOM      6  C5  UNL d   1      -3.898  -0.099   2.810  0.00  0.00     0.003 A 
ATOM      7  I   UNL d   1      -0.391   0.618   0.357  0.00  0.00    -0.146 I 
ENDROOT
TORSDOF 0
ENDMDL
