MODEL 1
REMARK minimizedAffinity -3.896878
REMARK minimizedRMSD -1
REMARK  0 active torsions:
REMARK  status: ('A' for Active; 'I' for Inactive)
ROOT
ATOM      1  C   UNL d   1       2.173  -1.125  -1.089  0.00  0.00     0.023 A 
ATOM      2  C1  UNL d   1       1.985   0.245  -0.908  0.00  0.00     0.003 A 
ATOM      3  C2  UNL d   1       0.900   0.709  -0.161  0.00  0.00     0.048 A 
ATOM      4  C3  UNL d   1       0.008  -0.202   0.403  0.00  0.00     0.023 A 
ATOM      5  C4  UNL d   1       0.193  -1.574   0.225  0.00  0.00     0.048 A 
ATOM      6  C5  UNL d   1       1.278  -2.034  -0.524  0.00  0.00     0.003 A 
ATOM      7  I   UNL d   1      -1.607   0.486   1.515  0.00  0.00    -0.146 I 
ENDROOT
TORSDOF 0
ENDMDL
