MODEL 1
REMARK minimizedAffinity -3.72578669
REMARK minimizedRMSD -1
REMARK  0 active torsions:
REMARK  status: ('A' for Active; 'I' for Inactive)
ROOT
ATOM      1  C   UNL d   1       1.757  -0.750  -1.267  0.00  0.00     0.023 A 
ATOM      2  C1  UNL d   1       1.493   0.616  -1.167  0.00  0.00     0.003 A 
ATOM      3  C2  UNL d   1       0.432   1.068  -0.380  0.00  0.00     0.048 A 
ATOM      4  C3  UNL d   1      -0.362   0.148   0.305  0.00  0.00     0.023 A 
ATOM      5  C4  UNL d   1      -0.101  -1.220   0.208  0.00  0.00     0.048 A 
ATOM      6  C5  UNL d   1       0.960  -1.667  -0.581  0.00  0.00     0.003 A 
ATOM      7  I   UNL d   1      -1.942   0.819   1.476  0.00  0.00    -0.146 I 
ENDROOT
TORSDOF 0
ENDMDL
