MODEL 1
REMARK minimizedAffinity -2.88067842
REMARK minimizedRMSD -1
REMARK  0 active torsions:
REMARK  status: ('A' for Active; 'I' for Inactive)
ROOT
ATOM      1  C1  BNZ d   1      -2.554   1.508   3.995  0.00  0.00     0.000 A 
ATOM      2  C2  BNZ d   1      -1.604   1.994   3.136  0.00  0.00     0.000 A 
ATOM      3  C3  BNZ d   1      -1.291   1.322   1.988  0.00  0.00     0.000 A 
ATOM      4  C4  BNZ d   1      -1.897   0.148   1.720  0.00  0.00     0.000 A 
ATOM      5  C5  BNZ d   1      -2.849  -0.360   2.581  0.00  0.00     0.000 A 
ATOM      6  C6  BNZ d   1      -3.191   0.339   3.716  0.00  0.00     0.000 A 
ENDROOT
TORSDOF 0
ENDMDL
