MODEL 1
REMARK minimizedAffinity -1.41150403
REMARK minimizedRMSD -1
REMARK  0 active torsions:
REMARK  status: ('A' for Active; 'I' for Inactive)
ROOT
ATOM      1  C1  BNZ d   1       5.435   2.637   4.837  0.00  0.00     0.000 A 
ATOM      2  C2  BNZ d   1       5.656   1.944   5.997  0.00  0.00     0.000 A 
ATOM      3  C3  BNZ d   1       5.697   0.578   5.999  0.00  0.00     0.000 A 
ATOM      4  C4  BNZ d   1       5.477  -0.094   4.851  0.00  0.00     0.000 A 
ATOM      5  C5  BNZ d   1       5.244   0.591   3.674  0.00  0.00     0.000 A 
ATOM      6  C6  BNZ d   1       5.242   1.967   3.669  0.00  0.00     0.000 A 
ENDROOT
TORSDOF 0
ENDMDL
