MODEL 1
REMARK minimizedAffinity -4.33761501
REMARK minimizedRMSD -1
REMARK  0 active torsions:
REMARK  status: ('A' for Active; 'I' for Inactive)
ROOT
ATOM      1  C1  BNZ d   1       1.891  -0.700  -0.692  0.00  0.00     0.000 A 
ATOM      2  C2  BNZ d   1       1.123   0.429  -0.585  0.00  0.00     0.000 A 
ATOM      3  C3  BNZ d   1      -0.160   0.361  -0.121  0.00  0.00     0.000 A 
ATOM      4  C4  BNZ d   1      -0.688  -0.839   0.198  0.00  0.00     0.000 A 
ATOM      5  C5  BNZ d   1       0.070  -1.987   0.087  0.00  0.00     0.000 A 
ATOM      6  C6  BNZ d   1       1.375  -1.910  -0.344  0.00  0.00     0.000 A 
ENDROOT
TORSDOF 0
ENDMDL
