MODEL 1
REMARK minimizedAffinity -4.35910416
REMARK minimizedRMSD -1
REMARK  0 active torsions:
REMARK  status: ('A' for Active; 'I' for Inactive)
ROOT
ATOM      1  C1  BNZ d   1      -0.649  -1.070  -0.039  0.00  0.00     0.000 A 
ATOM      2  C2  BNZ d   1      -1.352   0.103  -0.111  0.00  0.00     0.000 A 
ATOM      3  C3  BNZ d   1      -0.758   1.249  -0.559  0.00  0.00     0.000 A 
ATOM      4  C4  BNZ d   1       0.548   1.231  -0.897  0.00  0.00     0.000 A 
ATOM      5  C5  BNZ d   1       1.273   0.059  -0.822  0.00  0.00     0.000 A 
ATOM      6  C6  BNZ d   1       0.661  -1.102  -0.407  0.00  0.00     0.000 A 
ENDROOT
TORSDOF 0
ENDMDL
