MODEL 1
REMARK minimizedAffinity -5.06818438
REMARK minimizedRMSD -1
REMARK  0 active torsions:
REMARK  status: ('A' for Active; 'I' for Inactive)
ROOT
ATOM      1  C1  BNZ d   1       1.332   0.845  -0.758  0.00  0.00     0.000 A 
ATOM      2  C2  BNZ d   1       0.231   0.730   0.049  0.00  0.00     0.000 A 
ATOM      3  C3  BNZ d   1      -0.370  -0.481   0.245  0.00  0.00     0.000 A 
ATOM      4  C4  BNZ d   1       0.105  -1.569  -0.397  0.00  0.00     0.000 A 
ATOM      5  C5  BNZ d   1       1.209  -1.468  -1.221  0.00  0.00     0.000 A 
ATOM      6  C6  BNZ d   1       1.835  -0.253  -1.385  0.00  0.00     0.000 A 
ENDROOT
TORSDOF 0
ENDMDL
