MODEL 1
REMARK minimizedAffinity -3.85683155
REMARK minimizedRMSD -1
REMARK  0 active torsions:
REMARK  status: ('A' for Active; 'I' for Inactive)
ROOT
ATOM      1  C1  BNZ d   1      -2.072   2.319   2.984  0.00  0.00     0.000 A 
ATOM      2  C2  BNZ d   1      -2.789   1.547   3.859  0.00  0.00     0.000 A 
ATOM      3  C3  BNZ d   1      -3.176   0.281   3.520  0.00  0.00     0.000 A 
ATOM      4  C4  BNZ d   1      -2.882  -0.196   2.293  0.00  0.00     0.000 A 
ATOM      5  C5  BNZ d   1      -2.168   0.573   1.396  0.00  0.00     0.000 A 
ATOM      6  C6  BNZ d   1      -1.746   1.832   1.756  0.00  0.00     0.000 A 
ENDROOT
TORSDOF 0
ENDMDL
