MODEL 1
REMARK minimizedAffinity -3.54235697
REMARK minimizedRMSD -1
REMARK  0 active torsions:
REMARK  status: ('A' for Active; 'I' for Inactive)
ROOT
ATOM      1  C1  BNZ d   1      -3.046   0.211   2.713  0.00  0.00     0.000 A 
ATOM      2  C2  BNZ d   1      -2.246  -0.474   1.837  0.00  0.00     0.000 A 
ATOM      3  C3  BNZ d   1      -1.100   0.090   1.348  0.00  0.00     0.000 A 
ATOM      4  C4  BNZ d   1      -0.777   1.349   1.705  0.00  0.00     0.000 A 
ATOM      5  C5  BNZ d   1      -1.577   2.056   2.580  0.00  0.00     0.000 A 
ATOM      6  C6  BNZ d   1      -2.709   1.471   3.100  0.00  0.00     0.000 A 
ENDROOT
TORSDOF 0
ENDMDL
