MODEL 1
REMARK minimizedAffinity -4.02473068
REMARK minimizedRMSD -1
REMARK  0 active torsions:
REMARK  status: ('A' for Active; 'I' for Inactive)
ROOT
ATOM      1  C1  BNZ d   1       1.813  -1.276  -0.766  0.00  0.00     0.000 A 
ATOM      2  C2  BNZ d   1       0.733  -1.696  -0.036  0.00  0.00     0.000 A 
ATOM      3  C3  BNZ d   1      -0.270  -0.828   0.292  0.00  0.00     0.000 A 
ATOM      4  C4  BNZ d   1      -0.174   0.466  -0.075  0.00  0.00     0.000 A 
ATOM      5  C5  BNZ d   1       0.913   0.907  -0.803  0.00  0.00     0.000 A 
ATOM      6  C6  BNZ d   1       1.903   0.021  -1.165  0.00  0.00     0.000 A 
ENDROOT
TORSDOF 0
ENDMDL
