MODEL 1
REMARK minimizedAffinity -3.09071326
REMARK minimizedRMSD -1
REMARK  0 active torsions:
REMARK  status: ('A' for Active; 'I' for Inactive)
ROOT
ATOM      1  C1  BNZ d   1      -1.231   1.657   3.312  0.00  0.00     0.000 A 
ATOM      2  C2  BNZ d   1      -1.031   1.241   2.023  0.00  0.00     0.000 A 
ATOM      3  C3  BNZ d   1      -1.913   0.390   1.418  0.00  0.00     0.000 A 
ATOM      4  C4  BNZ d   1      -2.970  -0.075   2.115  0.00  0.00     0.000 A 
ATOM      5  C5  BNZ d   1      -3.180   0.327   3.418  0.00  0.00     0.000 A 
ATOM      6  C6  BNZ d   1      -2.311   1.215   4.012  0.00  0.00     0.000 A 
ENDROOT
TORSDOF 0
ENDMDL
