MODEL 1
REMARK minimizedAffinity 6.91865635
REMARK minimizedRMSD -1
REMARK  0 active torsions:
REMARK  status: ('A' for Active; 'I' for Inactive)
ROOT
ATOM      1  C1  BNZ d   1      -0.933  -0.159  -0.818  0.00  0.00     0.000 A 
ATOM      2  C2  BNZ d   1      -1.849   0.132   0.158  0.00  0.00     0.000 A 
ATOM      3  C3  BNZ d   1      -1.586   1.084   1.103  0.00  0.00     0.000 A 
ATOM      4  C4  BNZ d   1      -0.393   1.714   1.095  0.00  0.00     0.000 A 
ATOM      5  C5  BNZ d   1       0.544   1.425   0.123  0.00  0.00     0.000 A 
ATOM      6  C6  BNZ d   1       0.260   0.494  -0.849  0.00  0.00     0.000 A 
ENDROOT
TORSDOF 0
ENDMDL
