MODEL 1
REMARK minimizedAffinity -3.41696334
REMARK minimizedRMSD -1
REMARK  0 active torsions:
REMARK  status: ('A' for Active; 'I' for Inactive)
ROOT
ATOM      1  C1  BNZ d   1      -0.561  -1.029  -0.205  0.00  0.00     0.000 A 
ATOM      2  C2  BNZ d   1       0.761  -1.121  -0.552  0.00  0.00     0.000 A 
ATOM      3  C3  BNZ d   1       1.481  -0.003  -0.869  0.00  0.00     0.000 A 
ATOM      4  C4  BNZ d   1       0.869   1.199  -0.876  0.00  0.00     0.000 A 
ATOM      5  C5  BNZ d   1      -0.465   1.307  -0.537  0.00  0.00     0.000 A 
ATOM      6  C6  BNZ d   1      -1.176   0.184  -0.181  0.00  0.00     0.000 A 
ENDROOT
TORSDOF 0
ENDMDL
