MODEL 1
REMARK minimizedAffinity -3.54738212
REMARK minimizedRMSD -1
REMARK  0 active torsions:
REMARK  status: ('A' for Active; 'I' for Inactive)
ROOT
ATOM      1  C1  BNZ d   1       1.493   0.572  -0.775  0.00  0.00     0.000 A 
ATOM      2  C2  BNZ d   1       0.357   0.545  -0.010  0.00  0.00     0.000 A 
ATOM      3  C3  BNZ d   1      -0.199  -0.643   0.375  0.00  0.00     0.000 A 
ATOM      4  C4  BNZ d   1       0.357  -1.800  -0.039  0.00  0.00     0.000 A 
ATOM      5  C5  BNZ d   1       1.496  -1.789  -0.819  0.00  0.00     0.000 A 
ATOM      6  C6  BNZ d   1       2.076  -0.592  -1.171  0.00  0.00     0.000 A 
ENDROOT
TORSDOF 0
ENDMDL
