MODEL 1
REMARK minimizedAffinity -2.04505396
REMARK minimizedRMSD -1
REMARK  0 active torsions:
REMARK  status: ('A' for Active; 'I' for Inactive)
ROOT
ATOM      1  C1  BNZ d   1       2.870  -0.034  -2.249  0.00  0.00     0.000 A 
ATOM      2  C2  BNZ d   1       2.492  -0.764  -1.154  0.00  0.00     0.000 A 
ATOM      3  C3  BNZ d   1       1.473  -0.339  -0.347  0.00  0.00     0.000 A 
ATOM      4  C4  BNZ d   1       0.861   0.833  -0.614  0.00  0.00     0.000 A 
ATOM      5  C5  BNZ d   1       1.237   1.585  -1.709  0.00  0.00     0.000 A 
ATOM      6  C6  BNZ d   1       2.237   1.135  -2.540  0.00  0.00     0.000 A 
ENDROOT
TORSDOF 0
ENDMDL
