MODEL 1
REMARK minimizedAffinity -3.26282549
REMARK minimizedRMSD -1
REMARK  0 active torsions:
REMARK  status: ('A' for Active; 'I' for Inactive)
ROOT
ATOM      1  C1  BNZ d   1      -0.832   0.527   0.373  0.00  0.00     0.000 A 
ATOM      2  C2  BNZ d   1       0.389   0.806  -0.182  0.00  0.00     0.000 A 
ATOM      3  C3  BNZ d   1       1.159  -0.190  -0.715  0.00  0.00     0.000 A 
ATOM      4  C4  BNZ d   1       0.726  -1.466  -0.657  0.00  0.00     0.000 A 
ATOM      5  C5  BNZ d   1      -0.498  -1.764  -0.093  0.00  0.00     0.000 A 
ATOM      6  C6  BNZ d   1      -1.288  -0.755   0.408  0.00  0.00     0.000 A 
ENDROOT
TORSDOF 0
ENDMDL
