MODEL 1
REMARK minimizedAffinity -4.25750017
REMARK minimizedRMSD -1
REMARK  0 active torsions:
REMARK  status: ('A' for Active; 'I' for Inactive)
ROOT
ATOM      1  C1  BNZ d   1       2.369   0.375  -2.583  0.00  0.00     0.000 A 
ATOM      2  C2  BNZ d   1       2.129  -0.571  -1.623  0.00  0.00     0.000 A 
ATOM      3  C3  BNZ d   1       1.147  -0.387  -0.689  0.00  0.00     0.000 A 
ATOM      4  C4  BNZ d   1       0.436   0.758  -0.693  0.00  0.00     0.000 A 
ATOM      5  C5  BNZ d   1       0.673   1.726  -1.649  0.00  0.00     0.000 A 
ATOM      6  C6  BNZ d   1       1.635   1.520  -2.610  0.00  0.00     0.000 A 
ENDROOT
TORSDOF 0
ENDMDL
