MODEL 1
REMARK minimizedAffinity 19.8130512
REMARK minimizedRMSD -1
REMARK  0 active torsions:
REMARK  status: ('A' for Active; 'I' for Inactive)
ROOT
ATOM      1  C   UNL d   1       3.344  -1.768  -2.065  0.00  0.00     0.124 A 
ATOM      2  C1  UNL d   1       2.508  -2.829  -1.742  0.00  0.00     0.062 A 
ATOM      3  C2  UNL d   1       1.882  -2.873  -0.500  0.00  0.00     0.162 A 
ATOM      4  C3  UNL d   1       2.087  -1.853   0.429  0.00  0.00    -0.034 A 
ATOM      5  C4  UNL d   1       2.930  -0.790   0.098  0.00  0.00     0.162 A 
ATOM      6  C5  UNL d   1       3.554  -0.750  -1.145  0.00  0.00     0.062 A 
ATOM      7  F   UNL d   1       4.360   0.275  -1.455  0.00  0.00    -0.097 F 
ATOM      8  F1  UNL d   1       3.149   0.207   0.967  0.00  0.00    -0.096 F 
ATOM      9  I   UNL d   1       1.152  -1.916   2.287  0.00  0.00    -0.060 I 
ATOM     10  F2  UNL d   1       1.080  -3.910  -0.215  0.00  0.00    -0.096 F 
ATOM     11  F3  UNL d   1       2.305  -3.814  -2.629  0.00  0.00    -0.097 F 
ATOM     12  F4  UNL d   1       3.946  -1.728  -3.260  0.00  0.00    -0.092 F 
ENDROOT
TORSDOF 0
ENDMDL
