MODEL 1
REMARK minimizedAffinity 17.5270214
REMARK minimizedRMSD -1
REMARK  0 active torsions:
REMARK  status: ('A' for Active; 'I' for Inactive)
ROOT
ATOM      1  C   UNL d   1       0.273  -0.604   0.637  0.00  0.00     0.124 A 
ATOM      2  C1  UNL d   1      -0.518  -1.066  -0.406  0.00  0.00     0.062 A 
ATOM      3  C2  UNL d   1       0.053  -1.782  -1.454  0.00  0.00     0.162 A 
ATOM      4  C3  UNL d   1       1.423  -2.043  -1.464  0.00  0.00    -0.034 A 
ATOM      5  C4  UNL d   1       2.213  -1.575  -0.412  0.00  0.00     0.162 A 
ATOM      6  C5  UNL d   1       1.637  -0.859   0.633  0.00  0.00     0.062 A 
ATOM      7  F   UNL d   1       2.404  -0.414   1.639  0.00  0.00    -0.097 F 
ATOM      8  F1  UNL d   1       3.534  -1.807  -0.391  0.00  0.00    -0.096 F 
ATOM      9  I   UNL d   1       2.281  -3.114  -3.029  0.00  0.00    -0.060 I 
ATOM     10  F2  UNL d   1      -0.736  -2.217  -2.448  0.00  0.00    -0.096 F 
ATOM     11  F3  UNL d   1      -1.836  -0.820  -0.405  0.00  0.00    -0.097 F 
ATOM     12  F4  UNL d   1      -0.278   0.086   1.643  0.00  0.00    -0.092 F 
ENDROOT
TORSDOF 0
ENDMDL
