MODEL 1
REMARK minimizedAffinity 16.9056797
REMARK minimizedRMSD -1
REMARK  0 active torsions:
REMARK  status: ('A' for Active; 'I' for Inactive)
ROOT
ATOM      1  C   UNL d   1       0.110   1.168   1.481  0.00  0.00     0.124 A 
ATOM      2  C1  UNL d   1       0.320   0.913   2.830  0.00  0.00     0.062 A 
ATOM      3  C2  UNL d   1       0.240   1.947   3.758  0.00  0.00     0.162 A 
ATOM      4  C3  UNL d   1      -0.052   3.246   3.342  0.00  0.00    -0.034 A 
ATOM      5  C4  UNL d   1      -0.261   3.494   1.984  0.00  0.00     0.162 A 
ATOM      6  C5  UNL d   1      -0.180   2.458   1.060  0.00  0.00     0.062 A 
ATOM      7  F   UNL d   1      -0.383   2.706  -0.242  0.00  0.00    -0.097 F 
ATOM      8  F1  UNL d   1      -0.544   4.731   1.550  0.00  0.00    -0.096 F 
ATOM      9  I   UNL d   1      -0.173   4.794   4.727  0.00  0.00    -0.060 I 
ATOM     10  F2  UNL d   1       0.448   1.671   5.054  0.00  0.00    -0.096 F 
ATOM     11  F3  UNL d   1       0.602  -0.332   3.239  0.00  0.00    -0.097 F 
ATOM     12  F4  UNL d   1       0.189   0.172   0.590  0.00  0.00    -0.092 F 
ENDROOT
TORSDOF 0
ENDMDL
