MODEL 1
REMARK minimizedAffinity 23.1029167
REMARK minimizedRMSD -1
REMARK  0 active torsions:
REMARK  status: ('A' for Active; 'I' for Inactive)
ROOT
ATOM      1  C   UNL d   1      -4.683  -0.266  -0.537  0.00  0.00     0.124 A 
ATOM      2  C1  UNL d   1      -3.779  -0.513  -1.561  0.00  0.00     0.062 A 
ATOM      3  C2  UNL d   1      -2.410  -0.465  -1.313  0.00  0.00     0.162 A 
ATOM      4  C3  UNL d   1      -1.936  -0.169  -0.035  0.00  0.00    -0.034 A 
ATOM      5  C4  UNL d   1      -2.852   0.079   0.990  0.00  0.00     0.162 A 
ATOM      6  C5  UNL d   1      -4.219   0.029   0.737  0.00  0.00     0.062 A 
ATOM      7  F   UNL d   1      -5.090   0.268   1.727  0.00  0.00    -0.097 F 
ATOM      8  F1  UNL d   1      -2.430   0.366   2.230  0.00  0.00    -0.096 F 
ATOM      9  I   UNL d   1       0.110  -0.096   0.340  0.00  0.00    -0.060 I 
ATOM     10  F2  UNL d   1      -1.560  -0.708  -2.322  0.00  0.00    -0.096 F 
ATOM     11  F3  UNL d   1      -4.225  -0.798  -2.793  0.00  0.00    -0.097 F 
ATOM     12  F4  UNL d   1      -5.999  -0.313  -0.779  0.00  0.00    -0.092 F 
ENDROOT
TORSDOF 0
ENDMDL
