MODEL 1
REMARK minimizedAffinity 8.80142784
REMARK minimizedRMSD -1
REMARK  0 active torsions:
REMARK  status: ('A' for Active; 'I' for Inactive)
ROOT
ATOM      1  C   UNL d   1      -3.951  -0.265   0.420  0.00  0.00     0.124 A 
ATOM      2  C1  UNL d   1      -3.265  -0.410  -0.778  0.00  0.00     0.062 A 
ATOM      3  C2  UNL d   1      -1.874  -0.464  -0.786  0.00  0.00     0.162 A 
ATOM      4  C3  UNL d   1      -1.160  -0.373   0.409  0.00  0.00    -0.034 A 
ATOM      5  C4  UNL d   1      -1.857  -0.226   1.609  0.00  0.00     0.162 A 
ATOM      6  C5  UNL d   1      -3.247  -0.173   1.612  0.00  0.00     0.062 A 
ATOM      7  F   UNL d   1      -3.908  -0.032   2.770  0.00  0.00    -0.097 F 
ATOM      8  F1  UNL d   1      -1.201  -0.136   2.776  0.00  0.00    -0.096 F 
ATOM      9  I   UNL d   1       0.920  -0.454   0.401  0.00  0.00    -0.060 I 
ATOM     10  F2  UNL d   1      -1.237  -0.605  -1.958  0.00  0.00    -0.096 F 
ATOM     11  F3  UNL d   1      -3.943  -0.498  -1.931  0.00  0.00    -0.097 F 
ATOM     12  F4  UNL d   1      -5.290  -0.212   0.424  0.00  0.00    -0.092 F 
ENDROOT
TORSDOF 0
ENDMDL
