MODEL 1
REMARK minimizedAffinity 30.4779873
REMARK minimizedRMSD -1
REMARK  0 active torsions:
REMARK  status: ('A' for Active; 'I' for Inactive)
ROOT
ATOM      1  C   UNL d   1       0.917  -0.700  -0.079  0.00  0.00     0.124 A 
ATOM      2  C1  UNL d   1       0.907  -0.037   1.140  0.00  0.00     0.062 A 
ATOM      3  C2  UNL d   1      -0.286   0.460   1.656  0.00  0.00     0.162 A 
ATOM      4  C3  UNL d   1      -1.480   0.295   0.954  0.00  0.00    -0.034 A 
ATOM      5  C4  UNL d   1      -1.461  -0.372  -0.273  0.00  0.00     0.162 A 
ATOM      6  C5  UNL d   1      -0.266  -0.867  -0.784  0.00  0.00     0.062 A 
ATOM      7  F   UNL d   1      -0.258  -1.507  -1.962  0.00  0.00    -0.097 F 
ATOM      8  F1  UNL d   1      -2.591  -0.548  -0.974  0.00  0.00    -0.096 F 
ATOM      9  I   UNL d   1      -3.266   1.038   1.722  0.00  0.00    -0.060 I 
ATOM     10  F2  UNL d   1      -0.267   1.097   2.837  0.00  0.00    -0.096 F 
ATOM     11  F3  UNL d   1       2.049   0.126   1.823  0.00  0.00    -0.097 F 
ATOM     12  F4  UNL d   1       2.067  -1.177  -0.574  0.00  0.00    -0.092 F 
ENDROOT
TORSDOF 0
ENDMDL
