MODEL 1
REMARK minimizedAffinity 17.0502129
REMARK minimizedRMSD -1
REMARK  0 active torsions:
REMARK  status: ('A' for Active; 'I' for Inactive)
ROOT
ATOM      1  C   UNL d   1      -0.048  -0.831  -0.297  0.00  0.00     0.124 A 
ATOM      2  C1  UNL d   1       1.259  -0.963   0.154  0.00  0.00     0.062 A 
ATOM      3  C2  UNL d   1       2.172  -1.731  -0.562  0.00  0.00     0.162 A 
ATOM      4  C3  UNL d   1       1.783  -2.373  -1.738  0.00  0.00    -0.034 A 
ATOM      5  C4  UNL d   1       0.467  -2.236  -2.184  0.00  0.00     0.162 A 
ATOM      6  C5  UNL d   1      -0.442  -1.468  -1.465  0.00  0.00     0.062 A 
ATOM      7  F   UNL d   1      -1.704  -1.341  -1.902  0.00  0.00    -0.097 F 
ATOM      8  F1  UNL d   1       0.059  -2.840  -3.311  0.00  0.00    -0.096 F 
ATOM      9  I   UNL d   1       3.145  -3.522  -2.812  0.00  0.00    -0.060 I 
ATOM     10  F2  UNL d   1       3.428  -1.841  -0.103  0.00  0.00    -0.096 F 
ATOM     11  F3  UNL d   1       1.642  -0.350   1.283  0.00  0.00    -0.097 F 
ATOM     12  F4  UNL d   1      -0.925  -0.092   0.395  0.00  0.00    -0.092 F 
ENDROOT
TORSDOF 0
ENDMDL
