MODEL 1
REMARK minimizedAffinity 22.0110168
REMARK minimizedRMSD -1
REMARK  0 active torsions:
REMARK  status: ('A' for Active; 'I' for Inactive)
ROOT
ATOM      1  C   UNL d   1      -1.209  -1.322  -0.399  0.00  0.00     0.124 A 
ATOM      2  C1  UNL d   1      -0.150  -0.446  -0.206  0.00  0.00     0.062 A 
ATOM      3  C2  UNL d   1       1.125  -0.781  -0.651  0.00  0.00     0.162 A 
ATOM      4  C3  UNL d   1       1.349  -1.998  -1.295  0.00  0.00    -0.034 A 
ATOM      5  C4  UNL d   1       0.279  -2.875  -1.484  0.00  0.00     0.162 A 
ATOM      6  C5  UNL d   1      -0.994  -2.535  -1.037  0.00  0.00     0.062 A 
ATOM      7  F   UNL d   1      -2.016  -3.383  -1.224  0.00  0.00    -0.097 F 
ATOM      8  F1  UNL d   1       0.459  -4.053  -2.099  0.00  0.00    -0.096 F 
ATOM      9  I   UNL d   1       3.255  -2.502  -1.962  0.00  0.00    -0.060 I 
ATOM     10  F2  UNL d   1       2.130   0.085  -0.452  0.00  0.00    -0.096 F 
ATOM     11  F3  UNL d   1      -0.356   0.727   0.411  0.00  0.00    -0.097 F 
ATOM     12  F4  UNL d   1      -2.435  -0.998   0.032  0.00  0.00    -0.092 F 
ENDROOT
TORSDOF 0
ENDMDL
