MODEL 1
REMARK minimizedAffinity -4.07651424
REMARK minimizedRMSD -1
REMARK  3 active torsions:
REMARK  status: ('A' for Active; 'I' for Inactive)
REMARK    1  A    between atoms: C3'_2  and  C2'_3 
REMARK    2  A    between atoms: C2'_3  and  C1'_4 
REMARK    3  A    between atoms: C1'_4  and  C1_5 
ROOT
ATOM      1  C1  N4B d   1       0.016   0.521   0.895  0.00  0.00    -0.075 A 
ATOM      2  C2  N4B d   1      -0.851   1.241   0.044  0.00  0.00     0.002 A 
ATOM      3  C3  N4B d   1      -1.593   2.283   0.543  0.00  0.00     0.002 A 
ATOM      4  C4  N4B d   1      -1.500   2.609   1.888  0.00  0.00    -0.004 A 
ATOM      5  C5  N4B d   1      -0.641   1.925   2.697  0.00  0.00     0.002 A 
ATOM      6  C6  N4B d   1       0.114   0.879   2.209  0.00  0.00     0.002 A 
ENDROOT
BRANCH   1   7
ATOM      7  C1' N4B d   1       0.784  -0.681   0.415  0.00  0.00     0.057 C 
BRANCH   7   8
ATOM      8  C2' N4B d   1       0.141  -1.206  -0.865  0.00  0.00     0.009 C 
BRANCH   8   9
ATOM      9  C3' N4B d   1       0.096  -2.724  -0.897  0.00  0.00     0.004 C 
ATOM     10  C4' N4B d   1      -1.276  -3.258  -1.180  0.00  0.00     0.003 C 
ENDBRANCH   8   9
ENDBRANCH   7   8
ENDBRANCH   1   7
TORSDOF 3
ENDMDL
