MODEL 1
REMARK minimizedAffinity -4.60506582
REMARK minimizedRMSD -1
REMARK  3 active torsions:
REMARK  status: ('A' for Active; 'I' for Inactive)
REMARK    1  A    between atoms: C3'_2  and  C2'_3 
REMARK    2  A    between atoms: C2'_3  and  C1'_4 
REMARK    3  A    between atoms: C1'_4  and  C1_5 
ROOT
ATOM      1  C1  N4B d   1       0.028  -0.523   0.211  0.00  0.00    -0.075 A 
ATOM      2  C2  N4B d   1      -0.260  -0.945   1.528  0.00  0.00     0.002 A 
ATOM      3  C3  N4B d   1      -0.488  -0.015   2.512  0.00  0.00     0.002 A 
ATOM      4  C4  N4B d   1      -0.415   1.337   2.209  0.00  0.00    -0.004 A 
ATOM      5  C5  N4B d   1      -0.161   1.736   0.929  0.00  0.00     0.002 A 
ATOM      6  C6  N4B d   1       0.066   0.812  -0.071  0.00  0.00     0.002 A 
ENDROOT
BRANCH   1   7
ATOM      7  C1' N4B d   1       0.369  -1.501  -0.880  0.00  0.00     0.057 C 
BRANCH   7   8
ATOM      8  C2' N4B d   1      -0.919  -2.110  -1.426  0.00  0.00     0.009 C 
BRANCH   8   9
ATOM      9  C3' N4B d   1      -0.734  -3.564  -1.827  0.00  0.00     0.004 C 
ATOM     10  C4' N4B d   1      -0.925  -4.511  -0.680  0.00  0.00     0.003 C 
ENDBRANCH   8   9
ENDBRANCH   7   8
ENDBRANCH   1   7
TORSDOF 3
ENDMDL
