MODEL 1
REMARK minimizedAffinity -5.78136587
REMARK minimizedRMSD -1
REMARK  3 active torsions:
REMARK  status: ('A' for Active; 'I' for Inactive)
REMARK    1  A    between atoms: C3'_2  and  C2'_3 
REMARK    2  A    between atoms: C2'_3  and  C1'_4 
REMARK    3  A    between atoms: C1'_4  and  C1_5 
ROOT
ATOM      1  C1  N4B d   1       0.318  -1.734  -0.901  0.00  0.00    -0.075 A 
ATOM      2  C2  N4B d   1       1.320  -2.728  -0.860  0.00  0.00     0.002 A 
ATOM      3  C3  N4B d   1       0.969  -4.054  -0.782  0.00  0.00     0.002 A 
ATOM      4  C4  N4B d   1      -0.371  -4.406  -0.725  0.00  0.00    -0.004 A 
ATOM      5  C5  N4B d   1      -1.333  -3.441  -0.792  0.00  0.00     0.002 A 
ATOM      6  C6  N4B d   1      -0.995  -2.105  -0.874  0.00  0.00     0.002 A 
ENDROOT
BRANCH   1   7
ATOM      7  C1' N4B d   1       0.654  -0.268  -0.900  0.00  0.00     0.057 C 
BRANCH   7   8
ATOM      8  C2' N4B d   1      -0.258   0.454   0.088  0.00  0.00     0.009 C 
BRANCH   8   9
ATOM      9  C3' N4B d   1       0.270   0.378   1.510  0.00  0.00     0.004 C 
ATOM     10  C4' N4B d   1       0.029   1.638   2.287  0.00  0.00     0.003 C 
ENDBRANCH   8   9
ENDBRANCH   7   8
ENDBRANCH   1   7
TORSDOF 3
ENDMDL
