MODEL 1
REMARK minimizedAffinity -4.13921976
REMARK minimizedRMSD -1
REMARK  3 active torsions:
REMARK  status: ('A' for Active; 'I' for Inactive)
REMARK    1  A    between atoms: C3'_2  and  C2'_3 
REMARK    2  A    between atoms: C2'_3  and  C1'_4 
REMARK    3  A    between atoms: C1'_4  and  C1_5 
ROOT
ATOM      1  C1  N4B d   1      -0.165   0.405   0.166  0.00  0.00    -0.075 A 
ATOM      2  C2  N4B d   1      -0.796   1.440  -0.559  0.00  0.00     0.002 A 
ATOM      3  C3  N4B d   1      -1.214   2.576   0.090  0.00  0.00     0.002 A 
ATOM      4  C4  N4B d   1      -1.029   2.691   1.460  0.00  0.00    -0.004 A 
ATOM      5  C5  N4B d   1      -0.396   1.697   2.148  0.00  0.00     0.002 A 
ATOM      6  C6  N4B d   1       0.033   0.552   1.508  0.00  0.00     0.002 A 
ENDROOT
BRANCH   1   7
ATOM      7  C1' N4B d   1       0.231  -0.892  -0.485  0.00  0.00     0.057 C 
BRANCH   7   8
ATOM      8  C2' N4B d   1      -0.836  -1.944  -0.198  0.00  0.00     0.009 C 
BRANCH   8   9
ATOM      9  C3' N4B d   1      -0.605  -3.219  -0.990  0.00  0.00     0.004 C 
ATOM     10  C4' N4B d   1      -1.544  -3.361  -2.150  0.00  0.00     0.003 C 
ENDBRANCH   8   9
ENDBRANCH   7   8
ENDBRANCH   1   7
TORSDOF 3
ENDMDL
