MODEL 1
REMARK minimizedAffinity 2.65387654
REMARK minimizedRMSD -1
REMARK  3 active torsions:
REMARK  status: ('A' for Active; 'I' for Inactive)
REMARK    1  A    between atoms: C3'_2  and  C2'_3 
REMARK    2  A    between atoms: C2'_3  and  C1'_4 
REMARK    3  A    between atoms: C1'_4  and  C1_5 
ROOT
ATOM      1  C1  N4B d   1      -1.067  -2.120  -2.184  0.00  0.00    -0.075 A 
ATOM      2  C2  N4B d   1       0.047  -2.494  -1.400  0.00  0.00     0.002 A 
ATOM      3  C3  N4B d   1       0.432  -3.811  -1.337  0.00  0.00     0.002 A 
ATOM      4  C4  N4B d   1      -0.290  -4.770  -2.032  0.00  0.00    -0.004 A 
ATOM      5  C5  N4B d   1      -1.349  -4.398  -2.807  0.00  0.00     0.002 A 
ATOM      6  C6  N4B d   1      -1.744  -3.077  -2.883  0.00  0.00     0.002 A 
ENDROOT
BRANCH   1   7
ATOM      7  C1' N4B d   1      -1.577  -0.706  -2.215  0.00  0.00     0.057 C 
BRANCH   7   8
ATOM      8  C2' N4B d   1      -0.410   0.253  -2.001  0.00  0.00     0.009 C 
BRANCH   8   9
ATOM      9  C3' N4B d   1      -0.713   1.644  -2.530  0.00  0.00     0.004 C 
ATOM     10  C4' N4B d   1      -0.698   2.690  -1.455  0.00  0.00     0.003 C 
ENDBRANCH   8   9
ENDBRANCH   7   8
ENDBRANCH   1   7
TORSDOF 3
ENDMDL
