MODEL 1
REMARK minimizedAffinity 5.24502325
REMARK minimizedRMSD -1
REMARK  3 active torsions:
REMARK  status: ('A' for Active; 'I' for Inactive)
REMARK    1  A    between atoms: C3'_2  and  C2'_3 
REMARK    2  A    between atoms: C2'_3  and  C1'_4 
REMARK    3  A    between atoms: C1'_4  and  C1_5 
ROOT
ATOM      1  C1  N4B d   1       3.719  -4.492  -2.000  0.00  0.00    -0.075 A 
ATOM      2  C2  N4B d   1       4.083  -4.379  -3.360  0.00  0.00     0.002 A 
ATOM      3  C3  N4B d   1       5.148  -3.591  -3.722  0.00  0.00     0.002 A 
ATOM      4  C4  N4B d   1       5.849  -2.895  -2.748  0.00  0.00    -0.004 A 
ATOM      5  C5  N4B d   1       5.506  -3.030  -1.434  0.00  0.00     0.002 A 
ATOM      6  C6  N4B d   1       4.441  -3.821  -1.056  0.00  0.00     0.002 A 
ENDROOT
BRANCH   1   7
ATOM      7  C1' N4B d   1       2.509  -5.273  -1.565  0.00  0.00     0.057 C 
BRANCH   7   8
ATOM      8  C2' N4B d   1       1.442  -4.305  -1.062  0.00  0.00     0.009 C 
BRANCH   8   9
ATOM      9  C3' N4B d   1       0.088  -4.978  -0.915  0.00  0.00     0.004 C 
ATOM     10  C4' N4B d   1      -0.985  -4.307  -1.720  0.00  0.00     0.003 C 
ENDBRANCH   8   9
ENDBRANCH   7   8
ENDBRANCH   1   7
TORSDOF 3
ENDMDL
