MODEL 1
REMARK minimizedAffinity 3.12693071
REMARK minimizedRMSD -1
REMARK  3 active torsions:
REMARK  status: ('A' for Active; 'I' for Inactive)
REMARK    1  A    between atoms: C3'_2  and  C2'_3 
REMARK    2  A    between atoms: C2'_3  and  C1'_4 
REMARK    3  A    between atoms: C1'_4  and  C1_5 
ROOT
ATOM      1  C1  N4B d   1      -1.182   2.462   0.912  0.00  0.00    -0.075 A 
ATOM      2  C2  N4B d   1      -0.976   3.814   0.556  0.00  0.00     0.002 A 
ATOM      3  C3  N4B d   1      -0.787   4.156  -0.760  0.00  0.00     0.002 A 
ATOM      4  C4  N4B d   1      -0.782   3.167  -1.732  0.00  0.00    -0.004 A 
ATOM      5  C5  N4B d   1      -1.007   1.867  -1.383  0.00  0.00     0.002 A 
ATOM      6  C6  N4B d   1      -1.203   1.509  -0.065  0.00  0.00     0.002 A 
ENDROOT
BRANCH   1   7
ATOM      7  C1' N4B d   1      -1.308   2.029   2.347  0.00  0.00     0.057 C 
BRANCH   7   8
ATOM      8  C2' N4B d   1       0.086   1.902   2.955  0.00  0.00     0.009 C 
BRANCH   8   9
ATOM      9  C3' N4B d   1       0.698   0.537   2.692  0.00  0.00     0.004 C 
ATOM     10  C4' N4B d   1       0.668  -0.356   3.896  0.00  0.00     0.003 C 
ENDBRANCH   8   9
ENDBRANCH   7   8
ENDBRANCH   1   7
TORSDOF 3
ENDMDL
