MODEL 1
REMARK minimizedAffinity 9.28343296
REMARK minimizedRMSD -1
REMARK  0 active torsions:
REMARK  status: ('A' for Active; 'I' for Inactive)
ROOT
ATOM      1  C   UNL d   1      -5.573   3.018   1.863  0.00  0.00     0.077 C 
ATOM      2  C1  UNL d   1      -5.715   3.049   0.370  0.00  0.00    -0.074 A 
ATOM      3  C2  UNL d   1      -5.858   1.867  -0.363  0.00  0.00    -0.005 A 
ATOM      4  C3  UNL d   1      -5.998   1.912  -1.750  0.00  0.00     0.006 A 
ATOM      5  C4  UNL d   1      -5.997   3.137  -2.417  0.00  0.00    -0.005 A 
ATOM      6  C5  UNL d   1      -5.856   4.330  -1.701  0.00  0.00    -0.074 A 
ATOM      7  C6  UNL d   1      -5.862   5.656  -2.401  0.00  0.00     0.077 C 
ATOM      8  C7  UNL d   1      -5.722   4.277  -0.306  0.00  0.00    -0.001 A 
ENDROOT
TORSDOF 0
ENDMDL
