MODEL 1
REMARK minimizedAffinity 2.24069953
REMARK minimizedRMSD -1
REMARK  0 active torsions:
REMARK  status: ('A' for Active; 'I' for Inactive)
ROOT
ATOM      1  C   UNL d   1      -1.590  -2.867   0.709  0.00  0.00     0.077 C 
ATOM      2  C1  UNL d   1      -0.575  -1.818   1.053  0.00  0.00    -0.074 A 
ATOM      3  C2  UNL d   1       0.603  -2.153   1.728  0.00  0.00    -0.005 A 
ATOM      4  C3  UNL d   1       1.543  -1.168   2.033  0.00  0.00     0.006 A 
ATOM      5  C4  UNL d   1       1.314   0.159   1.666  0.00  0.00    -0.005 A 
ATOM      6  C5  UNL d   1       0.142   0.512   0.990  0.00  0.00    -0.074 A 
ATOM      7  C6  UNL d   1      -0.115   1.932   0.580  0.00  0.00     0.077 C 
ATOM      8  C7  UNL d   1      -0.794  -0.484   0.681  0.00  0.00    -0.001 A 
ENDROOT
TORSDOF 0
ENDMDL
