MODEL 1
REMARK minimizedAffinity 7.64199257
REMARK minimizedRMSD -1
REMARK  0 active torsions:
REMARK  status: ('A' for Active; 'I' for Inactive)
ROOT
ATOM      1  C   UNL d   1      -3.490  -0.165  -3.543  0.00  0.00     0.077 C 
ATOM      2  C1  UNL d   1      -2.968  -1.400  -2.871  0.00  0.00    -0.074 A 
ATOM      3  C2  UNL d   1      -2.702  -2.559  -3.606  0.00  0.00    -0.005 A 
ATOM      4  C3  UNL d   1      -2.207  -3.698  -2.970  0.00  0.00     0.006 A 
ATOM      5  C4  UNL d   1      -1.973  -3.688  -1.594  0.00  0.00    -0.005 A 
ATOM      6  C5  UNL d   1      -2.233  -2.537  -0.843  0.00  0.00    -0.074 A 
ATOM      7  C6  UNL d   1      -1.978  -2.506   0.635  0.00  0.00     0.077 C 
ATOM      8  C7  UNL d   1      -2.723  -1.395  -1.491  0.00  0.00    -0.001 A 
ENDROOT
TORSDOF 0
ENDMDL
