MODEL 1
REMARK minimizedAffinity 2.96532655
REMARK minimizedRMSD -1
REMARK  0 active torsions:
REMARK  status: ('A' for Active; 'I' for Inactive)
ROOT
ATOM      1  C   UNL d   1       0.629  -4.722  -2.720  0.00  0.00     0.077 C 
ATOM      2  C1  UNL d   1      -0.593  -4.581  -1.862  0.00  0.00    -0.074 A 
ATOM      3  C2  UNL d   1      -1.525  -5.618  -1.762  0.00  0.00    -0.005 A 
ATOM      4  C3  UNL d   1      -2.652  -5.476  -0.951  0.00  0.00     0.006 A 
ATOM      5  C4  UNL d   1      -2.857  -4.296  -0.234  0.00  0.00    -0.005 A 
ATOM      6  C5  UNL d   1      -1.935  -3.248  -0.321  0.00  0.00    -0.074 A 
ATOM      7  C6  UNL d   1      -2.135  -1.978   0.451  0.00  0.00     0.077 C 
ATOM      8  C7  UNL d   1      -0.802  -3.402  -1.132  0.00  0.00    -0.001 A 
ENDROOT
TORSDOF 0
ENDMDL
