MODEL 1
REMARK minimizedAffinity 11.6601763
REMARK minimizedRMSD -1
REMARK  0 active torsions:
REMARK  status: ('A' for Active; 'I' for Inactive)
ROOT
ATOM      1  C   UNL d   1       1.270  -0.418   2.590  0.00  0.00     0.077 C 
ATOM      2  C1  UNL d   1       0.120   0.191   1.843  0.00  0.00    -0.074 A 
ATOM      3  C2  UNL d   1      -1.009  -0.569   1.519  0.00  0.00    -0.005 A 
ATOM      4  C3  UNL d   1      -2.075   0.013   0.833  0.00  0.00     0.006 A 
ATOM      5  C4  UNL d   1      -2.022   1.358   0.464  0.00  0.00    -0.005 A 
ATOM      6  C5  UNL d   1      -0.902   2.133   0.780  0.00  0.00    -0.074 A 
ATOM      7  C6  UNL d   1      -0.833   3.582   0.399  0.00  0.00     0.077 C 
ATOM      8  C7  UNL d   1       0.162   1.543   1.476  0.00  0.00    -0.001 A 
ENDROOT
TORSDOF 0
ENDMDL
