MODEL 1
REMARK minimizedAffinity -0.0443525352
REMARK minimizedRMSD -1
REMARK  0 active torsions:
REMARK  status: ('A' for Active; 'I' for Inactive)
ROOT
ATOM      1  C   UNL d   1      -1.267   2.519   0.781  0.00  0.00     0.077 C 
ATOM      2  C1  UNL d   1      -1.627   1.065   0.701  0.00  0.00    -0.074 A 
ATOM      3  C2  UNL d   1      -0.907   0.105   1.420  0.00  0.00    -0.005 A 
ATOM      4  C3  UNL d   1      -1.260  -1.242   1.343  0.00  0.00     0.006 A 
ATOM      5  C4  UNL d   1      -2.334  -1.643   0.548  0.00  0.00    -0.005 A 
ATOM      6  C5  UNL d   1      -3.066  -0.698  -0.177  0.00  0.00    -0.074 A 
ATOM      7  C6  UNL d   1      -4.230  -1.110  -1.029  0.00  0.00     0.077 C 
ATOM      8  C7  UNL d   1      -2.710   0.655  -0.089  0.00  0.00    -0.001 A 
ENDROOT
TORSDOF 0
ENDMDL
