MODEL 1
REMARK minimizedAffinity 1.94745183
REMARK minimizedRMSD -1
REMARK  0 active torsions:
REMARK  status: ('A' for Active; 'I' for Inactive)
ROOT
ATOM      1  C   UNL d   1      -1.460  -1.119   1.500  0.00  0.00     0.077 C 
ATOM      2  C1  UNL d   1      -0.420  -1.808   0.669  0.00  0.00    -0.074 A 
ATOM      3  C2  UNL d   1      -0.784  -2.631  -0.403  0.00  0.00    -0.005 A 
ATOM      4  C3  UNL d   1       0.195  -3.258  -1.173  0.00  0.00     0.006 A 
ATOM      5  C4  UNL d   1       1.547  -3.070  -0.880  0.00  0.00    -0.005 A 
ATOM      6  C5  UNL d   1       1.930  -2.250   0.186  0.00  0.00    -0.074 A 
ATOM      7  C6  UNL d   1       3.378  -2.030   0.508  0.00  0.00     0.077 C 
ATOM      8  C7  UNL d   1       0.940  -1.618   0.951  0.00  0.00    -0.001 A 
ENDROOT
TORSDOF 0
ENDMDL
