MODEL 1
REMARK minimizedAffinity 5.35762358
REMARK minimizedRMSD -1
REMARK  0 active torsions:
REMARK  status: ('A' for Active; 'I' for Inactive)
ROOT
ATOM      1  C   UNL d   1      -4.435   2.595  -4.410  0.00  0.00     0.077 C 
ATOM      2  C1  UNL d   1      -4.977   3.789  -3.682  0.00  0.00    -0.074 A 
ATOM      3  C2  UNL d   1      -5.462   4.898  -4.381  0.00  0.00    -0.005 A 
ATOM      4  C3  UNL d   1      -5.971   5.998  -3.691  0.00  0.00     0.006 A 
ATOM      5  C4  UNL d   1      -6.000   5.999  -2.295  0.00  0.00    -0.005 A 
ATOM      6  C5  UNL d   1      -5.519   4.899  -1.579  0.00  0.00    -0.074 A 
ATOM      7  C6  UNL d   1      -5.552   4.880  -0.079  0.00  0.00     0.077 C 
ATOM      8  C7  UNL d   1      -5.016   3.795  -2.280  0.00  0.00    -0.001 A 
ENDROOT
TORSDOF 0
ENDMDL
