MODEL 1
REMARK minimizedAffinity -0.946597159
REMARK minimizedRMSD -1
REMARK  0 active torsions:
REMARK  status: ('A' for Active; 'I' for Inactive)
ROOT
ATOM      1  C   UNL d   1       5.998   5.304  -0.033  0.00  0.00     0.077 C 
ATOM      2  C1  UNL d   1       5.279   4.477  -1.057  0.00  0.00    -0.074 A 
ATOM      3  C2  UNL d   1       3.952   4.080  -0.859  0.00  0.00    -0.005 A 
ATOM      4  C3  UNL d   1       3.293   3.319  -1.824  0.00  0.00     0.006 A 
ATOM      5  C4  UNL d   1       3.953   2.947  -2.996  0.00  0.00    -0.005 A 
ATOM      6  C5  UNL d   1       5.279   3.335  -3.213  0.00  0.00    -0.074 A 
ATOM      7  C6  UNL d   1       6.000   2.952  -4.471  0.00  0.00     0.077 C 
ATOM      8  C7  UNL d   1       5.932   4.106  -2.241  0.00  0.00    -0.001 A 
ENDROOT
TORSDOF 0
ENDMDL
