MODEL 1
REMARK minimizedAffinity 1.79761565
REMARK minimizedRMSD -1
REMARK  0 active torsions:
REMARK  status: ('A' for Active; 'I' for Inactive)
ROOT
ATOM      1  C   UNL d   1       1.408  -2.985   3.665  0.00  0.00     0.077 C 
ATOM      2  C1  UNL d   1       1.276  -1.842   2.702  0.00  0.00    -0.074 A 
ATOM      3  C2  UNL d   1       0.595  -1.998   1.491  0.00  0.00    -0.005 A 
ATOM      4  C3  UNL d   1       0.472  -0.923   0.610  0.00  0.00     0.006 A 
ATOM      5  C4  UNL d   1       1.029   0.316   0.932  0.00  0.00    -0.005 A 
ATOM      6  C5  UNL d   1       1.712   0.490   2.139  0.00  0.00    -0.074 A 
ATOM      7  C6  UNL d   1       2.308   1.818   2.504  0.00  0.00     0.077 C 
ATOM      8  C7  UNL d   1       1.826  -0.592   3.022  0.00  0.00    -0.001 A 
ENDROOT
TORSDOF 0
ENDMDL
