MODEL 1
REMARK minimizedAffinity -1.04838467
REMARK minimizedRMSD -1
REMARK  0 active torsions:
REMARK  status: ('A' for Active; 'I' for Inactive)
ROOT
ATOM      1  C   UNL d   1       2.236  -3.420  -5.902  0.00  0.00     0.077 C 
ATOM      2  C1  UNL d   1       3.553  -2.703  -5.929  0.00  0.00    -0.074 A 
ATOM      3  C2  UNL d   1       4.757  -3.413  -5.956  0.00  0.00    -0.005 A 
ATOM      4  C3  UNL d   1       5.974  -2.732  -5.991  0.00  0.00     0.006 A 
ATOM      5  C4  UNL d   1       5.999  -1.337  -6.000  0.00  0.00    -0.005 A 
ATOM      6  C5  UNL d   1       4.805  -0.610  -5.974  0.00  0.00    -0.074 A 
ATOM      7  C6  UNL d   1       4.814   0.890  -5.992  0.00  0.00     0.077 C 
ATOM      8  C7  UNL d   1       3.586  -1.301  -5.946  0.00  0.00    -0.001 A 
ENDROOT
TORSDOF 0
ENDMDL
