MODEL 1
REMARK minimizedAffinity 3.05139732
REMARK minimizedRMSD -1
REMARK  0 active torsions:
REMARK  status: ('A' for Active; 'I' for Inactive)
ROOT
ATOM      1  C   UNL d   1       1.827  -2.807   4.134  0.00  0.00     0.077 C 
ATOM      2  C1  UNL d   1       1.762  -1.543   3.329  0.00  0.00    -0.074 A 
ATOM      3  C2  UNL d   1       1.197  -1.534   2.049  0.00  0.00    -0.005 A 
ATOM      4  C3  UNL d   1       1.135  -0.349   1.316  0.00  0.00     0.006 A 
ATOM      5  C4  UNL d   1       1.636   0.837   1.854  0.00  0.00    -0.005 A 
ATOM      6  C5  UNL d   1       2.204   0.847   3.132  0.00  0.00    -0.074 A 
ATOM      7  C6  UNL d   1       2.738   2.115   3.729  0.00  0.00     0.077 C 
ATOM      8  C7  UNL d   1       2.256  -0.346   3.865  0.00  0.00    -0.001 A 
ENDROOT
TORSDOF 0
ENDMDL
