MODEL 1
REMARK minimizedAffinity -4.32454681
REMARK minimizedRMSD -1
REMARK  1 active torsions:
REMARK  status: ('A' for Active; 'I' for Inactive)
REMARK    1  A    between atoms: C1_2  and  C2_3 
ROOT
ATOM      1  C2  UNL d   1      -1.156   0.522  -0.404  0.00  0.00    -0.081 A 
ATOM      2  C3  UNL d   1      -0.009   1.325  -0.392  0.00  0.00     0.006 A 
ATOM      3  C4  UNL d   1       1.228   0.786  -0.030  0.00  0.00     0.002 A 
ATOM      4  C5  UNL d   1       1.340  -0.565   0.318  0.00  0.00    -0.080 A 
ATOM      5  C6  UNL d   1       2.667  -1.163   0.679  0.00  0.00     0.076 C 
ATOM      6  C7  UNL d   1       0.190  -1.362   0.322  0.00  0.00     0.002 A 
ATOM      7  C8  UNL d   1      -1.047  -0.824  -0.039  0.00  0.00     0.006 A 
ENDROOT
BRANCH   1   8
ATOM      8  C1  UNL d   1      -2.480   1.085  -0.856  0.00  0.00     0.054 C 
ATOM      9  C   UNL d   1      -2.664   0.927  -2.359  0.00  0.00     0.018 C 
ENDBRANCH   1   8
TORSDOF 1
ENDMDL
