MODEL 1
REMARK minimizedAffinity -1.13751245
REMARK minimizedRMSD -1
REMARK  1 active torsions:
REMARK  status: ('A' for Active; 'I' for Inactive)
REMARK    1  A    between atoms: C1_2  and  C2_3 
ROOT
ATOM      1  C2  UNL d   1       1.632  -1.696   0.948  0.00  0.00    -0.081 A 
ATOM      2  C3  UNL d   1       2.093  -0.715   0.061  0.00  0.00     0.006 A 
ATOM      3  C4  UNL d   1       1.190   0.061  -0.668  0.00  0.00     0.002 A 
ATOM      4  C5  UNL d   1      -0.188  -0.123  -0.517  0.00  0.00    -0.080 A 
ATOM      5  C6  UNL d   1      -1.169   0.725  -1.271  0.00  0.00     0.076 C 
ATOM      6  C7  UNL d   1      -0.649  -1.115   0.356  0.00  0.00     0.002 A 
ATOM      7  C8  UNL d   1       0.253  -1.892   1.084  0.00  0.00     0.006 A 
ENDROOT
BRANCH   1   8
ATOM      8  C1  UNL d   1       2.602  -2.491   1.784  0.00  0.00     0.054 C 
ATOM      9  C   UNL d   1       3.356  -1.596   2.757  0.00  0.00     0.018 C 
ENDBRANCH   1   8
TORSDOF 1
ENDMDL
