MODEL 1
REMARK minimizedAffinity -3.99579072
REMARK minimizedRMSD -1
REMARK  1 active torsions:
REMARK  status: ('A' for Active; 'I' for Inactive)
REMARK    1  A    between atoms: C1_2  and  C2_3 
ROOT
ATOM      1  C2  UNL d   1       2.226  -0.041  -0.246  0.00  0.00    -0.081 A 
ATOM      2  C3  UNL d   1       0.900   0.376  -0.412  0.00  0.00     0.006 A 
ATOM      3  C4  UNL d   1      -0.146  -0.334   0.184  0.00  0.00     0.002 A 
ATOM      4  C5  UNL d   1       0.118  -1.466   0.961  0.00  0.00    -0.080 A 
ATOM      5  C6  UNL d   1      -0.992  -2.220   1.631  0.00  0.00     0.076 C 
ATOM      6  C7  UNL d   1       1.442  -1.893   1.113  0.00  0.00     0.002 A 
ATOM      7  C8  UNL d   1       2.487  -1.184   0.517  0.00  0.00     0.006 A 
ENDROOT
BRANCH   1   8
ATOM      8  C1  UNL d   1       3.360   0.759  -0.834  0.00  0.00     0.054 C 
ATOM      9  C   UNL d   1       4.304  -0.125  -1.636  0.00  0.00     0.018 C 
ENDBRANCH   1   8
TORSDOF 1
ENDMDL
