MODEL 1
REMARK minimizedAffinity -3.49627399
REMARK minimizedRMSD -1
REMARK  1 active torsions:
REMARK  status: ('A' for Active; 'I' for Inactive)
REMARK    1  A    between atoms: C1_2  and  C2_3 
ROOT
ATOM      1  C2  UNL d   1      -0.344   0.563  -0.319  0.00  0.00    -0.081 A 
ATOM      2  C3  UNL d   1       1.006   0.305  -0.586  0.00  0.00     0.006 A 
ATOM      3  C4  UNL d   1       1.580  -0.914  -0.216  0.00  0.00     0.002 A 
ATOM      4  C5  UNL d   1       0.813  -1.896   0.419  0.00  0.00    -0.080 A 
ATOM      5  C6  UNL d   1       1.409  -3.221   0.794  0.00  0.00     0.076 C 
ATOM      6  C7  UNL d   1      -0.532  -1.631   0.702  0.00  0.00     0.002 A 
ATOM      7  C8  UNL d   1      -1.106  -0.413   0.333  0.00  0.00     0.006 A 
ENDROOT
BRANCH   1   8
ATOM      8  C1  UNL d   1      -0.982   1.851  -0.774  0.00  0.00     0.054 C 
ATOM      9  C   UNL d   1      -1.573   1.712  -2.170  0.00  0.00     0.018 C 
ENDBRANCH   1   8
TORSDOF 1
ENDMDL
