MODEL 1
REMARK minimizedAffinity -3.89030862
REMARK minimizedRMSD -1
REMARK  1 active torsions:
REMARK  status: ('A' for Active; 'I' for Inactive)
REMARK    1  A    between atoms: C1_2  and  C2_3 
ROOT
ATOM      1  C2  UNL d   1      -0.190   0.575  -0.393  0.00  0.00    -0.081 A 
ATOM      2  C3  UNL d   1       1.185   0.391  -0.583  0.00  0.00     0.006 A 
ATOM      3  C4  UNL d   1       1.824  -0.743  -0.076  0.00  0.00     0.002 A 
ATOM      4  C5  UNL d   1       1.098  -1.715   0.621  0.00  0.00    -0.080 A 
ATOM      5  C6  UNL d   1       1.766  -2.952   1.145  0.00  0.00     0.076 C 
ATOM      6  C7  UNL d   1      -0.273  -1.522   0.826  0.00  0.00     0.002 A 
ATOM      7  C8  UNL d   1      -0.912  -0.388   0.320  0.00  0.00     0.006 A 
ENDROOT
BRANCH   1   8
ATOM      8  C1  UNL d   1      -0.893   1.765  -0.994  0.00  0.00     0.054 C 
ATOM      9  C   UNL d   1      -1.813   1.347  -2.133  0.00  0.00     0.018 C 
ENDBRANCH   1   8
TORSDOF 1
ENDMDL
