MODEL 1
REMARK minimizedAffinity -4.730968
REMARK minimizedRMSD -1
REMARK  1 active torsions:
REMARK  status: ('A' for Active; 'I' for Inactive)
REMARK    1  A    between atoms: C1_2  and  C2_3 
ROOT
ATOM      1  C2  UNL d   1      -0.260   1.066  -0.883  0.00  0.00    -0.081 A 
ATOM      2  C3  UNL d   1       1.123   0.898  -1.015  0.00  0.00     0.006 A 
ATOM      3  C4  UNL d   1       1.772  -0.165  -0.382  0.00  0.00     0.002 A 
ATOM      4  C5  UNL d   1       1.047  -1.082   0.387  0.00  0.00    -0.080 A 
ATOM      5  C6  UNL d   1       1.726  -2.244   1.048  0.00  0.00     0.076 C 
ATOM      6  C7  UNL d   1      -0.333  -0.904   0.534  0.00  0.00     0.002 A 
ATOM      7  C8  UNL d   1      -0.982   0.159  -0.099  0.00  0.00     0.006 A 
ENDROOT
BRANCH   1   8
ATOM      8  C1  UNL d   1      -0.972   2.173  -1.617  0.00  0.00     0.054 C 
ATOM      9  C   UNL d   1      -1.900   1.620  -2.689  0.00  0.00     0.018 C 
ENDBRANCH   1   8
TORSDOF 1
ENDMDL
