MODEL 1
REMARK minimizedAffinity -4.22409391
REMARK minimizedRMSD -1
REMARK  1 active torsions:
REMARK  status: ('A' for Active; 'I' for Inactive)
REMARK    1  A    between atoms: C1_2  and  C2_3 
ROOT
ATOM      1  C2  UNL d   1      -0.368   0.711  -0.460  0.00  0.00    -0.081 A 
ATOM      2  C3  UNL d   1       1.032   0.666  -0.437  0.00  0.00     0.006 A 
ATOM      3  C4  UNL d   1       1.696  -0.464   0.046  0.00  0.00     0.002 A 
ATOM      4  C5  UNL d   1       0.974  -1.570   0.507  0.00  0.00    -0.080 A 
ATOM      5  C6  UNL d   1       1.675  -2.801   1.000  0.00  0.00     0.076 C 
ATOM      6  C7  UNL d   1      -0.424  -1.518   0.501  0.00  0.00     0.002 A 
ATOM      7  C8  UNL d   1      -1.089  -0.388   0.019  0.00  0.00     0.006 A 
ENDROOT
BRANCH   1   8
ATOM      8  C1  UNL d   1      -1.087   1.902  -1.040  0.00  0.00     0.054 C 
ATOM      9  C   UNL d   1      -2.518   1.551  -1.422  0.00  0.00     0.018 C 
ENDBRANCH   1   8
TORSDOF 1
ENDMDL
