MODEL 1
REMARK minimizedAffinity -3.39694667
REMARK minimizedRMSD -1
REMARK  1 active torsions:
REMARK  status: ('A' for Active; 'I' for Inactive)
REMARK    1  A    between atoms: C1_2  and  C2_3 
ROOT
ATOM      1  C2  UNL d   1      -0.341   0.395  -0.280  0.00  0.00    -0.081 A 
ATOM      2  C3  UNL d   1       1.029   0.283  -0.548  0.00  0.00     0.006 A 
ATOM      3  C4  UNL d   1       1.740  -0.848  -0.139  0.00  0.00     0.002 A 
ATOM      4  C5  UNL d   1       1.092  -1.888   0.536  0.00  0.00    -0.080 A 
ATOM      5  C6  UNL d   1       1.837  -3.121   0.953  0.00  0.00     0.076 C 
ATOM      6  C7  UNL d   1      -0.273  -1.768   0.819  0.00  0.00     0.002 A 
ATOM      7  C8  UNL d   1      -0.984  -0.637   0.411  0.00  0.00     0.006 A 
ENDROOT
BRANCH   1   8
ATOM      8  C1  UNL d   1      -1.123   1.584  -0.776  0.00  0.00     0.054 C 
ATOM      9  C   UNL d   1      -1.870   1.258  -2.062  0.00  0.00     0.018 C 
ENDBRANCH   1   8
TORSDOF 1
ENDMDL
