MODEL 1
REMARK minimizedAffinity -4.96898365
REMARK minimizedRMSD -1
REMARK  1 active torsions:
REMARK  status: ('A' for Active; 'I' for Inactive)
REMARK    1  A    between atoms: C1_2  and  C2_3 
ROOT
ATOM      1  C2  UNL d   1      -0.687   0.484  -0.030  0.00  0.00    -0.081 A 
ATOM      2  C3  UNL d   1       0.658   0.459  -0.422  0.00  0.00     0.006 A 
ATOM      3  C4  UNL d   1       1.485  -0.602  -0.045  0.00  0.00     0.002 A 
ATOM      4  C5  UNL d   1       0.981  -1.658   0.722  0.00  0.00    -0.080 A 
ATOM      5  C6  UNL d   1       1.851  -2.817   1.107  0.00  0.00     0.076 C 
ATOM      6  C7  UNL d   1      -0.357  -1.624   1.128  0.00  0.00     0.002 A 
ATOM      7  C8  UNL d   1      -1.185  -0.563   0.752  0.00  0.00     0.006 A 
ENDROOT
BRANCH   1   8
ATOM      8  C1  UNL d   1      -1.598   1.594  -0.489  0.00  0.00     0.054 C 
ATOM      9  C   UNL d   1      -1.520   1.786  -1.997  0.00  0.00     0.018 C 
ENDBRANCH   1   8
TORSDOF 1
ENDMDL
