MODEL 1
REMARK minimizedAffinity -2.79763889
REMARK minimizedRMSD -1
REMARK  1 active torsions:
REMARK  status: ('A' for Active; 'I' for Inactive)
REMARK    1  A    between atoms: C1_2  and  C2_3 
ROOT
ATOM      1  C2  UNL d   1      -1.428   1.036  -0.712  0.00  0.00    -0.081 A 
ATOM      2  C3  UNL d   1      -2.413   0.805  -1.680  0.00  0.00     0.006 A 
ATOM      3  C4  UNL d   1      -2.383   1.489  -2.898  0.00  0.00     0.002 A 
ATOM      4  C5  UNL d   1      -1.363   2.407  -3.171  0.00  0.00    -0.080 A 
ATOM      5  C6  UNL d   1      -1.302   3.125  -4.487  0.00  0.00     0.076 C 
ATOM      6  C7  UNL d   1      -0.389   2.650  -2.197  0.00  0.00     0.002 A 
ATOM      7  C8  UNL d   1      -0.419   1.968  -0.979  0.00  0.00     0.006 A 
ENDROOT
BRANCH   1   8
ATOM      8  C1  UNL d   1      -1.421   0.253   0.576  0.00  0.00     0.054 C 
ATOM      9  C   UNL d   1      -0.278  -0.752   0.607  0.00  0.00     0.018 C 
ENDBRANCH   1   8
TORSDOF 1
ENDMDL
