MODEL 1
REMARK minimizedAffinity 32.2538834
REMARK minimizedRMSD -1
REMARK  0 active torsions:
REMARK  status: ('A' for Active; 'I' for Inactive)
ROOT
ATOM      1  C   UNL d   1      -3.316   1.427  -0.429  0.00  0.00     0.124 A 
ATOM      2  C1  UNL d   1      -3.076   2.538  -1.225  0.00  0.00     0.062 A 
ATOM      3  C2  UNL d   1      -3.454   3.805  -0.791  0.00  0.00     0.162 A 
ATOM      4  C3  UNL d   1      -4.076   3.969   0.447  0.00  0.00    -0.034 A 
ATOM      5  C4  UNL d   1      -4.315   2.846   1.242  0.00  0.00     0.162 A 
ATOM      6  C5  UNL d   1      -3.935   1.582   0.804  0.00  0.00     0.062 A 
ATOM      7  F   UNL d   1      -4.168   0.509   1.574  0.00  0.00    -0.097 F 
ATOM      8  F1  UNL d   1      -4.912   2.967   2.437  0.00  0.00    -0.096 F 
ATOM      9  I   UNL d   1      -4.644   5.862   1.100  0.00  0.00    -0.060 I 
ATOM     10  F2  UNL d   1      -3.210   4.861  -1.581  0.00  0.00    -0.096 F 
ATOM     11  F3  UNL d   1      -2.478   2.391  -2.416  0.00  0.00    -0.097 F 
ATOM     12  F4  UNL d   1      -2.951   0.209  -0.849  0.00  0.00    -0.092 F 
ENDROOT
TORSDOF 0
ENDMDL
