MODEL 1
REMARK minimizedAffinity 35.3514977
REMARK minimizedRMSD -1
REMARK  0 active torsions:
REMARK  status: ('A' for Active; 'I' for Inactive)
ROOT
ATOM      1  C   UNL d   1       2.481  -3.090  -4.632  0.00  0.00     0.124 A 
ATOM      2  C1  UNL d   1       3.864  -3.070  -4.517  0.00  0.00     0.062 A 
ATOM      3  C2  UNL d   1       4.502  -3.899  -3.600  0.00  0.00     0.162 A 
ATOM      4  C3  UNL d   1       3.758  -4.757  -2.791  0.00  0.00    -0.034 A 
ATOM      5  C4  UNL d   1       2.368  -4.771  -2.911  0.00  0.00     0.162 A 
ATOM      6  C5  UNL d   1       1.734  -3.940  -3.829  0.00  0.00     0.062 A 
ATOM      7  F   UNL d   1       0.398  -3.961  -3.939  0.00  0.00    -0.097 F 
ATOM      8  F1  UNL d   1       1.622  -5.584  -2.148  0.00  0.00    -0.096 F 
ATOM      9  I   UNL d   1       4.709  -6.000  -1.418  0.00  0.00    -0.060 I 
ATOM     10  F2  UNL d   1       5.840  -3.859  -3.511  0.00  0.00    -0.096 F 
ATOM     11  F3  UNL d   1       4.588  -2.248  -5.292  0.00  0.00    -0.097 F 
ATOM     12  F4  UNL d   1       1.869  -2.290  -5.515  0.00  0.00    -0.092 F 
ENDROOT
TORSDOF 0
ENDMDL
