MODEL 1
REMARK minimizedAffinity 34.5916176
REMARK minimizedRMSD -1
REMARK  0 active torsions:
REMARK  status: ('A' for Active; 'I' for Inactive)
ROOT
ATOM      1  C   UNL d   1       1.488  -3.230  -0.839  0.00  0.00     0.124 A 
ATOM      2  C1  UNL d   1       2.252  -2.399  -0.031  0.00  0.00     0.062 A 
ATOM      3  C2  UNL d   1       3.540  -2.774   0.340  0.00  0.00     0.162 A 
ATOM      4  C3  UNL d   1       4.073  -3.987  -0.096  0.00  0.00    -0.034 A 
ATOM      5  C4  UNL d   1       3.299  -4.818  -0.907  0.00  0.00     0.162 A 
ATOM      6  C5  UNL d   1       2.012  -4.439  -1.275  0.00  0.00     0.062 A 
ATOM      7  F   UNL d   1       1.276  -5.244  -2.055  0.00  0.00    -0.097 F 
ATOM      8  F1  UNL d   1       3.780  -5.991  -1.344  0.00  0.00    -0.096 F 
ATOM      9  I   UNL d   1       5.998  -4.552   0.458  0.00  0.00    -0.060 I 
ATOM     10  F2  UNL d   1       4.255  -1.951   1.121  0.00  0.00    -0.096 F 
ATOM     11  F3  UNL d   1       1.748  -1.231   0.393  0.00  0.00    -0.097 F 
ATOM     12  F4  UNL d   1       0.249  -2.867  -1.194  0.00  0.00    -0.092 F 
ENDROOT
TORSDOF 0
ENDMDL
