MODEL 1
REMARK minimizedAffinity 30.8744545
REMARK minimizedRMSD -1
REMARK  0 active torsions:
REMARK  status: ('A' for Active; 'I' for Inactive)
ROOT
ATOM      1  C   UNL d   1      -1.872   3.328  -0.114  0.00  0.00     0.124 A 
ATOM      2  C1  UNL d   1      -0.555   3.195  -0.532  0.00  0.00     0.062 A 
ATOM      3  C2  UNL d   1       0.334   2.409   0.195  0.00  0.00     0.162 A 
ATOM      4  C3  UNL d   1      -0.090   1.749   1.347  0.00  0.00    -0.034 A 
ATOM      5  C4  UNL d   1      -1.416   1.888   1.762  0.00  0.00     0.162 A 
ATOM      6  C5  UNL d   1      -2.301   2.674   1.032  0.00  0.00     0.062 A 
ATOM      7  F   UNL d   1      -3.573   2.801   1.438  0.00  0.00    -0.097 F 
ATOM      8  F1  UNL d   1      -1.858   1.266   2.866  0.00  0.00    -0.096 F 
ATOM      9  I   UNL d   1       1.236   0.572   2.437  0.00  0.00    -0.060 I 
ATOM     10  F2  UNL d   1       1.601   2.299  -0.233  0.00  0.00    -0.096 F 
ATOM     11  F3  UNL d   1      -0.138   3.826  -1.639  0.00  0.00    -0.097 F 
ATOM     12  F4  UNL d   1      -2.725   4.085  -0.815  0.00  0.00    -0.092 F 
ENDROOT
TORSDOF 0
ENDMDL
