MODEL 1
REMARK minimizedAffinity 22.6555386
REMARK minimizedRMSD -1
REMARK  0 active torsions:
REMARK  status: ('A' for Active; 'I' for Inactive)
ROOT
ATOM      1  C   UNL d   1       0.346   0.501   3.803  0.00  0.00     0.124 A 
ATOM      2  C1  UNL d   1      -0.936   0.617   3.285  0.00  0.00     0.062 A 
ATOM      3  C2  UNL d   1      -1.900  -0.341   3.583  0.00  0.00     0.162 A 
ATOM      4  C3  UNL d   1      -1.586  -1.424   4.405  0.00  0.00    -0.034 A 
ATOM      5  C4  UNL d   1      -0.294  -1.534   4.921  0.00  0.00     0.162 A 
ATOM      6  C5  UNL d   1       0.667  -0.574   4.620  0.00  0.00     0.062 A 
ATOM      7  F   UNL d   1       1.905  -0.687   5.121  0.00  0.00    -0.097 F 
ATOM      8  F1  UNL d   1       0.042  -2.562   5.714  0.00  0.00    -0.096 F 
ATOM      9  I   UNL d   1      -3.025  -2.859   4.853  0.00  0.00    -0.060 I 
ATOM     10  F2  UNL d   1      -3.132  -0.204   3.069  0.00  0.00    -0.096 F 
ATOM     11  F3  UNL d   1      -1.248   1.654   2.495  0.00  0.00    -0.097 F 
ATOM     12  F4  UNL d   1       1.273   1.424   3.513  0.00  0.00    -0.092 F 
ENDROOT
TORSDOF 0
ENDMDL
