MODEL 1
REMARK minimizedAffinity 6.45933533
REMARK minimizedRMSD -1
REMARK  0 active torsions:
REMARK  status: ('A' for Active; 'I' for Inactive)
ROOT
ATOM      1  C   UNL d   1      -1.964   4.818  -4.138  0.00  0.00     0.124 A 
ATOM      2  C1  UNL d   1      -3.173   4.935  -3.467  0.00  0.00     0.062 A 
ATOM      3  C2  UNL d   1      -4.147   3.950  -3.603  0.00  0.00     0.162 A 
ATOM      4  C3  UNL d   1      -3.915   2.838  -4.413  0.00  0.00    -0.034 A 
ATOM      5  C4  UNL d   1      -2.696   2.728  -5.085  0.00  0.00     0.162 A 
ATOM      6  C5  UNL d   1      -1.727   3.715  -4.946  0.00  0.00     0.062 A 
ATOM      7  F   UNL d   1      -0.559   3.601  -5.596  0.00  0.00    -0.097 F 
ATOM      8  F1  UNL d   1      -2.441   1.672  -5.872  0.00  0.00    -0.096 F 
ATOM      9  I   UNL d   1      -5.368   1.362  -4.618  0.00  0.00    -0.060 I 
ATOM     10  F2  UNL d   1      -5.306   4.088  -2.942  0.00  0.00    -0.096 F 
ATOM     11  F3  UNL d   1      -3.405   6.000  -2.686  0.00  0.00    -0.097 F 
ATOM     12  F4  UNL d   1      -1.029   5.768  -4.007  0.00  0.00    -0.092 F 
ENDROOT
TORSDOF 0
ENDMDL
