MODEL 1
REMARK minimizedAffinity 8.78591442
REMARK minimizedRMSD -1
REMARK  0 active torsions:
REMARK  status: ('A' for Active; 'I' for Inactive)
ROOT
ATOM      1  C   UNL d   1      -2.540   4.488  -4.450  0.00  0.00     0.124 A 
ATOM      2  C1  UNL d   1      -3.701   4.779  -5.154  0.00  0.00     0.062 A 
ATOM      3  C2  UNL d   1      -4.684   3.808  -5.315  0.00  0.00     0.162 A 
ATOM      4  C3  UNL d   1      -4.512   2.535  -4.769  0.00  0.00    -0.034 A 
ATOM      5  C4  UNL d   1      -3.342   2.250  -4.063  0.00  0.00     0.162 A 
ATOM      6  C5  UNL d   1      -2.362   3.224  -3.906  0.00  0.00     0.062 A 
ATOM      7  F   UNL d   1      -1.242   2.941  -3.225  0.00  0.00    -0.097 F 
ATOM      8  F1  UNL d   1      -3.145   1.037  -3.526  0.00  0.00    -0.096 F 
ATOM      9  I   UNL d   1      -5.981   1.080  -5.007  0.00  0.00    -0.060 I 
ATOM     10  F2  UNL d   1      -5.795   4.117  -6.000  0.00  0.00    -0.096 F 
ATOM     11  F3  UNL d   1      -3.875   6.000  -5.682  0.00  0.00    -0.097 F 
ATOM     12  F4  UNL d   1      -1.595   5.425  -4.298  0.00  0.00    -0.092 F 
ENDROOT
TORSDOF 0
ENDMDL
