MODEL 1
REMARK minimizedAffinity 23.2460251
REMARK minimizedRMSD -1
REMARK  0 active torsions:
REMARK  status: ('A' for Active; 'I' for Inactive)
ROOT
ATOM      1  C   UNL d   1      -1.999   4.632  -4.329  0.00  0.00     0.124 A 
ATOM      2  C1  UNL d   1      -1.865   3.442  -3.628  0.00  0.00     0.062 A 
ATOM      3  C2  UNL d   1      -2.850   2.463  -3.717  0.00  0.00     0.162 A 
ATOM      4  C3  UNL d   1      -3.978   2.669  -4.510  0.00  0.00    -0.034 A 
ATOM      5  C4  UNL d   1      -4.107   3.870  -5.211  0.00  0.00     0.162 A 
ATOM      6  C5  UNL d   1      -3.119   4.845  -5.120  0.00  0.00     0.062 A 
ATOM      7  F   UNL d   1      -3.250   5.995  -5.797  0.00  0.00    -0.097 F 
ATOM      8  F1  UNL d   1      -5.178   4.101  -5.984  0.00  0.00    -0.096 F 
ATOM      9  I   UNL d   1      -5.454   1.208  -4.645  0.00  0.00    -0.060 I 
ATOM     10  F2  UNL d   1      -2.694   1.322  -3.028  0.00  0.00    -0.096 F 
ATOM     11  F3  UNL d   1      -0.784   3.234  -2.862  0.00  0.00    -0.097 F 
ATOM     12  F4  UNL d   1      -1.050   5.573  -4.241  0.00  0.00    -0.092 F 
ENDROOT
TORSDOF 0
ENDMDL
