MODEL 1
REMARK minimizedAffinity 31.0246544
REMARK minimizedRMSD -1
REMARK  0 active torsions:
REMARK  status: ('A' for Active; 'I' for Inactive)
ROOT
ATOM      1  C   UNL d   1      -1.378   4.863  -4.105  0.00  0.00     0.124 A 
ATOM      2  C1  UNL d   1      -1.306   3.836  -3.173  0.00  0.00     0.062 A 
ATOM      3  C2  UNL d   1      -2.250   2.814  -3.183  0.00  0.00     0.162 A 
ATOM      4  C3  UNL d   1      -3.274   2.811  -4.131  0.00  0.00    -0.034 A 
ATOM      5  C4  UNL d   1      -3.340   3.847  -5.064  0.00  0.00     0.162 A 
ATOM      6  C5  UNL d   1      -2.394   4.867  -5.049  0.00  0.00     0.062 A 
ATOM      7  F   UNL d   1      -2.465   5.857  -5.950  0.00  0.00    -0.097 F 
ATOM      8  F1  UNL d   1      -4.312   3.875  -5.988  0.00  0.00    -0.096 F 
ATOM      9  I   UNL d   1      -4.687   1.284  -4.150  0.00  0.00    -0.060 I 
ATOM     10  F2  UNL d   1      -2.156   1.835  -2.271  0.00  0.00    -0.096 F 
ATOM     11  F3  UNL d   1      -0.325   3.830  -2.258  0.00  0.00    -0.097 F 
ATOM     12  F4  UNL d   1      -0.469   5.846  -4.091  0.00  0.00    -0.092 F 
ENDROOT
TORSDOF 0
ENDMDL
