MODEL 1
REMARK minimizedAffinity 15.3022747
REMARK minimizedRMSD -1
REMARK  0 active torsions:
REMARK  status: ('A' for Active; 'I' for Inactive)
ROOT
ATOM      1  C   UNL d   1      -2.207   4.578  -4.461  0.00  0.00     0.124 A 
ATOM      2  C1  UNL d   1      -3.331   4.854  -5.228  0.00  0.00     0.062 A 
ATOM      3  C2  UNL d   1      -4.402   3.966  -5.245  0.00  0.00     0.162 A 
ATOM      4  C3  UNL d   1      -4.356   2.793  -4.491  0.00  0.00    -0.034 A 
ATOM      5  C4  UNL d   1      -3.222   2.522  -3.723  0.00  0.00     0.162 A 
ATOM      6  C5  UNL d   1      -2.154   3.413  -3.710  0.00  0.00     0.062 A 
ATOM      7  F   UNL d   1      -1.069   3.144  -2.968  0.00  0.00    -0.097 F 
ATOM      8  F1  UNL d   1      -3.145   1.403  -2.987  0.00  0.00    -0.096 F 
ATOM      9  I   UNL d   1      -5.956   1.462  -4.514  0.00  0.00    -0.060 I 
ATOM     10  F2  UNL d   1      -5.475   4.258  -5.995  0.00  0.00    -0.096 F 
ATOM     11  F3  UNL d   1      -3.384   5.979  -5.955  0.00  0.00    -0.097 F 
ATOM     12  F4  UNL d   1      -1.177   5.434  -4.447  0.00  0.00    -0.092 F 
ENDROOT
TORSDOF 0
ENDMDL
