MODEL 1
REMARK minimizedAffinity 28.4827423
REMARK minimizedRMSD -1
REMARK  0 active torsions:
REMARK  status: ('A' for Active; 'I' for Inactive)
ROOT
ATOM      1  C   UNL d   1       1.201  -3.713  -1.238  0.00  0.00     0.124 A 
ATOM      2  C1  UNL d   1       1.709  -2.770  -0.355  0.00  0.00     0.062 A 
ATOM      3  C2  UNL d   1       2.997  -2.910   0.155  0.00  0.00     0.162 A 
ATOM      4  C3  UNL d   1       3.787  -3.997  -0.218  0.00  0.00    -0.034 A 
ATOM      5  C4  UNL d   1       3.269  -4.942  -1.106  0.00  0.00     0.162 A 
ATOM      6  C5  UNL d   1       1.981  -4.797  -1.612  0.00  0.00     0.062 A 
ATOM      7  F   UNL d   1       1.493  -5.710  -2.465  0.00  0.00    -0.097 F 
ATOM      8  F1  UNL d   1       4.002  -5.999  -1.486  0.00  0.00    -0.096 F 
ATOM      9  I   UNL d   1       5.713  -4.210   0.541  0.00  0.00    -0.060 I 
ATOM     10  F2  UNL d   1       3.461  -1.983   1.006  0.00  0.00    -0.096 F 
ATOM     11  F3  UNL d   1       0.957  -1.721   0.010  0.00  0.00    -0.097 F 
ATOM     12  F4  UNL d   1      -0.039  -3.576  -1.725  0.00  0.00    -0.092 F 
ENDROOT
TORSDOF 0
ENDMDL
