MODEL 1
REMARK minimizedAffinity 26.0019436
REMARK minimizedRMSD -1
REMARK  0 active torsions:
REMARK  status: ('A' for Active; 'I' for Inactive)
ROOT
ATOM      1  C   UNL d   1       0.745   2.803   2.853  0.00  0.00     0.124 A 
ATOM      2  C1  UNL d   1      -0.058   2.276   3.856  0.00  0.00     0.062 A 
ATOM      3  C2  UNL d   1      -1.312   1.756   3.549  0.00  0.00     0.162 A 
ATOM      4  C3  UNL d   1      -1.771   1.758   2.231  0.00  0.00    -0.034 A 
ATOM      5  C4  UNL d   1      -0.958   2.290   1.228  0.00  0.00     0.162 A 
ATOM      6  C5  UNL d   1       0.294   2.809   1.541  0.00  0.00     0.062 A 
ATOM      7  F   UNL d   1       1.068   3.317   0.571  0.00  0.00    -0.097 F 
ATOM      8  F1  UNL d   1      -1.368   2.308  -0.049  0.00  0.00    -0.096 F 
ATOM      9  I   UNL d   1      -3.645   0.981   1.767  0.00  0.00    -0.060 I 
ATOM     10  F2  UNL d   1      -2.066   1.254   4.538  0.00  0.00    -0.096 F 
ATOM     11  F3  UNL d   1       0.375   2.270   5.125  0.00  0.00    -0.097 F 
ATOM     12  F4  UNL d   1       1.950   3.304   3.152  0.00  0.00    -0.092 F 
ENDROOT
TORSDOF 0
ENDMDL
