MODEL 1
REMARK minimizedAffinity 20.7105312
REMARK minimizedRMSD -1
REMARK  0 active torsions:
REMARK  status: ('A' for Active; 'I' for Inactive)
ROOT
ATOM      1  C   UNL d   1      -3.171   0.732   2.326  0.00  0.00     0.124 A 
ATOM      2  C1  UNL d   1      -2.325   1.395   1.448  0.00  0.00     0.062 A 
ATOM      3  C2  UNL d   1      -0.955   1.153   1.480  0.00  0.00     0.162 A 
ATOM      4  C3  UNL d   1      -0.422   0.243   2.392  0.00  0.00    -0.034 A 
ATOM      5  C4  UNL d   1      -1.279  -0.420   3.273  0.00  0.00     0.162 A 
ATOM      6  C5  UNL d   1      -2.648  -0.175   3.237  0.00  0.00     0.062 A 
ATOM      7  F   UNL d   1      -3.464  -0.816   4.086  0.00  0.00    -0.097 F 
ATOM      8  F1  UNL d   1      -0.800  -1.301   4.163  0.00  0.00    -0.096 F 
ATOM      9  I   UNL d   1       1.627  -0.121   2.443  0.00  0.00    -0.060 I 
ATOM     10  F2  UNL d   1      -0.161   1.808   0.620  0.00  0.00    -0.096 F 
ATOM     11  F3  UNL d   1      -2.829   2.271   0.567  0.00  0.00    -0.097 F 
ATOM     12  F4  UNL d   1      -4.489   0.967   2.294  0.00  0.00    -0.092 F 
ENDROOT
TORSDOF 0
ENDMDL
