MODEL 1
REMARK minimizedAffinity 25.9907608
REMARK minimizedRMSD -1
REMARK  0 active torsions:
REMARK  status: ('A' for Active; 'I' for Inactive)
ROOT
ATOM      1  C   UNL d   1       0.780   2.545   2.158  0.00  0.00     0.124 A 
ATOM      2  C1  UNL d   1       1.402   3.398   1.256  0.00  0.00     0.062 A 
ATOM      3  C2  UNL d   1       0.965   3.461  -0.063  0.00  0.00     0.162 A 
ATOM      4  C3  UNL d   1      -0.102   2.671  -0.490  0.00  0.00    -0.034 A 
ATOM      5  C4  UNL d   1      -0.722   1.815   0.422  0.00  0.00     0.162 A 
ATOM      6  C5  UNL d   1      -0.281   1.755   1.740  0.00  0.00     0.062 A 
ATOM      7  F   UNL d   1      -0.884   0.930   2.609  0.00  0.00    -0.097 F 
ATOM      8  F1  UNL d   1      -1.751   1.041   0.045  0.00  0.00    -0.096 F 
ATOM      9  I   UNL d   1      -0.760   2.763  -2.463  0.00  0.00    -0.060 I 
ATOM     10  F2  UNL d   1       1.585   4.294  -0.913  0.00  0.00    -0.096 F 
ATOM     11  F3  UNL d   1       2.429   4.161   1.657  0.00  0.00    -0.097 F 
ATOM     12  F4  UNL d   1       1.204   2.485   3.427  0.00  0.00    -0.092 F 
ENDROOT
TORSDOF 0
ENDMDL
