MODEL 1
REMARK minimizedAffinity 31.8998547
REMARK minimizedRMSD -1
REMARK  0 active torsions:
REMARK  status: ('A' for Active; 'I' for Inactive)
ROOT
ATOM      1  C   UNL d   1       1.577  -3.468  -0.909  0.00  0.00     0.124 A 
ATOM      2  C1  UNL d   1       2.152  -2.527  -0.066  0.00  0.00     0.062 A 
ATOM      3  C2  UNL d   1       3.414  -2.751   0.476  0.00  0.00     0.162 A 
ATOM      4  C3  UNL d   1       4.111  -3.922   0.175  0.00  0.00    -0.034 A 
ATOM      5  C4  UNL d   1       3.526  -4.864  -0.673  0.00  0.00     0.162 A 
ATOM      6  C5  UNL d   1       2.264  -4.635  -1.212  0.00  0.00     0.062 A 
ATOM      7  F   UNL d   1       1.711  -5.545  -2.026  0.00  0.00    -0.097 F 
ATOM      8  F1  UNL d   1       4.169  -5.999  -0.983  0.00  0.00    -0.096 F 
ATOM      9  I   UNL d   1       5.999  -4.260   0.983  0.00  0.00    -0.060 I 
ATOM     10  F2  UNL d   1       3.945  -1.825   1.287  0.00  0.00    -0.096 F 
ATOM     11  F3  UNL d   1       1.489  -1.399   0.229  0.00  0.00    -0.097 F 
ATOM     12  F4  UNL d   1       0.362  -3.250  -1.428  0.00  0.00    -0.092 F 
ENDROOT
TORSDOF 0
ENDMDL
