MODEL 1
REMARK minimizedAffinity 31.0967407
REMARK minimizedRMSD -1
REMARK  0 active torsions:
REMARK  status: ('A' for Active; 'I' for Inactive)
ROOT
ATOM      1  C   UNL d   1      -1.307   2.184   1.050  0.00  0.00     0.124 A 
ATOM      2  C1  UNL d   1      -0.192   2.168   0.224  0.00  0.00     0.062 A 
ATOM      3  C2  UNL d   1      -0.159   2.953  -0.924  0.00  0.00     0.162 A 
ATOM      4  C3  UNL d   1      -1.246   3.763  -1.254  0.00  0.00    -0.034 A 
ATOM      5  C4  UNL d   1      -2.365   3.773  -0.420  0.00  0.00     0.162 A 
ATOM      6  C5  UNL d   1      -2.393   2.987   0.727  0.00  0.00     0.062 A 
ATOM      7  F   UNL d   1      -3.471   3.004   1.523  0.00  0.00    -0.097 F 
ATOM      8  F1  UNL d   1      -3.427   4.540  -0.707  0.00  0.00    -0.096 F 
ATOM      9  I   UNL d   1      -1.201   4.939  -2.971  0.00  0.00    -0.060 I 
ATOM     10  F2  UNL d   1       0.932   2.917  -1.703  0.00  0.00    -0.096 F 
ATOM     11  F3  UNL d   1       0.858   1.392   0.533  0.00  0.00    -0.097 F 
ATOM     12  F4  UNL d   1      -1.337   1.427   2.154  0.00  0.00    -0.092 F 
ENDROOT
TORSDOF 0
ENDMDL
