MODEL 1
REMARK minimizedAffinity 4.95587158
REMARK minimizedRMSD -1
REMARK  1 active torsions:
REMARK  status: ('A' for Active; 'I' for Inactive)
REMARK    1  A    between atoms: C1_2  and  C2_3 
ROOT
ATOM      1  C2  UNL d   1      -0.452   3.767   0.161  0.00  0.00    -0.081 A 
ATOM      2  C3  UNL d   1       0.861   4.127  -0.167  0.00  0.00     0.006 A 
ATOM      3  C4  UNL d   1       1.128   4.839  -1.338  0.00  0.00     0.002 A 
ATOM      4  C5  UNL d   1       0.088   5.209  -2.197  0.00  0.00    -0.080 A 
ATOM      5  C6  UNL d   1       0.357   6.000  -3.443  0.00  0.00     0.076 C 
ATOM      6  C7  UNL d   1      -1.222   4.834  -1.879  0.00  0.00     0.002 A 
ATOM      7  C8  UNL d   1      -1.490   4.121  -0.708  0.00  0.00     0.006 A 
ENDROOT
BRANCH   1   8
ATOM      8  C1  UNL d   1      -0.751   3.055   1.456  0.00  0.00     0.054 C 
ATOM      9  C   UNL d   1       0.529   2.640   2.167  0.00  0.00     0.018 C 
ENDBRANCH   1   8
TORSDOF 1
ENDMDL
