MODEL 1
REMARK minimizedAffinity 11.2465992
REMARK minimizedRMSD -1
REMARK  1 active torsions:
REMARK  status: ('A' for Active; 'I' for Inactive)
REMARK    1  A    between atoms: C1_2  and  C2_3 
ROOT
ATOM      1  C2  UNL d   1       0.987   0.918   3.323  0.00  0.00    -0.081 A 
ATOM      2  C3  UNL d   1      -0.352   1.197   3.024  0.00  0.00     0.006 A 
ATOM      3  C4  UNL d   1      -0.678   2.083   1.995  0.00  0.00     0.002 A 
ATOM      4  C5  UNL d   1       0.328   2.700   1.243  0.00  0.00    -0.080 A 
ATOM      5  C6  UNL d   1      -0.009   3.630   0.116  0.00  0.00     0.076 C 
ATOM      6  C7  UNL d   1       1.666   2.435   1.553  0.00  0.00     0.002 A 
ATOM      7  C8  UNL d   1       1.993   1.549   2.582  0.00  0.00     0.006 A 
ENDROOT
BRANCH   1   8
ATOM      8  C1  UNL d   1       1.341  -0.087   4.389  0.00  0.00     0.054 C 
ATOM      9  C   UNL d   1       0.286  -1.179   4.492  0.00  0.00     0.018 C 
ENDBRANCH   1   8
TORSDOF 1
ENDMDL
