MODEL 1
REMARK minimizedAffinity 5.74739408
REMARK minimizedRMSD -1
REMARK  1 active torsions:
REMARK  status: ('A' for Active; 'I' for Inactive)
REMARK    1  A    between atoms: C1_2  and  C2_3 
ROOT
ATOM      1  C2  UNL d   1       0.815   2.863   1.578  0.00  0.00    -0.081 A 
ATOM      2  C3  UNL d   1      -0.343   2.368   0.966  0.00  0.00     0.006 A 
ATOM      3  C4  UNL d   1      -0.838   2.961  -0.199  0.00  0.00     0.002 A 
ATOM      4  C5  UNL d   1      -0.179   4.053  -0.774  0.00  0.00    -0.080 A 
ATOM      5  C6  UNL d   1      -0.682   4.679  -2.041  0.00  0.00     0.076 C 
ATOM      6  C7  UNL d   1       0.969   4.558  -0.153  0.00  0.00     0.002 A 
ATOM      7  C8  UNL d   1       1.463   3.966   1.011  0.00  0.00     0.006 A 
ENDROOT
BRANCH   1   8
ATOM      8  C1  UNL d   1       1.387   2.186   2.797  0.00  0.00     0.054 C 
ATOM      9  C   UNL d   1       2.318   3.116   3.561  0.00  0.00     0.018 C 
ENDBRANCH   1   8
TORSDOF 1
ENDMDL
