MODEL 1
REMARK minimizedAffinity 5.67447615
REMARK minimizedRMSD -1
REMARK  1 active torsions:
REMARK  status: ('A' for Active; 'I' for Inactive)
REMARK    1  A    between atoms: C1_2  and  C2_3 
ROOT
ATOM      1  C2  UNL d   1      -0.231   4.646  -2.383  0.00  0.00    -0.081 A 
ATOM      2  C3  UNL d   1       0.961   4.104  -1.888  0.00  0.00     0.006 A 
ATOM      3  C4  UNL d   1       1.046   3.670  -0.563  0.00  0.00     0.002 A 
ATOM      4  C5  UNL d   1      -0.062   3.764   0.287  0.00  0.00    -0.080 A 
ATOM      5  C6  UNL d   1       0.007   3.275   1.703  0.00  0.00     0.076 C 
ATOM      6  C7  UNL d   1      -1.247   4.323  -0.202  0.00  0.00     0.002 A 
ATOM      7  C8  UNL d   1      -1.332   4.757  -1.527  0.00  0.00     0.006 A 
ENDROOT
BRANCH   1   8
ATOM      8  C1  UNL d   1      -0.345   5.055  -3.829  0.00  0.00     0.054 C 
ATOM      9  C   UNL d   1       0.939   5.706  -4.323  0.00  0.00     0.018 C 
ENDBRANCH   1   8
TORSDOF 1
ENDMDL
