MODEL 1
REMARK minimizedAffinity 3.3304224
REMARK minimizedRMSD -1
REMARK  1 active torsions:
REMARK  status: ('A' for Active; 'I' for Inactive)
REMARK    1  A    between atoms: N_2  and  C1_3 
ROOT
ATOM      1  C1  UNL d   1      -1.451  -1.053   0.804  0.00  0.00     0.143 A 
ATOM      2  C2  UNL d   1      -0.623  -1.281   1.909  0.00  0.00    -0.057 A 
ATOM      3  C3  UNL d   1      -0.658  -0.441   3.028  0.00  0.00     0.033 A 
ATOM      4  C4  UNL d   1      -1.504   0.663   3.051  0.00  0.00    -0.042 A 
ATOM      5  C5  UNL d   1      -2.318   0.924   1.954  0.00  0.00     0.033 A 
ATOM      6  C6  UNL d   1      -2.283   0.077   0.842  0.00  0.00    -0.057 A 
ENDROOT
BRANCH   1   7
ATOM      7  N   UNL d   1      -1.392  -1.794  -0.378  0.00  0.00    -0.732 N 
ATOM      8  C   UNL d   1      -1.764  -3.193  -0.390  0.00  0.00     0.284 C 
ATOM      9  H3  UNL d   1      -1.725  -1.269  -1.183  0.00  0.00     0.395 HD
ENDBRANCH   1   7
TORSDOF 1
ENDMDL
