MODEL 1
REMARK minimizedAffinity 0.593745649
REMARK minimizedRMSD -1
REMARK  1 active torsions:
REMARK  status: ('A' for Active; 'I' for Inactive)
REMARK    1  A    between atoms: N_2  and  C1_3 
ROOT
ATOM      1  C1  UNL d   1      -0.401  -1.710  -3.562  0.00  0.00     0.143 A 
ATOM      2  C2  UNL d   1      -0.221  -2.316  -4.810  0.00  0.00    -0.057 A 
ATOM      3  C3  UNL d   1      -0.336  -1.582  -5.997  0.00  0.00     0.033 A 
ATOM      4  C4  UNL d   1      -0.663  -0.230  -5.957  0.00  0.00    -0.042 A 
ATOM      5  C5  UNL d   1      -0.871   0.387  -4.728  0.00  0.00     0.033 A 
ATOM      6  C6  UNL d   1      -0.748  -0.350  -3.546  0.00  0.00    -0.057 A 
ENDROOT
BRANCH   1   7
ATOM      7  N   UNL d   1      -0.397  -2.407  -2.351  0.00  0.00    -0.732 N 
ATOM      8  C   UNL d   1      -0.992  -1.829  -1.166  0.00  0.00     0.284 C 
ATOM      9  H3  UNL d   1      -0.592  -3.398  -2.473  0.00  0.00     0.395 HD
ENDBRANCH   1   7
TORSDOF 1
ENDMDL
