MODEL 1
REMARK minimizedAffinity 0.873201072
REMARK minimizedRMSD -1
REMARK  1 active torsions:
REMARK  status: ('A' for Active; 'I' for Inactive)
REMARK    1  A    between atoms: N_2  and  C1_3 
ROOT
ATOM      1  C1  UNL d   1      -0.304  -1.115  -3.578  0.00  0.00     0.143 A 
ATOM      2  C2  UNL d   1      -0.867   0.166  -3.562  0.00  0.00    -0.057 A 
ATOM      3  C3  UNL d   1      -1.039   0.899  -4.742  0.00  0.00     0.033 A 
ATOM      4  C4  UNL d   1      -0.623   0.373  -5.961  0.00  0.00    -0.042 A 
ATOM      5  C5  UNL d   1      -0.038  -0.888  -5.998  0.00  0.00     0.033 A 
ATOM      6  C6  UNL d   1       0.125  -1.618  -4.817  0.00  0.00    -0.057 A 
ENDROOT
BRANCH   1   7
ATOM      7  N   UNL d   1      -0.016  -1.853  -2.427  0.00  0.00    -0.732 N 
ATOM      8  C   UNL d   1      -0.843  -1.729  -1.246  0.00  0.00     0.284 C 
ATOM      9  H3  UNL d   1       0.267  -2.807  -2.639  0.00  0.00     0.395 HD
ENDBRANCH   1   7
TORSDOF 1
ENDMDL
