MODEL 1
REMARK minimizedAffinity -3.95464468
REMARK minimizedRMSD -1
REMARK  1 active torsions:
REMARK  status: ('A' for Active; 'I' for Inactive)
REMARK    1  A    between atoms: N_2  and  C1_3 
ROOT
ATOM      1  C1  UNL d   1       1.691  -0.219  -5.090  0.00  0.00     0.143 A 
ATOM      2  C2  UNL d   1       0.633   0.649  -5.383  0.00  0.00    -0.057 A 
ATOM      3  C3  UNL d   1      -0.634   0.466  -4.815  0.00  0.00     0.033 A 
ATOM      4  C4  UNL d   1      -0.874  -0.609  -3.966  0.00  0.00    -0.042 A 
ATOM      5  C5  UNL d   1       0.157  -1.499  -3.681  0.00  0.00     0.033 A 
ATOM      6  C6  UNL d   1       1.421  -1.306  -4.245  0.00  0.00    -0.057 A 
ENDROOT
BRANCH   1   7
ATOM      7  N   UNL d   1       2.946  -0.147  -5.699  0.00  0.00    -0.732 N 
ATOM      8  C   UNL d   1       3.868   0.917  -5.364  0.00  0.00     0.284 C 
ATOM      9  H3  UNL d   1       3.383  -1.060  -5.797  0.00  0.00     0.395 HD
ENDBRANCH   1   7
TORSDOF 1
ENDMDL
