MODEL 1
REMARK minimizedAffinity 4.19561672
REMARK minimizedRMSD -1
REMARK  1 active torsions:
REMARK  status: ('A' for Active; 'I' for Inactive)
REMARK    1  A    between atoms: N_2  and  C1_3 
ROOT
ATOM      1  C1  UNL d   1      -0.949  -0.489  -4.092  0.00  0.00     0.143 A 
ATOM      2  C2  UNL d   1      -0.078  -1.432  -4.648  0.00  0.00    -0.057 A 
ATOM      3  C3  UNL d   1       0.373  -2.530  -3.905  0.00  0.00     0.033 A 
ATOM      4  C4  UNL d   1      -0.017  -2.689  -2.580  0.00  0.00    -0.042 A 
ATOM      5  C5  UNL d   1      -0.862  -1.750  -1.998  0.00  0.00     0.033 A 
ATOM      6  C6  UNL d   1      -1.314  -0.659  -2.747  0.00  0.00    -0.057 A 
ENDROOT
BRANCH   1   7
ATOM      7  N   UNL d   1      -1.354   0.677  -4.747  0.00  0.00    -0.732 N 
ATOM      8  C   UNL d   1      -2.564   0.694  -5.539  0.00  0.00     0.284 C 
ATOM      9  H3  UNL d   1      -1.218   1.509  -4.178  0.00  0.00     0.395 HD
ENDBRANCH   1   7
TORSDOF 1
ENDMDL
