MODEL 1
REMARK minimizedAffinity -2.27044058
REMARK minimizedRMSD -1
REMARK  1 active torsions:
REMARK  status: ('A' for Active; 'I' for Inactive)
REMARK    1  A    between atoms: N_2  and  C1_3 
ROOT
ATOM      1  C1  UNL d   1      -0.923  -1.666  -3.652  0.00  0.00     0.143 A 
ATOM      2  C2  UNL d   1      -1.795  -0.575  -3.568  0.00  0.00    -0.057 A 
ATOM      3  C3  UNL d   1      -1.771   0.448  -4.524  0.00  0.00     0.033 A 
ATOM      4  C4  UNL d   1      -0.851   0.413  -5.567  0.00  0.00    -0.042 A 
ATOM      5  C5  UNL d   1       0.041  -0.650  -5.656  0.00  0.00     0.033 A 
ATOM      6  C6  UNL d   1       0.008  -1.672  -4.702  0.00  0.00    -0.057 A 
ENDROOT
BRANCH   1   7
ATOM      7  N   UNL d   1      -0.831  -2.664  -2.679  0.00  0.00    -0.732 N 
ATOM      8  C   UNL d   1      -1.486  -2.508  -1.398  0.00  0.00     0.284 C 
ATOM      9  H3  UNL d   1      -0.907  -3.599  -3.073  0.00  0.00     0.395 HD
ENDBRANCH   1   7
TORSDOF 1
ENDMDL
