MODEL 1
REMARK minimizedAffinity -0.886246204
REMARK minimizedRMSD -1
REMARK  1 active torsions:
REMARK  status: ('A' for Active; 'I' for Inactive)
REMARK    1  A    between atoms: N_2  and  C1_3 
ROOT
ATOM      1  C1  UNL d   1      -3.291  -0.151  -5.516  0.00  0.00     0.143 A 
ATOM      2  C2  UNL d   1      -2.233   0.740  -5.307  0.00  0.00    -0.057 A 
ATOM      3  C3  UNL d   1      -0.908   0.293  -5.248  0.00  0.00     0.033 A 
ATOM      4  C4  UNL d   1      -0.619  -1.063  -5.369  0.00  0.00    -0.042 A 
ATOM      5  C5  UNL d   1      -1.657  -1.969  -5.552  0.00  0.00     0.033 A 
ATOM      6  C6  UNL d   1      -2.978  -1.515  -5.617  0.00  0.00    -0.057 A 
ENDROOT
BRANCH   1   7
ATOM      7  N   UNL d   1      -4.638   0.220  -5.485  0.00  0.00    -0.732 N 
ATOM      8  C   UNL d   1      -5.446  -0.034  -4.312  0.00  0.00     0.284 C 
ATOM      9  H3  UNL d   1      -4.801   1.129  -5.913  0.00  0.00     0.395 HD
ENDBRANCH   1   7
TORSDOF 1
ENDMDL
