MODEL 1
REMARK minimizedAffinity 4.83885002
REMARK minimizedRMSD -1
REMARK  1 active torsions:
REMARK  status: ('A' for Active; 'I' for Inactive)
REMARK    1  A    between atoms: N_2  and  C1_3 
ROOT
ATOM      1  C1  UNL d   1      -3.277  -0.382  -4.898  0.00  0.00     0.143 A 
ATOM      2  C2  UNL d   1      -2.832   0.393  -5.974  0.00  0.00    -0.057 A 
ATOM      3  C3  UNL d   1      -1.541   0.935  -5.993  0.00  0.00     0.033 A 
ATOM      4  C4  UNL d   1      -0.680   0.735  -4.919  0.00  0.00    -0.042 A 
ATOM      5  C5  UNL d   1      -1.110  -0.011  -3.828  0.00  0.00     0.033 A 
ATOM      6  C6  UNL d   1      -2.398  -0.556  -3.818  0.00  0.00    -0.057 A 
ENDROOT
BRANCH   1   7
ATOM      7  N   UNL d   1      -4.582  -0.866  -4.776  0.00  0.00    -0.732 N 
ATOM      8  C   UNL d   1      -5.672   0.027  -4.446  0.00  0.00     0.284 C 
ATOM      9  H3  UNL d   1      -4.810  -1.554  -5.491  0.00  0.00     0.395 HD
ENDBRANCH   1   7
TORSDOF 1
ENDMDL
