MODEL 1
REMARK minimizedAffinity 1.30892348
REMARK minimizedRMSD -1
REMARK  1 active torsions:
REMARK  status: ('A' for Active; 'I' for Inactive)
REMARK    1  A    between atoms: N_2  and  C1_3 
ROOT
ATOM      1  C1  UNL d   1      -1.850  -1.372   0.163  0.00  0.00     0.143 A 
ATOM      2  C2  UNL d   1      -0.946  -1.052   1.181  0.00  0.00    -0.057 A 
ATOM      3  C3  UNL d   1      -1.214  -0.025   2.094  0.00  0.00     0.033 A 
ATOM      4  C4  UNL d   1      -2.382   0.722   1.987  0.00  0.00    -0.042 A 
ATOM      5  C5  UNL d   1      -3.284   0.439   0.967  0.00  0.00     0.033 A 
ATOM      6  C6  UNL d   1      -3.014  -0.593   0.062  0.00  0.00    -0.057 A 
ENDROOT
BRANCH   1   7
ATOM      7  N   UNL d   1      -1.596  -2.316  -0.835  0.00  0.00    -0.732 N 
ATOM      8  C   UNL d   1      -0.886  -1.942  -2.039  0.00  0.00     0.284 C 
ATOM      9  H3  UNL d   1      -1.323  -3.219  -0.455  0.00  0.00     0.395 HD
ENDBRANCH   1   7
TORSDOF 1
ENDMDL
