MODEL 1
REMARK minimizedAffinity 3.96756244
REMARK minimizedRMSD -1
REMARK  0 active torsions:
REMARK  status: ('A' for Active; 'I' for Inactive)
ROOT
ATOM      1  C1  DEN d   1      -5.626   2.541  -5.988  0.00  0.00     0.130 A 
ATOM      2  C2  DEN d   1      -6.000   1.425  -5.123  0.00  0.00    -0.031 A 
ATOM      3  C3  DEN d   1      -4.952   1.274  -4.093  0.00  0.00     0.027 A 
ATOM      4  C4  DEN d   1      -2.801   2.655  -3.753  0.00  0.00     0.027 A 
ATOM      5  C5  DEN d   1      -2.047   3.698  -4.245  0.00  0.00    -0.003 A 
ATOM      6  C6  DEN d   1      -2.412   4.401  -5.362  0.00  0.00     0.001 A 
ATOM      7  C7  DEN d   1      -3.587   4.098  -6.000  0.00  0.00     0.017 A 
ATOM      8  C8  DEN d   1      -4.348   3.043  -5.515  0.00  0.00    -0.094 A 
ATOM      9  C9  DEN d   1      -3.968   2.353  -4.376  0.00  0.00    -0.072 A 
ENDROOT
TORSDOF 0
ENDMDL
