MODEL 1
REMARK minimizedAffinity 3.03037429
REMARK minimizedRMSD -1
REMARK  0 active torsions:
REMARK  status: ('A' for Active; 'I' for Inactive)
ROOT
ATOM      1  C1  DEN d   1      -4.356   1.101  -2.288  0.00  0.00     0.130 A 
ATOM      2  C2  DEN d   1      -3.611   2.271  -1.831  0.00  0.00    -0.031 A 
ATOM      3  C3  DEN d   1      -3.691   3.303  -2.884  0.00  0.00     0.027 A 
ATOM      4  C4  DEN d   1      -4.894   3.207  -5.163  0.00  0.00     0.027 A 
ATOM      5  C5  DEN d   1      -5.652   2.418  -6.000  0.00  0.00    -0.003 A 
ATOM      6  C6  DEN d   1      -5.999   1.134  -5.676  0.00  0.00     0.001 A 
ATOM      7  C7  DEN d   1      -5.627   0.615  -4.464  0.00  0.00     0.017 A 
ATOM      8  C8  DEN d   1      -4.856   1.402  -3.618  0.00  0.00    -0.094 A 
ATOM      9  C9  DEN d   1      -4.526   2.702  -3.958  0.00  0.00    -0.072 A 
ENDROOT
TORSDOF 0
ENDMDL
