MODEL 1
REMARK minimizedAffinity 4.46654701
REMARK minimizedRMSD -1
REMARK  0 active torsions:
REMARK  status: ('A' for Active; 'I' for Inactive)
ROOT
ATOM      1  C1  DEN d   1       0.298   2.934   2.418  0.00  0.00     0.130 A 
ATOM      2  C2  DEN d   1       0.586   4.149   1.661  0.00  0.00    -0.031 A 
ATOM      3  C3  DEN d   1       0.514   3.819   0.224  0.00  0.00     0.027 A 
ATOM      4  C4  DEN d   1      -0.017   1.558  -0.897  0.00  0.00     0.027 A 
ATOM      5  C5  DEN d   1      -0.317   0.233  -0.667  0.00  0.00    -0.003 A 
ATOM      6  C6  DEN d   1      -0.399  -0.287   0.598  0.00  0.00     0.001 A 
ATOM      7  C7  DEN d   1      -0.223   0.532   1.682  0.00  0.00     0.017 A 
ATOM      8  C8  DEN d   1       0.087   1.867   1.457  0.00  0.00    -0.094 A 
ATOM      9  C9  DEN d   1       0.154   2.377   0.171  0.00  0.00    -0.072 A 
ENDROOT
TORSDOF 0
ENDMDL
