MODEL 1
REMARK minimizedAffinity 4.07774258
REMARK minimizedRMSD -1
REMARK  0 active torsions:
REMARK  status: ('A' for Active; 'I' for Inactive)
ROOT
ATOM      1  C1  DEN d   1      -3.203   1.798  -3.297  0.00  0.00     0.130 A 
ATOM      2  C2  DEN d   1      -2.512   3.030  -2.926  0.00  0.00    -0.031 A 
ATOM      3  C3  DEN d   1      -3.132   4.143  -3.673  0.00  0.00     0.027 A 
ATOM      4  C4  DEN d   1      -5.087   4.079  -5.355  0.00  0.00     0.027 A 
ATOM      5  C5  DEN d   1      -5.987   3.259  -5.999  0.00  0.00    -0.003 A 
ATOM      6  C6  DEN d   1      -5.999   1.902  -5.815  0.00  0.00     0.001 A 
ATOM      7  C7  DEN d   1      -5.124   1.328  -4.931  0.00  0.00     0.017 A 
ATOM      8  C8  DEN d   1      -4.209   2.148  -4.284  0.00  0.00    -0.094 A 
ATOM      9  C9  DEN d   1      -4.220   3.519  -4.474  0.00  0.00    -0.072 A 
ENDROOT
TORSDOF 0
ENDMDL
