MODEL 1
REMARK minimizedAffinity 6.56332159
REMARK minimizedRMSD -1
REMARK  0 active torsions:
REMARK  status: ('A' for Active; 'I' for Inactive)
ROOT
ATOM      1  C1  DEN d   1       1.294  -0.727   0.650  0.00  0.00     0.130 A 
ATOM      2  C2  DEN d   1       1.551  -0.828   2.084  0.00  0.00    -0.031 A 
ATOM      3  C3  DEN d   1       1.165   0.454   2.708  0.00  0.00     0.027 A 
ATOM      4  C4  DEN d   1       0.197   2.572   1.599  0.00  0.00     0.027 A 
ATOM      5  C5  DEN d   1      -0.186   3.137   0.403  0.00  0.00    -0.003 A 
ATOM      6  C6  DEN d   1      -0.072   2.472  -0.789  0.00  0.00     0.001 A 
ATOM      7  C7  DEN d   1       0.396   1.185  -0.806  0.00  0.00     0.017 A 
ATOM      8  C8  DEN d   1       0.791   0.611   0.395  0.00  0.00    -0.094 A 
ATOM      9  C9  DEN d   1       0.656   1.295   1.591  0.00  0.00    -0.072 A 
ENDROOT
TORSDOF 0
ENDMDL
