MODEL 1
REMARK minimizedAffinity -1.59889793
REMARK minimizedRMSD -1
REMARK  0 active torsions:
REMARK  status: ('A' for Active; 'I' for Inactive)
ROOT
ATOM      1  C1  DEN d   1      -2.482   3.859  -5.839  0.00  0.00     0.130 A 
ATOM      2  C2  DEN d   1      -3.007   5.219  -5.923  0.00  0.00    -0.031 A 
ATOM      3  C3  DEN d   1      -4.480   5.135  -5.997  0.00  0.00     0.027 A 
ATOM      4  C4  DEN d   1      -5.989   3.044  -5.985  0.00  0.00     0.027 A 
ATOM      5  C5  DEN d   1      -6.000   1.668  -5.940  0.00  0.00    -0.003 A 
ATOM      6  C6  DEN d   1      -4.847   0.930  -5.892  0.00  0.00     0.001 A 
ATOM      7  C7  DEN d   1      -3.635   1.567  -5.843  0.00  0.00     0.017 A 
ATOM      8  C8  DEN d   1      -3.616   2.954  -5.896  0.00  0.00    -0.094 A 
ATOM      9  C9  DEN d   1      -4.793   3.682  -5.932  0.00  0.00    -0.072 A 
ENDROOT
TORSDOF 0
ENDMDL
