MODEL 1
REMARK minimizedAffinity 12.2855053
REMARK minimizedRMSD -1
REMARK  0 active torsions:
REMARK  status: ('A' for Active; 'I' for Inactive)
ROOT
ATOM      1  C1  DEN d   1      -6.000   1.864  -5.999  0.00  0.00     0.130 A 
ATOM      2  C2  DEN d   1      -5.384   3.189  -5.986  0.00  0.00    -0.031 A 
ATOM      3  C3  DEN d   1      -4.633   3.330  -4.722  0.00  0.00     0.027 A 
ATOM      4  C4  DEN d   1      -4.362   1.635  -2.797  0.00  0.00     0.027 A 
ATOM      5  C5  DEN d   1      -4.709   0.380  -2.350  0.00  0.00    -0.003 A 
ATOM      6  C6  DEN d   1      -5.532  -0.449  -3.066  0.00  0.00     0.001 A 
ATOM      7  C7  DEN d   1      -5.999  -0.049  -4.290  0.00  0.00     0.017 A 
ATOM      8  C8  DEN d   1      -5.659   1.218  -4.745  0.00  0.00    -0.094 A 
ATOM      9  C9  DEN d   1      -4.816   2.036  -4.012  0.00  0.00    -0.072 A 
ENDROOT
TORSDOF 0
ENDMDL
