MODEL 1
REMARK minimizedAffinity 0.594484627
REMARK minimizedRMSD -1
REMARK  0 active torsions:
REMARK  status: ('A' for Active; 'I' for Inactive)
ROOT
ATOM      1  C1  DEN d   1      -2.891   4.871  -5.989  0.00  0.00     0.130 A 
ATOM      2  C2  DEN d   1      -1.663   4.517  -5.280  0.00  0.00    -0.031 A 
ATOM      3  C3  DEN d   1      -1.934   3.310  -4.474  0.00  0.00     0.027 A 
ATOM      4  C4  DEN d   1      -4.120   1.959  -4.257  0.00  0.00     0.027 A 
ATOM      5  C5  DEN d   1      -5.435   1.880  -4.659  0.00  0.00    -0.003 A 
ATOM      6  C6  DEN d   1      -5.999   2.804  -5.498  0.00  0.00     0.001 A 
ATOM      7  C7  DEN d   1      -5.232   3.823  -5.999  0.00  0.00     0.017 A 
ATOM      8  C8  DEN d   1      -3.908   3.914  -5.593  0.00  0.00    -0.094 A 
ATOM      9  C9  DEN d   1      -3.353   2.963  -4.754  0.00  0.00    -0.072 A 
ENDROOT
TORSDOF 0
ENDMDL
