MODEL 1
REMARK minimizedAffinity 10.6413012
REMARK minimizedRMSD -1
REMARK  0 active torsions:
REMARK  status: ('A' for Active; 'I' for Inactive)
ROOT
ATOM      1  C1  DEN d   1      -3.088   4.160  -5.999  0.00  0.00     0.130 A 
ATOM      2  C2  DEN d   1      -2.062   4.383  -4.984  0.00  0.00    -0.031 A 
ATOM      3  C3  DEN d   1      -2.415   3.583  -3.794  0.00  0.00     0.027 A 
ATOM      4  C4  DEN d   1      -4.438   2.025  -3.428  0.00  0.00     0.027 A 
ATOM      5  C5  DEN d   1      -5.587   1.525  -3.999  0.00  0.00    -0.003 A 
ATOM      6  C6  DEN d   1      -5.998   1.890  -5.254  0.00  0.00     0.001 A 
ATOM      7  C7  DEN d   1      -5.231   2.748  -5.996  0.00  0.00     0.017 A 
ATOM      8  C8  DEN d   1      -4.075   3.263  -5.424  0.00  0.00    -0.094 A 
ATOM      9  C9  DEN d   1      -3.670   2.871  -4.160  0.00  0.00    -0.072 A 
ENDROOT
TORSDOF 0
ENDMDL
