MODEL 1
REMARK minimizedAffinity 8.63976479
REMARK minimizedRMSD -1
REMARK  0 active torsions:
REMARK  status: ('A' for Active; 'I' for Inactive)
ROOT
ATOM      1  C1  DEN d   1      -3.396   4.156  -4.207  0.00  0.00     0.130 A 
ATOM      2  C2  DEN d   1      -3.770   5.219  -5.135  0.00  0.00    -0.031 A 
ATOM      3  C3  DEN d   1      -4.854   4.710  -5.999  0.00  0.00     0.027 A 
ATOM      4  C4  DEN d   1      -5.987   2.393  -5.987  0.00  0.00     0.027 A 
ATOM      5  C5  DEN d   1      -6.000   1.153  -5.387  0.00  0.00    -0.003 A 
ATOM      6  C6  DEN d   1      -5.131   0.819  -4.383  0.00  0.00     0.001 A 
ATOM      7  C7  DEN d   1      -4.241   1.750  -3.917  0.00  0.00     0.017 A 
ATOM      8  C8  DEN d   1      -4.216   3.000  -4.522  0.00  0.00    -0.094 A 
ATOM      9  C9  DEN d   1      -5.111   3.323  -5.528  0.00  0.00    -0.072 A 
ENDROOT
TORSDOF 0
ENDMDL
