MODEL 1
REMARK minimizedAffinity 7.53320837
REMARK minimizedRMSD -1
REMARK  0 active torsions:
REMARK  status: ('A' for Active; 'I' for Inactive)
ROOT
ATOM      1  C1  DEN d   1       0.946   4.577   1.516  0.00  0.00     0.130 A 
ATOM      2  C2  DEN d   1       1.293   4.551   2.935  0.00  0.00    -0.031 A 
ATOM      3  C3  DEN d   1       1.016   3.193   3.446  0.00  0.00     0.027 A 
ATOM      4  C4  DEN d   1       0.094   1.141   2.186  0.00  0.00     0.027 A 
ATOM      5  C5  DEN d   1      -0.359   0.681   0.969  0.00  0.00    -0.003 A 
ATOM      6  C6  DEN d   1      -0.440   1.490  -0.133  0.00  0.00     0.001 A 
ATOM      7  C7  DEN d   1      -0.020   2.791  -0.052  0.00  0.00     0.017 A 
ATOM      8  C8  DEN d   1       0.431   3.264   1.173  0.00  0.00    -0.094 A 
ATOM      9  C9  DEN d   1       0.517   2.427   2.273  0.00  0.00    -0.072 A 
ENDROOT
TORSDOF 0
ENDMDL
