MODEL 1
REMARK minimizedAffinity 5.15703487
REMARK minimizedRMSD -1
REMARK  0 active torsions:
REMARK  status: ('A' for Active; 'I' for Inactive)
ROOT
ATOM      1  C1  DEN d   1       0.685   4.226   1.685  0.00  0.00     0.130 A 
ATOM      2  C2  DEN d   1       1.298   3.906   2.972  0.00  0.00    -0.031 A 
ATOM      3  C3  DEN d   1       1.236   2.442   3.155  0.00  0.00     0.027 A 
ATOM      4  C4  DEN d   1       0.261   0.649   1.579  0.00  0.00     0.027 A 
ATOM      5  C5  DEN d   1      -0.377   0.438   0.377  0.00  0.00    -0.003 A 
ATOM      6  C6  DEN d   1      -0.734   1.469  -0.451  0.00  0.00     0.001 A 
ATOM      7  C7  DEN d   1      -0.414   2.756  -0.108  0.00  0.00     0.017 A 
ATOM      8  C8  DEN d   1       0.223   2.977   1.106  0.00  0.00    -0.094 A 
ATOM      9  C9  DEN d   1       0.586   1.921   1.923  0.00  0.00    -0.072 A 
ENDROOT
TORSDOF 0
ENDMDL
