MODEL 1
REMARK minimizedAffinity 1.19777155
REMARK minimizedRMSD -1
REMARK  0 active torsions:
REMARK  status: ('A' for Active; 'I' for Inactive)
ROOT
ATOM      1  C1  DEN d   1      -4.826   4.140  -6.000  0.00  0.00     0.130 A 
ATOM      2  C2  DEN d   1      -5.956   3.275  -5.674  0.00  0.00    -0.031 A 
ATOM      3  C3  DEN d   1      -5.500   2.281  -4.682  0.00  0.00     0.027 A 
ATOM      4  C4  DEN d   1      -3.165   2.002  -3.621  0.00  0.00     0.027 A 
ATOM      5  C5  DEN d   1      -1.879   2.493  -3.594  0.00  0.00    -0.003 A 
ATOM      6  C6  DEN d   1      -1.478   3.536  -4.385  0.00  0.00     0.001 A 
ATOM      7  C7  DEN d   1      -2.386   4.153  -5.205  0.00  0.00     0.017 A 
ATOM      8  C8  DEN d   1      -3.683   3.659  -5.244  0.00  0.00    -0.094 A 
ATOM      9  C9  DEN d   1      -4.072   2.611  -4.427  0.00  0.00    -0.072 A 
ENDROOT
TORSDOF 0
ENDMDL
