MODEL 1
REMARK minimizedAffinity 12.8956003
REMARK minimizedRMSD -1
REMARK  0 active torsions:
REMARK  status: ('A' for Active; 'I' for Inactive)
ROOT
ATOM      1  C1  DEN d   1      -4.312   0.933  -2.583  0.00  0.00     0.130 A 
ATOM      2  C2  DEN d   1      -3.361   1.875  -1.999  0.00  0.00    -0.031 A 
ATOM      3  C3  DEN d   1      -3.280   3.051  -2.888  0.00  0.00     0.027 A 
ATOM      4  C4  DEN d   1      -4.533   3.506  -5.096  0.00  0.00     0.027 A 
ATOM      5  C5  DEN d   1      -5.437   2.993  -6.000  0.00  0.00    -0.003 A 
ATOM      6  C6  DEN d   1      -6.000   1.754  -5.847  0.00  0.00     0.001 A 
ATOM      7  C7  DEN d   1      -5.697   1.003  -4.742  0.00  0.00     0.017 A 
ATOM      8  C8  DEN d   1      -4.781   1.510  -3.830  0.00  0.00    -0.094 A 
ATOM      9  C9  DEN d   1      -4.233   2.771  -3.996  0.00  0.00    -0.072 A 
ENDROOT
TORSDOF 0
ENDMDL
