MODEL 1
REMARK minimizedAffinity 12.1934032
REMARK minimizedRMSD -1
REMARK  0 active torsions:
REMARK  status: ('A' for Active; 'I' for Inactive)
ROOT
ATOM      1  C   UNL d   1       3.993   5.843   5.914  0.00  0.00     0.020 A 
ATOM      2  C1  UNL d   1       5.383   5.730   5.911  0.00  0.00     0.020 A 
ATOM      3  C2  UNL d   1       5.981   4.468   5.934  0.00  0.00     0.034 A 
ATOM      4  C3  UNL d   1       5.189   3.314   5.961  0.00  0.00     0.017 A 
ATOM      5  C4  UNL d   1       3.795   3.429   5.964  0.00  0.00     0.017 A 
ATOM      6  C5  UNL d   1       3.201   4.695   5.940  0.00  0.00     0.034 A 
ATOM      7 Cl   UNL d   1       2.752   2.051   5.996  0.00  0.00    -0.070 Cl
ATOM      8 Cl1  UNL d   1       5.996   1.787   5.988  0.00  0.00    -0.070 Cl
ENDROOT
TORSDOF 0
ENDMDL
