MODEL 1
REMARK minimizedAffinity 17.7161522
REMARK minimizedRMSD -1
REMARK  0 active torsions:
REMARK  status: ('A' for Active; 'I' for Inactive)
ROOT
ATOM      1  C   UNL d   1       2.791  -0.268  -0.934  0.00  0.00     0.020 A 
ATOM      2  C1  UNL d   1       2.799   1.106  -1.169  0.00  0.00     0.020 A 
ATOM      3  C2  UNL d   1       3.799   1.672  -1.963  0.00  0.00     0.034 A 
ATOM      4  C3  UNL d   1       4.794   0.864  -2.524  0.00  0.00     0.017 A 
ATOM      5  C4  UNL d   1       4.785  -0.515  -2.287  0.00  0.00     0.017 A 
ATOM      6  C5  UNL d   1       3.782  -1.077  -1.491  0.00  0.00     0.034 A 
ATOM      7 Cl   UNL d   1       5.980  -1.577  -2.945  0.00  0.00    -0.070 Cl
ATOM      8 Cl1  UNL d   1       5.999   1.632  -3.496  0.00  0.00    -0.070 Cl
ENDROOT
TORSDOF 0
ENDMDL
