MODEL 1
REMARK minimizedAffinity 17.8909359
REMARK minimizedRMSD -1
REMARK  0 active torsions:
REMARK  status: ('A' for Active; 'I' for Inactive)
ROOT
ATOM      1  C   UNL d   1       3.980   5.968   5.815  0.00  0.00     0.020 A 
ATOM      2  C1  UNL d   1       5.252   5.999   5.246  0.00  0.00     0.020 A 
ATOM      3  C2  UNL d   1       5.850   4.816   4.806  0.00  0.00     0.034 A 
ATOM      4  C3  UNL d   1       5.175   3.597   4.935  0.00  0.00     0.017 A 
ATOM      5  C4  UNL d   1       3.898   3.566   5.506  0.00  0.00     0.017 A 
ATOM      6  C5  UNL d   1       3.304   4.754   5.944  0.00  0.00     0.034 A 
ATOM      7 Cl   UNL d   1       3.003   2.100   5.698  0.00  0.00    -0.070 Cl
ATOM      8 Cl1  UNL d   1       5.974   2.173   4.369  0.00  0.00    -0.070 Cl
ENDROOT
TORSDOF 0
ENDMDL
