MODEL 1
REMARK minimizedAffinity 21.8705158
REMARK minimizedRMSD -1
REMARK  0 active torsions:
REMARK  status: ('A' for Active; 'I' for Inactive)
ROOT
ATOM      1  C   UNL d   1       5.432   5.460   5.876  0.00  0.00     0.020 A 
ATOM      2  C1  UNL d   1       5.986   5.848   4.657  0.00  0.00     0.020 A 
ATOM      3  C2  UNL d   1       5.933   4.986   3.560  0.00  0.00     0.034 A 
ATOM      4  C3  UNL d   1       5.324   3.731   3.680  0.00  0.00     0.017 A 
ATOM      5  C4  UNL d   1       4.768   3.343   4.904  0.00  0.00     0.017 A 
ATOM      6  C5  UNL d   1       4.824   4.210   5.999  0.00  0.00     0.034 A 
ATOM      7 Cl   UNL d   1       4.000   1.810   5.128  0.00  0.00    -0.070 Cl
ATOM      8 Cl1  UNL d   1       5.294   2.716   2.282  0.00  0.00    -0.070 Cl
ENDROOT
TORSDOF 0
ENDMDL
