MODEL 1
REMARK minimizedAffinity 8.51952648
REMARK minimizedRMSD -1
REMARK  0 active torsions:
REMARK  status: ('A' for Active; 'I' for Inactive)
ROOT
ATOM      1  C   UNL d   1      -0.000  -4.250   2.021  0.00  0.00     0.020 A 
ATOM      2  C1  UNL d   1      -0.081  -5.604   2.343  0.00  0.00     0.020 A 
ATOM      3  C2  UNL d   1      -0.602  -5.999   3.576  0.00  0.00     0.034 A 
ATOM      4  C3  UNL d   1      -1.045  -5.038   4.493  0.00  0.00     0.017 A 
ATOM      5  C4  UNL d   1      -0.964  -3.679   4.169  0.00  0.00     0.017 A 
ATOM      6  C5  UNL d   1      -0.441  -3.289   2.932  0.00  0.00     0.034 A 
ATOM      7 Cl   UNL d   1      -1.490  -2.436   5.249  0.00  0.00    -0.070 Cl
ATOM      8 Cl1  UNL d   1      -1.679  -5.598   6.000  0.00  0.00    -0.070 Cl
ENDROOT
TORSDOF 0
ENDMDL
