MODEL 1
REMARK minimizedAffinity 9.53414345
REMARK minimizedRMSD -1
REMARK  0 active torsions:
REMARK  status: ('A' for Active; 'I' for Inactive)
ROOT
ATOM      1  C   UNL d   1      -0.634  -3.395   1.278  0.00  0.00     0.020 A 
ATOM      2  C1  UNL d   1      -1.157  -2.487   2.198  0.00  0.00     0.020 A 
ATOM      3  C2  UNL d   1      -2.036  -1.490   1.772  0.00  0.00     0.034 A 
ATOM      4  C3  UNL d   1      -2.395  -1.397   0.422  0.00  0.00     0.017 A 
ATOM      5  C4  UNL d   1      -1.869  -2.309  -0.501  0.00  0.00     0.017 A 
ATOM      6  C5  UNL d   1      -0.989  -3.306  -0.068  0.00  0.00     0.034 A 
ATOM      7 Cl   UNL d   1      -2.265  -2.258  -2.182  0.00  0.00    -0.070 Cl
ATOM      8 Cl1  UNL d   1      -3.487  -0.139  -0.035  0.00  0.00    -0.070 Cl
ENDROOT
TORSDOF 0
ENDMDL
