MODEL 1
REMARK minimizedAffinity 16.3809471
REMARK minimizedRMSD -1
REMARK  0 active torsions:
REMARK  status: ('A' for Active; 'I' for Inactive)
ROOT
ATOM      1  C   UNL d   1       2.982   5.809   4.121  0.00  0.00     0.020 A 
ATOM      2  C1  UNL d   1       3.386   5.955   5.447  0.00  0.00     0.020 A 
ATOM      3  C2  UNL d   1       4.317   5.070   5.995  0.00  0.00     0.034 A 
ATOM      4  C3  UNL d   1       4.847   4.035   5.216  0.00  0.00     0.017 A 
ATOM      5  C4  UNL d   1       4.441   3.889   3.885  0.00  0.00     0.017 A 
ATOM      6  C5  UNL d   1       3.509   4.779   3.341  0.00  0.00     0.034 A 
ATOM      7 Cl   UNL d   1       5.051   2.637   2.861  0.00  0.00    -0.070 Cl
ATOM      8 Cl1  UNL d   1       5.995   2.978   5.958  0.00  0.00    -0.070 Cl
ENDROOT
TORSDOF 0
ENDMDL
