MODEL 1
REMARK minimizedAffinity 12.3155203
REMARK minimizedRMSD -1
REMARK  0 active torsions:
REMARK  status: ('A' for Active; 'I' for Inactive)
ROOT
ATOM      1  C   UNL d   1       2.477   0.654  -2.470  0.00  0.00     0.020 A 
ATOM      2  C1  UNL d   1       2.458  -0.740  -2.477  0.00  0.00     0.020 A 
ATOM      3  C2  UNL d   1       3.542  -1.450  -2.996  0.00  0.00     0.034 A 
ATOM      4  C3  UNL d   1       4.650  -0.767  -3.511  0.00  0.00     0.017 A 
ATOM      5  C4  UNL d   1       4.668   0.632  -3.504  0.00  0.00     0.017 A 
ATOM      6  C5  UNL d   1       3.580   1.339  -2.983  0.00  0.00     0.034 A 
ATOM      7 Cl   UNL d   1       6.000   1.545  -4.121  0.00  0.00    -0.070 Cl
ATOM      8 Cl1  UNL d   1       5.956  -1.710  -4.137  0.00  0.00    -0.070 Cl
ENDROOT
TORSDOF 0
ENDMDL
