MODEL 1
REMARK minimizedAffinity 11.9181213
REMARK minimizedRMSD -1
REMARK  0 active torsions:
REMARK  status: ('A' for Active; 'I' for Inactive)
ROOT
ATOM      1  C   UNL d   1       5.503   5.852   5.132  0.00  0.00     0.020 A 
ATOM      2  C1  UNL d   1       4.310   5.815   5.853  0.00  0.00     0.020 A 
ATOM      3  C2  UNL d   1       3.610   4.613   5.982  0.00  0.00     0.034 A 
ATOM      4  C3  UNL d   1       4.102   3.444   5.390  0.00  0.00     0.017 A 
ATOM      5  C4  UNL d   1       5.300   3.483   4.667  0.00  0.00     0.017 A 
ATOM      6  C5  UNL d   1       5.997   4.689   4.541  0.00  0.00     0.034 A 
ATOM      7 Cl   UNL d   1       5.971   2.082   3.909  0.00  0.00    -0.070 Cl
ATOM      8 Cl1  UNL d   1       3.185   1.994   5.592  0.00  0.00    -0.070 Cl
ENDROOT
TORSDOF 0
ENDMDL
