MODEL 1
REMARK minimizedAffinity 20.0596313
REMARK minimizedRMSD -1
REMARK  0 active torsions:
REMARK  status: ('A' for Active; 'I' for Inactive)
ROOT
ATOM      1  C   UNL d   1       3.874   5.624   5.976  0.00  0.00     0.020 A 
ATOM      2  C1  UNL d   1       5.031   5.882   5.242  0.00  0.00     0.020 A 
ATOM      3  C2  UNL d   1       5.644   4.854   4.522  0.00  0.00     0.034 A 
ATOM      4  C3  UNL d   1       5.100   3.565   4.533  0.00  0.00     0.017 A 
ATOM      5  C4  UNL d   1       3.938   3.308   5.271  0.00  0.00     0.017 A 
ATOM      6  C5  UNL d   1       3.329   4.340   5.990  0.00  0.00     0.034 A 
ATOM      7 Cl   UNL d   1       3.208   1.742   5.334  0.00  0.00    -0.070 Cl
ATOM      8 Cl1  UNL d   1       5.910   2.343   3.619  0.00  0.00    -0.070 Cl
ENDROOT
TORSDOF 0
ENDMDL
