MODEL 1
REMARK minimizedAffinity 12.0346136
REMARK minimizedRMSD -1
REMARK  0 active torsions:
REMARK  status: ('A' for Active; 'I' for Inactive)
ROOT
ATOM      1  C   UNL d   1      -0.623   2.954  -5.835  0.00  0.00     0.020 A 
ATOM      2  C1  UNL d   1      -2.000   2.768  -5.715  0.00  0.00     0.020 A 
ATOM      3  C2  UNL d   1      -2.501   1.815  -4.826  0.00  0.00     0.034 A 
ATOM      4  C3  UNL d   1      -1.625   1.044  -4.054  0.00  0.00     0.017 A 
ATOM      5  C4  UNL d   1      -0.243   1.231  -4.175  0.00  0.00     0.017 A 
ATOM      6  C5  UNL d   1       0.253   2.187  -5.066  0.00  0.00     0.034 A 
ATOM      7 Cl   UNL d   1       0.900   0.318  -3.255  0.00  0.00    -0.070 Cl
ATOM      8 Cl1  UNL d   1      -2.314  -0.116  -2.974  0.00  0.00    -0.070 Cl
ENDROOT
TORSDOF 0
ENDMDL
