MODEL 1
REMARK minimizedAffinity 11.7454414
REMARK minimizedRMSD -1
REMARK  0 active torsions:
REMARK  status: ('A' for Active; 'I' for Inactive)
ROOT
ATOM      1  C   UNL d   1       4.106   4.928   5.946  0.00  0.00     0.020 A 
ATOM      2  C1  UNL d   1       5.042   5.407   5.030  0.00  0.00     0.020 A 
ATOM      3  C2  UNL d   1       5.612   4.539   4.096  0.00  0.00     0.034 A 
ATOM      4  C3  UNL d   1       5.247   3.188   4.075  0.00  0.00     0.017 A 
ATOM      5  C4  UNL d   1       4.308   2.708   4.995  0.00  0.00     0.017 A 
ATOM      6  C5  UNL d   1       3.740   3.581   5.928  0.00  0.00     0.034 A 
ATOM      7 Cl   UNL d   1       3.807   1.054   5.031  0.00  0.00    -0.070 Cl
ATOM      8 Cl1  UNL d   1       5.992   2.173   2.893  0.00  0.00    -0.070 Cl
ENDROOT
TORSDOF 0
ENDMDL
