MODEL 1
REMARK minimizedAffinity 16.087038
REMARK minimizedRMSD -1
REMARK  0 active torsions:
REMARK  status: ('A' for Active; 'I' for Inactive)
ROOT
ATOM      1  C   UNL d   1      -2.577  -3.012   5.987  0.00  0.00     0.020 A 
ATOM      2  C1  UNL d   1      -2.460  -4.401   6.000  0.00  0.00     0.020 A 
ATOM      3  C2  UNL d   1      -1.830  -5.059   4.941  0.00  0.00     0.034 A 
ATOM      4  C3  UNL d   1      -1.316  -4.327   3.864  0.00  0.00     0.017 A 
ATOM      5  C4  UNL d   1      -1.435  -2.933   3.852  0.00  0.00     0.017 A 
ATOM      6  C5  UNL d   1      -2.066  -2.279   4.915  0.00  0.00     0.034 A 
ATOM      7 Cl   UNL d   1      -0.825  -1.962   2.558  0.00  0.00    -0.070 Cl
ATOM      8 Cl1  UNL d   1      -0.550  -5.205   2.588  0.00  0.00    -0.070 Cl
ENDROOT
TORSDOF 0
ENDMDL
