MODEL 1
REMARK minimizedAffinity 8.67576885
REMARK minimizedRMSD -1
REMARK  0 active torsions:
REMARK  status: ('A' for Active; 'I' for Inactive)
ROOT
ATOM      1  C   UNL d   1       4.903   5.952   5.993  0.00  0.00     0.020 A 
ATOM      2  C1  UNL d   1       3.510   5.893   5.993  0.00  0.00     0.020 A 
ATOM      3  C2  UNL d   1       2.863   4.655   5.992  0.00  0.00     0.034 A 
ATOM      4  C3  UNL d   1       3.610   3.471   5.991  0.00  0.00     0.017 A 
ATOM      5  C4  UNL d   1       5.008   3.531   5.991  0.00  0.00     0.017 A 
ATOM      6  C5  UNL d   1       5.650   4.773   5.992  0.00  0.00     0.034 A 
ATOM      7 Cl   UNL d   1       5.996   2.113   5.989  0.00  0.00    -0.070 Cl
ATOM      8 Cl1  UNL d   1       2.744   1.976   5.990  0.00  0.00    -0.070 Cl
ENDROOT
TORSDOF 0
ENDMDL
