MODEL 1
REMARK minimizedAffinity 6.74585342
REMARK minimizedRMSD -1
REMARK  0 active torsions:
REMARK  status: ('A' for Active; 'I' for Inactive)
ROOT
ATOM      1  C   UNL d   1       5.995   4.473   5.938  0.00  0.00     0.020 A 
ATOM      2  C1  UNL d   1       5.500   5.776   5.937  0.00  0.00     0.020 A 
ATOM      3  C2  UNL d   1       4.121   6.000   5.955  0.00  0.00     0.034 A 
ATOM      4  C3  UNL d   1       3.233   4.918   5.974  0.00  0.00     0.017 A 
ATOM      5  C4  UNL d   1       3.731   3.610   5.974  0.00  0.00     0.017 A 
ATOM      6  C5  UNL d   1       5.112   3.392   5.956  0.00  0.00     0.034 A 
ATOM      7 Cl   UNL d   1       2.698   2.225   5.996  0.00  0.00    -0.070 Cl
ATOM      8 Cl1  UNL d   1       1.541   5.268   5.996  0.00  0.00    -0.070 Cl
ENDROOT
TORSDOF 0
ENDMDL
