MODEL 1
REMARK minimizedAffinity 21.066328
REMARK minimizedRMSD -1
REMARK  0 active torsions:
REMARK  status: ('A' for Active; 'I' for Inactive)
ROOT
ATOM      1  C   UNL d   1      -0.626  -2.187   2.622  0.00  0.00     0.020 A 
ATOM      2  C1  UNL d   1      -0.705  -1.591   1.364  0.00  0.00     0.020 A 
ATOM      3  C2  UNL d   1      -1.024  -0.236   1.253  0.00  0.00     0.034 A 
ATOM      4  C3  UNL d   1      -1.266   0.527   2.402  0.00  0.00     0.017 A 
ATOM      5  C4  UNL d   1      -1.187  -0.073   3.664  0.00  0.00     0.017 A 
ATOM      6  C5  UNL d   1      -0.867  -1.430   3.769  0.00  0.00     0.034 A 
ATOM      7 Cl   UNL d   1      -1.473   0.803   5.126  0.00  0.00    -0.070 Cl
ATOM      8 Cl1  UNL d   1      -1.656   2.197   2.190  0.00  0.00    -0.070 Cl
ENDROOT
TORSDOF 0
ENDMDL
