MODEL 1
REMARK minimizedAffinity 14.2704506
REMARK minimizedRMSD -1
REMARK  0 active torsions:
REMARK  status: ('A' for Active; 'I' for Inactive)
ROOT
ATOM      1  C   UNL d   1      -2.558   2.735  -4.438  0.00  0.00     0.020 A 
ATOM      2  C1  UNL d   1      -1.241   2.970  -4.832  0.00  0.00     0.020 A 
ATOM      3  C2  UNL d   1      -0.234   2.071  -4.474  0.00  0.00     0.034 A 
ATOM      4  C3  UNL d   1      -0.542   0.933  -3.721  0.00  0.00     0.017 A 
ATOM      5  C4  UNL d   1      -1.864   0.697  -3.326  0.00  0.00     0.017 A 
ATOM      6  C5  UNL d   1      -2.869   1.601  -3.687  0.00  0.00     0.034 A 
ATOM      7 Cl   UNL d   1      -2.321  -0.686  -2.396  0.00  0.00    -0.070 Cl
ATOM      8 Cl1  UNL d   1       0.753  -0.136  -3.315  0.00  0.00    -0.070 Cl
ENDROOT
TORSDOF 0
ENDMDL
