MODEL 1
REMARK minimizedAffinity 20.069622
REMARK minimizedRMSD -1
REMARK  0 active torsions:
REMARK  status: ('A' for Active; 'I' for Inactive)
ROOT
ATOM      1  C   UNL d   1       5.970   3.380   5.027  0.00  0.00     0.020 A 
ATOM      2  C1  UNL d   1       5.883   4.432   5.938  0.00  0.00     0.020 A 
ATOM      3  C2  UNL d   1       4.726   5.212   5.996  0.00  0.00     0.034 A 
ATOM      4  C3  UNL d   1       3.651   4.940   5.142  0.00  0.00     0.017 A 
ATOM      5  C4  UNL d   1       3.739   3.883   4.228  0.00  0.00     0.017 A 
ATOM      6  C5  UNL d   1       4.900   3.106   4.174  0.00  0.00     0.034 A 
ATOM      7 Cl   UNL d   1       2.454   3.487   3.143  0.00  0.00    -0.070 Cl
ATOM      8 Cl1  UNL d   1       2.250   5.944   5.268  0.00  0.00    -0.070 Cl
ENDROOT
TORSDOF 0
ENDMDL
