MODEL 1
REMARK minimizedAffinity 10.3982038
REMARK minimizedRMSD -1
REMARK  0 active torsions:
REMARK  status: ('A' for Active; 'I' for Inactive)
ROOT
ATOM      1  C   UNL d   1       4.980   2.059   5.759  0.00  0.00     0.020 A 
ATOM      2  C1  UNL d   1       3.589   2.090   5.849  0.00  0.00     0.020 A 
ATOM      3  C2  UNL d   1       2.921   3.314   5.914  0.00  0.00     0.034 A 
ATOM      4  C3  UNL d   1       3.643   4.513   5.888  0.00  0.00     0.017 A 
ATOM      5  C4  UNL d   1       5.039   4.481   5.798  0.00  0.00     0.017 A 
ATOM      6  C5  UNL d   1       5.704   3.252   5.733  0.00  0.00     0.034 A 
ATOM      7 Cl   UNL d   1       5.999   5.918   5.761  0.00  0.00    -0.070 Cl
ATOM      8 Cl1  UNL d   1       2.751   5.990   5.972  0.00  0.00    -0.070 Cl
ENDROOT
TORSDOF 0
ENDMDL
