MODEL 1
REMARK minimizedAffinity -1.68579483
REMARK minimizedRMSD -1
REMARK  0 active torsions:
REMARK  status: ('A' for Active; 'I' for Inactive)
ROOT
ATOM      1  C   UNL d   1      -4.880   4.755  -3.076  0.00  0.00     0.077 C 
ATOM      2  C1  UNL d   1      -4.271   3.397  -3.257  0.00  0.00    -0.074 A 
ATOM      3  C2  UNL d   1      -5.073   2.255  -3.356  0.00  0.00    -0.005 A 
ATOM      4  C3  UNL d   1      -4.492   1.000  -3.534  0.00  0.00     0.006 A 
ATOM      5  C4  UNL d   1      -3.105   0.873  -3.616  0.00  0.00    -0.005 A 
ATOM      6  C5  UNL d   1      -2.287   2.003  -3.520  0.00  0.00    -0.074 A 
ATOM      7  C6  UNL d   1      -0.794   1.885  -3.616  0.00  0.00     0.077 C 
ATOM      8  C7  UNL d   1      -2.878   3.262  -3.348  0.00  0.00    -0.001 A 
ENDROOT
TORSDOF 0
ENDMDL
