MODEL 1
REMARK minimizedAffinity 2.32145214
REMARK minimizedRMSD -1
REMARK  0 active torsions:
REMARK  status: ('A' for Active; 'I' for Inactive)
ROOT
ATOM      1  C   UNL d   1       2.575  -2.419  -3.097  0.00  0.00     0.077 C 
ATOM      2  C1  UNL d   1       3.680  -2.586  -4.097  0.00  0.00    -0.074 A 
ATOM      3  C2  UNL d   1       4.399  -1.481  -4.565  0.00  0.00    -0.005 A 
ATOM      4  C3  UNL d   1       5.431  -1.653  -5.488  0.00  0.00     0.006 A 
ATOM      5  C4  UNL d   1       5.753  -2.929  -5.952  0.00  0.00    -0.005 A 
ATOM      6  C5  UNL d   1       5.046  -4.045  -5.495  0.00  0.00    -0.074 A 
ATOM      7  C6  UNL d   1       5.386  -5.425  -5.976  0.00  0.00     0.077 C 
ATOM      8  C7  UNL d   1       4.015  -3.865  -4.562  0.00  0.00    -0.001 A 
ENDROOT
TORSDOF 0
ENDMDL
