MODEL 1
REMARK minimizedAffinity 8.94648457
REMARK minimizedRMSD -1
REMARK  0 active torsions:
REMARK  status: ('A' for Active; 'I' for Inactive)
ROOT
ATOM      1  C   UNL d   1       5.264  -1.913  -6.000  0.00  0.00     0.077 C 
ATOM      2  C1  UNL d   1       5.060  -3.341  -5.592  0.00  0.00    -0.074 A 
ATOM      3  C2  UNL d   1       5.991  -4.327  -5.934  0.00  0.00    -0.005 A 
ATOM      4  C3  UNL d   1       5.792  -5.650  -5.539  0.00  0.00     0.006 A 
ATOM      5  C4  UNL d   1       4.662  -6.000  -4.799  0.00  0.00    -0.005 A 
ATOM      6  C5  UNL d   1       3.721  -5.028  -4.446  0.00  0.00    -0.074 A 
ATOM      7  C6  UNL d   1       2.506  -5.385  -3.643  0.00  0.00     0.077 C 
ATOM      8  C7  UNL d   1       3.931  -3.699  -4.841  0.00  0.00    -0.001 A 
ENDROOT
TORSDOF 0
ENDMDL
