MODEL 1
REMARK minimizedAffinity 11.674365
REMARK minimizedRMSD -1
REMARK  0 active torsions:
REMARK  status: ('A' for Active; 'I' for Inactive)
ROOT
ATOM      1  C   UNL d   1      -3.980   3.747  -3.058  0.00  0.00     0.077 C 
ATOM      2  C1  UNL d   1      -3.636   2.296  -3.219  0.00  0.00    -0.074 A 
ATOM      3  C2  UNL d   1      -4.404   1.463  -4.039  0.00  0.00    -0.005 A 
ATOM      4  C3  UNL d   1      -4.067   0.117  -4.186  0.00  0.00     0.006 A 
ATOM      5  C4  UNL d   1      -2.961  -0.407  -3.516  0.00  0.00    -0.005 A 
ATOM      6  C5  UNL d   1      -2.181   0.411  -2.693  0.00  0.00    -0.074 A 
ATOM      7  C6  UNL d   1      -0.983  -0.134  -1.974  0.00  0.00     0.077 C 
ATOM      8  C7  UNL d   1      -2.522   1.764  -2.556  0.00  0.00    -0.001 A 
ENDROOT
TORSDOF 0
ENDMDL
