MODEL 1
REMARK minimizedAffinity 2.9221096
REMARK minimizedRMSD -1
REMARK  0 active torsions:
REMARK  status: ('A' for Active; 'I' for Inactive)
ROOT
ATOM      1  C   UNL d   1      -3.034  -3.792   1.086  0.00  0.00     0.077 C 
ATOM      2  C1  UNL d   1      -1.846  -4.209   0.271  0.00  0.00    -0.074 A 
ATOM      3  C2  UNL d   1      -1.429  -5.543   0.238  0.00  0.00    -0.005 A 
ATOM      4  C3  UNL d   1      -0.329  -5.918  -0.533  0.00  0.00     0.006 A 
ATOM      5  C4  UNL d   1       0.365  -4.963  -1.278  0.00  0.00    -0.005 A 
ATOM      6  C5  UNL d   1      -0.038  -3.624  -1.258  0.00  0.00    -0.074 A 
ATOM      7  C6  UNL d   1       0.690  -2.587  -2.061  0.00  0.00     0.077 C 
ATOM      8  C7  UNL d   1      -1.149  -3.257  -0.487  0.00  0.00    -0.001 A 
ENDROOT
TORSDOF 0
ENDMDL
