MODEL 1
REMARK minimizedAffinity 5.13439751
REMARK minimizedRMSD -1
REMARK  0 active torsions:
REMARK  status: ('A' for Active; 'I' for Inactive)
ROOT
ATOM      1  C   UNL d   1      -5.991  -4.344  -4.083  0.00  0.00     0.077 C 
ATOM      2  C1  UNL d   1      -5.704  -2.912  -4.427  0.00  0.00    -0.074 A 
ATOM      3  C2  UNL d   1      -6.000  -2.405  -5.697  0.00  0.00    -0.005 A 
ATOM      4  C3  UNL d   1      -5.736  -1.069  -5.999  0.00  0.00     0.006 A 
ATOM      5  C4  UNL d   1      -5.175  -0.229  -5.037  0.00  0.00    -0.005 A 
ATOM      6  C5  UNL d   1      -4.873  -0.718  -3.762  0.00  0.00    -0.074 A 
ATOM      7  C6  UNL d   1      -4.279   0.175  -2.713  0.00  0.00     0.077 C 
ATOM      8  C7  UNL d   1      -5.148  -2.060  -3.464  0.00  0.00    -0.001 A 
ENDROOT
TORSDOF 0
ENDMDL
