MODEL 1
REMARK minimizedAffinity 0.567438245
REMARK minimizedRMSD -1
REMARK  0 active torsions:
REMARK  status: ('A' for Active; 'I' for Inactive)
ROOT
ATOM      1  C   UNL d   1       6.000   0.764  -5.693  0.00  0.00     0.077 C 
ATOM      2  C1  UNL d   1       5.337  -0.454  -5.123  0.00  0.00    -0.074 A 
ATOM      3  C2  UNL d   1       4.112  -0.360  -4.455  0.00  0.00    -0.005 A 
ATOM      4  C3  UNL d   1       3.502  -1.503  -3.938  0.00  0.00     0.006 A 
ATOM      5  C4  UNL d   1       4.111  -2.750  -4.083  0.00  0.00    -0.005 A 
ATOM      6  C5  UNL d   1       5.337  -2.864  -4.748  0.00  0.00    -0.074 A 
ATOM      7  C6  UNL d   1       6.000  -4.198  -4.920  0.00  0.00     0.077 C 
ATOM      8  C7  UNL d   1       5.939  -1.712  -5.271  0.00  0.00    -0.001 A 
ENDROOT
TORSDOF 0
ENDMDL
