MODEL 1
REMARK minimizedAffinity 14.2992458
REMARK minimizedRMSD -1
REMARK  0 active torsions:
REMARK  status: ('A' for Active; 'I' for Inactive)
ROOT
ATOM      1  C   UNL d   1       4.799   5.829  -5.351  0.00  0.00    -0.002 A 
ATOM      2  C1  UNL d   1       5.994   5.879  -4.648  0.00  0.00     0.010 A 
ATOM      3  C2  UNL d   1       5.997   5.916  -3.253  0.00  0.00     0.041 A 
ATOM      4  C3  UNL d   1       4.766   5.899  -2.568  0.00  0.00    -0.075 A 
ATOM      5  S   UNL d   1       4.526   5.937  -0.861  0.00  0.00     0.015 SA
ATOM      6  C4  UNL d   1       2.830   5.885  -1.024  0.00  0.00     0.022 A 
ATOM      7  C5  UNL d   1       2.440   5.841  -2.341  0.00  0.00     0.026 A 
ATOM      8  C6  UNL d   1       3.549   5.847  -3.253  0.00  0.00    -0.082 A 
ATOM      9  C7  UNL d   1       3.580   5.812  -4.668  0.00  0.00     0.045 A 
ENDROOT
TORSDOF 0
ENDMDL
