MODEL 1
REMARK minimizedAffinity 14.2528934
REMARK minimizedRMSD -1
REMARK  0 active torsions:
REMARK  status: ('A' for Active; 'I' for Inactive)
ROOT
ATOM      1  C   UNL d   1       2.242  -2.018   3.769  0.00  0.00    -0.002 A 
ATOM      2  C1  UNL d   1       1.991  -3.380   3.687  0.00  0.00     0.010 A 
ATOM      3  C2  UNL d   1       1.239  -3.902   2.633  0.00  0.00     0.041 A 
ATOM      4  C3  UNL d   1       0.740  -3.022   1.652  0.00  0.00    -0.075 A 
ATOM      5  S   UNL d   1      -0.205  -3.435   0.270  0.00  0.00     0.015 SA
ATOM      6  C4  UNL d   1      -0.297  -1.813  -0.244  0.00  0.00     0.022 A 
ATOM      7  C5  UNL d   1       0.371  -0.964   0.606  0.00  0.00     0.026 A 
ATOM      8  C6  UNL d   1       0.980  -1.647   1.712  0.00  0.00    -0.082 A 
ATOM      9  C7  UNL d   1       1.746  -1.149   2.794  0.00  0.00     0.045 A 
ENDROOT
TORSDOF 0
ENDMDL
