MODEL 1
REMARK minimizedAffinity 15.2084951
REMARK minimizedRMSD -1
REMARK  0 active torsions:
REMARK  status: ('A' for Active; 'I' for Inactive)
ROOT
ATOM      1  C   UNL d   1       5.155  -3.781   4.258  0.00  0.00    -0.002 A 
ATOM      2  C1  UNL d   1       5.998  -3.052   3.433  0.00  0.00     0.010 A 
ATOM      3  C2  UNL d   1       5.485  -2.079   2.572  0.00  0.00     0.041 A 
ATOM      4  C3  UNL d   1       4.095  -1.849   2.557  0.00  0.00    -0.075 A 
ATOM      5  S   UNL d   1       3.241  -0.708   1.587  0.00  0.00     0.015 SA
ATOM      6  C4  UNL d   1       1.736  -1.161   2.246  0.00  0.00     0.022 A 
ATOM      7  C5  UNL d   1       1.863  -2.157   3.185  0.00  0.00     0.026 A 
ATOM      8  C6  UNL d   1       3.225  -2.570   3.380  0.00  0.00    -0.082 A 
ATOM      9  C7  UNL d   1       3.777  -3.549   4.240  0.00  0.00     0.045 A 
ENDROOT
TORSDOF 0
ENDMDL
