MODEL 1
REMARK minimizedAffinity 5.46273422
REMARK minimizedRMSD -1
REMARK  0 active torsions:
REMARK  status: ('A' for Active; 'I' for Inactive)
ROOT
ATOM      1  C   UNL d   1       5.291  -3.148   4.744  0.00  0.00    -0.002 A 
ATOM      2  C1  UNL d   1       6.000  -2.629   3.670  0.00  0.00     0.010 A 
ATOM      3  C2  UNL d   1       5.335  -1.978   2.629  0.00  0.00     0.041 A 
ATOM      4  C3  UNL d   1       3.933  -1.856   2.686  0.00  0.00    -0.075 A 
ATOM      5  S   UNL d   1       2.907  -1.099   1.525  0.00  0.00     0.015 SA
ATOM      6  C4  UNL d   1       1.504  -1.447   2.428  0.00  0.00     0.022 A 
ATOM      7  C5  UNL d   1       1.793  -2.123   3.589  0.00  0.00     0.026 A 
ATOM      8  C6  UNL d   1       3.197  -2.370   3.757  0.00  0.00    -0.082 A 
ATOM      9  C7  UNL d   1       3.900  -3.025   4.798  0.00  0.00     0.045 A 
ENDROOT
TORSDOF 0
ENDMDL
