MODEL 1
REMARK minimizedAffinity 4.14728069
REMARK minimizedRMSD -1
REMARK  0 active torsions:
REMARK  status: ('A' for Active; 'I' for Inactive)
ROOT
ATOM      1  C   UNL d   1       2.721   1.695   1.495  0.00  0.00    -0.002 A 
ATOM      2  C1  UNL d   1       3.055   1.024   2.663  0.00  0.00     0.010 A 
ATOM      3  C2  UNL d   1       2.489  -0.218   2.955  0.00  0.00     0.041 A 
ATOM      4  C3  UNL d   1       1.574  -0.781   2.043  0.00  0.00    -0.075 A 
ATOM      5  S   UNL d   1       0.756  -2.292   2.191  0.00  0.00     0.015 SA
ATOM      6  C4  UNL d   1      -0.055  -2.082   0.707  0.00  0.00     0.022 A 
ATOM      7  C5  UNL d   1       0.278  -0.895   0.100  0.00  0.00     0.026 A 
ATOM      8  C6  UNL d   1       1.223  -0.125   0.860  0.00  0.00    -0.082 A 
ATOM      9  C7  UNL d   1       1.813   1.133   0.593  0.00  0.00     0.045 A 
ENDROOT
TORSDOF 0
ENDMDL
