MODEL 1
REMARK minimizedAffinity 2.89911032
REMARK minimizedRMSD -1
REMARK  0 active torsions:
REMARK  status: ('A' for Active; 'I' for Inactive)
ROOT
ATOM      1  C   UNL d   1       3.708  -1.256  -5.257  0.00  0.00    -0.002 A 
ATOM      2  C1  UNL d   1       4.214  -1.335  -3.967  0.00  0.00     0.010 A 
ATOM      3  C2  UNL d   1       4.502  -2.574  -3.392  0.00  0.00     0.041 A 
ATOM      4  C3  UNL d   1       4.273  -3.744  -4.143  0.00  0.00    -0.075 A 
ATOM      5  S   UNL d   1       4.553  -5.370  -3.645  0.00  0.00     0.015 SA
ATOM      6  C4  UNL d   1       4.009  -5.999  -5.132  0.00  0.00     0.022 A 
ATOM      7  C5  UNL d   1       3.619  -5.006  -6.000  0.00  0.00     0.026 A 
ATOM      8  C6  UNL d   1       3.765  -3.690  -5.444  0.00  0.00    -0.082 A 
ATOM      9  C7  UNL d   1       3.482  -2.419  -5.999  0.00  0.00     0.045 A 
ENDROOT
TORSDOF 0
ENDMDL
