MODEL 1
REMARK minimizedAffinity 4.53200054
REMARK minimizedRMSD -1
REMARK  0 active torsions:
REMARK  status: ('A' for Active; 'I' for Inactive)
ROOT
ATOM      1  C   UNL d   1       0.406   2.469   0.220  0.00  0.00    -0.002 A 
ATOM      2  C1  UNL d   1       1.560   1.893   0.731  0.00  0.00     0.010 A 
ATOM      3  C2  UNL d   1       1.614   0.522   0.994  0.00  0.00     0.041 A 
ATOM      4  C3  UNL d   1       0.477  -0.267   0.731  0.00  0.00    -0.075 A 
ATOM      5  S   UNL d   1       0.313  -1.966   0.974  0.00  0.00     0.015 SA
ATOM      6  C4  UNL d   1      -1.294  -1.967   0.405  0.00  0.00     0.022 A 
ATOM      7  C5  UNL d   1      -1.711  -0.711   0.034  0.00  0.00     0.026 A 
ATOM      8  C6  UNL d   1      -0.697   0.290   0.215  0.00  0.00    -0.082 A 
ATOM      9  C7  UNL d   1      -0.720   1.682  -0.040  0.00  0.00     0.045 A 
ENDROOT
TORSDOF 0
ENDMDL
