MODEL 1
REMARK minimizedAffinity 0.84617877
REMARK minimizedRMSD -1
REMARK  0 active torsions:
REMARK  status: ('A' for Active; 'I' for Inactive)
ROOT
ATOM      1  C   UNL d   1      -0.971  -2.381   0.731  0.00  0.00    -0.002 A 
ATOM      2  C1  UNL d   1      -1.679  -1.365   0.105  0.00  0.00     0.010 A 
ATOM      3  C2  UNL d   1      -1.185  -0.059   0.091  0.00  0.00     0.041 A 
ATOM      4  C3  UNL d   1       0.045   0.211   0.723  0.00  0.00    -0.075 A 
ATOM      5  S   UNL d   1       0.844   1.735   0.832  0.00  0.00     0.015 SA
ATOM      6  C4  UNL d   1       2.145   1.073   1.712  0.00  0.00     0.022 A 
ATOM      7  C5  UNL d   1       1.989  -0.276   1.927  0.00  0.00     0.026 A 
ATOM      8  C6  UNL d   1       0.776  -0.795   1.359  0.00  0.00    -0.082 A 
ATOM      9  C7  UNL d   1       0.249  -2.109   1.356  0.00  0.00     0.045 A 
ENDROOT
TORSDOF 0
ENDMDL
