MODEL 1
REMARK minimizedAffinity -4.56437492
REMARK minimizedRMSD -1
REMARK  1 active torsions:
REMARK  status: ('A' for Active; 'I' for Inactive)
REMARK    1  A    between atoms: C1_2  and  C2_3 
ROOT
ATOM      1  C2  UNL d   1       0.286   0.151  -1.053  0.00  0.00    -0.081 A 
ATOM      2  C3  UNL d   1       1.256   0.227  -0.046  0.00  0.00     0.006 A 
ATOM      3  C4  UNL d   1       0.894   0.096   1.297  0.00  0.00     0.002 A 
ATOM      4  C5  UNL d   1      -0.441  -0.121   1.654  0.00  0.00    -0.080 A 
ATOM      5  C6  UNL d   1      -0.838  -0.294   3.090  0.00  0.00     0.076 C 
ATOM      6  C7  UNL d   1      -1.413  -0.179   0.649  0.00  0.00     0.002 A 
ATOM      7  C8  UNL d   1      -1.052  -0.048  -0.693  0.00  0.00     0.006 A 
ENDROOT
BRANCH   1   8
ATOM      8  C1  UNL d   1       0.681   0.228  -2.506  0.00  0.00     0.054 C 
ATOM      9  C   UNL d   1       0.541  -1.125  -3.190  0.00  0.00     0.018 C 
ENDBRANCH   1   8
TORSDOF 1
ENDMDL
