MODEL 1
REMARK minimizedAffinity -2.68258929
REMARK minimizedRMSD -1
REMARK  1 active torsions:
REMARK  status: ('A' for Active; 'I' for Inactive)
REMARK    1  A    between atoms: C1_2  and  C2_3 
ROOT
ATOM      1  C2  UNL d   1      -0.096  -0.185  -1.386  0.00  0.00    -0.081 A 
ATOM      2  C3  UNL d   1       0.723  -0.677  -2.410  0.00  0.00     0.006 A 
ATOM      3  C4  UNL d   1       1.012   0.110  -3.526  0.00  0.00     0.002 A 
ATOM      4  C5  UNL d   1       0.494   1.405  -3.635  0.00  0.00    -0.080 A 
ATOM      5  C6  UNL d   1       0.821   2.272  -4.814  0.00  0.00     0.076 C 
ATOM      6  C7  UNL d   1      -0.339   1.891  -2.621  0.00  0.00     0.002 A 
ATOM      7  C8  UNL d   1      -0.629   1.103  -1.505  0.00  0.00     0.006 A 
ENDROOT
BRANCH   1   8
ATOM      8  C1  UNL d   1      -0.357  -1.008  -0.151  0.00  0.00     0.054 C 
ATOM      9  C   UNL d   1       0.262  -0.366   1.082  0.00  0.00     0.018 C 
ENDBRANCH   1   8
TORSDOF 1
ENDMDL
