MODEL 1
REMARK minimizedAffinity -1.7555716
REMARK minimizedRMSD -1
REMARK  1 active torsions:
REMARK  status: ('A' for Active; 'I' for Inactive)
REMARK    1  A    between atoms: C1_2  and  C2_3 
ROOT
ATOM      1  C2  UNL d   1      -0.270  -0.664  -0.387  0.00  0.00    -0.081 A 
ATOM      2  C3  UNL d   1       0.744  -0.251   0.487  0.00  0.00     0.006 A 
ATOM      3  C4  UNL d   1       0.550  -0.298   1.869  0.00  0.00     0.002 A 
ATOM      4  C5  UNL d   1      -0.657  -0.766   2.401  0.00  0.00    -0.080 A 
ATOM      5  C6  UNL d   1      -0.866  -0.850   3.884  0.00  0.00     0.076 C 
ATOM      6  C7  UNL d   1      -1.676  -1.162   1.529  0.00  0.00     0.002 A 
ATOM      7  C8  UNL d   1      -1.483  -1.114   0.146  0.00  0.00     0.006 A 
ENDROOT
BRANCH   1   8
ATOM      8  C1  UNL d   1      -0.040  -0.675  -1.876  0.00  0.00     0.054 C 
ATOM      9  C   UNL d   1       0.389  -2.053  -2.360  0.00  0.00     0.018 C 
ENDBRANCH   1   8
TORSDOF 1
ENDMDL
