MODEL 1
REMARK minimizedAffinity -5.45936012
REMARK minimizedRMSD -1
REMARK  1 active torsions:
REMARK  status: ('A' for Active; 'I' for Inactive)
REMARK    1  A    between atoms: C1_2  and  C2_3 
ROOT
ATOM      1  C2  UNL d   1       0.249   0.447  -0.572  0.00  0.00    -0.081 A 
ATOM      2  C3  UNL d   1       1.130   0.235   0.496  0.00  0.00     0.006 A 
ATOM      3  C4  UNL d   1       0.642   0.056   1.792  0.00  0.00     0.002 A 
ATOM      4  C5  UNL d   1      -0.734   0.078   2.042  0.00  0.00    -0.080 A 
ATOM      5  C6  UNL d   1      -1.273  -0.143   3.424  0.00  0.00     0.076 C 
ATOM      6  C7  UNL d   1      -1.614   0.307   0.978  0.00  0.00     0.002 A 
ATOM      7  C8  UNL d   1      -1.126   0.487  -0.318  0.00  0.00     0.006 A 
ENDROOT
BRANCH   1   8
ATOM      8  C1  UNL d   1       0.769   0.576  -1.981  0.00  0.00     0.054 C 
ATOM      9  C   UNL d   1       0.848  -0.780  -2.667  0.00  0.00     0.018 C 
ENDBRANCH   1   8
TORSDOF 1
ENDMDL
