MODEL 1
REMARK minimizedAffinity -4.76973581
REMARK minimizedRMSD -1
REMARK  1 active torsions:
REMARK  status: ('A' for Active; 'I' for Inactive)
REMARK    1  A    between atoms: C1_2  and  C2_3 
ROOT
ATOM      1  C2  UNL d   1       4.015   1.166  -4.196  0.00  0.00    -0.081 A 
ATOM      2  C3  UNL d   1       4.404  -0.107  -4.631  0.00  0.00     0.006 A 
ATOM      3  C4  UNL d   1       3.589  -1.216  -4.395  0.00  0.00     0.002 A 
ATOM      4  C5  UNL d   1       2.369  -1.071  -3.726  0.00  0.00    -0.080 A 
ATOM      5  C6  UNL d   1       1.470  -2.249  -3.493  0.00  0.00     0.076 C 
ATOM      6  C7  UNL d   1       1.988   0.198  -3.276  0.00  0.00     0.002 A 
ATOM      7  C8  UNL d   1       2.803   1.307  -3.511  0.00  0.00     0.006 A 
ENDROOT
BRANCH   1   8
ATOM      8  C1  UNL d   1       4.861   2.374  -4.506  0.00  0.00     0.054 C 
ATOM      9  C   UNL d   1       4.341   3.114  -5.730  0.00  0.00     0.018 C 
ENDBRANCH   1   8
TORSDOF 1
ENDMDL
