MODEL 1
REMARK minimizedAffinity -4.37174129
REMARK minimizedRMSD -1
REMARK  1 active torsions:
REMARK  status: ('A' for Active; 'I' for Inactive)
REMARK    1  A    between atoms: C1_2  and  C2_3 
ROOT
ATOM      1  C2  UNL d   1       0.190   0.376   0.470  0.00  0.00    -0.081 A 
ATOM      2  C3  UNL d   1      -0.781  -0.633   0.505  0.00  0.00     0.006 A 
ATOM      3  C4  UNL d   1      -1.328  -1.048   1.721  0.00  0.00     0.002 A 
ATOM      4  C5  UNL d   1      -0.920  -0.457   2.921  0.00  0.00    -0.080 A 
ATOM      5  C6  UNL d   1      -1.521  -0.873   4.231  0.00  0.00     0.076 C 
ATOM      6  C7  UNL d   1       0.063   0.538   2.889  0.00  0.00     0.002 A 
ATOM      7  C8  UNL d   1       0.610   0.954   1.673  0.00  0.00     0.006 A 
ENDROOT
BRANCH   1   8
ATOM      8  C1  UNL d   1       0.734   0.871  -0.845  0.00  0.00     0.054 C 
ATOM      9  C   UNL d   1       0.884  -0.266  -1.845  0.00  0.00     0.018 C 
ENDBRANCH   1   8
TORSDOF 1
ENDMDL
