MODEL 1
REMARK minimizedAffinity -3.0248127
REMARK minimizedRMSD -1
REMARK  1 active torsions:
REMARK  status: ('A' for Active; 'I' for Inactive)
REMARK    1  A    between atoms: C1_2  and  C2_3 
ROOT
ATOM      1  C2  UNL d   1       0.269   0.372  -0.603  0.00  0.00    -0.081 A 
ATOM      2  C3  UNL d   1      -0.691  -0.569  -0.212  0.00  0.00     0.006 A 
ATOM      3  C4  UNL d   1      -0.834  -0.919   1.133  0.00  0.00     0.002 A 
ATOM      4  C5  UNL d   1      -0.025  -0.328   2.109  0.00  0.00    -0.080 A 
ATOM      5  C6  UNL d   1      -0.189  -0.672   3.560  0.00  0.00     0.076 C 
ATOM      6  C7  UNL d   1       0.945   0.600   1.717  0.00  0.00     0.002 A 
ATOM      7  C8  UNL d   1       1.089   0.950   0.373  0.00  0.00     0.006 A 
ENDROOT
BRANCH   1   8
ATOM      8  C1  UNL d   1       0.381   0.800  -2.044  0.00  0.00     0.054 C 
ATOM      9  C   UNL d   1       0.797  -0.363  -2.935  0.00  0.00     0.018 C 
ENDBRANCH   1   8
TORSDOF 1
ENDMDL
