MODEL 1
REMARK minimizedAffinity -3.24594927
REMARK minimizedRMSD -1
REMARK  1 active torsions:
REMARK  status: ('A' for Active; 'I' for Inactive)
REMARK    1  A    between atoms: C1_2  and  C2_3 
ROOT
ATOM      1  C2  UNL d   1       0.429   0.166  -0.880  0.00  0.00    -0.081 A 
ATOM      2  C3  UNL d   1       1.034   0.807   0.208  0.00  0.00     0.006 A 
ATOM      3  C4  UNL d   1       0.778   0.380   1.514  0.00  0.00     0.002 A 
ATOM      4  C5  UNL d   1      -0.081  -0.698   1.752  0.00  0.00    -0.080 A 
ATOM      5  C6  UNL d   1      -0.341  -1.185   3.147  0.00  0.00     0.076 C 
ATOM      6  C7  UNL d   1      -0.700  -1.327   0.666  0.00  0.00     0.002 A 
ATOM      7  C8  UNL d   1      -0.444  -0.900  -0.639  0.00  0.00     0.006 A 
ENDROOT
BRANCH   1   8
ATOM      8  C1  UNL d   1       0.754   0.582  -2.292  0.00  0.00     0.054 C 
ATOM      9  C   UNL d   1       0.710  -0.605  -3.242  0.00  0.00     0.018 C 
ENDBRANCH   1   8
TORSDOF 1
ENDMDL
