MODEL 1
REMARK minimizedAffinity -2.9547112
REMARK minimizedRMSD -1
REMARK  1 active torsions:
REMARK  status: ('A' for Active; 'I' for Inactive)
REMARK    1  A    between atoms: C1_2  and  C2_3 
ROOT
ATOM      1  C2  UNL d   1       0.287   0.006  -0.988  0.00  0.00    -0.081 A 
ATOM      2  C3  UNL d   1      -0.874   0.665  -0.568  0.00  0.00     0.006 A 
ATOM      3  C4  UNL d   1      -1.394   0.439   0.709  0.00  0.00     0.002 A 
ATOM      4  C5  UNL d   1      -0.758  -0.443   1.588  0.00  0.00    -0.080 A 
ATOM      5  C6  UNL d   1      -1.288  -0.672   2.972  0.00  0.00     0.076 C 
ATOM      6  C7  UNL d   1       0.393  -1.115   1.162  0.00  0.00     0.002 A 
ATOM      7  C8  UNL d   1       0.913  -0.890  -0.115  0.00  0.00     0.006 A 
ENDROOT
BRANCH   1   8
ATOM      8  C1  UNL d   1       0.887   0.297  -2.341  0.00  0.00     0.054 C 
ATOM      9  C   UNL d   1       1.293  -0.985  -3.053  0.00  0.00     0.018 C 
ENDBRANCH   1   8
TORSDOF 1
ENDMDL
