MODEL 1
REMARK minimizedAffinity 11.39112
REMARK minimizedRMSD -1
REMARK  0 active torsions:
REMARK  status: ('A' for Active; 'I' for Inactive)
ROOT
ATOM      1  C   UNL d   1       2.249  -1.524  -0.875  0.00  0.00     0.124 A 
ATOM      2  C1  UNL d   1       2.837  -0.313  -0.537  0.00  0.00     0.062 A 
ATOM      3  C2  UNL d   1       2.093   0.671   0.107  0.00  0.00     0.162 A 
ATOM      4  C3  UNL d   1       0.752   0.448   0.418  0.00  0.00    -0.034 A 
ATOM      5  C4  UNL d   1       0.167  -0.772   0.075  0.00  0.00     0.162 A 
ATOM      6  C5  UNL d   1       0.915  -1.753  -0.568  0.00  0.00     0.062 A 
ATOM      7  F   UNL d   1       0.345  -2.922  -0.894  0.00  0.00    -0.097 F 
ATOM      8  F1  UNL d   1      -1.120  -1.020   0.360  0.00  0.00    -0.096 F 
ATOM      9  I   UNL d   1      -0.365   1.917   1.380  0.00  0.00    -0.060 I 
ATOM     10  F2  UNL d   1       2.687   1.832   0.421  0.00  0.00    -0.096 F 
ATOM     11  F3  UNL d   1       4.126  -0.090  -0.833  0.00  0.00    -0.097 F 
ATOM     12  F4  UNL d   1       2.968  -2.469  -1.495  0.00  0.00    -0.092 F 
ENDROOT
TORSDOF 0
ENDMDL
