MODEL 1
REMARK minimizedAffinity 5.14651632
REMARK minimizedRMSD -1
REMARK  0 active torsions:
REMARK  status: ('A' for Active; 'I' for Inactive)
ROOT
ATOM      1  C   UNL d   1       1.299   2.896   2.599  0.00  0.00     0.124 A 
ATOM      2  C1  UNL d   1       0.758   2.106   1.594  0.00  0.00     0.062 A 
ATOM      3  C2  UNL d   1       1.563   1.643   0.557  0.00  0.00     0.162 A 
ATOM      4  C3  UNL d   1       2.919   1.968   0.521  0.00  0.00    -0.034 A 
ATOM      5  C4  UNL d   1       3.456   2.764   1.534  0.00  0.00     0.162 A 
ATOM      6  C5  UNL d   1       2.647   3.224   2.568  0.00  0.00     0.062 A 
ATOM      7  F   UNL d   1       3.172   3.987   3.538  0.00  0.00    -0.097 F 
ATOM      8  F1  UNL d   1       4.756   3.095   1.530  0.00  0.00    -0.096 F 
ATOM      9  I   UNL d   1       4.126   1.278  -1.028  0.00  0.00    -0.060 I 
ATOM     10  F2  UNL d   1       1.013   0.882  -0.400  0.00  0.00    -0.096 F 
ATOM     11  F3  UNL d   1      -0.544   1.789   1.621  0.00  0.00    -0.097 F 
ATOM     12  F4  UNL d   1       0.522   3.341   3.595  0.00  0.00    -0.092 F 
ENDROOT
TORSDOF 0
ENDMDL
