MODEL 1
REMARK minimizedAffinity 15.8337317
REMARK minimizedRMSD -1
REMARK  0 active torsions:
REMARK  status: ('A' for Active; 'I' for Inactive)
ROOT
ATOM      1  C   UNL d   1       1.716   1.835   0.613  0.00  0.00     0.124 A 
ATOM      2  C1  UNL d   1       3.017   2.258   0.379  0.00  0.00     0.062 A 
ATOM      3  C2  UNL d   1       3.756   2.847   1.400  0.00  0.00     0.162 A 
ATOM      4  C3  UNL d   1       3.196   3.017   2.666  0.00  0.00    -0.034 A 
ATOM      5  C4  UNL d   1       1.886   2.590   2.894  0.00  0.00     0.162 A 
ATOM      6  C5  UNL d   1       1.152   2.002   1.870  0.00  0.00     0.062 A 
ATOM      7  F   UNL d   1      -0.106   1.594   2.097  0.00  0.00    -0.097 F 
ATOM      8  F1  UNL d   1       1.316   2.738   4.099  0.00  0.00    -0.096 F 
ATOM      9  I   UNL d   1       4.297   3.898   4.197  0.00  0.00    -0.060 I 
ATOM     10  F2  UNL d   1       5.011   3.246   1.146  0.00  0.00    -0.096 F 
ATOM     11  F3  UNL d   1       3.564   2.099  -0.835  0.00  0.00    -0.097 F 
ATOM     12  F4  UNL d   1       1.007   1.269  -0.372  0.00  0.00    -0.092 F 
ENDROOT
TORSDOF 0
ENDMDL
