MODEL 1
REMARK minimizedAffinity 0.527989805
REMARK minimizedRMSD -1
REMARK  0 active torsions:
REMARK  status: ('A' for Active; 'I' for Inactive)
ROOT
ATOM      1  C   UNL d   1       0.614  -1.499  -0.712  0.00  0.00     0.124 A 
ATOM      2  C1  UNL d   1       1.974  -1.776  -0.729  0.00  0.00     0.062 A 
ATOM      3  C2  UNL d   1       2.899  -0.746  -0.588  0.00  0.00     0.162 A 
ATOM      4  C3  UNL d   1       2.468   0.571  -0.428  0.00  0.00    -0.034 A 
ATOM      5  C4  UNL d   1       1.099   0.842  -0.413  0.00  0.00     0.162 A 
ATOM      6  C5  UNL d   1       0.177  -0.191  -0.554  0.00  0.00     0.062 A 
ATOM      7  F   UNL d   1      -1.136   0.078  -0.538  0.00  0.00    -0.097 F 
ATOM      8  F1  UNL d   1       0.649   2.096  -0.262  0.00  0.00    -0.096 F 
ATOM      9  I   UNL d   1       3.849   2.114  -0.217  0.00  0.00    -0.060 I 
ATOM     10  F2  UNL d   1       4.207  -1.042  -0.608  0.00  0.00    -0.096 F 
ATOM     11  F3  UNL d   1       2.398  -3.038  -0.882  0.00  0.00    -0.097 F 
ATOM     12  F4  UNL d   1      -0.275  -2.492  -0.849  0.00  0.00    -0.092 F 
ENDROOT
TORSDOF 0
ENDMDL
