MODEL 1
REMARK minimizedAffinity 4.34579706
REMARK minimizedRMSD -1
REMARK  0 active torsions:
REMARK  status: ('A' for Active; 'I' for Inactive)
ROOT
ATOM      1  C   UNL d   1       2.153   0.376  -0.580  0.00  0.00     0.124 A 
ATOM      2  C1  UNL d   1       2.561  -0.947  -0.677  0.00  0.00     0.062 A 
ATOM      3  C2  UNL d   1       1.616  -1.967  -0.744  0.00  0.00     0.162 A 
ATOM      4  C3  UNL d   1       0.254  -1.668  -0.715  0.00  0.00    -0.034 A 
ATOM      5  C4  UNL d   1      -0.148  -0.335  -0.617  0.00  0.00     0.162 A 
ATOM      6  C5  UNL d   1       0.800   0.681  -0.550  0.00  0.00     0.062 A 
ATOM      7  F   UNL d   1       0.404   1.959  -0.456  0.00  0.00    -0.097 F 
ATOM      8  F1  UNL d   1      -1.450  -0.012  -0.586  0.00  0.00    -0.096 F 
ATOM      9  I   UNL d   1      -1.161  -3.191  -0.815  0.00  0.00    -0.060 I 
ATOM     10  F2  UNL d   1       2.039  -3.237  -0.838  0.00  0.00    -0.096 F 
ATOM     11  F3  UNL d   1       3.868  -1.244  -0.706  0.00  0.00    -0.097 F 
ATOM     12  F4  UNL d   1       3.064   1.356  -0.515  0.00  0.00    -0.092 F 
ENDROOT
TORSDOF 0
ENDMDL
