MODEL 1
REMARK minimizedAffinity -5.55692148
REMARK minimizedRMSD -1
REMARK  1 active torsions:
REMARK  status: ('A' for Active; 'I' for Inactive)
REMARK    1  A    between atoms: C1_2  and  C2_3 
ROOT
ATOM      1  C2  UNL d   1       0.158  -0.312   0.748  0.00  0.00    -0.077 A 
ATOM      2  C3  UNL d   1       1.423  -0.673   0.264  0.00  0.00     0.002 A 
ATOM      3  C4  UNL d   1       2.405  -1.145   1.137  0.00  0.00     0.002 A 
ATOM      4  C5  UNL d   1       2.131  -1.264   2.498  0.00  0.00    -0.004 A 
ATOM      5  C6  UNL d   1       0.876  -0.906   2.989  0.00  0.00     0.002 A 
ATOM      6  C7  UNL d   1      -0.106  -0.433   2.118  0.00  0.00     0.002 A 
ENDROOT
BRANCH   1   7
ATOM      7  C1  UNL d   1      -0.918   0.150  -0.199  0.00  0.00     0.055 C 
ATOM      8  C   UNL d   1      -0.343   0.494  -1.565  0.00  0.00     0.019 C 
ENDBRANCH   1   7
TORSDOF 1
ENDMDL
