MODEL 1
REMARK minimizedAffinity -6.12868404
REMARK minimizedRMSD -1
REMARK  1 active torsions:
REMARK  status: ('A' for Active; 'I' for Inactive)
REMARK    1  A    between atoms: C1_2  and  C2_3 
ROOT
ATOM      1  C2  UNL d   1       1.285  -0.318   0.358  0.00  0.00    -0.077 A 
ATOM      2  C3  UNL d   1       2.156  -1.322  -0.086  0.00  0.00     0.002 A 
ATOM      3  C4  UNL d   1       2.709  -2.229   0.820  0.00  0.00     0.002 A 
ATOM      4  C5  UNL d   1       2.392  -2.144   2.174  0.00  0.00    -0.004 A 
ATOM      5  C6  UNL d   1       1.528  -1.147   2.626  0.00  0.00     0.002 A 
ATOM      6  C7  UNL d   1       0.976  -0.239   1.722  0.00  0.00     0.002 A 
ENDROOT
BRANCH   1   7
ATOM      7  C1  UNL d   1       0.650   0.631  -0.625  0.00  0.00     0.055 C 
ATOM      8  C   UNL d   1      -0.869   0.592  -0.530  0.00  0.00     0.019 C 
ENDBRANCH   1   7
TORSDOF 1
ENDMDL
