MODEL 1
REMARK minimizedAffinity -5.37513161
REMARK minimizedRMSD -1
REMARK  1 active torsions:
REMARK  status: ('A' for Active; 'I' for Inactive)
REMARK    1  A    between atoms: C1_2  and  C2_3 
ROOT
ATOM      1  C2  UNL d   1       0.734  -0.319   0.446  0.00  0.00    -0.077 A 
ATOM      2  C3  UNL d   1       0.379  -0.088   1.782  0.00  0.00     0.002 A 
ATOM      3  C4  UNL d   1       0.956  -0.842   2.807  0.00  0.00     0.002 A 
ATOM      4  C5  UNL d   1       1.893  -1.828   2.505  0.00  0.00    -0.004 A 
ATOM      5  C6  UNL d   1       2.251  -2.066   1.179  0.00  0.00     0.002 A 
ATOM      6  C7  UNL d   1       1.675  -1.315   0.154  0.00  0.00     0.002 A 
ENDROOT
BRANCH   1   7
ATOM      7  C1  UNL d   1       0.150   0.526  -0.656  0.00  0.00     0.055 C 
ATOM      8  C   UNL d   1      -0.174  -0.313  -1.884  0.00  0.00     0.019 C 
ENDBRANCH   1   7
TORSDOF 1
ENDMDL
