MODEL 1
REMARK minimizedAffinity -5.41948891
REMARK minimizedRMSD -1
REMARK  1 active torsions:
REMARK  status: ('A' for Active; 'I' for Inactive)
REMARK    1  A    between atoms: C1_2  and  C2_3 
ROOT
ATOM      1  C2  UNL d   1       0.082   0.118  -0.131  0.00  0.00    -0.077 A 
ATOM      2  C3  UNL d   1       1.463   0.027   0.092  0.00  0.00     0.002 A 
ATOM      3  C4  UNL d   1       1.952  -0.442   1.313  0.00  0.00     0.002 A 
ATOM      4  C5  UNL d   1       1.067  -0.827   2.318  0.00  0.00    -0.004 A 
ATOM      5  C6  UNL d   1      -0.308  -0.738   2.107  0.00  0.00     0.002 A 
ATOM      6  C7  UNL d   1      -0.799  -0.268   0.888  0.00  0.00     0.002 A 
ENDROOT
BRANCH   1   7
ATOM      7  C1  UNL d   1      -0.448   0.577  -1.465  0.00  0.00     0.055 C 
ATOM      8  C   UNL d   1       0.402   1.700  -2.041  0.00  0.00     0.019 C 
ENDBRANCH   1   7
TORSDOF 1
ENDMDL
