MODEL 1
REMARK minimizedAffinity -5.31443024
REMARK minimizedRMSD -1
REMARK  1 active torsions:
REMARK  status: ('A' for Active; 'I' for Inactive)
REMARK    1  A    between atoms: C1_2  and  C2_3 
ROOT
ATOM      1  C2  UNL d   1       0.099  -0.437  -0.022  0.00  0.00    -0.077 A 
ATOM      2  C3  UNL d   1      -0.949  -0.320   0.903  0.00  0.00     0.002 A 
ATOM      3  C4  UNL d   1      -0.709  -0.494   2.267  0.00  0.00     0.002 A 
ATOM      4  C5  UNL d   1       0.578  -0.781   2.719  0.00  0.00    -0.004 A 
ATOM      5  C6  UNL d   1       1.625  -0.901   1.807  0.00  0.00     0.002 A 
ATOM      6  C7  UNL d   1       1.387  -0.729   0.443  0.00  0.00     0.002 A 
ENDROOT
BRANCH   1   7
ATOM      7  C1  UNL d   1      -0.149  -0.202  -1.489  0.00  0.00     0.055 C 
ATOM      8  C   UNL d   1      -0.766   1.167  -1.734  0.00  0.00     0.019 C 
ENDBRANCH   1   7
TORSDOF 1
ENDMDL
