MODEL 1
REMARK minimizedAffinity -4.76604652
REMARK minimizedRMSD -1
REMARK  1 active torsions:
REMARK  status: ('A' for Active; 'I' for Inactive)
REMARK    1  A    between atoms: C1_2  and  C2_3 
ROOT
ATOM      1  C2  UNL d   1       0.592  -0.136   0.486  0.00  0.00    -0.077 A 
ATOM      2  C3  UNL d   1      -0.388  -0.375   1.459  0.00  0.00     0.002 A 
ATOM      3  C4  UNL d   1      -0.056  -1.020   2.652  0.00  0.00     0.002 A 
ATOM      4  C5  UNL d   1       1.256  -1.427   2.884  0.00  0.00    -0.004 A 
ATOM      5  C6  UNL d   1       2.238  -1.196   1.921  0.00  0.00     0.002 A 
ATOM      6  C7  UNL d   1       1.907  -0.552   0.728  0.00  0.00     0.002 A 
ENDROOT
BRANCH   1   7
ATOM      7  C1  UNL d   1       0.246   0.603  -0.780  0.00  0.00     0.055 C 
ATOM      8  C   UNL d   1      -0.497  -0.293  -1.760  0.00  0.00     0.019 C 
ENDBRANCH   1   7
TORSDOF 1
ENDMDL
