MODEL 1
REMARK minimizedAffinity -5.78168297
REMARK minimizedRMSD -1
REMARK  1 active torsions:
REMARK  status: ('A' for Active; 'I' for Inactive)
REMARK    1  A    between atoms: C1_2  and  C2_3 
ROOT
ATOM      1  C2  UNL d   1       0.194  -0.599   0.645  0.00  0.00    -0.077 A 
ATOM      2  C3  UNL d   1       1.325  -0.831  -0.151  0.00  0.00     0.002 A 
ATOM      3  C4  UNL d   1       2.516  -1.275   0.427  0.00  0.00     0.002 A 
ATOM      4  C5  UNL d   1       2.586  -1.495   1.801  0.00  0.00    -0.004 A 
ATOM      5  C6  UNL d   1       1.468  -1.266   2.601  0.00  0.00     0.002 A 
ATOM      6  C7  UNL d   1       0.277  -0.821   2.025  0.00  0.00     0.002 A 
ENDROOT
BRANCH   1   7
ATOM      7  C1  UNL d   1      -1.105  -0.167   0.017  0.00  0.00     0.055 C 
ATOM      8  C   UNL d   1      -0.881   0.438  -1.361  0.00  0.00     0.019 C 
ENDBRANCH   1   7
TORSDOF 1
ENDMDL
