MODEL 1
REMARK minimizedAffinity 7.02080631
REMARK minimizedRMSD -1
REMARK  0 active torsions:
REMARK  status: ('A' for Active; 'I' for Inactive)
ROOT
ATOM      1  C2' OXE d   1       0.912   1.127   1.417  0.00  0.00     0.078 C 
ATOM      2  C1' OXE d   1       2.122  -0.846   3.005  0.00  0.00     0.078 C 
ATOM      3  C1  OXE d   1       0.617  -0.752   3.026  0.00  0.00    -0.078 A 
ATOM      4  C2  OXE d   1       0.036   0.246   2.282  0.00  0.00    -0.078 A 
ATOM      5  C3  OXE d   1      -1.351   0.343   2.222  0.00  0.00     0.003 A 
ATOM      6  C4  OXE d   1      -2.154  -0.469   3.033  0.00  0.00    -0.002 A 
ATOM      7  C5  OXE d   1      -1.580  -1.466   3.828  0.00  0.00    -0.002 A 
ATOM      8  C6  OXE d   1      -0.202  -1.648   3.804  0.00  0.00     0.003 A 
ENDROOT
TORSDOF 0
ENDMDL
