MODEL 1
REMARK minimizedAffinity -4.3999629
REMARK minimizedRMSD -1
REMARK  0 active torsions:
REMARK  status: ('A' for Active; 'I' for Inactive)
ROOT
ATOM      1  C2' OXE d   1       2.208   1.091   0.576  0.00  0.00     0.078 C 
ATOM      2  C1' OXE d   1       0.293   0.276  -1.307  0.00  0.00     0.078 C 
ATOM      3  C1  OXE d   1      -0.012   0.044   0.152  0.00  0.00    -0.078 A 
ATOM      4  C2  OXE d   1       0.952   0.403   1.064  0.00  0.00    -0.078 A 
ATOM      5  C3  OXE d   1       0.699   0.260   2.425  0.00  0.00     0.003 A 
ATOM      6  C4  OXE d   1      -0.461  -0.386   2.867  0.00  0.00    -0.002 A 
ATOM      7  C5  OXE d   1      -1.438  -0.796   1.953  0.00  0.00    -0.002 A 
ATOM      8  C6  OXE d   1      -1.248  -0.551   0.597  0.00  0.00     0.003 A 
ENDROOT
TORSDOF 0
ENDMDL
