MODEL 1
REMARK minimizedAffinity -2.37780809
REMARK minimizedRMSD -1
REMARK  0 active torsions:
REMARK  status: ('A' for Active; 'I' for Inactive)
ROOT
ATOM      1  C2' OXE d   1       1.324  -0.416   0.716  0.00  0.00     0.078 C 
ATOM      2  C1' OXE d   1      -0.935  -0.793   2.339  0.00  0.00     0.078 C 
ATOM      3  C1  OXE d   1      -1.146  -0.209   0.965  0.00  0.00    -0.078 A 
ATOM      4  C2  OXE d   1      -0.030   0.016   0.195  0.00  0.00    -0.078 A 
ATOM      5  C3  OXE d   1      -0.173   0.502  -1.101  0.00  0.00     0.003 A 
ATOM      6  C4  OXE d   1      -1.428   0.908  -1.571  0.00  0.00    -0.002 A 
ATOM      7  C5  OXE d   1      -2.572   0.725  -0.789  0.00  0.00    -0.002 A 
ATOM      8  C6  OXE d   1      -2.454   0.130   0.463  0.00  0.00     0.003 A 
ENDROOT
TORSDOF 0
ENDMDL
