MODEL 1
REMARK minimizedAffinity 6.90888405
REMARK minimizedRMSD -1
REMARK  0 active torsions:
REMARK  status: ('A' for Active; 'I' for Inactive)
ROOT
ATOM      1  C2' OXE d   1      -3.959   1.107   1.416  0.00  0.00     0.078 C 
ATOM      2  C1' OXE d   1      -1.386   0.037   1.759  0.00  0.00     0.078 C 
ATOM      3  C1  OXE d   1      -1.900   0.196   0.350  0.00  0.00    -0.078 A 
ATOM      4  C2  OXE d   1      -3.177   0.677   0.193  0.00  0.00    -0.078 A 
ATOM      5  C3  OXE d   1      -3.680   0.896  -1.087  0.00  0.00     0.003 A 
ATOM      6  C4  OXE d   1      -2.955   0.486  -2.212  0.00  0.00    -0.002 A 
ATOM      7  C5  OXE d   1      -1.667  -0.042  -2.074  0.00  0.00    -0.002 A 
ATOM      8  C6  OXE d   1      -1.109  -0.154  -0.805  0.00  0.00     0.003 A 
ENDROOT
TORSDOF 0
ENDMDL
