MODEL 1
REMARK minimizedAffinity 8.92810917
REMARK minimizedRMSD -1
REMARK  0 active torsions:
REMARK  status: ('A' for Active; 'I' for Inactive)
ROOT
ATOM      1  C2' OXE d   1      -2.491   0.328  -0.852  0.00  0.00     0.078 C 
ATOM      2  C1' OXE d   1      -4.596   0.197   0.999  0.00  0.00     0.078 C 
ATOM      3  C1  OXE d   1      -3.187   0.209   1.537  0.00  0.00    -0.078 A 
ATOM      4  C2  OXE d   1      -2.162   0.226   0.622  0.00  0.00    -0.078 A 
ATOM      5  C3  OXE d   1      -0.844   0.294   1.064  0.00  0.00     0.003 A 
ATOM      6  C4  OXE d   1      -0.548   0.189   2.429  0.00  0.00    -0.002 A 
ATOM      7  C5  OXE d   1      -1.576   0.130   3.376  0.00  0.00    -0.002 A 
ATOM      8  C6  OXE d   1      -2.899   0.182   2.949  0.00  0.00     0.003 A 
ENDROOT
TORSDOF 0
ENDMDL
