MODEL 1
REMARK minimizedAffinity 5.24834633
REMARK minimizedRMSD -1
REMARK  0 active torsions:
REMARK  status: ('A' for Active; 'I' for Inactive)
ROOT
ATOM      1  C2' OXE d   1      -1.310  -0.956  -0.186  0.00  0.00     0.078 C 
ATOM      2  C1' OXE d   1      -0.704  -0.831   2.552  0.00  0.00     0.078 C 
ATOM      3  C1  OXE d   1      -2.015  -0.243   2.094  0.00  0.00    -0.078 A 
ATOM      4  C2  OXE d   1      -2.282  -0.267   0.746  0.00  0.00    -0.078 A 
ATOM      5  C3  OXE d   1      -3.502   0.212   0.276  0.00  0.00     0.003 A 
ATOM      6  C4  OXE d   1      -4.392   0.857   1.144  0.00  0.00    -0.002 A 
ATOM      7  C5  OXE d   1      -4.121   0.928   2.515  0.00  0.00    -0.002 A 
ATOM      8  C6  OXE d   1      -2.960   0.346   3.011  0.00  0.00     0.003 A 
ENDROOT
TORSDOF 0
ENDMDL
