MODEL 1
REMARK minimizedAffinity 6.57411623
REMARK minimizedRMSD -1
REMARK  0 active torsions:
REMARK  status: ('A' for Active; 'I' for Inactive)
ROOT
ATOM      1  C2' OXE d   1      -5.706  -0.063   1.100  0.00  0.00     0.078 C 
ATOM      2  C1' OXE d   1      -4.101   1.281  -0.770  0.00  0.00     0.078 C 
ATOM      3  C1  OXE d   1      -3.429   0.713   0.455  0.00  0.00    -0.078 A 
ATOM      4  C2  OXE d   1      -4.229   0.098   1.388  0.00  0.00    -0.078 A 
ATOM      5  C3  OXE d   1      -3.653  -0.490   2.510  0.00  0.00     0.003 A 
ATOM      6  C4  OXE d   1      -2.287  -0.328   2.773  0.00  0.00    -0.002 A 
ATOM      7  C5  OXE d   1      -1.461   0.329   1.856  0.00  0.00    -0.002 A 
ATOM      8  C6  OXE d   1      -2.007   0.818   0.674  0.00  0.00     0.003 A 
ENDROOT
TORSDOF 0
ENDMDL
