MODEL 1
REMARK minimizedAffinity 6.38280201
REMARK minimizedRMSD -1
REMARK  0 active torsions:
REMARK  status: ('A' for Active; 'I' for Inactive)
ROOT
ATOM      1  C2' OXE d   1      -1.444   0.260  -0.244  0.00  0.00     0.078 C 
ATOM      2  C1' OXE d   1      -0.488   0.429   2.390  0.00  0.00     0.078 C 
ATOM      3  C1  OXE d   1      -1.979   0.498   2.178  0.00  0.00    -0.078 A 
ATOM      4  C2  OXE d   1      -2.436   0.462   0.882  0.00  0.00    -0.078 A 
ATOM      5  C3  OXE d   1      -3.805   0.467   0.633  0.00  0.00     0.003 A 
ATOM      6  C4  OXE d   1      -4.715   0.663   1.679  0.00  0.00    -0.002 A 
ATOM      7  C5  OXE d   1      -4.269   0.743   3.002  0.00  0.00    -0.002 A 
ATOM      8  C6  OXE d   1      -2.910   0.619   3.272  0.00  0.00     0.003 A 
ENDROOT
TORSDOF 0
ENDMDL
