MODEL 1
REMARK minimizedAffinity 4.42625904
REMARK minimizedRMSD -1
REMARK  0 active torsions:
REMARK  status: ('A' for Active; 'I' for Inactive)
ROOT
ATOM      1  C2' OXE d   1      -1.056  -0.414  -0.238  0.00  0.00     0.078 C 
ATOM      2  C1' OXE d   1      -0.231  -0.415   2.445  0.00  0.00     0.078 C 
ATOM      3  C1  OXE d   1      -1.686  -0.143   2.156  0.00  0.00    -0.078 A 
ATOM      4  C2  OXE d   1      -2.071  -0.098   0.838  0.00  0.00    -0.078 A 
ATOM      5  C3  OXE d   1      -3.412   0.095   0.518  0.00  0.00     0.003 A 
ATOM      6  C4  OXE d   1      -4.344   0.396   1.519  0.00  0.00    -0.002 A 
ATOM      7  C5  OXE d   1      -3.964   0.395   2.866  0.00  0.00    -0.002 A 
ATOM      8  C6  OXE d   1      -2.651   0.086   3.203  0.00  0.00     0.003 A 
ENDROOT
TORSDOF 0
ENDMDL
