MODEL 1
REMARK minimizedAffinity 4.09972811
REMARK minimizedRMSD -1
REMARK  0 active torsions:
REMARK  status: ('A' for Active; 'I' for Inactive)
ROOT
ATOM      1  C2' OXE d   1      -0.284  -0.915   3.269  0.00  0.00     0.078 C 
ATOM      2  C1' OXE d   1      -0.029   1.856   2.899  0.00  0.00     0.078 C 
ATOM      3  C1  OXE d   1      -1.388   1.239   2.681  0.00  0.00    -0.078 A 
ATOM      4  C2  OXE d   1      -1.493  -0.125   2.819  0.00  0.00    -0.078 A 
ATOM      5  C3  OXE d   1      -2.735  -0.738   2.682  0.00  0.00     0.003 A 
ATOM      6  C4  OXE d   1      -3.847  -0.001   2.255  0.00  0.00    -0.002 A 
ATOM      7  C5  OXE d   1      -3.752   1.383   2.070  0.00  0.00    -0.002 A 
ATOM      8  C6  OXE d   1      -2.543   2.023   2.320  0.00  0.00     0.003 A 
ENDROOT
TORSDOF 0
ENDMDL
