MODEL 1
REMARK minimizedAffinity -4.0039525
REMARK minimizedRMSD -1
REMARK  0 active torsions:
REMARK  status: ('A' for Active; 'I' for Inactive)
ROOT
ATOM      1  C2' OXE d   1      -1.561   1.281  -1.934  0.00  0.00     0.078 C 
ATOM      2  C1' OXE d   1       0.944   0.526  -2.951  0.00  0.00     0.078 C 
ATOM      3  C1  OXE d   1       0.743   0.462  -1.457  0.00  0.00    -0.078 A 
ATOM      4  C2  OXE d   1      -0.471   0.878  -0.965  0.00  0.00    -0.078 A 
ATOM      5  C3  OXE d   1      -0.728   0.788   0.400  0.00  0.00     0.003 A 
ATOM      6  C4  OXE d   1       0.290   0.424   1.291  0.00  0.00    -0.002 A 
ATOM      7  C5  OXE d   1       1.546   0.035   0.813  0.00  0.00    -0.002 A 
ATOM      8  C6  OXE d   1       1.775   0.008  -0.558  0.00  0.00     0.003 A 
ENDROOT
TORSDOF 0
ENDMDL
