MODEL 1
REMARK minimizedAffinity 8.16506004
REMARK minimizedRMSD -1
REMARK  0 active torsions:
REMARK  status: ('A' for Active; 'I' for Inactive)
ROOT
ATOM      1  C2' OXE d   1      -2.422   0.921   2.228  0.00  0.00     0.078 C 
ATOM      2  C1' OXE d   1      -0.083   2.424   2.620  0.00  0.00     0.078 C 
ATOM      3  C1  OXE d   1       0.039   0.921   2.615  0.00  0.00    -0.078 A 
ATOM      4  C2  OXE d   1      -1.117   0.193   2.470  0.00  0.00    -0.078 A 
ATOM      5  C3  OXE d   1      -1.054  -1.196   2.403  0.00  0.00     0.003 A 
ATOM      6  C4  OXE d   1       0.155  -1.862   2.637  0.00  0.00    -0.002 A 
ATOM      7  C5  OXE d   1       1.338  -1.141   2.827  0.00  0.00    -0.002 A 
ATOM      8  C6  OXE d   1       1.305   0.249   2.777  0.00  0.00     0.003 A 
ENDROOT
TORSDOF 0
ENDMDL
