MODEL 1
REMARK minimizedAffinity -0.648857415
REMARK minimizedRMSD -1
REMARK  0 active torsions:
REMARK  status: ('A' for Active; 'I' for Inactive)
ROOT
ATOM      1  C2' OXE d   1       0.145  -1.017   0.150  0.00  0.00     0.078 C 
ATOM      2  C1' OXE d   1       1.185   1.483   0.890  0.00  0.00     0.078 C 
ATOM      3  C1  OXE d   1       0.155   0.854   1.795  0.00  0.00    -0.078 A 
ATOM      4  C2  OXE d   1      -0.383  -0.348   1.401  0.00  0.00    -0.078 A 
ATOM      5  C3  OXE d   1      -1.296  -0.997   2.226  0.00  0.00     0.003 A 
ATOM      6  C4  OXE d   1      -1.786  -0.367   3.376  0.00  0.00    -0.002 A 
ATOM      7  C5  OXE d   1      -1.281   0.875   3.775  0.00  0.00    -0.002 A 
ATOM      8  C6  OXE d   1      -0.281   1.478   3.020  0.00  0.00     0.003 A 
ENDROOT
TORSDOF 0
ENDMDL
