MODEL 1
REMARK minimizedAffinity 2.27203226
REMARK minimizedRMSD -1
REMARK  0 active torsions:
REMARK  status: ('A' for Active; 'I' for Inactive)
ROOT
ATOM      1  C2' OXE d   1      -1.940   0.893   1.899  0.00  0.00     0.078 C 
ATOM      2  C1' OXE d   1      -0.898   0.763  -0.704  0.00  0.00     0.078 C 
ATOM      3  C1  OXE d   1       0.065   0.611   0.448  0.00  0.00    -0.078 A 
ATOM      4  C2  OXE d   1      -0.447   0.723   1.718  0.00  0.00    -0.078 A 
ATOM      5  C3  OXE d   1       0.388   0.536   2.816  0.00  0.00     0.003 A 
ATOM      6  C4  OXE d   1       1.769   0.388   2.640  0.00  0.00    -0.002 A 
ATOM      7  C5  OXE d   1       2.316   0.312   1.355  0.00  0.00    -0.002 A 
ATOM      8  C6  OXE d   1       1.474   0.378   0.250  0.00  0.00     0.003 A 
ENDROOT
TORSDOF 0
ENDMDL
