MODEL 1
REMARK minimizedAffinity -0.964496553
REMARK minimizedRMSD -1
REMARK  0 active torsions:
REMARK  status: ('A' for Active; 'I' for Inactive)
ROOT
ATOM      1  C2' OXE d   1      -1.503  -0.092  -0.032  0.00  0.00     0.078 C 
ATOM      2  C1' OXE d   1       1.292  -0.105   0.226  0.00  0.00     0.078 C 
ATOM      3  C1  OXE d   1       0.476   0.284   1.433  0.00  0.00    -0.078 A 
ATOM      4  C2  OXE d   1      -0.889   0.333   1.285  0.00  0.00    -0.078 A 
ATOM      5  C3  OXE d   1      -1.692   0.633   2.382  0.00  0.00     0.003 A 
ATOM      6  C4  OXE d   1      -1.116   1.034   3.593  0.00  0.00    -0.002 A 
ATOM      7  C5  OXE d   1       0.274   1.030   3.754  0.00  0.00    -0.002 A 
ATOM      8  C6  OXE d   1       1.081   0.617   2.699  0.00  0.00     0.003 A 
ENDROOT
TORSDOF 0
ENDMDL
