MODEL 1
REMARK minimizedAffinity 3.57354045
REMARK minimizedRMSD -1
REMARK  0 active torsions:
REMARK  status: ('A' for Active; 'I' for Inactive)
ROOT
ATOM      1  C2' OXE d   1       0.759  -0.546  -1.596  0.00  0.00     0.078 C 
ATOM      2  C1' OXE d   1      -1.507   0.471  -0.288  0.00  0.00     0.078 C 
ATOM      3  C1  OXE d   1      -0.214   0.416   0.486  0.00  0.00    -0.078 A 
ATOM      4  C2  OXE d   1       0.879  -0.127  -0.146  0.00  0.00    -0.078 A 
ATOM      5  C3  OXE d   1       2.110  -0.152   0.504  0.00  0.00     0.003 A 
ATOM      6  C4  OXE d   1       2.210   0.229   1.847  0.00  0.00    -0.002 A 
ATOM      7  C5  OXE d   1       1.100   0.747   2.523  0.00  0.00    -0.002 A 
ATOM      8  C6  OXE d   1      -0.106   0.887   1.845  0.00  0.00     0.003 A 
ENDROOT
TORSDOF 0
ENDMDL
