MODEL 1
REMARK minimizedAffinity -1.68830502
REMARK minimizedRMSD -1
REMARK  0 active torsions:
REMARK  status: ('A' for Active; 'I' for Inactive)
ROOT
ATOM      1  C2' OXE d   1       0.525   0.236  -1.590  0.00  0.00     0.078 C 
ATOM      2  C1' OXE d   1      -1.958   0.699  -0.363  0.00  0.00     0.078 C 
ATOM      3  C1  OXE d   1      -0.748   0.558   0.527  0.00  0.00    -0.078 A 
ATOM      4  C2  OXE d   1       0.455   0.286  -0.079  0.00  0.00    -0.078 A 
ATOM      5  C3  OXE d   1       1.611   0.201   0.691  0.00  0.00     0.003 A 
ATOM      6  C4  OXE d   1       1.536   0.237   2.089  0.00  0.00    -0.002 A 
ATOM      7  C5  OXE d   1       0.314   0.474   2.728  0.00  0.00    -0.002 A 
ATOM      8  C6  OXE d   1      -0.828   0.679   1.962  0.00  0.00     0.003 A 
ENDROOT
TORSDOF 0
ENDMDL
