MODEL 1
REMARK minimizedAffinity -2.67255044
REMARK minimizedRMSD -1
REMARK  0 active torsions:
REMARK  status: ('A' for Active; 'I' for Inactive)
ROOT
ATOM      1  C2' OXE d   1       0.249  -1.023  -1.130  0.00  0.00     0.078 C 
ATOM      2  C1' OXE d   1       1.366   1.124   0.292  0.00  0.00     0.078 C 
ATOM      3  C1  OXE d   1       0.501   0.150   1.053  0.00  0.00    -0.078 A 
ATOM      4  C2  OXE d   1      -0.079  -0.871   0.340  0.00  0.00    -0.078 A 
ATOM      5  C3  OXE d   1      -0.842  -1.828   1.003  0.00  0.00     0.003 A 
ATOM      6  C4  OXE d   1      -1.149  -1.675   2.360  0.00  0.00    -0.002 A 
ATOM      7  C5  OXE d   1      -0.601  -0.619   3.097  0.00  0.00    -0.002 A 
ATOM      8  C6  OXE d   1       0.259   0.276   2.469  0.00  0.00     0.003 A 
ENDROOT
TORSDOF 0
ENDMDL
