MODEL 1
REMARK minimizedAffinity -4.05536509
REMARK minimizedRMSD -1
REMARK  0 active torsions:
REMARK  status: ('A' for Active; 'I' for Inactive)
ROOT
ATOM      1  C2' OXE d   1      -1.023  -0.639   3.044  0.00  0.00     0.078 C 
ATOM      2  C1' OXE d   1      -3.034  -0.336   1.109  0.00  0.00     0.078 C 
ATOM      3  C1  OXE d   1      -1.605  -0.115   0.679  0.00  0.00    -0.078 A 
ATOM      4  C2  OXE d   1      -0.632  -0.219   1.644  0.00  0.00    -0.078 A 
ATOM      5  C3  OXE d   1       0.707  -0.078   1.289  0.00  0.00     0.003 A 
ATOM      6  C4  OXE d   1       1.060   0.320  -0.006  0.00  0.00    -0.002 A 
ATOM      7  C5  OXE d   1       0.080   0.471  -0.993  0.00  0.00    -0.002 A 
ATOM      8  C6  OXE d   1      -1.250   0.216  -0.678  0.00  0.00     0.003 A 
ENDROOT
TORSDOF 0
ENDMDL
