MODEL 1
REMARK minimizedAffinity -1.10621381
REMARK minimizedRMSD -1
REMARK  0 active torsions:
REMARK  status: ('A' for Active; 'I' for Inactive)
ROOT
ATOM      1  C2' OXE d   1      -0.729  -0.987   3.229  0.00  0.00     0.078 C 
ATOM      2  C1' OXE d   1      -2.130  -0.721   0.811  0.00  0.00     0.078 C 
ATOM      3  C1  OXE d   1      -0.727  -0.171   0.875  0.00  0.00    -0.078 A 
ATOM      4  C2  OXE d   1      -0.066  -0.264   2.076  0.00  0.00    -0.078 A 
ATOM      5  C3  OXE d   1       1.250   0.178   2.175  0.00  0.00     0.003 A 
ATOM      6  C4  OXE d   1       1.852   0.855   1.107  0.00  0.00    -0.002 A 
ATOM      7  C5  OXE d   1       1.182   0.996  -0.113  0.00  0.00    -0.002 A 
ATOM      8  C6  OXE d   1      -0.089   0.452  -0.258  0.00  0.00     0.003 A 
ENDROOT
TORSDOF 0
ENDMDL
