MODEL 1
REMARK minimizedAffinity 3.02505898
REMARK minimizedRMSD -1
REMARK  0 active torsions:
REMARK  status: ('A' for Active; 'I' for Inactive)
ROOT
ATOM      1  C   UNL d   1       0.757   3.887  -1.822  0.00  0.00     0.020 A 
ATOM      2  C1  UNL d   1      -0.569   3.473  -1.702  0.00  0.00     0.020 A 
ATOM      3  C2  UNL d   1      -1.027   2.938  -0.496  0.00  0.00     0.034 A 
ATOM      4  C3  UNL d   1      -0.158   2.815   0.595  0.00  0.00     0.017 A 
ATOM      5  C4  UNL d   1       1.173   3.231   0.474  0.00  0.00     0.017 A 
ATOM      6  C5  UNL d   1       1.626   3.766  -0.736  0.00  0.00     0.034 A 
ATOM      7 Cl   UNL d   1       2.304   3.112   1.775  0.00  0.00    -0.070 Cl
ATOM      8 Cl1  UNL d   1      -0.792   2.146   2.056  0.00  0.00    -0.070 Cl
ENDROOT
TORSDOF 0
ENDMDL
