MODEL 1
REMARK minimizedAffinity 3.95253134
REMARK minimizedRMSD -1
REMARK  0 active torsions:
REMARK  status: ('A' for Active; 'I' for Inactive)
ROOT
ATOM      1  C   UNL d   1      -5.614  -6.000  -5.277  0.00  0.00     0.020 A 
ATOM      2  C1  UNL d   1      -5.991  -4.868  -5.999  0.00  0.00     0.020 A 
ATOM      3  C2  UNL d   1      -5.174  -3.736  -6.000  0.00  0.00     0.034 A 
ATOM      4  C3  UNL d   1      -3.976  -3.732  -5.276  0.00  0.00     0.017 A 
ATOM      5  C4  UNL d   1      -3.598  -4.869  -4.552  0.00  0.00     0.017 A 
ATOM      6  C5  UNL d   1      -4.420  -6.000  -4.555  0.00  0.00     0.034 A 
ATOM      7 Cl   UNL d   1      -2.134  -4.939  -3.636  0.00  0.00    -0.070 Cl
ATOM      8 Cl1  UNL d   1      -3.014  -2.297  -5.322  0.00  0.00    -0.070 Cl
ENDROOT
TORSDOF 0
ENDMDL
