MODEL 1
REMARK minimizedAffinity 5.44757795
REMARK minimizedRMSD -1
REMARK  0 active torsions:
REMARK  status: ('A' for Active; 'I' for Inactive)
ROOT
ATOM      1  C   UNL d   1       1.081  -4.173  -0.656  0.00  0.00     0.020 A 
ATOM      2  C1  UNL d   1       2.411  -4.022  -1.047  0.00  0.00     0.020 A 
ATOM      3  C2  UNL d   1       2.741  -3.993  -2.404  0.00  0.00     0.034 A 
ATOM      4  C3  UNL d   1       1.740  -4.114  -3.374  0.00  0.00     0.017 A 
ATOM      5  C4  UNL d   1       0.405  -4.265  -2.981  0.00  0.00     0.017 A 
ATOM      6  C5  UNL d   1       0.080  -4.293  -1.621  0.00  0.00     0.034 A 
ATOM      7 Cl   UNL d   1      -0.885  -4.420  -4.120  0.00  0.00    -0.070 Cl
ATOM      8 Cl1  UNL d   1       2.220  -4.069  -5.034  0.00  0.00    -0.070 Cl
ENDROOT
TORSDOF 0
ENDMDL
