MODEL 1
REMARK minimizedAffinity 13.6963625
REMARK minimizedRMSD -1
REMARK  0 active torsions:
REMARK  status: ('A' for Active; 'I' for Inactive)
ROOT
ATOM      1  C   UNL d   1       2.626  -3.274   0.452  0.00  0.00     0.020 A 
ATOM      2  C1  UNL d   1       1.856  -4.298  -0.097  0.00  0.00     0.020 A 
ATOM      3  C2  UNL d   1       1.189  -4.097  -1.308  0.00  0.00     0.034 A 
ATOM      4  C3  UNL d   1       1.292  -2.870  -1.973  0.00  0.00     0.017 A 
ATOM      5  C4  UNL d   1       2.066  -1.843  -1.420  0.00  0.00     0.017 A 
ATOM      6  C5  UNL d   1       2.732  -2.049  -0.208  0.00  0.00     0.034 A 
ATOM      7 Cl   UNL d   1       2.241  -0.301  -2.183  0.00  0.00    -0.070 Cl
ATOM      8 Cl1  UNL d   1       0.442  -2.691  -3.466  0.00  0.00    -0.070 Cl
ENDROOT
TORSDOF 0
ENDMDL
