MODEL 1
REMARK minimizedAffinity 16.3370285
REMARK minimizedRMSD -1
REMARK  0 active torsions:
REMARK  status: ('A' for Active; 'I' for Inactive)
ROOT
ATOM      1  C   UNL d   1       1.589  -3.089   4.965  0.00  0.00     0.020 A 
ATOM      2  C1  UNL d   1       0.519  -2.415   5.552  0.00  0.00     0.020 A 
ATOM      3  C2  UNL d   1       0.140  -1.158   5.076  0.00  0.00     0.034 A 
ATOM      4  C3  UNL d   1       0.832  -0.571   4.010  0.00  0.00     0.017 A 
ATOM      5  C4  UNL d   1       1.906  -1.249   3.421  0.00  0.00     0.017 A 
ATOM      6  C5  UNL d   1       2.281  -2.507   3.902  0.00  0.00     0.034 A 
ATOM      7 Cl   UNL d   1       2.807  -0.589   2.102  0.00  0.00    -0.070 Cl
ATOM      8 Cl1  UNL d   1       0.308   0.985   3.472  0.00  0.00    -0.070 Cl
ENDROOT
TORSDOF 0
ENDMDL
