MODEL 1
REMARK minimizedAffinity 18.5477753
REMARK minimizedRMSD -1
REMARK  0 active torsions:
REMARK  status: ('A' for Active; 'I' for Inactive)
ROOT
ATOM      1  C   UNL d   1      -4.064   1.221  -5.750  0.00  0.00     0.020 A 
ATOM      2  C1  UNL d   1      -3.427   2.436  -6.000  0.00  0.00     0.020 A 
ATOM      3  C2  UNL d   1      -3.351   3.404  -4.996  0.00  0.00     0.034 A 
ATOM      4  C3  UNL d   1      -3.914   3.159  -3.738  0.00  0.00     0.017 A 
ATOM      5  C4  UNL d   1      -4.554   1.939  -3.489  0.00  0.00     0.017 A 
ATOM      6  C5  UNL d   1      -4.626   0.973  -4.498  0.00  0.00     0.034 A 
ATOM      7 Cl   UNL d   1      -5.272   1.564  -1.962  0.00  0.00    -0.070 Cl
ATOM      8 Cl1  UNL d   1      -3.783   4.400  -2.543  0.00  0.00    -0.070 Cl
ENDROOT
TORSDOF 0
ENDMDL
