MODEL 1
REMARK minimizedAffinity 10.0757113
REMARK minimizedRMSD -1
REMARK  0 active torsions:
REMARK  status: ('A' for Active; 'I' for Inactive)
ROOT
ATOM      1  C   UNL d   1       0.976  -2.734   5.999  0.00  0.00     0.020 A 
ATOM      2  C1  UNL d   1       2.111  -3.216   5.347  0.00  0.00     0.020 A 
ATOM      3  C2  UNL d   1       2.583  -2.572   4.201  0.00  0.00     0.034 A 
ATOM      4  C3  UNL d   1       1.921  -1.444   3.704  0.00  0.00     0.017 A 
ATOM      5  C4  UNL d   1       0.783  -0.961   4.359  0.00  0.00     0.017 A 
ATOM      6  C5  UNL d   1       0.314  -1.609   5.506  0.00  0.00     0.034 A 
ATOM      7 Cl   UNL d   1      -0.087   0.426   3.806  0.00  0.00    -0.070 Cl
ATOM      8 Cl1  UNL d   1       2.561  -0.698   2.282  0.00  0.00    -0.070 Cl
ENDROOT
TORSDOF 0
ENDMDL
