MODEL 1
REMARK minimizedAffinity 8.11533356
REMARK minimizedRMSD -1
REMARK  0 active torsions:
REMARK  status: ('A' for Active; 'I' for Inactive)
ROOT
ATOM      1  C   UNL d   1      -1.278   2.662   0.262  0.00  0.00     0.020 A 
ATOM      2  C1  UNL d   1      -0.162   3.378  -0.167  0.00  0.00     0.020 A 
ATOM      3  C2  UNL d   1       1.027   3.322   0.563  0.00  0.00     0.034 A 
ATOM      4  C3  UNL d   1       1.103   2.547   1.726  0.00  0.00     0.017 A 
ATOM      5  C4  UNL d   1      -0.018   1.828   2.156  0.00  0.00     0.017 A 
ATOM      6  C5  UNL d   1      -1.206   1.888   1.421  0.00  0.00     0.034 A 
ATOM      7 Cl   UNL d   1      -0.001   0.850   3.581  0.00  0.00    -0.070 Cl
ATOM      8 Cl1  UNL d   1       2.606   2.523   2.579  0.00  0.00    -0.070 Cl
ENDROOT
TORSDOF 0
ENDMDL
