MODEL 1
REMARK minimizedAffinity 13.5108347
REMARK minimizedRMSD -1
REMARK  0 active torsions:
REMARK  status: ('A' for Active; 'I' for Inactive)
ROOT
ATOM      1  C   UNL d   1      -1.164   2.739  -0.254  0.00  0.00     0.020 A 
ATOM      2  C1  UNL d   1      -2.170   2.424   0.659  0.00  0.00     0.020 A 
ATOM      3  C2  UNL d   1      -1.857   1.737   1.833  0.00  0.00     0.034 A 
ATOM      4  C3  UNL d   1      -0.535   1.363   2.099  0.00  0.00     0.017 A 
ATOM      5  C4  UNL d   1       0.474   1.680   1.183  0.00  0.00     0.017 A 
ATOM      6  C5  UNL d   1       0.156   2.368   0.008  0.00  0.00     0.034 A 
ATOM      7 Cl   UNL d   1       2.129   1.251   1.441  0.00  0.00    -0.070 Cl
ATOM      8 Cl1  UNL d   1      -0.220   0.516   3.572  0.00  0.00    -0.070 Cl
ENDROOT
TORSDOF 0
ENDMDL
