MODEL 1
REMARK minimizedAffinity 12.1014767
REMARK minimizedRMSD -1
REMARK  0 active torsions:
REMARK  status: ('A' for Active; 'I' for Inactive)
ROOT
ATOM      1  C   UNL d   1       6.000  -5.044  -0.892  0.00  0.00     0.020 A 
ATOM      2  C1  UNL d   1       5.225  -6.000  -1.548  0.00  0.00     0.020 A 
ATOM      3  C2  UNL d   1       3.846  -5.815  -1.671  0.00  0.00     0.034 A 
ATOM      4  C3  UNL d   1       3.238  -4.673  -1.137  0.00  0.00     0.017 A 
ATOM      5  C4  UNL d   1       4.017  -3.715  -0.479  0.00  0.00     0.017 A 
ATOM      6  C5  UNL d   1       5.397  -3.904  -0.359  0.00  0.00     0.034 A 
ATOM      7 Cl   UNL d   1       3.338  -2.280   0.206  0.00  0.00    -0.070 Cl
ATOM      8 Cl1  UNL d   1       1.528  -4.511  -1.326  0.00  0.00    -0.070 Cl
ENDROOT
TORSDOF 0
ENDMDL
