MODEL 1
REMARK minimizedAffinity 13.6782808
REMARK minimizedRMSD -1
REMARK  0 active torsions:
REMARK  status: ('A' for Active; 'I' for Inactive)
ROOT
ATOM      1  C   UNL d   1       1.122  -3.553  -1.007  0.00  0.00     0.020 A 
ATOM      2  C1  UNL d   1       1.734  -2.471  -1.638  0.00  0.00     0.020 A 
ATOM      3  C2  UNL d   1       2.521  -1.585  -0.899  0.00  0.00     0.034 A 
ATOM      4  C3  UNL d   1       2.698  -1.780   0.475  0.00  0.00     0.017 A 
ATOM      5  C4  UNL d   1       2.084  -2.866   1.108  0.00  0.00     0.017 A 
ATOM      6  C5  UNL d   1       1.297  -3.750   0.363  0.00  0.00     0.034 A 
ATOM      7 Cl   UNL d   1       2.256  -3.172   2.801  0.00  0.00    -0.070 Cl
ATOM      8 Cl1  UNL d   1       3.684  -0.645   1.327  0.00  0.00    -0.070 Cl
ENDROOT
TORSDOF 0
ENDMDL
