MODEL 1
REMARK minimizedAffinity 12.3331909
REMARK minimizedRMSD -1
REMARK  0 active torsions:
REMARK  status: ('A' for Active; 'I' for Inactive)
ROOT
ATOM      1  C   UNL d   1       2.445  -1.668  -0.729  0.00  0.00     0.020 A 
ATOM      2  C1  UNL d   1       3.125  -2.634   0.011  0.00  0.00     0.020 A 
ATOM      3  C2  UNL d   1       2.706  -3.966  -0.027  0.00  0.00     0.034 A 
ATOM      4  C3  UNL d   1       1.605  -4.335  -0.808  0.00  0.00     0.017 A 
ATOM      5  C4  UNL d   1       0.923  -3.364  -1.551  0.00  0.00     0.017 A 
ATOM      6  C5  UNL d   1       1.346  -2.032  -1.509  0.00  0.00     0.034 A 
ATOM      7 Cl   UNL d   1      -0.444  -3.744  -2.538  0.00  0.00    -0.070 Cl
ATOM      8 Cl1  UNL d   1       1.143  -6.000  -0.809  0.00  0.00    -0.070 Cl
ENDROOT
TORSDOF 0
ENDMDL
