MODEL 1
REMARK minimizedAffinity 16.860693
REMARK minimizedRMSD -1
REMARK  0 active torsions:
REMARK  status: ('A' for Active; 'I' for Inactive)
ROOT
ATOM      1  C   UNL d   1       0.585  -4.571  -0.784  0.00  0.00     0.020 A 
ATOM      2  C1  UNL d   1       1.134  -5.816  -1.086  0.00  0.00     0.020 A 
ATOM      3  C2  UNL d   1       2.517  -6.000  -1.037  0.00  0.00     0.034 A 
ATOM      4  C3  UNL d   1       3.356  -4.936  -0.684  0.00  0.00     0.017 A 
ATOM      5  C4  UNL d   1       2.804  -3.686  -0.381  0.00  0.00     0.017 A 
ATOM      6  C5  UNL d   1       1.418  -3.508  -0.432  0.00  0.00     0.034 A 
ATOM      7 Cl   UNL d   1       3.775  -2.327   0.062  0.00  0.00    -0.070 Cl
ATOM      8 Cl1  UNL d   1       5.058  -5.235  -0.643  0.00  0.00    -0.070 Cl
ENDROOT
TORSDOF 0
ENDMDL
