MODEL 1
REMARK minimizedAffinity -4.37525225
REMARK minimizedRMSD -1
REMARK  0 active torsions:
REMARK  status: ('A' for Active; 'I' for Inactive)
ROOT
ATOM      1  C1  BNZ d   1      -1.713   2.075  -1.624  0.00  0.00     0.000 A 
ATOM      2  C2  BNZ d   1      -0.741   3.032  -1.751  0.00  0.00     0.000 A 
ATOM      3  C3  BNZ d   1      -0.459   3.586  -2.968  0.00  0.00     0.000 A 
ATOM      4  C4  BNZ d   1      -1.120   3.155  -4.062  0.00  0.00     0.000 A 
ATOM      5  C5  BNZ d   1      -2.096   2.184  -3.952  0.00  0.00     0.000 A 
ATOM      6  C6  BNZ d   1      -2.404   1.656  -2.719  0.00  0.00     0.000 A 
ENDROOT
TORSDOF 0
ENDMDL
