MODEL 1
REMARK minimizedAffinity -2.65262651
REMARK minimizedRMSD -1
REMARK  0 active torsions:
REMARK  status: ('A' for Active; 'I' for Inactive)
ROOT
ATOM      1  C1  BNZ d   1       1.075  -1.442   0.947  0.00  0.00     0.000 A 
ATOM      2  C2  BNZ d   1      -0.132  -0.794   0.923  0.00  0.00     0.000 A 
ATOM      3  C3  BNZ d   1      -0.321   0.304   0.131  0.00  0.00     0.000 A 
ATOM      4  C4  BNZ d   1       0.706   0.776  -0.604  0.00  0.00     0.000 A 
ATOM      5  C5  BNZ d   1       1.931   0.140  -0.583  0.00  0.00     0.000 A 
ATOM      6  C6  BNZ d   1       2.107  -0.988   0.186  0.00  0.00     0.000 A 
ENDROOT
TORSDOF 0
ENDMDL
