MODEL 1
REMARK minimizedAffinity -3.2340076
REMARK minimizedRMSD -1
REMARK  0 active torsions:
REMARK  status: ('A' for Active; 'I' for Inactive)
ROOT
ATOM      1  C1  BNZ d   1       0.742   0.543  -0.378  0.00  0.00     0.000 A 
ATOM      2  C2  BNZ d   1       1.194  -0.672   0.065  0.00  0.00     0.000 A 
ATOM      3  C3  BNZ d   1       0.410  -1.463   0.857  0.00  0.00     0.000 A 
ATOM      4  C4  BNZ d   1      -0.807  -1.023   1.237  0.00  0.00     0.000 A 
ATOM      5  C5  BNZ d   1      -1.273   0.203   0.806  0.00  0.00     0.000 A 
ATOM      6  C6  BNZ d   1      -0.496   0.980  -0.023  0.00  0.00     0.000 A 
ENDROOT
TORSDOF 0
ENDMDL
