MODEL 1
REMARK minimizedAffinity -3.57252812
REMARK minimizedRMSD -1
REMARK  0 active torsions:
REMARK  status: ('A' for Active; 'I' for Inactive)
ROOT
ATOM      1  C1  BNZ d   1       0.914   0.170  -0.532  0.00  0.00     0.000 A 
ATOM      2  C2  BNZ d   1       2.216  -0.254  -0.517  0.00  0.00     0.000 A 
ATOM      3  C3  BNZ d   1       2.615  -1.260   0.319  0.00  0.00     0.000 A 
ATOM      4  C4  BNZ d   1       1.723  -1.811   1.166  0.00  0.00     0.000 A 
ATOM      5  C5  BNZ d   1       0.408  -1.388   1.170  0.00  0.00     0.000 A 
ATOM      6  C6  BNZ d   1       0.002  -0.403   0.300  0.00  0.00     0.000 A 
ENDROOT
TORSDOF 0
ENDMDL
