MODEL 1
REMARK minimizedAffinity -3.51431251
REMARK minimizedRMSD -1
REMARK  0 active torsions:
REMARK  status: ('A' for Active; 'I' for Inactive)
ROOT
ATOM      1  C1  BNZ d   1      -0.849   0.671  -0.008  0.00  0.00     0.000 A 
ATOM      2  C2  BNZ d   1       0.167  -0.102  -0.504  0.00  0.00     0.000 A 
ATOM      3  C3  BNZ d   1       0.472  -1.306   0.067  0.00  0.00     0.000 A 
ATOM      4  C4  BNZ d   1      -0.211  -1.717   1.154  0.00  0.00     0.000 A 
ATOM      5  C5  BNZ d   1      -1.232  -0.945   1.671  0.00  0.00     0.000 A 
ATOM      6  C6  BNZ d   1      -1.563   0.249   1.071  0.00  0.00     0.000 A 
ENDROOT
TORSDOF 0
ENDMDL
