MODEL 1
REMARK minimizedAffinity -3.72871447
REMARK minimizedRMSD -1
REMARK  0 active torsions:
REMARK  status: ('A' for Active; 'I' for Inactive)
ROOT
ATOM      1  C1  BNZ d   1      -0.597  -0.485  -0.089  0.00  0.00     0.000 A 
ATOM      2  C2  BNZ d   1      -0.380  -1.645   0.606  0.00  0.00     0.000 A 
ATOM      3  C3  BNZ d   1       0.891  -2.079   0.863  0.00  0.00     0.000 A 
ATOM      4  C4  BNZ d   1       1.940  -1.375   0.392  0.00  0.00     0.000 A 
ATOM      5  C5  BNZ d   1       1.737  -0.208  -0.318  0.00  0.00     0.000 A 
ATOM      6  C6  BNZ d   1       0.458   0.246  -0.542  0.00  0.00     0.000 A 
ENDROOT
TORSDOF 0
ENDMDL
