MODEL 1
REMARK minimizedAffinity -4.12148142
REMARK minimizedRMSD -1
REMARK  0 active torsions:
REMARK  status: ('A' for Active; 'I' for Inactive)
ROOT
ATOM      1  C1  BNZ d   1       0.315  -2.291   0.135  0.00  0.00     0.000 A 
ATOM      2  C2  BNZ d   1       1.658  -2.460   0.344  0.00  0.00     0.000 A 
ATOM      3  C3  BNZ d   1       2.513  -1.395   0.298  0.00  0.00     0.000 A 
ATOM      4  C4  BNZ d   1       2.032  -0.171   0.003  0.00  0.00     0.000 A 
ATOM      5  C5  BNZ d   1       0.682   0.015  -0.220  0.00  0.00     0.000 A 
ATOM      6  C6  BNZ d   1      -0.182  -1.053  -0.134  0.00  0.00     0.000 A 
ENDROOT
TORSDOF 0
ENDMDL
