MODEL 1
REMARK minimizedAffinity -2.01787734
REMARK minimizedRMSD -1
REMARK  0 active torsions:
REMARK  status: ('A' for Active; 'I' for Inactive)
ROOT
ATOM      1  C1  BNZ d   1      -0.552   2.413  -2.612  0.00  0.00     0.000 A 
ATOM      2  C2  BNZ d   1       0.396   3.329  -2.982  0.00  0.00     0.000 A 
ATOM      3  C3  BNZ d   1       0.204   4.135  -4.069  0.00  0.00     0.000 A 
ATOM      4  C4  BNZ d   1      -0.916   3.997  -4.808  0.00  0.00     0.000 A 
ATOM      5  C5  BNZ d   1      -1.877   3.071  -4.453  0.00  0.00     0.000 A 
ATOM      6  C6  BNZ d   1      -1.698   2.289  -3.336  0.00  0.00     0.000 A 
ENDROOT
TORSDOF 0
ENDMDL
