MODEL 1
REMARK minimizedAffinity -3.55790901
REMARK minimizedRMSD -1
REMARK  0 active torsions:
REMARK  status: ('A' for Active; 'I' for Inactive)
ROOT
ATOM      1  C1  BNZ d   1       2.119  -0.291   0.017  0.00  0.00     0.000 A 
ATOM      2  C2  BNZ d   1       0.825   0.152  -0.048  0.00  0.00     0.000 A 
ATOM      3  C3  BNZ d   1      -0.198  -0.599   0.462  0.00  0.00     0.000 A 
ATOM      4  C4  BNZ d   1       0.070  -1.807   0.998  0.00  0.00     0.000 A 
ATOM      5  C5  BNZ d   1       1.368  -2.271   1.063  0.00  0.00     0.000 A 
ATOM      6  C6  BNZ d   1       2.399  -1.496   0.584  0.00  0.00     0.000 A 
ENDROOT
TORSDOF 0
ENDMDL
