MODEL 1
REMARK minimizedAffinity -3.23782611
REMARK minimizedRMSD -1
REMARK  0 active torsions:
REMARK  status: ('A' for Active; 'I' for Inactive)
ROOT
ATOM      1  C1  BNZ d   1       2.097  -1.506   0.544  0.00  0.00     0.000 A 
ATOM      2  C2  BNZ d   1       1.478  -2.720   0.670  0.00  0.00     0.000 A 
ATOM      3  C3  BNZ d   1       0.115  -2.820   0.615  0.00  0.00     0.000 A 
ATOM      4  C4  BNZ d   1      -0.626  -1.703   0.474  0.00  0.00     0.000 A 
ATOM      5  C5  BNZ d   1      -0.017  -0.470   0.355  0.00  0.00     0.000 A 
ATOM      6  C6  BNZ d   1       1.356  -0.377   0.372  0.00  0.00     0.000 A 
ENDROOT
TORSDOF 0
ENDMDL
