MODEL 1
REMARK minimizedAffinity -4.58916569
REMARK minimizedRMSD -1
REMARK  0 active torsions:
REMARK  status: ('A' for Active; 'I' for Inactive)
ROOT
ATOM      1  C1  BNZ d   1       2.281   0.013  -0.098  0.00  0.00     0.000 A 
ATOM      2  C2  BNZ d   1       2.722  -1.078   0.602  0.00  0.00     0.000 A 
ATOM      3  C3  BNZ d   1       1.865  -2.089   0.936  0.00  0.00     0.000 A 
ATOM      4  C4  BNZ d   1       0.561  -1.990   0.605  0.00  0.00     0.000 A 
ATOM      5  C5  BNZ d   1       0.099  -0.892  -0.093  0.00  0.00     0.000 A 
ATOM      6  C6  BNZ d   1       0.972   0.105  -0.461  0.00  0.00     0.000 A 
ENDROOT
TORSDOF 0
ENDMDL
