MODEL 1
REMARK minimizedAffinity -4.48571157
REMARK minimizedRMSD -1
REMARK  0 active torsions:
REMARK  status: ('A' for Active; 'I' for Inactive)
ROOT
ATOM      1  C1  BNZ d   1       2.303  -0.543   0.476  0.00  0.00     0.000 A 
ATOM      2  C2  BNZ d   1       2.845  -1.696   0.979  0.00  0.00     0.000 A 
ATOM      3  C3  BNZ d   1       2.135  -2.864   0.971  0.00  0.00     0.000 A 
ATOM      4  C4  BNZ d   1       0.872  -2.869   0.498  0.00  0.00     0.000 A 
ATOM      5  C5  BNZ d   1       0.308  -1.713  -0.003  0.00  0.00     0.000 A 
ATOM      6  C6  BNZ d   1       1.040  -0.547  -0.030  0.00  0.00     0.000 A 
ENDROOT
TORSDOF 0
ENDMDL
