MODEL 1
REMARK minimizedAffinity -0.773590386
REMARK minimizedRMSD -1
REMARK  0 active torsions:
REMARK  status: ('A' for Active; 'I' for Inactive)
ROOT
ATOM      1  C1  BNZ d   1       2.036  -0.565   0.652  0.00  0.00     0.000 A 
ATOM      2  C2  BNZ d   1       1.049  -1.515   0.631  0.00  0.00     0.000 A 
ATOM      3  C3  BNZ d   1      -0.213  -1.204   0.208  0.00  0.00     0.000 A 
ATOM      4  C4  BNZ d   1      -0.497   0.064  -0.154  0.00  0.00     0.000 A 
ATOM      5  C5  BNZ d   1       0.484   1.035  -0.129  0.00  0.00     0.000 A 
ATOM      6  C6  BNZ d   1       1.763   0.709   0.260  0.00  0.00     0.000 A 
ENDROOT
TORSDOF 0
ENDMDL
