MODEL 1
REMARK minimizedAffinity 2.74961281
REMARK minimizedRMSD -1
REMARK  0 active torsions:
REMARK  status: ('A' for Active; 'I' for Inactive)
ROOT
ATOM      1  C   UNL d   1       2.216   0.971   1.766  0.00  0.00     0.172 C 
ATOM      2  N   UNL d   1       1.175   1.577   0.970  0.00  0.00    -0.070 N 
ATOM      3  C1  UNL d   1       0.827   1.210  -0.303  0.00  0.00    -0.004 A 
ATOM      4  C2  UNL d   1      -0.206   2.027  -0.710  0.00  0.00    -0.047 A 
ATOM      5  C3  UNL d   1      -0.487   2.916   0.354  0.00  0.00    -0.047 A 
ATOM      6  C4  UNL d   1       0.382   2.616   1.382  0.00  0.00    -0.004 A 
ENDROOT
TORSDOF 0
ENDMDL
