MODEL 1
REMARK minimizedAffinity -0.424300522
REMARK minimizedRMSD -1
REMARK  0 active torsions:
REMARK  status: ('A' for Active; 'I' for Inactive)
ROOT
ATOM      1  C   UNL d   1       1.796  -0.112   1.430  0.00  0.00     0.172 C 
ATOM      2  N   UNL d   1       0.762   0.442   0.588  0.00  0.00    -0.070 N 
ATOM      3  C1  UNL d   1      -0.095  -0.276  -0.201  0.00  0.00    -0.004 A 
ATOM      4  C2  UNL d   1      -0.926   0.616  -0.843  0.00  0.00    -0.047 A 
ATOM      5  C3  UNL d   1      -0.556   1.916  -0.425  0.00  0.00    -0.047 A 
ATOM      6  C4  UNL d   1       0.492   1.779   0.461  0.00  0.00    -0.004 A 
ENDROOT
TORSDOF 0
ENDMDL
