MODEL 1
REMARK minimizedAffinity 1.33108425
REMARK minimizedRMSD -1
REMARK  0 active torsions:
REMARK  status: ('A' for Active; 'I' for Inactive)
ROOT
ATOM      1  C   UNL d   1      -5.997   4.497  -2.256  0.00  0.00     0.172 C 
ATOM      2  N   UNL d   1      -5.251   3.668  -3.173  0.00  0.00    -0.070 N 
ATOM      3  C1  UNL d   1      -4.976   2.337  -3.003  0.00  0.00    -0.004 A 
ATOM      4  C2  UNL d   1      -4.246   1.914  -4.093  0.00  0.00    -0.047 A 
ATOM      5  C3  UNL d   1      -4.077   3.029  -4.948  0.00  0.00    -0.047 A 
ATOM      6  C4  UNL d   1      -4.709   4.101  -4.354  0.00  0.00    -0.004 A 
ENDROOT
TORSDOF 0
ENDMDL
