MODEL 1
REMARK minimizedAffinity 0.196853936
REMARK minimizedRMSD -1
REMARK  0 active torsions:
REMARK  status: ('A' for Active; 'I' for Inactive)
ROOT
ATOM      1  C   UNL d   1      -3.180   4.149   2.424  0.00  0.00     0.172 C 
ATOM      2  N   UNL d   1      -3.267   2.900   1.705  0.00  0.00    -0.070 N 
ATOM      3  C1  UNL d   1      -4.397   2.141   1.558  0.00  0.00    -0.004 A 
ATOM      4  C2  UNL d   1      -4.066   1.032   0.810  0.00  0.00    -0.047 A 
ATOM      5  C3  UNL d   1      -2.689   1.127   0.498  0.00  0.00    -0.047 A 
ATOM      6  C4  UNL d   1      -2.219   2.293   1.065  0.00  0.00    -0.004 A 
ENDROOT
TORSDOF 0
ENDMDL
