MODEL 1
REMARK minimizedAffinity 3.49667144
REMARK minimizedRMSD -1
REMARK  0 active torsions:
REMARK  status: ('A' for Active; 'I' for Inactive)
ROOT
ATOM      1  C   UNL d   1       1.999   1.723   0.354  0.00  0.00     0.172 C 
ATOM      2  N   UNL d   1       2.505   0.373   0.434  0.00  0.00    -0.070 N 
ATOM      3  C1  UNL d   1       2.450  -0.561  -0.567  0.00  0.00    -0.004 A 
ATOM      4  C2  UNL d   1       3.037  -1.716  -0.098  0.00  0.00    -0.047 A 
ATOM      5  C3  UNL d   1       3.458  -1.469   1.230  0.00  0.00    -0.047 A 
ATOM      6  C4  UNL d   1       3.117  -0.169   1.534  0.00  0.00    -0.004 A 
ENDROOT
TORSDOF 0
ENDMDL
