MODEL 1
REMARK minimizedAffinity 2.69228911
REMARK minimizedRMSD -1
REMARK  0 active torsions:
REMARK  status: ('A' for Active; 'I' for Inactive)
ROOT
ATOM      1  C   UNL d   1      -0.132  -2.611  -1.002  0.00  0.00     0.172 C 
ATOM      2  N   UNL d   1       1.053  -1.963  -0.490  0.00  0.00    -0.070 N 
ATOM      3  C1  UNL d   1       2.094  -2.588   0.144  0.00  0.00    -0.004 A 
ATOM      4  C2  UNL d   1       3.024  -1.626   0.475  0.00  0.00    -0.047 A 
ATOM      5  C3  UNL d   1       2.524  -0.381   0.026  0.00  0.00    -0.047 A 
ATOM      6  C4  UNL d   1       1.303  -0.618  -0.568  0.00  0.00    -0.004 A 
ENDROOT
TORSDOF 0
ENDMDL
