MODEL 1
REMARK minimizedAffinity 2.29040003
REMARK minimizedRMSD -1
REMARK  0 active torsions:
REMARK  status: ('A' for Active; 'I' for Inactive)
ROOT
ATOM      1  C   UNL d   1       1.887   1.999   0.348  0.00  0.00     0.172 C 
ATOM      2  N   UNL d   1       0.713   2.214   1.160  0.00  0.00    -0.070 N 
ATOM      3  C1  UNL d   1      -0.274   3.130   0.910  0.00  0.00    -0.004 A 
ATOM      4  C2  UNL d   1      -1.213   3.023   1.912  0.00  0.00    -0.047 A 
ATOM      5  C3  UNL d   1      -0.776   2.008   2.796  0.00  0.00    -0.047 A 
ATOM      6  C4  UNL d   1       0.419   1.525   2.307  0.00  0.00    -0.004 A 
ENDROOT
TORSDOF 0
ENDMDL
