MODEL 1
REMARK minimizedAffinity -2.56771612
REMARK minimizedRMSD -1
REMARK  0 active torsions:
REMARK  status: ('A' for Active; 'I' for Inactive)
ROOT
ATOM      1  C   UNL d   1       0.685   2.097   0.189  0.00  0.00     0.172 C 
ATOM      2  N   UNL d   1      -0.445   2.019   1.084  0.00  0.00    -0.070 N 
ATOM      3  C1  UNL d   1      -0.433   1.474   2.340  0.00  0.00    -0.004 A 
ATOM      4  C2  UNL d   1      -1.702   1.594   2.865  0.00  0.00    -0.047 A 
ATOM      5  C3  UNL d   1      -2.505   2.232   1.889  0.00  0.00    -0.047 A 
ATOM      6  C4  UNL d   1      -1.702   2.484   0.797  0.00  0.00    -0.004 A 
ENDROOT
TORSDOF 0
ENDMDL
