MODEL 1
REMARK minimizedAffinity -0.352670401
REMARK minimizedRMSD -1
REMARK  0 active torsions:
REMARK  status: ('A' for Active; 'I' for Inactive)
ROOT
ATOM      1  C   UNL d   1      -1.664   1.263   1.164  0.00  0.00     0.172 C 
ATOM      2  N   UNL d   1      -3.026   0.928   0.821  0.00  0.00    -0.070 N 
ATOM      3  C1  UNL d   1      -3.432   0.322  -0.338  0.00  0.00    -0.004 A 
ATOM      4  C2  UNL d   1      -4.801   0.177  -0.282  0.00  0.00    -0.047 A 
ATOM      5  C3  UNL d   1      -5.233   0.714   0.954  0.00  0.00    -0.047 A 
ATOM      6  C4  UNL d   1      -4.114   1.172   1.616  0.00  0.00    -0.004 A 
ENDROOT
TORSDOF 0
ENDMDL
