MODEL 1
REMARK minimizedAffinity 2.54448605
REMARK minimizedRMSD -1
REMARK  0 active torsions:
REMARK  status: ('A' for Active; 'I' for Inactive)
ROOT
ATOM      1  C   UNL d   1      -5.263   0.511   0.478  0.00  0.00     0.172 C 
ATOM      2  N   UNL d   1      -4.324   1.314   1.226  0.00  0.00    -0.070 N 
ATOM      3  C1  UNL d   1      -4.641   2.392   2.008  0.00  0.00    -0.004 A 
ATOM      4  C2  UNL d   1      -3.472   2.880   2.548  0.00  0.00    -0.047 A 
ATOM      5  C3  UNL d   1      -2.414   2.068   2.074  0.00  0.00    -0.047 A 
ATOM      6  C4  UNL d   1      -2.970   1.106   1.257  0.00  0.00    -0.004 A 
ENDROOT
TORSDOF 0
ENDMDL
