MODEL 1
REMARK minimizedAffinity 1.9587121
REMARK minimizedRMSD -1
REMARK  0 active torsions:
REMARK  status: ('A' for Active; 'I' for Inactive)
ROOT
ATOM      1  C   UNL d   1       1.683   1.670   0.136  0.00  0.00     0.172 C 
ATOM      2  N   UNL d   1       2.376   0.407   0.235  0.00  0.00    -0.070 N 
ATOM      3  C1  UNL d   1       3.314   0.082   1.178  0.00  0.00    -0.004 A 
ATOM      4  C2  UNL d   1       3.732  -1.207   0.932  0.00  0.00    -0.047 A 
ATOM      5  C3  UNL d   1       3.022  -1.674  -0.200  0.00  0.00    -0.047 A 
ATOM      6  C4  UNL d   1       2.189  -0.655  -0.611  0.00  0.00    -0.004 A 
ENDROOT
TORSDOF 0
ENDMDL
