MODEL 1
REMARK minimizedAffinity 0.584613323
REMARK minimizedRMSD -1
REMARK  0 active torsions:
REMARK  status: ('A' for Active; 'I' for Inactive)
ROOT
ATOM      1  C   UNL d   1       0.436  -1.259  -2.905  0.00  0.00     0.172 C 
ATOM      2  N   UNL d   1       0.791  -1.869  -1.645  0.00  0.00    -0.070 N 
ATOM      3  C1  UNL d   1       0.071  -2.836  -0.995  0.00  0.00    -0.004 A 
ATOM      4  C2  UNL d   1       0.741  -3.152   0.167  0.00  0.00    -0.047 A 
ATOM      5  C3  UNL d   1       1.903  -2.347   0.218  0.00  0.00    -0.047 A 
ATOM      6  C4  UNL d   1       1.909  -1.562  -0.916  0.00  0.00    -0.004 A 
ENDROOT
TORSDOF 0
ENDMDL
