MODEL 1
REMARK minimizedAffinity 9.88129997
REMARK minimizedRMSD -1
REMARK  0 active torsions:
REMARK  status: ('A' for Active; 'I' for Inactive)
ROOT
ATOM      1  C   UNL d   1      -4.110   1.423  -4.797  0.00  0.00     0.172 C 
ATOM      2  N   UNL d   1      -4.829   2.101  -3.744  0.00  0.00    -0.070 N 
ATOM      3  C1  UNL d   1      -5.091   3.444  -3.694  0.00  0.00    -0.004 A 
ATOM      4  C2  UNL d   1      -5.797   3.694  -2.537  0.00  0.00    -0.047 A 
ATOM      5  C3  UNL d   1      -5.964   2.458  -1.868  0.00  0.00    -0.047 A 
ATOM      6  C4  UNL d   1      -5.356   1.489  -2.638  0.00  0.00    -0.004 A 
ENDROOT
TORSDOF 0
ENDMDL
