MODEL 1
REMARK minimizedAffinity 2.21191573
REMARK minimizedRMSD -1
REMARK  0 active torsions:
REMARK  status: ('A' for Active; 'I' for Inactive)
ROOT
ATOM      1  C   UNL d   1       0.337  -3.479  -0.431  0.00  0.00     0.172 C 
ATOM      2  N   UNL d   1       1.419  -2.614  -0.021  0.00  0.00    -0.070 N 
ATOM      3  C1  UNL d   1       2.103  -2.697   1.162  0.00  0.00    -0.004 A 
ATOM      4  C2  UNL d   1       3.053  -1.699   1.171  0.00  0.00    -0.047 A 
ATOM      5  C3  UNL d   1       2.936  -0.992  -0.049  0.00  0.00    -0.047 A 
ATOM      6  C4  UNL d   1       1.917  -1.579  -0.768  0.00  0.00    -0.004 A 
ENDROOT
TORSDOF 0
ENDMDL
