MODEL 1
REMARK minimizedAffinity 16.6381016
REMARK minimizedRMSD -1
REMARK  1 active torsions:
REMARK  status: ('A' for Active; 'I' for Inactive)
REMARK    1  A    between atoms: C1_2  and  C2_3 
ROOT
ATOM      1  C2  UNL d   1      -1.242   0.823   3.670  0.00  0.00    -0.077 A 
ATOM      2  C3  UNL d   1      -2.482   0.181   3.541  0.00  0.00     0.002 A 
ATOM      3  C4  UNL d   1      -3.665   0.922   3.539  0.00  0.00     0.002 A 
ATOM      4  C5  UNL d   1      -3.620   2.309   3.663  0.00  0.00    -0.004 A 
ATOM      5  C6  UNL d   1      -2.392   2.957   3.794  0.00  0.00     0.002 A 
ATOM      6  C7  UNL d   1      -1.209   2.217   3.797  0.00  0.00     0.002 A 
ENDROOT
BRANCH   1   7
ATOM      7  C1  UNL d   1       0.037   0.030   3.622  0.00  0.00     0.055 C 
ATOM      8  C   UNL d   1       0.686  -0.059   4.996  0.00  0.00     0.019 C 
ENDBRANCH   1   7
TORSDOF 1
ENDMDL
