MODEL 1
REMARK minimizedAffinity 2.74198294
REMARK minimizedRMSD -1
REMARK  1 active torsions:
REMARK  status: ('A' for Active; 'I' for Inactive)
REMARK    1  A    between atoms: C1_2  and  C2_3 
ROOT
ATOM      1  C2  UNL d   1       3.859   1.224  -0.352  0.00  0.00    -0.077 A 
ATOM      2  C3  UNL d   1       2.790   1.965   0.169  0.00  0.00     0.002 A 
ATOM      3  C4  UNL d   1       2.138   1.545   1.330  0.00  0.00     0.002 A 
ATOM      4  C5  UNL d   1       2.551   0.385   1.981  0.00  0.00    -0.004 A 
ATOM      5  C6  UNL d   1       3.613  -0.361   1.470  0.00  0.00     0.002 A 
ATOM      6  C7  UNL d   1       4.265   0.058   0.309  0.00  0.00     0.002 A 
ENDROOT
BRANCH   1   7
ATOM      7  C1  UNL d   1       4.595   1.703  -1.576  0.00  0.00     0.055 C 
ATOM      8  C   UNL d   1       3.666   2.444  -2.526  0.00  0.00     0.019 C 
ENDBRANCH   1   7
TORSDOF 1
ENDMDL
