MODEL 1
REMARK minimizedAffinity 9.51059628
REMARK minimizedRMSD -1
REMARK  1 active torsions:
REMARK  status: ('A' for Active; 'I' for Inactive)
REMARK    1  A    between atoms: C1_2  and  C2_3 
ROOT
ATOM      1  C2  UNL d   1      -0.574  -0.996   2.456  0.00  0.00    -0.077 A 
ATOM      2  C3  UNL d   1      -0.938  -2.034   3.325  0.00  0.00     0.002 A 
ATOM      3  C4  UNL d   1      -1.583  -3.171   2.836  0.00  0.00     0.002 A 
ATOM      4  C5  UNL d   1      -1.865  -3.283   1.476  0.00  0.00    -0.004 A 
ATOM      5  C6  UNL d   1      -1.509  -2.256   0.604  0.00  0.00     0.002 A 
ATOM      6  C7  UNL d   1      -0.865  -1.117   1.091  0.00  0.00     0.002 A 
ENDROOT
BRANCH   1   7
ATOM      7  C1  UNL d   1       0.165   0.210   2.974  0.00  0.00     0.055 C 
ATOM      8  C   UNL d   1       0.913   0.924   1.857  0.00  0.00     0.019 C 
ENDBRANCH   1   7
TORSDOF 1
ENDMDL
