MODEL 1
REMARK minimizedAffinity 11.4725323
REMARK minimizedRMSD -1
REMARK  1 active torsions:
REMARK  status: ('A' for Active; 'I' for Inactive)
REMARK    1  A    between atoms: C1_2  and  C2_3 
ROOT
ATOM      1  C2  UNL d   1       3.125   1.139  -0.851  0.00  0.00    -0.077 A 
ATOM      2  C3  UNL d   1       2.241   2.081  -0.307  0.00  0.00     0.002 A 
ATOM      3  C4  UNL d   1       1.610   1.836   0.915  0.00  0.00     0.002 A 
ATOM      4  C5  UNL d   1       1.860   0.650   1.603  0.00  0.00    -0.004 A 
ATOM      5  C6  UNL d   1       2.736  -0.294   1.070  0.00  0.00     0.002 A 
ATOM      6  C7  UNL d   1       3.366  -0.051  -0.151  0.00  0.00     0.002 A 
ENDROOT
BRANCH   1   7
ATOM      7  C1  UNL d   1       3.844   1.424  -2.144  0.00  0.00     0.055 C 
ATOM      8  C   UNL d   1       2.997   2.285  -3.069  0.00  0.00     0.019 C 
ENDBRANCH   1   7
TORSDOF 1
ENDMDL
