MODEL 1
REMARK minimizedAffinity 11.4955397
REMARK minimizedRMSD -1
REMARK  1 active torsions:
REMARK  status: ('A' for Active; 'I' for Inactive)
REMARK    1  A    between atoms: C1_2  and  C2_3 
ROOT
ATOM      1  C2  UNL d   1      -4.368   3.900   4.038  0.00  0.00    -0.077 A 
ATOM      2  C3  UNL d   1      -5.303   4.650   3.311  0.00  0.00     0.002 A 
ATOM      3  C4  UNL d   1      -6.000   5.694   3.922  0.00  0.00     0.002 A 
ATOM      4  C5  UNL d   1      -5.766   6.000   5.261  0.00  0.00    -0.004 A 
ATOM      5  C6  UNL d   1      -4.839   5.259   5.993  0.00  0.00     0.002 A 
ATOM      6  C7  UNL d   1      -4.143   4.214   5.384  0.00  0.00     0.002 A 
ENDROOT
BRANCH   1   7
ATOM      7  C1  UNL d   1      -3.579   2.806   3.367  0.00  0.00     0.055 C 
ATOM      8  C   UNL d   1      -4.104   1.430   3.751  0.00  0.00     0.019 C 
ENDBRANCH   1   7
TORSDOF 1
ENDMDL
