MODEL 1
REMARK minimizedAffinity 4.77491713
REMARK minimizedRMSD -1
REMARK  1 active torsions:
REMARK  status: ('A' for Active; 'I' for Inactive)
REMARK    1  A    between atoms: C1_2  and  C2_3 
ROOT
ATOM      1  C2  UNL d   1      -4.616  -3.865  -3.018  0.00  0.00    -0.077 A 
ATOM      2  C3  UNL d   1      -3.477  -3.053  -3.096  0.00  0.00     0.002 A 
ATOM      3  C4  UNL d   1      -2.223  -3.558  -2.744  0.00  0.00     0.002 A 
ATOM      4  C5  UNL d   1      -2.098  -4.878  -2.316  0.00  0.00    -0.004 A 
ATOM      5  C6  UNL d   1      -3.225  -5.694  -2.234  0.00  0.00     0.002 A 
ATOM      6  C7  UNL d   1      -4.479  -5.190  -2.584  0.00  0.00     0.002 A 
ENDROOT
BRANCH   1   7
ATOM      7  C1  UNL d   1      -5.961  -3.337  -3.444  0.00  0.00     0.055 C 
ATOM      8  C   UNL d   1      -5.973  -2.982  -4.924  0.00  0.00     0.019 C 
ENDBRANCH   1   7
TORSDOF 1
ENDMDL
