MODEL 1
REMARK minimizedAffinity 14.2300568
REMARK minimizedRMSD -1
REMARK  1 active torsions:
REMARK  status: ('A' for Active; 'I' for Inactive)
REMARK    1  A    between atoms: C1_2  and  C2_3 
ROOT
ATOM      1  C2  UNL d   1      -3.198  -4.563  -2.786  0.00  0.00    -0.077 A 
ATOM      2  C3  UNL d   1      -3.865  -5.730  -2.390  0.00  0.00     0.002 A 
ATOM      3  C4  UNL d   1      -5.259  -5.802  -2.448  0.00  0.00     0.002 A 
ATOM      4  C5  UNL d   1      -5.995  -4.711  -2.904  0.00  0.00    -0.004 A 
ATOM      5  C6  UNL d   1      -5.341  -3.544  -3.298  0.00  0.00     0.002 A 
ATOM      6  C7  UNL d   1      -3.949  -3.471  -3.240  0.00  0.00     0.002 A 
ENDROOT
BRANCH   1   7
ATOM      7  C1  UNL d   1      -1.693  -4.501  -2.771  0.00  0.00     0.055 C 
ATOM      8  C   UNL d   1      -1.124  -4.525  -4.182  0.00  0.00     0.019 C 
ENDBRANCH   1   7
TORSDOF 1
ENDMDL
