MODEL 1
REMARK minimizedAffinity 4.15550232
REMARK minimizedRMSD -1
REMARK  1 active torsions:
REMARK  status: ('A' for Active; 'I' for Inactive)
REMARK    1  A    between atoms: C1_2  and  C2_3 
ROOT
ATOM      1  C2  UNL d   1      -5.712   4.919   3.394  0.00  0.00    -0.077 A 
ATOM      2  C3  UNL d   1      -5.998   5.999   2.548  0.00  0.00     0.002 A 
ATOM      3  C4  UNL d   1      -5.975   5.837   1.161  0.00  0.00     0.002 A 
ATOM      4  C5  UNL d   1      -5.670   4.595   0.609  0.00  0.00    -0.004 A 
ATOM      5  C6  UNL d   1      -5.382   3.514   1.441  0.00  0.00     0.002 A 
ATOM      6  C7  UNL d   1      -5.403   3.675   2.827  0.00  0.00     0.002 A 
ENDROOT
BRANCH   1   7
ATOM      7  C1  UNL d   1      -5.784   5.079   4.890  0.00  0.00     0.055 C 
ATOM      8  C   UNL d   1      -4.600   4.414   5.576  0.00  0.00     0.019 C 
ENDBRANCH   1   7
TORSDOF 1
ENDMDL
