MODEL 1
REMARK minimizedAffinity 7.39728355
REMARK minimizedRMSD -1
REMARK  1 active torsions:
REMARK  status: ('A' for Active; 'I' for Inactive)
REMARK    1  A    between atoms: C1_2  and  C2_3 
ROOT
ATOM      1  C2  UNL d   1       3.960   1.585  -2.008  0.00  0.00    -0.077 A 
ATOM      2  C3  UNL d   1       5.253   1.749  -2.524  0.00  0.00     0.002 A 
ATOM      3  C4  UNL d   1       5.454   2.439  -3.721  0.00  0.00     0.002 A 
ATOM      4  C5  UNL d   1       4.368   2.975  -4.409  0.00  0.00    -0.004 A 
ATOM      5  C6  UNL d   1       3.078   2.816  -3.906  0.00  0.00     0.002 A 
ATOM      6  C7  UNL d   1       2.874   2.125  -2.710  0.00  0.00     0.002 A 
ENDROOT
BRANCH   1   7
ATOM      7  C1  UNL d   1       3.745   0.884  -0.692  0.00  0.00     0.055 C 
ATOM      8  C   UNL d   1       2.987   1.767   0.288  0.00  0.00     0.019 C 
ENDBRANCH   1   7
TORSDOF 1
ENDMDL
