MODEL 1
REMARK minimizedAffinity -2.55433512
REMARK minimizedRMSD -1
REMARK  0 active torsions:
REMARK  status: ('A' for Active; 'I' for Inactive)
ROOT
ATOM      1  C2' OXE d   1       1.283   0.636   0.375  0.00  0.00     0.078 C 
ATOM      2  C1' OXE d   1       0.098   1.088  -2.129  0.00  0.00     0.078 C 
ATOM      3  C1  OXE d   1      -0.711   0.351  -1.091  0.00  0.00    -0.078 A 
ATOM      4  C2  OXE d   1      -0.106   0.093   0.116  0.00  0.00    -0.078 A 
ATOM      5  C3  OXE d   1      -0.827  -0.535   1.128  0.00  0.00     0.003 A 
ATOM      6  C4  OXE d   1      -2.107  -1.042   0.876  0.00  0.00    -0.002 A 
ATOM      7  C5  OXE d   1      -2.727  -0.825  -0.359  0.00  0.00    -0.002 A 
ATOM      8  C6  OXE d   1      -2.060  -0.095  -1.337  0.00  0.00     0.003 A 
ENDROOT
TORSDOF 0
ENDMDL
