MODEL 1
REMARK minimizedAffinity -0.394256771
REMARK minimizedRMSD -1
REMARK  0 active torsions:
REMARK  status: ('A' for Active; 'I' for Inactive)
ROOT
ATOM      1  C2' OXE d   1      -0.748   0.014  -1.093  0.00  0.00     0.078 C 
ATOM      2  C1' OXE d   1       0.398  -1.266   1.126  0.00  0.00     0.078 C 
ATOM      3  C1  OXE d   1       0.878   0.124   0.791  0.00  0.00    -0.078 A 
ATOM      4  C2  OXE d   1       0.345   0.725  -0.324  0.00  0.00    -0.078 A 
ATOM      5  C3  OXE d   1       0.712   2.028  -0.647  0.00  0.00     0.003 A 
ATOM      6  C4  OXE d   1       1.731   2.674   0.064  0.00  0.00    -0.002 A 
ATOM      7  C5  OXE d   1       2.315   2.064   1.180  0.00  0.00    -0.002 A 
ATOM      8  C6  OXE d   1       1.870   0.809   1.581  0.00  0.00     0.003 A 
ENDROOT
TORSDOF 0
ENDMDL
