MODEL 1
REMARK minimizedAffinity -3.65058684
REMARK minimizedRMSD -1
REMARK  0 active torsions:
REMARK  status: ('A' for Active; 'I' for Inactive)
ROOT
ATOM      1  C2' OXE d   1      -2.931  -1.066   0.053  0.00  0.00     0.078 C 
ATOM      2  C1' OXE d   1      -1.197  -2.129   1.988  0.00  0.00     0.078 C 
ATOM      3  C1  OXE d   1      -0.616  -1.184   0.966  0.00  0.00    -0.078 A 
ATOM      4  C2  OXE d   1      -1.462  -0.705  -0.005  0.00  0.00    -0.078 A 
ATOM      5  C3  OXE d   1      -0.990   0.212  -0.939  0.00  0.00     0.003 A 
ATOM      6  C4  OXE d   1       0.372   0.533  -0.992  0.00  0.00    -0.002 A 
ATOM      7  C5  OXE d   1       1.259   0.026  -0.037  0.00  0.00    -0.002 A 
ATOM      8  C6  OXE d   1       0.774  -0.799   0.973  0.00  0.00     0.003 A 
ENDROOT
TORSDOF 0
ENDMDL
