MODEL 1
REMARK minimizedAffinity -4.347013
REMARK minimizedRMSD -1
REMARK  0 active torsions:
REMARK  status: ('A' for Active; 'I' for Inactive)
ROOT
ATOM      1  C2' OXE d   1      -1.439   0.752  -1.906  0.00  0.00     0.078 C 
ATOM      2  C1' OXE d   1      -3.046  -0.529   0.006  0.00  0.00     0.078 C 
ATOM      3  C1  OXE d   1      -1.550  -0.611   0.176  0.00  0.00    -0.078 A 
ATOM      4  C2  OXE d   1      -0.771  -0.022  -0.790  0.00  0.00    -0.078 A 
ATOM      5  C3  OXE d   1       0.614  -0.021  -0.653  0.00  0.00     0.003 A 
ATOM      6  C4  OXE d   1       1.225  -0.747   0.377  0.00  0.00    -0.002 A 
ATOM      7  C5  OXE d   1       0.450  -1.388   1.349  0.00  0.00    -0.002 A 
ATOM      8  C6  OXE d   1      -0.936  -1.294   1.287  0.00  0.00     0.003 A 
ENDROOT
TORSDOF 0
ENDMDL
