MODEL 1
REMARK minimizedAffinity -4.50490284
REMARK minimizedRMSD -1
REMARK  0 active torsions:
REMARK  status: ('A' for Active; 'I' for Inactive)
ROOT
ATOM      1  C2' OXE d   1       0.454   1.421   0.377  0.00  0.00     0.078 C 
ATOM      2  C1' OXE d   1       0.488  -0.291  -1.847  0.00  0.00     0.078 C 
ATOM      3  C1  OXE d   1      -0.769  -0.242  -1.016  0.00  0.00    -0.078 A 
ATOM      4  C2  OXE d   1      -0.761   0.563   0.098  0.00  0.00    -0.078 A 
ATOM      5  C3  OXE d   1      -1.914   0.687   0.868  0.00  0.00     0.003 A 
ATOM      6  C4  OXE d   1      -3.029  -0.118   0.608  0.00  0.00    -0.002 A 
ATOM      7  C5  OXE d   1      -3.045  -0.975  -0.497  0.00  0.00    -0.002 A 
ATOM      8  C6  OXE d   1      -1.941  -1.017  -1.342  0.00  0.00     0.003 A 
ENDROOT
TORSDOF 0
ENDMDL
