MODEL 1
REMARK minimizedAffinity -3.91225553
REMARK minimizedRMSD -1
REMARK  0 active torsions:
REMARK  status: ('A' for Active; 'I' for Inactive)
ROOT
ATOM      1  C2' OXE d   1      -0.036   0.064  -2.620  0.00  0.00     0.078 C 
ATOM      2  C1' OXE d   1       1.170   0.393  -0.106  0.00  0.00     0.078 C 
ATOM      3  C1  OXE d   1      -0.320   0.162  -0.147  0.00  0.00    -0.078 A 
ATOM      4  C2  OXE d   1      -0.909   0.049  -1.383  0.00  0.00    -0.078 A 
ATOM      5  C3  OXE d   1      -2.271  -0.219  -1.476  0.00  0.00     0.003 A 
ATOM      6  C4  OXE d   1      -3.073  -0.222  -0.328  0.00  0.00    -0.002 A 
ATOM      7  C5  OXE d   1      -2.500  -0.069   0.938  0.00  0.00    -0.002 A 
ATOM      8  C6  OXE d   1      -1.122   0.081   1.049  0.00  0.00     0.003 A 
ENDROOT
TORSDOF 0
ENDMDL
