MODEL 1
REMARK minimizedAffinity -2.76028514
REMARK minimizedRMSD -1
REMARK  0 active torsions:
REMARK  status: ('A' for Active; 'I' for Inactive)
ROOT
ATOM      1  C2' OXE d   1       1.360   0.998   0.423  0.00  0.00     0.078 C 
ATOM      2  C1' OXE d   1       0.465  -1.524   1.271  0.00  0.00     0.078 C 
ATOM      3  C1  OXE d   1      -0.516  -0.636   0.546  0.00  0.00    -0.078 A 
ATOM      4  C2  OXE d   1      -0.083   0.614   0.176  0.00  0.00    -0.078 A 
ATOM      5  C3  OXE d   1      -0.930   1.452  -0.543  0.00  0.00     0.003 A 
ATOM      6  C4  OXE d   1      -2.267   1.093  -0.758  0.00  0.00    -0.002 A 
ATOM      7  C5  OXE d   1      -2.739  -0.160  -0.354  0.00  0.00    -0.002 A 
ATOM      8  C6  OXE d   1      -1.867  -1.051   0.260  0.00  0.00     0.003 A 
ENDROOT
TORSDOF 0
ENDMDL
