MODEL 1
REMARK minimizedAffinity -1.42789769
REMARK minimizedRMSD -1
REMARK  0 active torsions:
REMARK  status: ('A' for Active; 'I' for Inactive)
ROOT
ATOM      1  C2' OXE d   1       0.382  -0.016  -2.239  0.00  0.00     0.078 C 
ATOM      2  C1' OXE d   1       1.260   0.303   0.408  0.00  0.00     0.078 C 
ATOM      3  C1  OXE d   1      -0.208   0.041   0.181  0.00  0.00    -0.078 A 
ATOM      4  C2  OXE d   1      -0.636  -0.068  -1.120  0.00  0.00    -0.078 A 
ATOM      5  C3  OXE d   1      -1.971  -0.364  -1.384  0.00  0.00     0.003 A 
ATOM      6  C4  OXE d   1      -2.908  -0.400  -0.345  0.00  0.00    -0.002 A 
ATOM      7  C5  OXE d   1      -2.499  -0.252   0.985  0.00  0.00    -0.002 A 
ATOM      8  C6  OXE d   1      -1.149  -0.074   1.267  0.00  0.00     0.003 A 
ENDROOT
TORSDOF 0
ENDMDL
