MODEL 1
REMARK minimizedAffinity -4.3711648
REMARK minimizedRMSD -1
REMARK  0 active torsions:
REMARK  status: ('A' for Active; 'I' for Inactive)
ROOT
ATOM      1  C2' OXE d   1      -0.313   0.506  -2.077  0.00  0.00     0.078 C 
ATOM      2  C1' OXE d   1       0.960   0.238   0.411  0.00  0.00     0.078 C 
ATOM      3  C1  OXE d   1      -0.395  -0.402   0.241  0.00  0.00    -0.078 A 
ATOM      4  C2  OXE d   1      -1.032  -0.226  -0.964  0.00  0.00    -0.078 A 
ATOM      5  C3  OXE d   1      -2.259  -0.841  -1.192  0.00  0.00     0.003 A 
ATOM      6  C4  OXE d   1      -2.921  -1.508  -0.154  0.00  0.00    -0.002 A 
ATOM      7  C5  OXE d   1      -2.309  -1.664   1.094  0.00  0.00    -0.002 A 
ATOM      8  C6  OXE d   1      -1.030  -1.155   1.294  0.00  0.00     0.003 A 
ENDROOT
TORSDOF 0
ENDMDL
