MODEL 1
REMARK minimizedAffinity -3.85176516
REMARK minimizedRMSD -1
REMARK  0 active torsions:
REMARK  status: ('A' for Active; 'I' for Inactive)
ROOT
ATOM      1  C2' OXE d   1      -3.256  -0.919  -0.113  0.00  0.00     0.078 C 
ATOM      2  C1' OXE d   1      -2.063  -1.122  -2.645  0.00  0.00     0.078 C 
ATOM      3  C1  OXE d   1      -1.225  -0.580  -1.514  0.00  0.00    -0.078 A 
ATOM      4  C2  OXE d   1      -1.832  -0.441  -0.289  0.00  0.00    -0.078 A 
ATOM      5  C3  OXE d   1      -1.089   0.003   0.801  0.00  0.00     0.003 A 
ATOM      6  C4  OXE d   1       0.226   0.453   0.628  0.00  0.00    -0.002 A 
ATOM      7  C5  OXE d   1       0.850   0.357  -0.621  0.00  0.00    -0.002 A 
ATOM      8  C6  OXE d   1       0.154  -0.196  -1.690  0.00  0.00     0.003 A 
ENDROOT
TORSDOF 0
ENDMDL
