MODEL 1
REMARK minimizedAffinity -4.70155382
REMARK minimizedRMSD -1
REMARK  0 active torsions:
REMARK  status: ('A' for Active; 'I' for Inactive)
ROOT
ATOM      1  C2' OXE d   1      -0.220   0.824  -2.434  0.00  0.00     0.078 C 
ATOM      2  C1' OXE d   1       0.960   0.473   0.089  0.00  0.00     0.078 C 
ATOM      3  C1  OXE d   1      -0.460  -0.002  -0.096  0.00  0.00    -0.078 A 
ATOM      4  C2  OXE d   1      -1.045   0.216  -1.320  0.00  0.00    -0.078 A 
ATOM      5  C3  OXE d   1      -2.334  -0.251  -1.561  0.00  0.00     0.003 A 
ATOM      6  C4  OXE d   1      -3.093  -0.803  -0.522  0.00  0.00    -0.002 A 
ATOM      7  C5  OXE d   1      -2.530  -0.998   0.743  0.00  0.00    -0.002 A 
ATOM      8  C6  OXE d   1      -1.203  -0.643   0.960  0.00  0.00     0.003 A 
ENDROOT
TORSDOF 0
ENDMDL
