MODEL 1
REMARK minimizedAffinity -4.32396221
REMARK minimizedRMSD -1
REMARK  0 active torsions:
REMARK  status: ('A' for Active; 'I' for Inactive)
ROOT
ATOM      1  C2' OXE d   1      -1.089  -2.224   2.169  0.00  0.00     0.078 C 
ATOM      2  C1' OXE d   1      -2.658  -0.641   0.462  0.00  0.00     0.078 C 
ATOM      3  C1  OXE d   1      -1.160  -0.477   0.395  0.00  0.00    -0.078 A 
ATOM      4  C2  OXE d   1      -0.403  -1.221   1.266  0.00  0.00    -0.078 A 
ATOM      5  C3  OXE d   1       0.986  -1.148   1.208  0.00  0.00     0.003 A 
ATOM      6  C4  OXE d   1       1.612  -0.211   0.378  0.00  0.00    -0.002 A 
ATOM      7  C5  OXE d   1       0.857   0.586  -0.489  0.00  0.00    -0.002 A 
ATOM      8  C6  OXE d   1      -0.524   0.435  -0.523  0.00  0.00     0.003 A 
ENDROOT
TORSDOF 0
ENDMDL
