MODEL 1
REMARK minimizedAffinity -3.33314443
REMARK minimizedRMSD -1
REMARK  0 active torsions:
REMARK  status: ('A' for Active; 'I' for Inactive)
ROOT
ATOM      1  C2' OXE d   1      -1.958  -1.264  -2.508  0.00  0.00     0.078 C 
ATOM      2  C1' OXE d   1      -3.271  -0.359  -0.197  0.00  0.00     0.078 C 
ATOM      3  C1  OXE d   1      -1.768  -0.240  -0.245  0.00  0.00    -0.078 A 
ATOM      4  C2  OXE d   1      -1.130  -0.728  -1.360  0.00  0.00    -0.078 A 
ATOM      5  C3  OXE d   1       0.250  -0.593  -1.479  0.00  0.00     0.003 A 
ATOM      6  C4  OXE d   1       1.010  -0.105  -0.408  0.00  0.00    -0.002 A 
ATOM      7  C5  OXE d   1       0.383   0.360   0.753  0.00  0.00    -0.002 A 
ATOM      8  C6  OXE d   1      -1.005   0.339   0.833  0.00  0.00     0.003 A 
ENDROOT
TORSDOF 0
ENDMDL
