MODEL 1
REMARK minimizedAffinity -3.76389217
REMARK minimizedRMSD -1
REMARK  0 active torsions:
REMARK  status: ('A' for Active; 'I' for Inactive)
ROOT
ATOM      1  C2' OXE d   1      -3.158  -0.760  -0.222  0.00  0.00     0.078 C 
ATOM      2  C1' OXE d   1      -1.573  -1.283   2.035  0.00  0.00     0.078 C 
ATOM      3  C1  OXE d   1      -0.959  -0.483   0.913  0.00  0.00    -0.078 A 
ATOM      4  C2  OXE d   1      -1.726  -0.272  -0.207  0.00  0.00    -0.078 A 
ATOM      5  C3  OXE d   1      -1.227   0.506  -1.247  0.00  0.00     0.003 A 
ATOM      6  C4  OXE d   1       0.103   0.946  -1.229  0.00  0.00    -0.002 A 
ATOM      7  C5  OXE d   1       0.914   0.707  -0.115  0.00  0.00    -0.002 A 
ATOM      8  C6  OXE d   1       0.387   0.033   0.980  0.00  0.00     0.003 A 
ENDROOT
TORSDOF 0
ENDMDL
