MODEL 1
REMARK minimizedAffinity -0.946114242
REMARK minimizedRMSD -1
REMARK  1 active torsions:
REMARK  status: ('A' for Active; 'I' for Inactive)
REMARK    1  A    between atoms: C1_2  and  C2_3 
ROOT
ATOM      1  C2  UNL d   1      -1.538   0.564  -0.536  0.00  0.00    -0.076 A 
ATOM      2  C3  UNL d   1      -0.922   1.775  -0.898  0.00  0.00     0.004 A 
ATOM      3  C4  UNL d   1       0.320   2.132  -0.376  0.00  0.00    -0.003 A 
ATOM      4  C5  UNL d   1       0.968   1.283   0.515  0.00  0.00     0.000 A 
ATOM      5  C6  UNL d   1       0.380   0.070   0.871  0.00  0.00     0.000 A 
ATOM      6  C7  UNL d   1      -0.865  -0.313   0.341  0.00  0.00    -0.073 A 
ATOM      7  C8  UNL d   1      -1.455  -1.630   0.765  0.00  0.00     0.078 C 
ENDROOT
BRANCH   1   8
ATOM      8  C1  UNL d   1      -2.898   0.243  -1.113  0.00  0.00     0.053 C 
ATOM      9  C   UNL d   1      -2.891   0.200  -2.633  0.00  0.00     0.018 C 
ENDBRANCH   1   8
TORSDOF 1
ENDMDL
