MODEL 1
REMARK minimizedAffinity -2.75765967
REMARK minimizedRMSD -1
REMARK  1 active torsions:
REMARK  status: ('A' for Active; 'I' for Inactive)
REMARK    1  A    between atoms: C1_2  and  C2_3 
ROOT
ATOM      1  C2  UNL d   1      -1.485   0.012  -0.875  0.00  0.00    -0.076 A 
ATOM      2  C3  UNL d   1      -1.552   0.622  -2.140  0.00  0.00     0.004 A 
ATOM      3  C4  UNL d   1      -2.195  -0.004  -3.206  0.00  0.00    -0.003 A 
ATOM      4  C5  UNL d   1      -2.783  -1.252  -3.024  0.00  0.00     0.000 A 
ATOM      5  C6  UNL d   1      -2.741  -1.864  -1.772  0.00  0.00     0.000 A 
ATOM      6  C7  UNL d   1      -2.111  -1.238  -0.682  0.00  0.00    -0.073 A 
ATOM      7  C8  UNL d   1      -2.091  -1.946   0.644  0.00  0.00     0.078 C 
ENDROOT
BRANCH   1   8
ATOM      8  C1  UNL d   1      -0.751   0.727   0.236  0.00  0.00     0.053 C 
ATOM      9  C   UNL d   1       0.710   0.984  -0.101  0.00  0.00     0.018 C 
ENDBRANCH   1   8
TORSDOF 1
ENDMDL
