MODEL 1
REMARK minimizedAffinity 7.56657362
REMARK minimizedRMSD -1
REMARK  1 active torsions:
REMARK  status: ('A' for Active; 'I' for Inactive)
REMARK    1  A    between atoms: C1_2  and  C2_3 
ROOT
ATOM      1  C2  UNL d   1       0.895  -0.044   1.511  0.00  0.00    -0.076 A 
ATOM      2  C3  UNL d   1       0.917   1.087   0.677  0.00  0.00     0.004 A 
ATOM      3  C4  UNL d   1       1.864   2.093   0.858  0.00  0.00    -0.003 A 
ATOM      4  C5  UNL d   1       2.806   1.984   1.876  0.00  0.00     0.000 A 
ATOM      5  C6  UNL d   1       2.809   0.861   2.701  0.00  0.00     0.000 A 
ATOM      6  C7  UNL d   1       1.871  -0.170   2.522  0.00  0.00    -0.073 A 
ATOM      7  C8  UNL d   1       1.917  -1.357   3.446  0.00  0.00     0.078 C 
ENDROOT
BRANCH   1   8
ATOM      8  C1  UNL d   1      -0.174  -1.090   1.285  0.00  0.00     0.053 C 
ATOM      9  C   UNL d   1      -1.514  -0.481   0.904  0.00  0.00     0.018 C 
ENDBRANCH   1   8
TORSDOF 1
ENDMDL
