MODEL 1
REMARK minimizedAffinity -5.32463264
REMARK minimizedRMSD -1
REMARK  1 active torsions:
REMARK  status: ('A' for Active; 'I' for Inactive)
REMARK    1  A    between atoms: C1_2  and  C2_3 
ROOT
ATOM      1  C2  UNL d   1       0.629  -0.863   0.596  0.00  0.00    -0.076 A 
ATOM      2  C3  UNL d   1       2.006  -0.613   0.456  0.00  0.00     0.004 A 
ATOM      3  C4  UNL d   1       2.947  -1.369   1.153  0.00  0.00    -0.003 A 
ATOM      4  C5  UNL d   1       2.527  -2.387   2.002  0.00  0.00     0.000 A 
ATOM      5  C6  UNL d   1       1.166  -2.660   2.140  0.00  0.00     0.000 A 
ATOM      6  C7  UNL d   1       0.205  -1.918   1.432  0.00  0.00    -0.073 A 
ATOM      7  C8  UNL d   1      -1.249  -2.251   1.623  0.00  0.00     0.078 C 
ENDROOT
BRANCH   1   8
ATOM      8  C1  UNL d   1      -0.346   0.008  -0.164  0.00  0.00     0.053 C 
ATOM      9  C   UNL d   1      -1.186  -0.786  -1.152  0.00  0.00     0.018 C 
ENDBRANCH   1   8
TORSDOF 1
ENDMDL
