MODEL 1
REMARK minimizedAffinity 8.86879063
REMARK minimizedRMSD -1
REMARK  1 active torsions:
REMARK  status: ('A' for Active; 'I' for Inactive)
REMARK    1  A    between atoms: N_2  and  C1_3 
ROOT
ATOM      1  C1  UNL d   1       2.966  -2.686   2.232  0.00  0.00     0.143 A 
ATOM      2  C2  UNL d   1       2.037  -1.906   2.929  0.00  0.00    -0.057 A 
ATOM      3  C3  UNL d   1       1.032  -1.201   2.256  0.00  0.00     0.033 A 
ATOM      4  C4  UNL d   1       0.955  -1.242   0.868  0.00  0.00    -0.042 A 
ATOM      5  C5  UNL d   1       1.883  -1.991   0.153  0.00  0.00     0.033 A 
ATOM      6  C6  UNL d   1       2.881  -2.698   0.831  0.00  0.00    -0.057 A 
ENDROOT
BRANCH   1   7
ATOM      7  N   UNL d   1       4.049  -3.331   2.836  0.00  0.00    -0.732 N 
ATOM      8  C   UNL d   1       4.533  -2.902   4.131  0.00  0.00     0.284 C 
ATOM      9  H3  UNL d   1       4.014  -4.341   2.719  0.00  0.00     0.395 HD
ENDBRANCH   1   7
TORSDOF 1
ENDMDL
