MODEL 1
REMARK minimizedAffinity 0.486227125
REMARK minimizedRMSD -1
REMARK  1 active torsions:
REMARK  status: ('A' for Active; 'I' for Inactive)
REMARK    1  A    between atoms: N_2  and  C1_3 
ROOT
ATOM      1  C1  UNL d   1       3.580  -3.093   3.043  0.00  0.00     0.143 A 
ATOM      2  C2  UNL d   1       3.485  -3.702   1.787  0.00  0.00    -0.057 A 
ATOM      3  C3  UNL d   1       2.495  -3.326   0.871  0.00  0.00     0.033 A 
ATOM      4  C4  UNL d   1       1.561  -2.352   1.208  0.00  0.00    -0.042 A 
ATOM      5  C5  UNL d   1       1.621  -1.751   2.461  0.00  0.00     0.033 A 
ATOM      6  C6  UNL d   1       2.617  -2.126   3.368  0.00  0.00    -0.057 A 
ENDROOT
BRANCH   1   7
ATOM      7  N   UNL d   1       4.480  -3.492   4.034  0.00  0.00    -0.732 N 
ATOM      8  C   UNL d   1       4.938  -2.552   5.036  0.00  0.00     0.284 C 
ATOM      9  H3  UNL d   1       4.272  -4.419   4.399  0.00  0.00     0.395 HD
ENDBRANCH   1   7
TORSDOF 1
ENDMDL
