MODEL 1
REMARK minimizedAffinity 1.01843846
REMARK minimizedRMSD -1
REMARK  1 active torsions:
REMARK  status: ('A' for Active; 'I' for Inactive)
REMARK    1  A    between atoms: N_2  and  C1_3 
ROOT
ATOM      1  C1  UNL d   1       4.261  -3.630   2.905  0.00  0.00     0.143 A 
ATOM      2  C2  UNL d   1       3.636  -2.515   2.337  0.00  0.00    -0.057 A 
ATOM      3  C3  UNL d   1       3.114  -2.558   1.039  0.00  0.00     0.033 A 
ATOM      4  C4  UNL d   1       3.234  -3.713   0.273  0.00  0.00    -0.042 A 
ATOM      5  C5  UNL d   1       3.873  -4.826   0.808  0.00  0.00     0.033 A 
ATOM      6  C6  UNL d   1       4.387  -4.778   2.108  0.00  0.00    -0.057 A 
ENDROOT
BRANCH   1   7
ATOM      7  N   UNL d   1       4.887  -3.618   4.154  0.00  0.00    -0.732 N 
ATOM      8  C   UNL d   1       4.966  -2.398   4.928  0.00  0.00     0.284 C 
ATOM      9  H3  UNL d   1       4.672  -4.446   4.705  0.00  0.00     0.395 HD
ENDBRANCH   1   7
TORSDOF 1
ENDMDL
