MODEL 1
REMARK minimizedAffinity -0.501671314
REMARK minimizedRMSD -1
REMARK  1 active torsions:
REMARK  status: ('A' for Active; 'I' for Inactive)
REMARK    1  A    between atoms: N_2  and  C1_3 
ROOT
ATOM      1  C1  UNL d   1       3.015   4.655  -5.983  0.00  0.00     0.143 A 
ATOM      2  C2  UNL d   1       3.656   5.898  -5.976  0.00  0.00    -0.057 A 
ATOM      3  C3  UNL d   1       5.052   5.996  -5.998  0.00  0.00     0.033 A 
ATOM      4  C4  UNL d   1       5.836   4.847  -5.998  0.00  0.00    -0.042 A 
ATOM      5  C5  UNL d   1       5.221   3.600  -5.980  0.00  0.00     0.033 A 
ATOM      6  C6  UNL d   1       3.826   3.509  -5.965  0.00  0.00    -0.057 A 
ENDROOT
BRANCH   1   7
ATOM      7  N   UNL d   1       1.633   4.491  -5.862  0.00  0.00    -0.732 N 
ATOM      8  C   UNL d   1       1.084   3.358  -5.149  0.00  0.00     0.284 C 
ATOM      9  H3  UNL d   1       1.152   5.369  -5.681  0.00  0.00     0.395 HD
ENDBRANCH   1   7
TORSDOF 1
ENDMDL
