MODEL 1
REMARK minimizedAffinity 4.29777908
REMARK minimizedRMSD -1
REMARK  1 active torsions:
REMARK  status: ('A' for Active; 'I' for Inactive)
REMARK    1  A    between atoms: N_2  and  C1_3 
ROOT
ATOM      1  C1  UNL d   1       3.736  -3.046   2.782  0.00  0.00     0.143 A 
ATOM      2  C2  UNL d   1       3.655  -3.870   1.654  0.00  0.00    -0.057 A 
ATOM      3  C3  UNL d   1       2.687  -3.655   0.666  0.00  0.00     0.033 A 
ATOM      4  C4  UNL d   1       1.761  -2.627   0.803  0.00  0.00    -0.042 A 
ATOM      5  C5  UNL d   1       1.806  -1.811   1.928  0.00  0.00     0.033 A 
ATOM      6  C6  UNL d   1       2.779  -2.026   2.908  0.00  0.00    -0.057 A 
ENDROOT
BRANCH   1   7
ATOM      7  N   UNL d   1       4.612  -3.268   3.847  0.00  0.00    -0.732 N 
ATOM      8  C   UNL d   1       4.936  -2.202   4.770  0.00  0.00     0.284 C 
ATOM      9  H3  UNL d   1       4.463  -4.172   4.291  0.00  0.00     0.395 HD
ENDBRANCH   1   7
TORSDOF 1
ENDMDL
