MODEL 1
REMARK minimizedAffinity 6.71953201
REMARK minimizedRMSD -1
REMARK  1 active torsions:
REMARK  status: ('A' for Active; 'I' for Inactive)
REMARK    1  A    between atoms: N_2  and  C1_3 
ROOT
ATOM      1  C1  UNL d   1       3.393  -2.886   2.340  0.00  0.00     0.143 A 
ATOM      2  C2  UNL d   1       2.562  -1.812   2.001  0.00  0.00    -0.057 A 
ATOM      3  C3  UNL d   1       1.665  -1.898   0.930  0.00  0.00     0.033 A 
ATOM      4  C4  UNL d   1       1.603  -3.054   0.158  0.00  0.00    -0.042 A 
ATOM      5  C5  UNL d   1       2.437  -4.124   0.461  0.00  0.00     0.033 A 
ATOM      6  C6  UNL d   1       3.326  -4.034   1.536  0.00  0.00    -0.057 A 
ENDROOT
BRANCH   1   7
ATOM      7  N   UNL d   1       4.376  -2.826   3.331  0.00  0.00    -0.732 N 
ATOM      8  C   UNL d   1       4.018  -2.568   4.709  0.00  0.00     0.284 C 
ATOM      9  H3  UNL d   1       5.089  -3.542   3.214  0.00  0.00     0.395 HD
ENDBRANCH   1   7
TORSDOF 1
ENDMDL
