MODEL 1
REMARK minimizedAffinity 15.5992498
REMARK minimizedRMSD -1
REMARK  0 active torsions:
REMARK  status: ('A' for Active; 'I' for Inactive)
ROOT
ATOM      1  C4' PXY d   1       4.926  -6.000  -4.375  0.00  0.00     0.077 C 
ATOM      2  C1' PXY d   1       2.987  -1.174  -1.852  0.00  0.00     0.077 C 
ATOM      3  C1  PXY d   1       3.497  -2.445  -2.502  0.00  0.00    -0.082 A 
ATOM      4  C2  PXY d   1       4.044  -2.390  -3.705  0.00  0.00     0.003 A 
ATOM      5  C3  PXY d   1       4.482  -3.535  -4.321  0.00  0.00     0.003 A 
ATOM      6  C4  PXY d   1       4.406  -4.741  -3.677  0.00  0.00    -0.082 A 
ATOM      7  C5  PXY d   1       3.859  -4.803  -2.444  0.00  0.00     0.003 A 
ATOM      8  C6  PXY d   1       3.383  -3.636  -1.853  0.00  0.00     0.003 A 
ENDROOT
TORSDOF 0
ENDMDL
