MODEL 1
REMARK minimizedAffinity 5.85751152
REMARK minimizedRMSD -1
REMARK  0 active torsions:
REMARK  status: ('A' for Active; 'I' for Inactive)
ROOT
ATOM      1  C4' PXY d   1       1.127  -6.000  -1.937  0.00  0.00     0.077 C 
ATOM      2  C1' PXY d   1       5.411  -2.234  -0.997  0.00  0.00     0.077 C 
ATOM      3  C1  PXY d   1       4.287  -3.224  -1.231  0.00  0.00    -0.082 A 
ATOM      4  C2  PXY d   1       4.169  -3.814  -2.409  0.00  0.00     0.003 A 
ATOM      5  C3  PXY d   1       3.139  -4.688  -2.648  0.00  0.00     0.003 A 
ATOM      6  C4  PXY d   1       2.252  -5.001  -1.653  0.00  0.00    -0.082 A 
ATOM      7  C5  PXY d   1       2.372  -4.411  -0.445  0.00  0.00     0.003 A 
ATOM      8  C6  PXY d   1       3.400  -3.496  -0.236  0.00  0.00     0.003 A 
ENDROOT
TORSDOF 0
ENDMDL
