MODEL 1
REMARK minimizedAffinity -0.354599416
REMARK minimizedRMSD -1
REMARK  0 active torsions:
REMARK  status: ('A' for Active; 'I' for Inactive)
ROOT
ATOM      1  C4' PXY d   1       3.426  -3.106  -4.122  0.00  0.00     0.077 C 
ATOM      2  C1' PXY d   1       6.000  -5.994   0.173  0.00  0.00     0.077 C 
ATOM      3  C1  PXY d   1       5.328  -5.246  -0.961  0.00  0.00    -0.082 A 
ATOM      4  C2  PXY d   1       5.235  -3.927  -0.912  0.00  0.00     0.003 A 
ATOM      5  C3  PXY d   1       4.602  -3.238  -1.914  0.00  0.00     0.003 A 
ATOM      6  C4  PXY d   1       4.105  -3.901  -3.004  0.00  0.00    -0.082 A 
ATOM      7  C5  PXY d   1       4.205  -5.246  -3.067  0.00  0.00     0.003 A 
ATOM      8  C6  PXY d   1       4.815  -5.931  -2.020  0.00  0.00     0.003 A 
ENDROOT
TORSDOF 0
ENDMDL
