MODEL 1
REMARK minimizedAffinity -3.10079503
REMARK minimizedRMSD -1
REMARK  0 active torsions:
REMARK  status: ('A' for Active; 'I' for Inactive)
ROOT
ATOM      1  C4' PXY d   1       5.533  -5.331   0.323  0.00  0.00     0.077 C 
ATOM      2  C1' PXY d   1       3.518  -1.701  -3.700  0.00  0.00     0.077 C 
ATOM      3  C1  PXY d   1       4.040  -2.663  -2.651  0.00  0.00    -0.082 A 
ATOM      4  C2  PXY d   1       4.374  -2.208  -1.454  0.00  0.00     0.003 A 
ATOM      5  C3  PXY d   1       4.878  -3.058  -0.504  0.00  0.00     0.003 A 
ATOM      6  C4  PXY d   1       4.992  -4.398  -0.764  0.00  0.00    -0.082 A 
ATOM      7  C5  PXY d   1       4.643  -4.872  -1.979  0.00  0.00     0.003 A 
ATOM      8  C6  PXY d   1       4.172  -3.985  -2.943  0.00  0.00     0.003 A 
ENDROOT
TORSDOF 0
ENDMDL
