MODEL 1
REMARK minimizedAffinity 2.55740547
REMARK minimizedRMSD -1
REMARK  0 active torsions:
REMARK  status: ('A' for Active; 'I' for Inactive)
ROOT
ATOM      1  C4' PXY d   1      -3.451   0.226  -2.293  0.00  0.00     0.077 C 
ATOM      2  C1' PXY d   1      -0.160   4.894  -1.402  0.00  0.00     0.077 C 
ATOM      3  C1  PXY d   1      -1.033   3.677  -1.638  0.00  0.00    -0.082 A 
ATOM      4  C2  PXY d   1      -0.695   2.515  -1.103  0.00  0.00     0.003 A 
ATOM      5  C3  PXY d   1      -1.456   1.398  -1.333  0.00  0.00     0.003 A 
ATOM      6  C4  PXY d   1      -2.604   1.482  -2.073  0.00  0.00    -0.082 A 
ATOM      7  C5  PXY d   1      -2.962   2.666  -2.614  0.00  0.00     0.003 A 
ATOM      8  C6  PXY d   1      -2.154   3.780  -2.403  0.00  0.00     0.003 A 
ENDROOT
TORSDOF 0
ENDMDL
