MODEL 1
REMARK minimizedAffinity 1.01872385
REMARK minimizedRMSD -1
REMARK  0 active torsions:
REMARK  status: ('A' for Active; 'I' for Inactive)
ROOT
ATOM      1  C4' PXY d   1       3.318  -0.089   1.818  0.00  0.00     0.077 C 
ATOM      2  C1' PXY d   1       5.018  -4.415  -1.619  0.00  0.00     0.077 C 
ATOM      3  C1  PXY d   1       4.584  -3.275  -0.719  0.00  0.00    -0.082 A 
ATOM      4  C2  PXY d   1       3.659  -3.485   0.203  0.00  0.00     0.003 A 
ATOM      5  C3  PXY d   1       3.231  -2.457   1.003  0.00  0.00     0.003 A 
ATOM      6  C4  PXY d   1       3.794  -1.214   0.894  0.00  0.00    -0.082 A 
ATOM      7  C5  PXY d   1       4.746  -0.994  -0.037  0.00  0.00     0.003 A 
ATOM      8  C6  PXY d   1       5.137  -2.040  -0.867  0.00  0.00     0.003 A 
ENDROOT
TORSDOF 0
ENDMDL
