MODEL 1
REMARK minimizedAffinity -0.88582468
REMARK minimizedRMSD -1
REMARK  0 active torsions:
REMARK  status: ('A' for Active; 'I' for Inactive)
ROOT
ATOM      1  C4' PXY d   1       5.259  -5.936  -0.049  0.00  0.00     0.077 C 
ATOM      2  C1' PXY d   1       3.696  -1.580  -3.511  0.00  0.00     0.077 C 
ATOM      3  C1  PXY d   1       4.094  -2.728  -2.605  0.00  0.00    -0.082 A 
ATOM      4  C2  PXY d   1       5.022  -2.540  -1.681  0.00  0.00     0.003 A 
ATOM      5  C3  PXY d   1       5.417  -3.576  -0.874  0.00  0.00     0.003 A 
ATOM      6  C4  PXY d   1       4.819  -4.803  -0.980  0.00  0.00    -0.082 A 
ATOM      7  C5  PXY d   1       3.864  -5.000  -1.913  0.00  0.00     0.003 A 
ATOM      8  C6  PXY d   1       3.506  -3.946  -2.749  0.00  0.00     0.003 A 
ENDROOT
TORSDOF 0
ENDMDL
