MODEL 1
REMARK minimizedAffinity -1.5139153
REMARK minimizedRMSD -1
REMARK  0 active torsions:
REMARK  status: ('A' for Active; 'I' for Inactive)
ROOT
ATOM      1  C4' PXY d   1       4.105  -2.029  -0.597  0.00  0.00     0.077 C 
ATOM      2  C1' PXY d   1       4.706  -5.831  -4.909  0.00  0.00     0.077 C 
ATOM      3  C1  PXY d   1       4.551  -4.844  -3.769  0.00  0.00    -0.082 A 
ATOM      4  C2  PXY d   1       3.869  -3.726  -3.961  0.00  0.00     0.003 A 
ATOM      5  C3  PXY d   1       3.745  -2.807  -2.951  0.00  0.00     0.003 A 
ATOM      6  C4  PXY d   1       4.280  -3.059  -1.716  0.00  0.00    -0.082 A 
ATOM      7  C5  PXY d   1       4.969  -4.202  -1.509  0.00  0.00     0.003 A 
ATOM      8  C6  PXY d   1       5.118  -5.103  -2.560  0.00  0.00     0.003 A 
ENDROOT
TORSDOF 0
ENDMDL
