MODEL 1
REMARK minimizedAffinity -0.125418067
REMARK minimizedRMSD -1
REMARK  0 active torsions:
REMARK  status: ('A' for Active; 'I' for Inactive)
ROOT
ATOM      1  C4' PXY d   1       2.137  -6.000  -1.873  0.00  0.00     0.077 C 
ATOM      2  C1' PXY d   1       5.241  -1.515   0.040  0.00  0.00     0.077 C 
ATOM      3  C1  PXY d   1       4.434  -2.691  -0.473  0.00  0.00    -0.082 A 
ATOM      4  C2  PXY d   1       3.227  -2.920   0.019  0.00  0.00     0.003 A 
ATOM      5  C3  PXY d   1       2.496  -3.998  -0.411  0.00  0.00     0.003 A 
ATOM      6  C4  PXY d   1       2.984  -4.819  -1.392  0.00  0.00    -0.082 A 
ATOM      7  C5  PXY d   1       4.210  -4.586  -1.906  0.00  0.00     0.003 A 
ATOM      8  C6  PXY d   1       4.953  -3.510  -1.427  0.00  0.00     0.003 A 
ENDROOT
TORSDOF 0
ENDMDL
