MODEL 1
REMARK minimizedAffinity -0.36257869
REMARK minimizedRMSD -1
REMARK  0 active torsions:
REMARK  status: ('A' for Active; 'I' for Inactive)
ROOT
ATOM      1  C4' PXY d   1       3.918  -1.970   0.081  0.00  0.00     0.077 C 
ATOM      2  C1' PXY d   1       4.585  -5.794  -4.202  0.00  0.00     0.077 C 
ATOM      3  C1  PXY d   1       4.414  -4.801  -3.070  0.00  0.00    -0.082 A 
ATOM      4  C2  PXY d   1       3.576  -3.786  -3.211  0.00  0.00     0.003 A 
ATOM      5  C3  PXY d   1       3.433  -2.860  -2.210  0.00  0.00     0.003 A 
ATOM      6  C4  PXY d   1       4.115  -3.003  -1.032  0.00  0.00    -0.082 A 
ATOM      7  C5  PXY d   1       4.964  -4.042  -0.876  0.00  0.00     0.003 A 
ATOM      8  C6  PXY d   1       5.126  -4.948  -1.920  0.00  0.00     0.003 A 
ENDROOT
TORSDOF 0
ENDMDL
