MODEL 1
REMARK minimizedAffinity -2.90557265
REMARK minimizedRMSD -1
REMARK  0 active torsions:
REMARK  status: ('A' for Active; 'I' for Inactive)
ROOT
ATOM      1  C   UNL d   1      -0.364   3.026  -2.850  0.00  0.00     0.023 A 
ATOM      2  C1  UNL d   1      -0.629   1.701  -3.196  0.00  0.00     0.003 A 
ATOM      3  C2  UNL d   1      -0.386   0.676  -2.279  0.00  0.00     0.048 A 
ATOM      4  C3  UNL d   1       0.121   0.983  -1.017  0.00  0.00     0.023 A 
ATOM      5  C4  UNL d   1       0.386   2.308  -0.665  0.00  0.00     0.048 A 
ATOM      6  C5  UNL d   1       0.143   3.329  -1.586  0.00  0.00     0.003 A 
ATOM      7  I   UNL d   1       0.482  -0.540   0.350  0.00  0.00    -0.146 I 
ENDROOT
TORSDOF 0
ENDMDL
