MODEL 1
REMARK minimizedAffinity -3.83079696
REMARK minimizedRMSD -1
REMARK  0 active torsions:
REMARK  status: ('A' for Active; 'I' for Inactive)
ROOT
ATOM      1  C   UNL d   1       2.199  -2.633   1.157  0.00  0.00     0.023 A 
ATOM      2  C1  UNL d   1       0.841  -2.794   0.883  0.00  0.00     0.003 A 
ATOM      3  C2  UNL d   1       0.100  -1.727   0.372  0.00  0.00     0.048 A 
ATOM      4  C3  UNL d   1       0.723  -0.502   0.136  0.00  0.00     0.023 A 
ATOM      5  C4  UNL d   1       2.082  -0.337   0.408  0.00  0.00     0.048 A 
ATOM      6  C5  UNL d   1       2.819  -1.406   0.920  0.00  0.00     0.003 A 
ATOM      7  I   UNL d   1      -0.379   1.087  -0.625  0.00  0.00    -0.146 I 
ENDROOT
TORSDOF 0
ENDMDL
