MODEL 1
REMARK minimizedAffinity -3.38865662
REMARK minimizedRMSD -1
REMARK  0 active torsions:
REMARK  status: ('A' for Active; 'I' for Inactive)
ROOT
ATOM      1  C   UNL d   1       1.805  -2.801   1.054  0.00  0.00     0.023 A 
ATOM      2  C1  UNL d   1       2.476  -1.599   0.828  0.00  0.00     0.003 A 
ATOM      3  C2  UNL d   1       1.780  -0.489   0.347  0.00  0.00     0.048 A 
ATOM      4  C3  UNL d   1       0.412  -0.587   0.095  0.00  0.00     0.023 A 
ATOM      5  C4  UNL d   1      -0.265  -1.787   0.320  0.00  0.00     0.048 A 
ATOM      6  C5  UNL d   1       0.436  -2.895   0.800  0.00  0.00     0.003 A 
ATOM      7  I   UNL d   1      -0.627   1.065  -0.622  0.00  0.00    -0.146 I 
ENDROOT
TORSDOF 0
ENDMDL
