MODEL 1
REMARK minimizedAffinity -2.86817169
REMARK minimizedRMSD -1
REMARK  0 active torsions:
REMARK  status: ('A' for Active; 'I' for Inactive)
ROOT
ATOM      1  C   UNL d   1       1.827  -2.656   1.089  0.00  0.00     0.023 A 
ATOM      2  C1  UNL d   1       2.392  -1.651   0.303  0.00  0.00     0.003 A 
ATOM      3  C2  UNL d   1       1.625  -0.549  -0.079  0.00  0.00     0.048 A 
ATOM      4  C3  UNL d   1       0.295  -0.456   0.328  0.00  0.00     0.023 A 
ATOM      5  C4  UNL d   1      -0.274  -1.459   1.115  0.00  0.00     0.048 A 
ATOM      6  C5  UNL d   1       0.496  -2.560   1.495  0.00  0.00     0.003 A 
ATOM      7  I   UNL d   1      -0.848   1.184  -0.240  0.00  0.00    -0.146 I 
ENDROOT
TORSDOF 0
ENDMDL
