MODEL 1
REMARK minimizedAffinity -2.18031621
REMARK minimizedRMSD -1
REMARK  0 active torsions:
REMARK  status: ('A' for Active; 'I' for Inactive)
ROOT
ATOM      1  C   UNL d   1       0.978  -0.470   0.644  0.00  0.00     0.023 A 
ATOM      2  C1  UNL d   1       1.406  -0.167  -0.649  0.00  0.00     0.003 A 
ATOM      3  C2  UNL d   1       0.490   0.286  -1.601  0.00  0.00     0.048 A 
ATOM      4  C3  UNL d   1      -0.852   0.434  -1.253  0.00  0.00     0.023 A 
ATOM      5  C4  UNL d   1      -1.285   0.133   0.039  0.00  0.00     0.048 A 
ATOM      6  C5  UNL d   1      -0.366  -0.320   0.987  0.00  0.00     0.003 A 
ATOM      7  I   UNL d   1      -2.217   1.107  -2.669  0.00  0.00    -0.146 I 
ENDROOT
TORSDOF 0
ENDMDL
