MODEL 1
REMARK minimizedAffinity -2.95684266
REMARK minimizedRMSD -1
REMARK  0 active torsions:
REMARK  status: ('A' for Active; 'I' for Inactive)
ROOT
ATOM      1  C   UNL d   1       2.033  -1.596   1.184  0.00  0.00     0.023 A 
ATOM      2  C1  UNL d   1       2.221  -0.294   0.719  0.00  0.00     0.003 A 
ATOM      3  C2  UNL d   1       1.291   0.280  -0.149  0.00  0.00     0.048 A 
ATOM      4  C3  UNL d   1       0.173  -0.453  -0.549  0.00  0.00     0.023 A 
ATOM      5  C4  UNL d   1      -0.020  -1.755  -0.086  0.00  0.00     0.048 A 
ATOM      6  C5  UNL d   1       0.914  -2.326   0.782  0.00  0.00     0.003 A 
ATOM      7  I   UNL d   1      -1.213   0.400  -1.841  0.00  0.00    -0.146 I 
ENDROOT
TORSDOF 0
ENDMDL
