MODEL 1
REMARK minimizedAffinity -3.16947794
REMARK minimizedRMSD -1
REMARK  0 active torsions:
REMARK  status: ('A' for Active; 'I' for Inactive)
ROOT
ATOM      1  C   UNL d   1       1.932  -2.037   1.201  0.00  0.00     0.023 A 
ATOM      2  C1  UNL d   1       0.569  -2.285   1.038  0.00  0.00     0.003 A 
ATOM      3  C2  UNL d   1      -0.245  -1.337   0.415  0.00  0.00     0.048 A 
ATOM      4  C3  UNL d   1       0.311  -0.144  -0.044  0.00  0.00     0.023 A 
ATOM      5  C4  UNL d   1       1.674   0.109   0.116  0.00  0.00     0.048 A 
ATOM      6  C5  UNL d   1       2.484  -0.842   0.740  0.00  0.00     0.003 A 
ATOM      7  I   UNL d   1      -0.899   1.269  -0.972  0.00  0.00    -0.146 I 
ENDROOT
TORSDOF 0
ENDMDL
