MODEL 1
REMARK minimizedAffinity -1.48579919
REMARK minimizedRMSD -1
REMARK  0 active torsions:
REMARK  status: ('A' for Active; 'I' for Inactive)
ROOT
ATOM      1  C   UNL d   1       1.859  -2.536   1.383  0.00  0.00     0.023 A 
ATOM      2  C1  UNL d   1       2.473  -1.318   1.089  0.00  0.00     0.003 A 
ATOM      3  C2  UNL d   1       1.732  -0.280   0.520  0.00  0.00     0.048 A 
ATOM      4  C3  UNL d   1       0.377  -0.467   0.247  0.00  0.00     0.023 A 
ATOM      5  C4  UNL d   1      -0.242  -1.683   0.540  0.00  0.00     0.048 A 
ATOM      6  C5  UNL d   1       0.503  -2.718   1.108  0.00  0.00     0.003 A 
ATOM      7  I   UNL d   1      -0.728   1.076  -0.600  0.00  0.00    -0.146 I 
ENDROOT
TORSDOF 0
ENDMDL
