MODEL 1
REMARK minimizedAffinity -3.92986822
REMARK minimizedRMSD -1
REMARK  0 active torsions:
REMARK  status: ('A' for Active; 'I' for Inactive)
ROOT
ATOM      1  C   UNL d   1       2.018  -3.065   0.709  0.00  0.00     0.023 A 
ATOM      2  C1  UNL d   1       2.602  -1.927   0.151  0.00  0.00     0.003 A 
ATOM      3  C2  UNL d   1       1.850  -0.762  -0.008  0.00  0.00     0.048 A 
ATOM      4  C3  UNL d   1       0.515  -0.740   0.393  0.00  0.00     0.023 A 
ATOM      5  C4  UNL d   1      -0.074  -1.875   0.953  0.00  0.00     0.048 A 
ATOM      6  C5  UNL d   1       0.682  -3.039   1.110  0.00  0.00     0.003 A 
ATOM      7  I   UNL d   1      -0.607   0.994   0.157  0.00  0.00    -0.146 I 
ENDROOT
TORSDOF 0
ENDMDL
