MODEL 1
REMARK minimizedAffinity -4.25857162
REMARK minimizedRMSD -1
REMARK  0 active torsions:
REMARK  status: ('A' for Active; 'I' for Inactive)
ROOT
ATOM      1  C   UNL d   1       2.144  -1.801   0.775  0.00  0.00     0.023 A 
ATOM      2  C1  UNL d   1       2.650  -0.722   0.051  0.00  0.00     0.003 A 
ATOM      3  C2  UNL d   1       1.779   0.208  -0.520  0.00  0.00     0.048 A 
ATOM      4  C3  UNL d   1       0.402   0.053  -0.363  0.00  0.00     0.023 A 
ATOM      5  C4  UNL d   1      -0.109  -1.025   0.361  0.00  0.00     0.048 A 
ATOM      6  C5  UNL d   1       0.766  -1.952   0.930  0.00  0.00     0.003 A 
ATOM      7  I   UNL d   1      -0.896   1.436  -1.212  0.00  0.00    -0.146 I 
ENDROOT
TORSDOF 0
ENDMDL
