MODEL 1
REMARK minimizedAffinity -5.73748493
REMARK minimizedRMSD -1
REMARK  0 active torsions:
REMARK  status: ('A' for Active; 'I' for Inactive)
ROOT
ATOM      1  C   UNL d   1       0.844  -3.043   1.961  0.00  0.00     0.023 A 
ATOM      2  C1  UNL d   1      -0.286  -2.347   2.393  0.00  0.00     0.003 A 
ATOM      3  C2  UNL d   1      -0.722  -1.220   1.693  0.00  0.00     0.048 A 
ATOM      4  C3  UNL d   1      -0.025  -0.795   0.563  0.00  0.00     0.023 A 
ATOM      5  C4  UNL d   1       1.105  -1.489   0.127  0.00  0.00     0.048 A 
ATOM      6  C5  UNL d   1       1.538  -2.615   0.830  0.00  0.00     0.003 A 
ATOM      7  I   UNL d   1      -0.672   0.882  -0.480  0.00  0.00    -0.146 I 
ENDROOT
TORSDOF 0
ENDMDL
