MODEL 1
REMARK minimizedAffinity 10.5259628
REMARK minimizedRMSD -1
REMARK  0 active torsions:
REMARK  status: ('A' for Active; 'I' for Inactive)
ROOT
ATOM      1  C4' PXY d   1      -2.483  -5.997  -5.952  0.00  0.00     0.077 C 
ATOM      2  C1' PXY d   1      -2.789  -0.225  -5.983  0.00  0.00     0.077 C 
ATOM      3  C1  PXY d   1      -2.697  -1.738  -5.980  0.00  0.00    -0.082 A 
ATOM      4  C2  PXY d   1      -3.805  -2.461  -5.979  0.00  0.00     0.003 A 
ATOM      5  C3  PXY d   1      -3.740  -3.830  -5.944  0.00  0.00     0.003 A 
ATOM      6  C4  PXY d   1      -2.528  -4.467  -5.964  0.00  0.00    -0.082 A 
ATOM      7  C5  PXY d   1      -1.393  -3.736  -5.976  0.00  0.00     0.003 A 
ATOM      8  C6  PXY d   1      -1.480  -2.347  -5.970  0.00  0.00     0.003 A 
ENDROOT
TORSDOF 0
ENDMDL
