MODEL 1
REMARK minimizedAffinity -2.77513027
REMARK minimizedRMSD -1
REMARK  0 active torsions:
REMARK  status: ('A' for Active; 'I' for Inactive)
ROOT
ATOM      1  C4' PXY d   1      -5.227  -4.498   5.994  0.00  0.00     0.077 C 
ATOM      2  C1' PXY d   1      -5.255  -0.111   2.229  0.00  0.00     0.077 C 
ATOM      3  C1  PXY d   1      -5.251  -1.254   3.226  0.00  0.00    -0.082 A 
ATOM      4  C2  PXY d   1      -4.524  -2.331   2.983  0.00  0.00     0.003 A 
ATOM      5  C3  PXY d   1      -4.533  -3.387   3.858  0.00  0.00     0.003 A 
ATOM      6  C4  PXY d   1      -5.254  -3.317   5.020  0.00  0.00    -0.082 A 
ATOM      7  C5  PXY d   1      -5.991  -2.216   5.280  0.00  0.00     0.003 A 
ATOM      8  C6  PXY d   1      -6.000  -1.172   4.359  0.00  0.00     0.003 A 
ENDROOT
TORSDOF 0
ENDMDL
