MODEL 1
REMARK minimizedAffinity 8.05017185
REMARK minimizedRMSD -1
REMARK  0 active torsions:
REMARK  status: ('A' for Active; 'I' for Inactive)
ROOT
ATOM      1  C4' PXY d   1      -4.194  -4.721  -5.975  0.00  0.00     0.077 C 
ATOM      2  C1' PXY d   1       1.459  -3.514  -5.993  0.00  0.00     0.077 C 
ATOM      3  C1  PXY d   1      -0.021  -3.842  -5.994  0.00  0.00    -0.082 A 
ATOM      4  C2  PXY d   1      -0.908  -2.861  -5.995  0.00  0.00     0.003 A 
ATOM      5  C3  PXY d   1      -2.251  -3.140  -5.963  0.00  0.00     0.003 A 
ATOM      6  C4  PXY d   1      -2.690  -4.437  -5.984  0.00  0.00    -0.082 A 
ATOM      7  C5  PXY d   1      -1.790  -5.443  -5.994  0.00  0.00     0.003 A 
ATOM      8  C6  PXY d   1      -0.432  -5.139  -5.984  0.00  0.00     0.003 A 
ENDROOT
TORSDOF 0
ENDMDL
