MODEL 1
REMARK minimizedAffinity 9.17819023
REMARK minimizedRMSD -1
REMARK  0 active torsions:
REMARK  status: ('A' for Active; 'I' for Inactive)
ROOT
ATOM      1  C4' PXY d   1       0.240   0.227   3.866  0.00  0.00     0.077 C 
ATOM      2  C1' PXY d   1       0.189   3.558  -0.857  0.00  0.00     0.077 C 
ATOM      3  C1  PXY d   1       0.215   2.682   0.380  0.00  0.00    -0.082 A 
ATOM      4  C2  PXY d   1      -0.905   2.125   0.811  0.00  0.00     0.003 A 
ATOM      5  C3  PXY d   1      -0.906   1.356   1.946  0.00  0.00     0.003 A 
ATOM      6  C4  PXY d   1       0.262   1.111   2.617  0.00  0.00    -0.082 A 
ATOM      7  C5  PXY d   1       1.411   1.666   2.177  0.00  0.00     0.003 A 
ATOM      8  C6  PXY d   1       1.383   2.478   1.046  0.00  0.00     0.003 A 
ENDROOT
TORSDOF 0
ENDMDL
