MODEL 1
REMARK minimizedAffinity 5.60251856
REMARK minimizedRMSD -1
REMARK  0 active torsions:
REMARK  status: ('A' for Active; 'I' for Inactive)
ROOT
ATOM      1  C4' PXY d   1      -4.130   0.392   0.940  0.00  0.00     0.077 C 
ATOM      2  C1' PXY d   1      -6.000  -1.760   5.969  0.00  0.00     0.077 C 
ATOM      3  C1  PXY d   1      -5.520  -1.189   4.649  0.00  0.00    -0.082 A 
ATOM      4  C2  PXY d   1      -4.628  -1.854   3.934  0.00  0.00     0.003 A 
ATOM      5  C3  PXY d   1      -4.160  -1.337   2.754  0.00  0.00     0.003 A 
ATOM      6  C4  PXY d   1      -4.649  -0.151   2.274  0.00  0.00    -0.082 A 
ATOM      7  C5  PXY d   1      -5.568   0.529   2.993  0.00  0.00     0.003 A 
ATOM      8  C6  PXY d   1      -6.000   0.006   4.209  0.00  0.00     0.003 A 
ENDROOT
TORSDOF 0
ENDMDL
