MODEL 1
REMARK minimizedAffinity 4.59323168
REMARK minimizedRMSD -1
REMARK  0 active torsions:
REMARK  status: ('A' for Active; 'I' for Inactive)
ROOT
ATOM      1  C4' PXY d   1      -3.468   1.126   2.210  0.00  0.00     0.077 C 
ATOM      2  C1' PXY d   1      -6.000  -3.333   4.879  0.00  0.00     0.077 C 
ATOM      3  C1  PXY d   1      -5.348  -2.159   4.176  0.00  0.00    -0.082 A 
ATOM      4  C2  PXY d   1      -4.139  -2.297   3.656  0.00  0.00     0.003 A 
ATOM      5  C3  PXY d   1      -3.521  -1.235   3.046  0.00  0.00     0.003 A 
ATOM      6  C4  PXY d   1      -4.169  -0.036   2.920  0.00  0.00    -0.082 A 
ATOM      7  C5  PXY d   1      -5.407   0.110   3.439  0.00  0.00     0.003 A 
ATOM      8  C6  PXY d   1      -6.000  -0.967   4.091  0.00  0.00     0.003 A 
ENDROOT
TORSDOF 0
ENDMDL
