MODEL 1
REMARK minimizedAffinity 1.03607571
REMARK minimizedRMSD -1
REMARK  0 active torsions:
REMARK  status: ('A' for Active; 'I' for Inactive)
ROOT
ATOM      1  C4' PXY d   1      -4.114   0.371   0.372  0.00  0.00     0.077 C 
ATOM      2  C1' PXY d   1      -5.980  -2.323   5.134  0.00  0.00     0.077 C 
ATOM      3  C1  PXY d   1      -5.502  -1.610   3.885  0.00  0.00    -0.082 A 
ATOM      4  C2  PXY d   1      -4.593  -2.182   3.112  0.00  0.00     0.003 A 
ATOM      5  C3  PXY d   1      -4.126  -1.537   1.996  0.00  0.00     0.003 A 
ATOM      6  C4  PXY d   1      -4.633  -0.317   1.638  0.00  0.00    -0.082 A 
ATOM      7  C5  PXY d   1      -5.569   0.269   2.415  0.00  0.00     0.003 A 
ATOM      8  C6  PXY d   1      -6.000  -0.384   3.566  0.00  0.00     0.003 A 
ENDROOT
TORSDOF 0
ENDMDL
