MODEL 1
REMARK minimizedAffinity 8.9474678
REMARK minimizedRMSD -1
REMARK  0 active torsions:
REMARK  status: ('A' for Active; 'I' for Inactive)
ROOT
ATOM      1  C4' PXY d   1      -5.944  -4.954  -5.972  0.00  0.00     0.077 C 
ATOM      2  C1' PXY d   1      -0.306  -4.876  -4.699  0.00  0.00     0.077 C 
ATOM      3  C1  PXY d   1      -1.785  -4.909  -5.032  0.00  0.00    -0.082 A 
ATOM      4  C2  PXY d   1      -2.324  -3.914  -5.718  0.00  0.00     0.003 A 
ATOM      5  C3  PXY d   1      -3.665  -3.913  -6.000  0.00  0.00     0.003 A 
ATOM      6  C4  PXY d   1      -4.454  -4.967  -5.621  0.00  0.00    -0.082 A 
ATOM      7  C5  PXY d   1      -3.910  -5.991  -4.930  0.00  0.00     0.003 A 
ATOM      8  C6  PXY d   1      -2.554  -5.953  -4.618  0.00  0.00     0.003 A 
ENDROOT
TORSDOF 0
ENDMDL
