MODEL 1
REMARK minimizedAffinity 3.22881222
REMARK minimizedRMSD -1
REMARK  0 active torsions:
REMARK  status: ('A' for Active; 'I' for Inactive)
ROOT
ATOM      1  C4' PXY d   1      -0.002   6.000  -4.886  0.00  0.00     0.077 C 
ATOM      2  C1' PXY d   1      -5.548   4.369  -4.882  0.00  0.00     0.077 C 
ATOM      3  C1  PXY d   1      -4.096   4.806  -4.875  0.00  0.00    -0.082 A 
ATOM      4  C2  PXY d   1      -3.326   4.535  -5.916  0.00  0.00     0.003 A 
ATOM      5  C3  PXY d   1      -2.003   4.895  -5.912  0.00  0.00     0.003 A 
ATOM      6  C4  PXY d   1      -1.476   5.586  -4.854  0.00  0.00    -0.082 A 
ATOM      7  C5  PXY d   1      -2.258   5.876  -3.793  0.00  0.00     0.003 A 
ATOM      8  C6  PXY d   1      -3.588   5.465  -3.798  0.00  0.00     0.003 A 
ENDROOT
TORSDOF 0
ENDMDL
