MODEL 1
REMARK minimizedAffinity -4.06388426
REMARK minimizedRMSD -1
REMARK  0 active torsions:
REMARK  status: ('A' for Active; 'I' for Inactive)
ROOT
ATOM      1  O1  BZF d   1       2.664  -0.149   0.319  0.00  0.00    -0.204 OA
ATOM      2  C2  BZF d   1       3.163  -1.407   0.043  0.00  0.00     0.174 A 
ATOM      3  C3  BZF d   1       2.171  -2.247  -0.318  0.00  0.00    -0.012 A 
ATOM      4  C3A BZF d   1       0.990  -1.441  -0.354  0.00  0.00    -0.107 A 
ATOM      5  C4  BZF d   1      -0.315  -1.701  -0.660  0.00  0.00     0.055 A 
ATOM      6  C5  BZF d   1      -1.235  -0.710  -0.526  0.00  0.00    -0.016 A 
ATOM      7  C6  BZF d   1      -0.887   0.550  -0.084  0.00  0.00     0.022 A 
ATOM      8  C7  BZF d   1       0.396   0.857   0.227  0.00  0.00     0.029 A 
ATOM      9  C7A BZF d   1       1.334  -0.133   0.061  0.00  0.00     0.058 A 
ENDROOT
TORSDOF 0
ENDMDL
