MODEL 1
REMARK minimizedAffinity -1.26223874
REMARK minimizedRMSD -1
REMARK  0 active torsions:
REMARK  status: ('A' for Active; 'I' for Inactive)
ROOT
ATOM      1  O1  BZF d   1      -2.466   1.868   1.649  0.00  0.00    -0.204 OA
ATOM      2  C2  BZF d   1      -3.612   1.484   0.980  0.00  0.00     0.174 A 
ATOM      3  C3  BZF d   1      -3.316   0.642  -0.031  0.00  0.00    -0.012 A 
ATOM      4  C3A BZF d   1      -1.906   0.418   0.066  0.00  0.00    -0.107 A 
ATOM      5  C4  BZF d   1      -1.025  -0.340  -0.651  0.00  0.00     0.055 A 
ATOM      6  C5  BZF d   1       0.298  -0.281  -0.344  0.00  0.00    -0.016 A 
ATOM      7  C6  BZF d   1       0.774   0.527   0.668  0.00  0.00     0.022 A 
ATOM      8  C7  BZF d   1      -0.063   1.293   1.410  0.00  0.00     0.029 A 
ATOM      9  C7A BZF d   1      -1.404   1.211   1.124  0.00  0.00     0.058 A 
ENDROOT
TORSDOF 0
ENDMDL
