MODEL 1
REMARK minimizedAffinity -4.45359993
REMARK minimizedRMSD -1
REMARK  0 active torsions:
REMARK  status: ('A' for Active; 'I' for Inactive)
ROOT
ATOM      1  O1  BZF d   1       0.009   1.631  -0.394  0.00  0.00    -0.204 OA
ATOM      2  C2  BZF d   1      -0.838   0.610  -0.778  0.00  0.00     0.174 A 
ATOM      3  C3  BZF d   1      -0.283  -0.593  -0.524  0.00  0.00    -0.012 A 
ATOM      4  C3A BZF d   1       0.951  -0.305   0.139  0.00  0.00    -0.107 A 
ATOM      5  C4  BZF d   1       1.944  -1.088   0.655  0.00  0.00     0.055 A 
ATOM      6  C5  BZF d   1       3.052  -0.495   1.172  0.00  0.00    -0.016 A 
ATOM      7  C6  BZF d   1       3.203   0.876   1.184  0.00  0.00     0.022 A 
ATOM      8  C7  BZF d   1       2.243   1.694   0.688  0.00  0.00     0.029 A 
ATOM      9  C7A BZF d   1       1.107   1.099   0.195  0.00  0.00     0.058 A 
ENDROOT
TORSDOF 0
ENDMDL
