MODEL 1
REMARK minimizedAffinity 0.493887067
REMARK minimizedRMSD -1
REMARK  0 active torsions:
REMARK  status: ('A' for Active; 'I' for Inactive)
ROOT
ATOM      1  O1  BZF d   1      -2.618   1.695   2.381  0.00  0.00    -0.204 OA
ATOM      2  C2  BZF d   1      -3.860   1.140   2.141  0.00  0.00     0.174 A 
ATOM      3  C3  BZF d   1      -3.833   0.365   1.038  0.00  0.00    -0.012 A 
ATOM      4  C3A BZF d   1      -2.468   0.366   0.611  0.00  0.00    -0.107 A 
ATOM      5  C4  BZF d   1      -1.806  -0.236  -0.421  0.00  0.00     0.055 A 
ATOM      6  C5  BZF d   1      -0.486   0.028  -0.603  0.00  0.00    -0.016 A 
ATOM      7  C6  BZF d   1       0.203   0.892   0.224  0.00  0.00     0.022 A 
ATOM      8  C7  BZF d   1      -0.410   1.509   1.264  0.00  0.00     0.029 A 
ATOM      9  C7A BZF d   1      -1.736   1.218   1.470  0.00  0.00     0.058 A 
ENDROOT
TORSDOF 0
ENDMDL
