MODEL 1
REMARK minimizedAffinity -3.34771991
REMARK minimizedRMSD -1
REMARK  0 active torsions:
REMARK  status: ('A' for Active; 'I' for Inactive)
ROOT
ATOM      1  O1  BZF d   1      -3.477  -0.740   1.242  0.00  0.00    -0.204 OA
ATOM      2  C2  BZF d   1      -3.860   0.581   1.117  0.00  0.00     0.174 A 
ATOM      3  C3  BZF d   1      -2.851   1.327   0.622  0.00  0.00    -0.012 A 
ATOM      4  C3A BZF d   1      -1.800   0.398   0.339  0.00  0.00    -0.107 A 
ATOM      5  C4  BZF d   1      -0.546   0.530  -0.184  0.00  0.00     0.055 A 
ATOM      6  C5  BZF d   1       0.256  -0.564  -0.261  0.00  0.00    -0.016 A 
ATOM      7  C6  BZF d   1      -0.161  -1.803   0.179  0.00  0.00     0.022 A 
ATOM      8  C7  BZF d   1      -1.399  -1.985   0.700  0.00  0.00     0.029 A 
ATOM      9  C7A BZF d   1      -2.224  -0.887   0.749  0.00  0.00     0.058 A 
ENDROOT
TORSDOF 0
ENDMDL
