MODEL 1
REMARK minimizedAffinity -3.99834299
REMARK minimizedRMSD -1
REMARK  0 active torsions:
REMARK  status: ('A' for Active; 'I' for Inactive)
ROOT
ATOM      1  O1  BZF d   1       1.974   1.769  -0.066  0.00  0.00    -0.204 OA
ATOM      2  C2  BZF d   1       0.760   2.386  -0.299  0.00  0.00     0.174 A 
ATOM      3  C3  BZF d   1      -0.185   1.478  -0.618  0.00  0.00    -0.012 A 
ATOM      4  C3A BZF d   1       0.458   0.206  -0.491  0.00  0.00    -0.107 A 
ATOM      5  C4  BZF d   1       0.034  -1.081  -0.661  0.00  0.00     0.055 A 
ATOM      6  C5  BZF d   1       0.930  -2.094  -0.532  0.00  0.00    -0.016 A 
ATOM      7  C6  BZF d   1       2.257  -1.857  -0.238  0.00  0.00     0.022 A 
ATOM      8  C7  BZF d   1       2.723  -0.597  -0.056  0.00  0.00     0.029 A 
ATOM      9  C7A BZF d   1       1.813   0.427  -0.154  0.00  0.00     0.058 A 
ENDROOT
TORSDOF 0
ENDMDL
