MODEL 1
REMARK minimizedAffinity -3.08995152
REMARK minimizedRMSD -1
REMARK  0 active torsions:
REMARK  status: ('A' for Active; 'I' for Inactive)
ROOT
ATOM      1  O1  BZF d   1       2.129  -2.239  -0.222  0.00  0.00    -0.204 OA
ATOM      2  C2  BZF d   1       2.830  -1.653   0.815  0.00  0.00     0.174 A 
ATOM      3  C3  BZF d   1       2.196  -0.548   1.256  0.00  0.00    -0.012 A 
ATOM      4  C3A BZF d   1       0.979  -0.487   0.507  0.00  0.00    -0.107 A 
ATOM      5  C4  BZF d   1      -0.079   0.376   0.504  0.00  0.00     0.055 A 
ATOM      6  C5  BZF d   1      -1.076   0.195  -0.402  0.00  0.00    -0.016 A 
ATOM      7  C6  BZF d   1      -1.044  -0.833  -1.321  0.00  0.00     0.022 A 
ATOM      8  C7  BZF d   1      -0.018  -1.717  -1.353  0.00  0.00     0.029 A 
ATOM      9  C7A BZF d   1       0.975  -1.557  -0.418  0.00  0.00     0.058 A 
ENDROOT
TORSDOF 0
ENDMDL
