MODEL 1
REMARK minimizedAffinity 7.49142694
REMARK minimizedRMSD -1
REMARK  0 active torsions:
REMARK  status: ('A' for Active; 'I' for Inactive)
ROOT
ATOM      1  O1  BZF d   1       1.289  -3.672   0.520  0.00  0.00    -0.204 OA
ATOM      2  C2  BZF d   1       0.008  -3.802   1.022  0.00  0.00     0.174 A 
ATOM      3  C3  BZF d   1      -0.682  -2.652   0.873  0.00  0.00    -0.012 A 
ATOM      4  C3A BZF d   1       0.194  -1.778   0.156  0.00  0.00    -0.107 A 
ATOM      5  C4  BZF d   1       0.072  -0.498  -0.305  0.00  0.00     0.055 A 
ATOM      6  C5  BZF d   1       1.139   0.093  -0.903  0.00  0.00    -0.016 A 
ATOM      7  C6  BZF d   1       2.343  -0.563  -1.052  0.00  0.00     0.022 A 
ATOM      8  C7  BZF d   1       2.511  -1.835  -0.615  0.00  0.00     0.029 A 
ATOM      9  C7A BZF d   1       1.424  -2.446  -0.040  0.00  0.00     0.058 A 
ENDROOT
TORSDOF 0
ENDMDL
