MODEL 1
REMARK minimizedAffinity -1.5514456
REMARK minimizedRMSD -1
REMARK  0 active torsions:
REMARK  status: ('A' for Active; 'I' for Inactive)
ROOT
ATOM      1  O1  BZF d   1      -0.450  -1.552   0.972  0.00  0.00    -0.204 OA
ATOM      2  C2  BZF d   1       0.166  -1.643  -0.261  0.00  0.00     0.174 A 
ATOM      3  C3  BZF d   1      -0.296  -0.692  -1.098  0.00  0.00    -0.012 A 
ATOM      4  C3A BZF d   1      -1.194   0.097  -0.313  0.00  0.00    -0.107 A 
ATOM      5  C4  BZF d   1      -1.955   1.199  -0.580  0.00  0.00     0.055 A 
ATOM      6  C5  BZF d   1      -2.779   1.683   0.386  0.00  0.00    -0.016 A 
ATOM      7  C6  BZF d   1      -2.872   1.087   1.626  0.00  0.00     0.022 A 
ATOM      8  C7  BZF d   1      -2.133  -0.005   1.940  0.00  0.00     0.029 A 
ATOM      9  C7A BZF d   1      -1.275  -0.477   0.977  0.00  0.00     0.058 A 
ENDROOT
TORSDOF 0
ENDMDL
