MODEL 1
REMARK minimizedAffinity -4.4301815
REMARK minimizedRMSD -1
REMARK  0 active torsions:
REMARK  status: ('A' for Active; 'I' for Inactive)
ROOT
ATOM      1  O1  BZF d   1      -0.915   1.479  -0.269  0.00  0.00    -0.204 OA
ATOM      2  C2  BZF d   1      -2.138   0.942  -0.624  0.00  0.00     0.174 A 
ATOM      3  C3  BZF d   1      -2.048  -0.395  -0.777  0.00  0.00    -0.012 A 
ATOM      4  C3A BZF d   1      -0.705  -0.726  -0.410  0.00  0.00    -0.107 A 
ATOM      5  C4  BZF d   1      -0.013  -1.901  -0.340  0.00  0.00     0.055 A 
ATOM      6  C5  BZF d   1       1.306  -1.872  -0.015  0.00  0.00    -0.016 A 
ATOM      7  C6  BZF d   1       1.966  -0.688   0.241  0.00  0.00     0.022 A 
ATOM      8  C7  BZF d   1       1.320   0.503   0.189  0.00  0.00     0.029 A 
ATOM      9  C7A BZF d   1      -0.021   0.474  -0.106  0.00  0.00     0.058 A 
ENDROOT
TORSDOF 0
ENDMDL
