MODEL 1
REMARK minimizedAffinity 9.30083084
REMARK minimizedRMSD -1
REMARK  0 active torsions:
REMARK  status: ('A' for Active; 'I' for Inactive)
ROOT
ATOM      1  C   UNL d   1       2.936  -2.409   2.938  0.00  0.00     0.124 A 
ATOM      2  C1  UNL d   1       1.651  -2.064   3.332  0.00  0.00     0.062 A 
ATOM      3  C2  UNL d   1       0.894  -2.946   4.099  0.00  0.00     0.162 A 
ATOM      4  C3  UNL d   1       1.421  -4.181   4.477  0.00  0.00    -0.034 A 
ATOM      5  C4  UNL d   1       2.714  -4.521   4.076  0.00  0.00     0.162 A 
ATOM      6  C5  UNL d   1       3.466  -3.636   3.309  0.00  0.00     0.062 A 
ATOM      7  F   UNL d   1       4.708  -3.971   2.929  0.00  0.00    -0.097 F 
ATOM      8  F1  UNL d   1       3.252  -5.700   4.422  0.00  0.00    -0.096 F 
ATOM      9  I   UNL d   1       0.293  -5.501   5.623  0.00  0.00    -0.060 I 
ATOM     10  F2  UNL d   1      -0.345  -2.587   4.466  0.00  0.00    -0.096 F 
ATOM     11  F3  UNL d   1       1.136  -0.880   2.973  0.00  0.00    -0.097 F 
ATOM     12  F4  UNL d   1       3.662  -1.559   2.199  0.00  0.00    -0.092 F 
ENDROOT
TORSDOF 0
ENDMDL
