MODEL 1
REMARK minimizedAffinity 10.8320694
REMARK minimizedRMSD -1
REMARK  0 active torsions:
REMARK  status: ('A' for Active; 'I' for Inactive)
ROOT
ATOM      1  C   UNL d   1       3.742  -2.831   3.308  0.00  0.00     0.124 A 
ATOM      2  C1  UNL d   1       4.170  -3.672   4.327  0.00  0.00     0.062 A 
ATOM      3  C2  UNL d   1       3.253  -4.460   5.015  0.00  0.00     0.162 A 
ATOM      4  C3  UNL d   1       1.898  -4.413   4.687  0.00  0.00    -0.034 A 
ATOM      5  C4  UNL d   1       1.475  -3.564   3.662  0.00  0.00     0.162 A 
ATOM      6  C5  UNL d   1       2.396  -2.778   2.977  0.00  0.00     0.062 A 
ATOM      7  F   UNL d   1       1.981  -1.967   1.994  0.00  0.00    -0.097 F 
ATOM      8  F1  UNL d   1       0.180  -3.494   3.321  0.00  0.00    -0.096 F 
ATOM      9  I   UNL d   1       0.523  -5.590   5.714  0.00  0.00    -0.060 I 
ATOM     10  F2  UNL d   1       3.694  -5.263   5.995  0.00  0.00    -0.096 F 
ATOM     11  F3  UNL d   1       5.470  -3.724   4.650  0.00  0.00    -0.097 F 
ATOM     12  F4  UNL d   1       4.627  -2.073   2.648  0.00  0.00    -0.092 F 
ENDROOT
TORSDOF 0
ENDMDL
