MODEL 1
REMARK minimizedAffinity 18.4261723
REMARK minimizedRMSD -1
REMARK  0 active torsions:
REMARK  status: ('A' for Active; 'I' for Inactive)
ROOT
ATOM      1  C   UNL d   1       2.370  -1.907   3.177  0.00  0.00     0.124 A 
ATOM      2  C1  UNL d   1       2.843  -2.463   4.357  0.00  0.00     0.062 A 
ATOM      3  C2  UNL d   1       2.276  -3.632   4.857  0.00  0.00     0.162 A 
ATOM      4  C3  UNL d   1       1.229  -4.253   4.176  0.00  0.00    -0.034 A 
ATOM      5  C4  UNL d   1       0.757  -3.686   2.990  0.00  0.00     0.162 A 
ATOM      6  C5  UNL d   1       1.328  -2.518   2.495  0.00  0.00     0.062 A 
ATOM      7  F   UNL d   1       0.870  -1.982   1.354  0.00  0.00    -0.097 F 
ATOM      8  F1  UNL d   1      -0.248  -4.257   2.310  0.00  0.00    -0.096 F 
ATOM      9  I   UNL d   1       0.377  -6.000   4.920  0.00  0.00    -0.060 I 
ATOM     10  F2  UNL d   1       2.753  -4.147   6.000  0.00  0.00    -0.096 F 
ATOM     11  F3  UNL d   1       3.849  -1.874   5.019  0.00  0.00    -0.097 F 
ATOM     12  F4  UNL d   1       2.918  -0.782   2.699  0.00  0.00    -0.092 F 
ENDROOT
TORSDOF 0
ENDMDL
