MODEL 1
REMARK minimizedAffinity 22.8623695
REMARK minimizedRMSD -1
REMARK  0 active torsions:
REMARK  status: ('A' for Active; 'I' for Inactive)
ROOT
ATOM      1  C   UNL d   1       3.452  -2.476   3.742  0.00  0.00     0.124 A 
ATOM      2  C1  UNL d   1       3.838  -3.424   4.679  0.00  0.00     0.062 A 
ATOM      3  C2  UNL d   1       2.956  -4.431   5.060  0.00  0.00     0.162 A 
ATOM      4  C3  UNL d   1       1.678  -4.495   4.503  0.00  0.00    -0.034 A 
ATOM      5  C4  UNL d   1       1.297  -3.537   3.562  0.00  0.00     0.162 A 
ATOM      6  C5  UNL d   1       2.183  -2.533   3.184  0.00  0.00     0.062 A 
ATOM      7  F   UNL d   1       1.808  -1.617   2.279  0.00  0.00    -0.097 F 
ATOM      8  F1  UNL d   1       0.077  -3.570   3.006  0.00  0.00    -0.096 F 
ATOM      9  I   UNL d   1       0.356  -5.999   5.069  0.00  0.00    -0.060 I 
ATOM     10  F2  UNL d   1       3.355  -5.335   5.967  0.00  0.00    -0.096 F 
ATOM     11  F3  UNL d   1       5.064  -3.371   5.220  0.00  0.00    -0.097 F 
ATOM     12  F4  UNL d   1       4.303  -1.507   3.378  0.00  0.00    -0.092 F 
ENDROOT
TORSDOF 0
ENDMDL
