MODEL 1
REMARK minimizedAffinity 12.027853
REMARK minimizedRMSD -1
REMARK  0 active torsions:
REMARK  status: ('A' for Active; 'I' for Inactive)
ROOT
ATOM      1  C   UNL d   1      -2.085   0.758  -1.834  0.00  0.00     0.124 A 
ATOM      2  C1  UNL d   1      -2.116   1.259  -0.540  0.00  0.00     0.062 A 
ATOM      3  C2  UNL d   1      -3.076   2.199  -0.176  0.00  0.00     0.162 A 
ATOM      4  C3  UNL d   1      -4.014   2.644  -1.107  0.00  0.00    -0.034 A 
ATOM      5  C4  UNL d   1      -3.976   2.136  -2.407  0.00  0.00     0.162 A 
ATOM      6  C5  UNL d   1      -3.015   1.197  -2.766  0.00  0.00     0.062 A 
ATOM      7  F   UNL d   1      -2.987   0.714  -4.017  0.00  0.00    -0.097 F 
ATOM      8  F1  UNL d   1      -4.864   2.542  -3.327  0.00  0.00    -0.096 F 
ATOM      9  I   UNL d   1      -5.451   4.049  -0.566  0.00  0.00    -0.060 I 
ATOM     10  F2  UNL d   1      -3.082   2.666   1.082  0.00  0.00    -0.096 F 
ATOM     11  F3  UNL d   1      -1.218   0.838   0.362  0.00  0.00    -0.097 F 
ATOM     12  F4  UNL d   1      -1.159  -0.145  -2.182  0.00  0.00    -0.092 F 
ENDROOT
TORSDOF 0
ENDMDL
