MODEL 1
REMARK minimizedAffinity 26.7031574
REMARK minimizedRMSD -1
REMARK  0 active torsions:
REMARK  status: ('A' for Active; 'I' for Inactive)
ROOT
ATOM      1  C   UNL d   1      -2.683   0.549  -2.445  0.00  0.00     0.124 A 
ATOM      2  C1  UNL d   1      -2.914   1.699  -1.703  0.00  0.00     0.062 A 
ATOM      3  C2  UNL d   1      -3.861   2.627  -2.128  0.00  0.00     0.162 A 
ATOM      4  C3  UNL d   1      -4.584   2.408  -3.300  0.00  0.00    -0.034 A 
ATOM      5  C4  UNL d   1      -4.345   1.250  -4.042  0.00  0.00     0.162 A 
ATOM      6  C5  UNL d   1      -3.398   0.325  -3.613  0.00  0.00     0.062 A 
ATOM      7  F   UNL d   1      -3.176  -0.785  -4.331  0.00  0.00    -0.097 F 
ATOM      8  F1  UNL d   1      -5.022   1.008  -5.174  0.00  0.00    -0.096 F 
ATOM      9  I   UNL d   1      -6.000   3.794  -3.938  0.00  0.00    -0.060 I 
ATOM     10  F2  UNL d   1      -4.064   3.729  -1.391  0.00  0.00    -0.096 F 
ATOM     11  F3  UNL d   1      -2.224   1.917  -0.575  0.00  0.00    -0.097 F 
ATOM     12  F4  UNL d   1      -1.771  -0.342  -2.035  0.00  0.00    -0.092 F 
ENDROOT
TORSDOF 0
ENDMDL
