MODEL 1
REMARK minimizedAffinity 7.50511885
REMARK minimizedRMSD -1
REMARK  0 active torsions:
REMARK  status: ('A' for Active; 'I' for Inactive)
ROOT
ATOM      1  C2' OXE d   1       6.000  -5.998  -4.554  0.00  0.00     0.078 C 
ATOM      2  C1' OXE d   1       5.594  -5.205  -1.892  0.00  0.00     0.078 C 
ATOM      3  C1  OXE d   1       5.682  -4.126  -2.942  0.00  0.00    -0.078 A 
ATOM      4  C2  OXE d   1       5.927  -4.521  -4.235  0.00  0.00    -0.078 A 
ATOM      5  C3  OXE d   1       5.963  -3.569  -5.251  0.00  0.00     0.003 A 
ATOM      6  C4  OXE d   1       5.906  -2.204  -4.946  0.00  0.00    -0.002 A 
ATOM      7  C5  OXE d   1       5.696  -1.779  -3.630  0.00  0.00    -0.002 A 
ATOM      8  C6  OXE d   1       5.540  -2.727  -2.625  0.00  0.00     0.003 A 
ENDROOT
TORSDOF 0
ENDMDL
