MODEL 1
REMARK minimizedAffinity -0.50241369
REMARK minimizedRMSD -1
REMARK  0 active torsions:
REMARK  status: ('A' for Active; 'I' for Inactive)
ROOT
ATOM      1  C2' OXE d   1       0.090   3.755  -2.016  0.00  0.00     0.078 C 
ATOM      2  C1' OXE d   1      -0.459   1.335  -0.704  0.00  0.00     0.078 C 
ATOM      3  C1  OXE d   1       0.318   2.384   0.051  0.00  0.00    -0.078 A 
ATOM      4  C2  OXE d   1       0.623   3.547  -0.615  0.00  0.00    -0.078 A 
ATOM      5  C3  OXE d   1       1.291   4.569   0.053  0.00  0.00     0.003 A 
ATOM      6  C4  OXE d   1       1.788   4.364   1.346  0.00  0.00    -0.002 A 
ATOM      7  C5  OXE d   1       1.524   3.172   2.028  0.00  0.00    -0.002 A 
ATOM      8  C6  OXE d   1       0.755   2.191   1.411  0.00  0.00     0.003 A 
ENDROOT
TORSDOF 0
ENDMDL
