MODEL 1
REMARK minimizedAffinity 7.47593451
REMARK minimizedRMSD -1
REMARK  0 active torsions:
REMARK  status: ('A' for Active; 'I' for Inactive)
ROOT
ATOM      1  C2' OXE d   1       0.340   2.259  -0.661  0.00  0.00     0.078 C 
ATOM      2  C1' OXE d   1      -2.298   1.953  -1.572  0.00  0.00     0.078 C 
ATOM      3  C1  OXE d   1      -1.639   3.296  -1.764  0.00  0.00    -0.078 A 
ATOM      4  C2  OXE d   1      -0.365   3.451  -1.273  0.00  0.00    -0.078 A 
ATOM      5  C3  OXE d   1       0.310   4.653  -1.472  0.00  0.00     0.003 A 
ATOM      6  C4  OXE d   1      -0.353   5.753  -2.030  0.00  0.00    -0.002 A 
ATOM      7  C5  OXE d   1      -1.664   5.628  -2.500  0.00  0.00    -0.002 A 
ATOM      8  C6  OXE d   1      -2.305   4.398  -2.414  0.00  0.00     0.003 A 
ENDROOT
TORSDOF 0
ENDMDL
