MODEL 1
REMARK minimizedAffinity 8.03056526
REMARK minimizedRMSD -1
REMARK  0 active torsions:
REMARK  status: ('A' for Active; 'I' for Inactive)
ROOT
ATOM      1  C2' OXE d   1       5.997  -5.030  -3.384  0.00  0.00     0.078 C 
ATOM      2  C1' OXE d   1       3.600  -4.378  -4.692  0.00  0.00     0.078 C 
ATOM      3  C1  OXE d   1       4.214  -3.337  -3.789  0.00  0.00    -0.078 A 
ATOM      4  C2  OXE d   1       5.362  -3.682  -3.117  0.00  0.00    -0.078 A 
ATOM      5  C3  OXE d   1       6.000  -2.740  -2.315  0.00  0.00     0.003 A 
ATOM      6  C4  OXE d   1       5.401  -1.499  -2.066  0.00  0.00    -0.002 A 
ATOM      7  C5  OXE d   1       4.211  -1.143  -2.709  0.00  0.00    -0.002 A 
ATOM      8  C6  OXE d   1       3.629  -2.033  -3.605  0.00  0.00     0.003 A 
ENDROOT
TORSDOF 0
ENDMDL
