MODEL 1
REMARK minimizedAffinity 0.460287243
REMARK minimizedRMSD -1
REMARK  0 active torsions:
REMARK  status: ('A' for Active; 'I' for Inactive)
ROOT
ATOM      1  C2' OXE d   1      -0.002   1.937   0.011  0.00  0.00     0.078 C 
ATOM      2  C1' OXE d   1       1.829   3.299   1.647  0.00  0.00     0.078 C 
ATOM      3  C1  OXE d   1       1.268   4.034   0.455  0.00  0.00    -0.078 A 
ATOM      4  C2  OXE d   1       0.409   3.344  -0.366  0.00  0.00    -0.078 A 
ATOM      5  C3  OXE d   1      -0.180   3.992  -1.448  0.00  0.00     0.003 A 
ATOM      6  C4  OXE d   1       0.213   5.291  -1.796  0.00  0.00    -0.002 A 
ATOM      7  C5  OXE d   1       1.117   5.997  -0.995  0.00  0.00    -0.002 A 
ATOM      8  C6  OXE d   1       1.620   5.400   0.155  0.00  0.00     0.003 A 
ENDROOT
TORSDOF 0
ENDMDL
