MODEL 1
REMARK minimizedAffinity -1.96508253
REMARK minimizedRMSD -1
REMARK  0 active torsions:
REMARK  status: ('A' for Active; 'I' for Inactive)
ROOT
ATOM      1  C2' OXE d   1       2.891  -1.080  -1.506  0.00  0.00     0.078 C 
ATOM      2  C1' OXE d   1       2.510  -3.796  -0.910  0.00  0.00     0.078 C 
ATOM      3  C1  OXE d   1       3.755  -3.410  -1.669  0.00  0.00    -0.078 A 
ATOM      4  C2  OXE d   1       3.910  -2.085  -1.997  0.00  0.00    -0.078 A 
ATOM      5  C3  OXE d   1       5.066  -1.667  -2.649  0.00  0.00     0.003 A 
ATOM      6  C4  OXE d   1       5.999  -2.604  -3.109  0.00  0.00    -0.002 A 
ATOM      7  C5  OXE d   1       5.841  -3.964  -2.820  0.00  0.00    -0.002 A 
ATOM      8  C6  OXE d   1       4.748  -4.377  -2.066  0.00  0.00     0.003 A 
ENDROOT
TORSDOF 0
ENDMDL
