MODEL 1
REMARK minimizedAffinity -0.293210268
REMARK minimizedRMSD -1
REMARK  0 active torsions:
REMARK  status: ('A' for Active; 'I' for Inactive)
ROOT
ATOM      1  C2' OXE d   1      -2.450   0.009  -0.605  0.00  0.00     0.078 C 
ATOM      2  C1' OXE d   1      -0.919   2.320  -1.046  0.00  0.00     0.078 C 
ATOM      3  C1  OXE d   1      -2.216   2.181  -1.803  0.00  0.00    -0.078 A 
ATOM      4  C2  OXE d   1      -2.936   1.025  -1.616  0.00  0.00    -0.078 A 
ATOM      5  C3  OXE d   1      -4.166   0.869  -2.248  0.00  0.00     0.003 A 
ATOM      6  C4  OXE d   1      -4.603   1.809  -3.190  0.00  0.00    -0.002 A 
ATOM      7  C5  OXE d   1      -3.866   2.974  -3.424  0.00  0.00    -0.002 A 
ATOM      8  C6  OXE d   1      -2.694   3.195  -2.709  0.00  0.00     0.003 A 
ENDROOT
TORSDOF 0
ENDMDL
