MODEL 1
REMARK minimizedAffinity 0.342845947
REMARK minimizedRMSD -1
REMARK  0 active torsions:
REMARK  status: ('A' for Active; 'I' for Inactive)
ROOT
ATOM      1  C2' OXE d   1       5.935  -5.983  -0.229  0.00  0.00     0.078 C 
ATOM      2  C1' OXE d   1       4.882  -6.000  -2.831  0.00  0.00     0.078 C 
ATOM      3  C1  OXE d   1       4.745  -4.733  -2.025  0.00  0.00    -0.078 A 
ATOM      4  C2  OXE d   1       5.222  -4.749  -0.736  0.00  0.00    -0.078 A 
ATOM      5  C3  OXE d   1       5.170  -3.589   0.032  0.00  0.00     0.003 A 
ATOM      6  C4  OXE d   1       4.500  -2.454  -0.441  0.00  0.00    -0.002 A 
ATOM      7  C5  OXE d   1       3.972  -2.430  -1.736  0.00  0.00    -0.002 A 
ATOM      8  C6  OXE d   1       4.124  -3.544  -2.554  0.00  0.00     0.003 A 
ENDROOT
TORSDOF 0
ENDMDL
