MODEL 1
REMARK minimizedAffinity 3.96833539
REMARK minimizedRMSD -1
REMARK  0 active torsions:
REMARK  status: ('A' for Active; 'I' for Inactive)
ROOT
ATOM      1  C2' OXE d   1       1.464  -4.959  -1.023  0.00  0.00     0.078 C 
ATOM      2  C1' OXE d   1       3.341  -5.951  -2.860  0.00  0.00     0.078 C 
ATOM      3  C1  OXE d   1       3.784  -4.855  -1.923  0.00  0.00    -0.078 A 
ATOM      4  C2  OXE d   1       2.846  -4.343  -1.060  0.00  0.00    -0.078 A 
ATOM      5  C3  OXE d   1       3.217  -3.369  -0.137  0.00  0.00     0.003 A 
ATOM      6  C4  OXE d   1       4.494  -2.798  -0.184  0.00  0.00    -0.002 A 
ATOM      7  C5  OXE d   1       5.453  -3.277  -1.082  0.00  0.00    -0.002 A 
ATOM      8  C6  OXE d   1       5.128  -4.332  -1.928  0.00  0.00     0.003 A 
ENDROOT
TORSDOF 0
ENDMDL
