MODEL 1
REMARK minimizedAffinity 9.76813126
REMARK minimizedRMSD -1
REMARK  0 active torsions:
REMARK  status: ('A' for Active; 'I' for Inactive)
ROOT
ATOM      1  C2' OXE d   1       0.929  -1.898   5.045  0.00  0.00     0.078 C 
ATOM      2  C1' OXE d   1       2.633  -1.334   2.887  0.00  0.00     0.078 C 
ATOM      3  C1  OXE d   1       3.130  -2.286   3.946  0.00  0.00    -0.078 A 
ATOM      4  C2  OXE d   1       2.308  -2.520   5.022  0.00  0.00    -0.078 A 
ATOM      5  C3  OXE d   1       2.696  -3.431   6.000  0.00  0.00     0.003 A 
ATOM      6  C4  OXE d   1       3.978  -3.994   5.976  0.00  0.00    -0.002 A 
ATOM      7  C5  OXE d   1       4.846  -3.738   4.910  0.00  0.00    -0.002 A 
ATOM      8  C6  OXE d   1       4.422  -2.922   3.867  0.00  0.00     0.003 A 
ENDROOT
TORSDOF 0
ENDMDL
