MODEL 1
REMARK minimizedAffinity 4.02748203
REMARK minimizedRMSD -1
REMARK  0 active torsions:
REMARK  status: ('A' for Active; 'I' for Inactive)
ROOT
ATOM      1  C2' OXE d   1      -0.260   1.137   3.250  0.00  0.00     0.078 C 
ATOM      2  C1' OXE d   1       2.262   2.370   3.291  0.00  0.00     0.078 C 
ATOM      3  C1  OXE d   1       1.389   2.593   2.081  0.00  0.00    -0.078 A 
ATOM      4  C2  OXE d   1       0.176   1.948   2.049  0.00  0.00    -0.078 A 
ATOM      5  C3  OXE d   1      -0.690   2.163   0.981  0.00  0.00     0.003 A 
ATOM      6  C4  OXE d   1      -0.275   2.907  -0.130  0.00  0.00    -0.002 A 
ATOM      7  C5  OXE d   1       0.972   3.540  -0.135  0.00  0.00    -0.002 A 
ATOM      8  C6  OXE d   1       1.797   3.429   0.979  0.00  0.00     0.003 A 
ENDROOT
TORSDOF 0
ENDMDL
