MODEL 1
REMARK minimizedAffinity -3.78458428
REMARK minimizedRMSD -1
REMARK  3 active torsions:
REMARK  status: ('A' for Active; 'I' for Inactive)
REMARK    1  A    between atoms: C3'_2  and  C2'_3 
REMARK    2  A    between atoms: C2'_3  and  C1'_4 
REMARK    3  A    between atoms: C1'_4  and  C1_5 
ROOT
ATOM      1  C1  N4B d   1      -1.105  -1.103  -1.528  0.00  0.00    -0.075 A 
ATOM      2  C2  N4B d   1      -2.005  -2.176  -1.350  0.00  0.00     0.002 A 
ATOM      3  C3  N4B d   1      -2.973  -2.423  -2.292  0.00  0.00     0.002 A 
ATOM      4  C4  N4B d   1      -3.073  -1.602  -3.405  0.00  0.00    -0.004 A 
ATOM      5  C5  N4B d   1      -2.183  -0.583  -3.582  0.00  0.00     0.002 A 
ATOM      6  C6  N4B d   1      -1.202  -0.325  -2.645  0.00  0.00     0.002 A 
ENDROOT
BRANCH   1   7
ATOM      7  C1' N4B d   1      -0.084  -0.741  -0.484  0.00  0.00     0.057 C 
BRANCH   7   8
ATOM      8  C2' N4B d   1      -0.709  -0.889   0.900  0.00  0.00     0.009 C 
BRANCH   8   9
ATOM      9  C3' N4B d   1      -0.695   0.419   1.673  0.00  0.00     0.004 C 
ATOM     10  C4' N4B d   1      -1.814   1.337   1.281  0.00  0.00     0.003 C 
ENDBRANCH   8   9
ENDBRANCH   7   8
ENDBRANCH   1   7
TORSDOF 3
ENDMDL
