MODEL 1
REMARK minimizedAffinity -5.82019997
REMARK minimizedRMSD -1
REMARK  3 active torsions:
REMARK  status: ('A' for Active; 'I' for Inactive)
REMARK    1  A    between atoms: C3'_2  and  C2'_3 
REMARK    2  A    between atoms: C2'_3  and  C1'_4 
REMARK    3  A    between atoms: C1'_4  and  C1_5 
ROOT
ATOM      1  C1  N4B d   1       0.676   0.604   0.758  0.00  0.00    -0.075 A 
ATOM      2  C2  N4B d   1       1.840   0.113   0.127  0.00  0.00     0.002 A 
ATOM      3  C3  N4B d   1       3.034   0.773   0.281  0.00  0.00     0.002 A 
ATOM      4  C4  N4B d   1       3.086   1.930   1.043  0.00  0.00    -0.004 A 
ATOM      5  C5  N4B d   1       1.962   2.383   1.671  0.00  0.00     0.002 A 
ATOM      6  C6  N4B d   1       0.756   1.728   1.528  0.00  0.00     0.002 A 
ENDROOT
BRANCH   1   7
ATOM      7  C1' N4B d   1      -0.670  -0.035   0.550  0.00  0.00     0.057 C 
BRANCH   7   8
ATOM      8  C2' N4B d   1      -0.977  -0.080  -0.944  0.00  0.00     0.009 C 
BRANCH   8   9
ATOM      9  C3' N4B d   1      -1.298  -1.488  -1.416  0.00  0.00     0.004 C 
ATOM     10  C4' N4B d   1      -2.236  -1.508  -2.586  0.00  0.00     0.003 C 
ENDBRANCH   8   9
ENDBRANCH   7   8
ENDBRANCH   1   7
TORSDOF 3
ENDMDL
