MODEL 1
REMARK minimizedAffinity -4.87995815
REMARK minimizedRMSD -1
REMARK  3 active torsions:
REMARK  status: ('A' for Active; 'I' for Inactive)
REMARK    1  A    between atoms: C3'_2  and  C2'_3 
REMARK    2  A    between atoms: C2'_3  and  C1'_4 
REMARK    3  A    between atoms: C1'_4  and  C1_5 
ROOT
ATOM      1  C1  N4B d   1       0.580   1.252   0.742  0.00  0.00    -0.075 A 
ATOM      2  C2  N4B d   1       1.851   0.903   0.235  0.00  0.00     0.002 A 
ATOM      3  C3  N4B d   1       2.963   1.608   0.626  0.00  0.00     0.002 A 
ATOM      4  C4  N4B d   1       2.826   2.672   1.505  0.00  0.00    -0.004 A 
ATOM      5  C5  N4B d   1       1.598   2.986   2.009  0.00  0.00     0.002 A 
ATOM      6  C6  N4B d   1       0.473   2.284   1.628  0.00  0.00     0.002 A 
ENDROOT
BRANCH   1   7
ATOM      7  C1' N4B d   1      -0.676   0.566   0.277  0.00  0.00     0.057 C 
BRANCH   7   8
ATOM      8  C2' N4B d   1      -0.332  -0.393  -0.859  0.00  0.00     0.009 C 
BRANCH   8   9
ATOM      9  C3' N4B d   1      -1.342  -1.521  -0.976  0.00  0.00     0.004 C 
ATOM     10  C4' N4B d   1      -2.024  -1.554  -2.311  0.00  0.00     0.003 C 
ENDBRANCH   8   9
ENDBRANCH   7   8
ENDBRANCH   1   7
TORSDOF 3
ENDMDL
