MODEL 1
REMARK minimizedAffinity -3.17803121
REMARK minimizedRMSD -1
REMARK  3 active torsions:
REMARK  status: ('A' for Active; 'I' for Inactive)
REMARK    1  A    between atoms: C3'_2  and  C2'_3 
REMARK    2  A    between atoms: C2'_3  and  C1'_4 
REMARK    3  A    between atoms: C1'_4  and  C1_5 
ROOT
ATOM      1  C1  N4B d   1       0.566   0.040   0.087  0.00  0.00    -0.075 A 
ATOM      2  C2  N4B d   1       1.773   0.600  -0.387  0.00  0.00     0.002 A 
ATOM      3  C3  N4B d   1       2.355   1.646   0.285  0.00  0.00     0.002 A 
ATOM      4  C4  N4B d   1       1.742   2.160   1.418  0.00  0.00    -0.004 A 
ATOM      5  C5  N4B d   1       0.589   1.597   1.884  0.00  0.00     0.002 A 
ATOM      6  C6  N4B d   1      -0.005   0.543   1.221  0.00  0.00     0.002 A 
ENDROOT
BRANCH   1   7
ATOM      7  C1' N4B d   1      -0.153  -1.048  -0.662  0.00  0.00     0.057 C 
BRANCH   7   8
ATOM      8  C2' N4B d   1      -1.177  -0.417  -1.601  0.00  0.00     0.009 C 
BRANCH   8   9
ATOM      9  C3' N4B d   1      -2.083  -1.459  -2.237  0.00  0.00     0.004 C 
ATOM     10  C4' N4B d   1      -2.509  -1.087  -3.626  0.00  0.00     0.003 C 
ENDBRANCH   8   9
ENDBRANCH   7   8
ENDBRANCH   1   7
TORSDOF 3
ENDMDL
