MODEL 1
REMARK minimizedAffinity -0.34173277
REMARK minimizedRMSD -1
REMARK  3 active torsions:
REMARK  status: ('A' for Active; 'I' for Inactive)
REMARK    1  A    between atoms: C3'_2  and  C2'_3 
REMARK    2  A    between atoms: C2'_3  and  C1'_4 
REMARK    3  A    between atoms: C1'_4  and  C1_5 
ROOT
ATOM      1  C1  N4B d   1      -0.233  -0.371   0.201  0.00  0.00    -0.075 A 
ATOM      2  C2  N4B d   1      -1.394   0.378   0.494  0.00  0.00     0.002 A 
ATOM      3  C3  N4B d   1      -1.285   1.607   1.098  0.00  0.00     0.002 A 
ATOM      4  C4  N4B d   1      -0.032   2.097   1.433  0.00  0.00    -0.004 A 
ATOM      5  C5  N4B d   1       1.086   1.379   1.123  0.00  0.00     0.002 A 
ATOM      6  C6  N4B d   1       0.992   0.145   0.513  0.00  0.00     0.002 A 
ENDROOT
BRANCH   1   7
ATOM      7  C1' N4B d   1      -0.307  -1.756  -0.380  0.00  0.00     0.057 C 
BRANCH   7   8
ATOM      8  C2' N4B d   1      -1.738  -2.035  -0.830  0.00  0.00     0.009 C 
BRANCH   8   9
ATOM      9  C3' N4B d   1      -1.981  -1.589  -2.261  0.00  0.00     0.004 C 
ATOM     10  C4' N4B d   1      -3.420  -1.265  -2.533  0.00  0.00     0.003 C 
ENDBRANCH   8   9
ENDBRANCH   7   8
ENDBRANCH   1   7
TORSDOF 3
ENDMDL
