MODEL 1
REMARK minimizedAffinity 0.845804393
REMARK minimizedRMSD -1
REMARK  3 active torsions:
REMARK  status: ('A' for Active; 'I' for Inactive)
REMARK    1  A    between atoms: C3'_2  and  C2'_3 
REMARK    2  A    between atoms: C2'_3  and  C1'_4 
REMARK    3  A    between atoms: C1'_4  and  C1_5 
ROOT
ATOM      1  C1  N4B d   1      -0.370  -0.200   0.726  0.00  0.00    -0.075 A 
ATOM      2  C2  N4B d   1       1.005  -0.176   0.405  0.00  0.00     0.002 A 
ATOM      3  C3  N4B d   1       1.874   0.569   1.163  0.00  0.00     0.002 A 
ATOM      4  C4  N4B d   1       1.392   1.309   2.232  0.00  0.00    -0.004 A 
ATOM      5  C5  N4B d   1       0.066   1.259   2.552  0.00  0.00     0.002 A 
ATOM      6  C6  N4B d   1      -0.818   0.512   1.801  0.00  0.00     0.002 A 
ENDROOT
BRANCH   1   7
ATOM      7  C1' N4B d   1      -1.372  -0.931  -0.125  0.00  0.00     0.057 C 
BRANCH   7   8
ATOM      8  C2' N4B d   1      -2.025   0.056  -1.088  0.00  0.00     0.009 C 
BRANCH   8   9
ATOM      9  C3' N4B d   1      -2.820  -0.650  -2.173  0.00  0.00     0.004 C 
ATOM     10  C4' N4B d   1      -3.317  -1.998  -1.744  0.00  0.00     0.003 C 
ENDBRANCH   8   9
ENDBRANCH   7   8
ENDBRANCH   1   7
TORSDOF 3
ENDMDL
