MODEL 1
REMARK minimizedAffinity -5.1591115
REMARK minimizedRMSD -1
REMARK  3 active torsions:
REMARK  status: ('A' for Active; 'I' for Inactive)
REMARK    1  A    between atoms: C3'_2  and  C2'_3 
REMARK    2  A    between atoms: C2'_3  and  C1'_4 
REMARK    3  A    between atoms: C1'_4  and  C1_5 
ROOT
ATOM      1  C1  N4B d   1       0.974   0.182   0.099  0.00  0.00    -0.075 A 
ATOM      2  C2  N4B d   1       0.175   1.191   0.681  0.00  0.00     0.002 A 
ATOM      3  C3  N4B d   1       0.765   2.303   1.229  0.00  0.00     0.002 A 
ATOM      4  C4  N4B d   1       2.147   2.420   1.223  0.00  0.00    -0.004 A 
ATOM      5  C5  N4B d   1       2.910   1.453   0.637  0.00  0.00     0.002 A 
ATOM      6  C6  N4B d   1       2.330   0.331   0.079  0.00  0.00     0.002 A 
ENDROOT
BRANCH   1   7
ATOM      7  C1' N4B d   1       0.379  -1.092  -0.435  0.00  0.00     0.057 C 
BRANCH   7   8
ATOM      8  C2' N4B d   1      -1.069  -0.837  -0.842  0.00  0.00     0.009 C 
BRANCH   8   9
ATOM      9  C3' N4B d   1      -1.621  -1.955  -1.710  0.00  0.00     0.004 C 
ATOM     10  C4' N4B d   1      -1.818  -1.539  -3.137  0.00  0.00     0.003 C 
ENDBRANCH   8   9
ENDBRANCH   7   8
ENDBRANCH   1   7
TORSDOF 3
ENDMDL
