MODEL 1
REMARK minimizedAffinity -4.2846179
REMARK minimizedRMSD -1
REMARK  3 active torsions:
REMARK  status: ('A' for Active; 'I' for Inactive)
REMARK    1  A    between atoms: C3'_2  and  C2'_3 
REMARK    2  A    between atoms: C2'_3  and  C1'_4 
REMARK    3  A    between atoms: C1'_4  and  C1_5 
ROOT
ATOM      1  C1  N4B d   1       0.190   0.092  -0.021  0.00  0.00    -0.075 A 
ATOM      2  C2  N4B d   1      -0.452   0.631   1.115  0.00  0.00     0.002 A 
ATOM      3  C3  N4B d   1       0.029   1.778   1.697  0.00  0.00     0.002 A 
ATOM      4  C4  N4B d   1       1.159   2.390   1.175  0.00  0.00    -0.004 A 
ATOM      5  C5  N4B d   1       1.759   1.878   0.062  0.00  0.00     0.002 A 
ATOM      6  C6  N4B d   1       1.283   0.728  -0.536  0.00  0.00     0.002 A 
ENDROOT
BRANCH   1   7
ATOM      7  C1' N4B d   1      -0.248  -1.206  -0.641  0.00  0.00     0.057 C 
BRANCH   7   8
ATOM      8  C2' N4B d   1      -0.847  -0.928  -2.017  0.00  0.00     0.009 C 
BRANCH   8   9
ATOM      9  C3' N4B d   1      -2.023  -1.840  -2.320  0.00  0.00     0.004 C 
ATOM     10  C4' N4B d   1      -3.164  -1.118  -2.974  0.00  0.00     0.003 C 
ENDBRANCH   8   9
ENDBRANCH   7   8
ENDBRANCH   1   7
TORSDOF 3
ENDMDL
