MODEL 1
REMARK minimizedAffinity -2.83858418
REMARK minimizedRMSD -1
REMARK  3 active torsions:
REMARK  status: ('A' for Active; 'I' for Inactive)
REMARK    1  A    between atoms: C3'_2  and  C2'_3 
REMARK    2  A    between atoms: C2'_3  and  C1'_4 
REMARK    3  A    between atoms: C1'_4  and  C1_5 
ROOT
ATOM      1  C1  N4B d   1       0.115  -0.095  -0.613  0.00  0.00    -0.075 A 
ATOM      2  C2  N4B d   1       1.427  -0.246  -0.113  0.00  0.00     0.002 A 
ATOM      3  C3  N4B d   1       1.745   0.235   1.134  0.00  0.00     0.002 A 
ATOM      4  C4  N4B d   1       0.777   0.883   1.887  0.00  0.00    -0.004 A 
ATOM      5  C5  N4B d   1      -0.494   1.002   1.406  0.00  0.00     0.002 A 
ATOM      6  C6  N4B d   1      -0.829   0.521   0.157  0.00  0.00     0.002 A 
ENDROOT
BRANCH   1   7
ATOM      7  C1' N4B d   1      -0.259  -0.527  -2.005  0.00  0.00     0.057 C 
BRANCH   7   8
ATOM      8  C2' N4B d   1      -1.779  -0.571  -2.125  0.00  0.00     0.009 C 
BRANCH   8   9
ATOM      9  C3' N4B d   1      -2.231  -0.736  -3.566  0.00  0.00     0.004 C 
ATOM     10  C4' N4B d   1      -1.123  -1.178  -4.475  0.00  0.00     0.003 C 
ENDBRANCH   8   9
ENDBRANCH   7   8
ENDBRANCH   1   7
TORSDOF 3
ENDMDL
