MODEL 1
REMARK minimizedAffinity -3.51925898
REMARK minimizedRMSD -1
REMARK  3 active torsions:
REMARK  status: ('A' for Active; 'I' for Inactive)
REMARK    1  A    between atoms: C3'_2  and  C2'_3 
REMARK    2  A    between atoms: C2'_3  and  C1'_4 
REMARK    3  A    between atoms: C1'_4  and  C1_5 
ROOT
ATOM      1  C1  N4B d   1      -0.919  -1.278  -1.292  0.00  0.00    -0.075 A 
ATOM      2  C2  N4B d   1      -1.914  -2.220  -0.948  0.00  0.00     0.002 A 
ATOM      3  C3  N4B d   1      -2.833  -2.622  -1.886  0.00  0.00     0.002 A 
ATOM      4  C4  N4B d   1      -2.789  -2.085  -3.164  0.00  0.00    -0.004 A 
ATOM      5  C5  N4B d   1      -1.809  -1.195  -3.496  0.00  0.00     0.002 A 
ATOM      6  C6  N4B d   1      -0.877  -0.784  -2.564  0.00  0.00     0.002 A 
ENDROOT
BRANCH   1   7
ATOM      7  C1' N4B d   1       0.054  -0.744  -0.277  0.00  0.00     0.057 C 
BRANCH   7   8
ATOM      8  C2' N4B d   1      -0.204   0.746  -0.072  0.00  0.00     0.009 C 
BRANCH   8   9
ATOM      9  C3' N4B d   1      -0.634   1.058   1.351  0.00  0.00     0.004 C 
ATOM     10  C4' N4B d   1       0.337   1.947   2.069  0.00  0.00     0.003 C 
ENDBRANCH   8   9
ENDBRANCH   7   8
ENDBRANCH   1   7
TORSDOF 3
ENDMDL
