MODEL 1
REMARK minimizedAffinity -2.45286727
REMARK minimizedRMSD -1
REMARK  3 active torsions:
REMARK  status: ('A' for Active; 'I' for Inactive)
REMARK    1  A    between atoms: C3'_2  and  C2'_3 
REMARK    2  A    between atoms: C2'_3  and  C1'_4 
REMARK    3  A    between atoms: C1'_4  and  C1_5 
ROOT
ATOM      1  C1  N4B d   1       0.035   0.643   1.145  0.00  0.00    -0.075 A 
ATOM      2  C2  N4B d   1       0.348   0.059  -0.102  0.00  0.00     0.002 A 
ATOM      3  C3  N4B d   1       0.006  -1.247  -0.354  0.00  0.00     0.002 A 
ATOM      4  C4  N4B d   1      -0.629  -1.991   0.629  0.00  0.00    -0.004 A 
ATOM      5  C5  N4B d   1      -0.950  -1.412   1.822  0.00  0.00     0.002 A 
ATOM      6  C6  N4B d   1      -0.616  -0.100   2.087  0.00  0.00     0.002 A 
ENDROOT
BRANCH   1   7
ATOM      7  C1' N4B d   1       0.465   2.041   1.498  0.00  0.00     0.057 C 
BRANCH   7   8
ATOM      8  C2' N4B d   1       1.661   1.973   2.443  0.00  0.00     0.009 C 
BRANCH   8   9
ATOM      9  C3' N4B d   1       2.951   2.389   1.757  0.00  0.00     0.004 C 
ATOM     10  C4' N4B d   1       3.653   1.241   1.094  0.00  0.00     0.003 C 
ENDBRANCH   8   9
ENDBRANCH   7   8
ENDBRANCH   1   7
TORSDOF 3
ENDMDL
