MODEL 1
REMARK minimizedAffinity -3.42114258
REMARK minimizedRMSD -1
REMARK  1 active torsions:
REMARK  status: ('A' for Active; 'I' for Inactive)
REMARK    1  A    between atoms: C1_2  and  C2_3 
ROOT
ATOM      1  C2  UNL d   1       1.221  -0.959  -0.343  0.00  0.00    -0.081 A 
ATOM      2  C3  UNL d   1       0.295  -1.595  -1.179  0.00  0.00     0.006 A 
ATOM      3  C4  UNL d   1      -0.998  -1.085  -1.321  0.00  0.00     0.002 A 
ATOM      4  C5  UNL d   1      -1.384   0.071  -0.635  0.00  0.00    -0.080 A 
ATOM      5  C6  UNL d   1      -2.760   0.645  -0.801  0.00  0.00     0.076 C 
ATOM      6  C7  UNL d   1      -0.465   0.696   0.215  0.00  0.00     0.002 A 
ATOM      7  C8  UNL d   1       0.828   0.187   0.357  0.00  0.00     0.006 A 
ENDROOT
BRANCH   1   8
ATOM      8  C1  UNL d   1       2.635  -1.469  -0.238  0.00  0.00     0.054 C 
ATOM      9  C   UNL d   1       3.644  -0.350  -0.457  0.00  0.00     0.018 C 
ENDBRANCH   1   8
TORSDOF 1
ENDMDL
