MODEL 1
REMARK minimizedAffinity -1.89795446
REMARK minimizedRMSD -1
REMARK  1 active torsions:
REMARK  status: ('A' for Active; 'I' for Inactive)
REMARK    1  A    between atoms: C1_2  and  C2_3 
ROOT
ATOM      1  C2  UNL d   1      -1.260   0.447  -0.007  0.00  0.00    -0.081 A 
ATOM      2  C3  UNL d   1      -1.271  -0.711  -0.794  0.00  0.00     0.006 A 
ATOM      3  C4  UNL d   1      -0.126  -1.505  -0.903  0.00  0.00     0.002 A 
ATOM      4  C5  UNL d   1       1.045  -1.158  -0.221  0.00  0.00    -0.080 A 
ATOM      5  C6  UNL d   1       2.271  -2.017  -0.305  0.00  0.00     0.076 C 
ATOM      6  C7  UNL d   1       1.061   0.009   0.551  0.00  0.00     0.002 A 
ATOM      7  C8  UNL d   1      -0.082   0.803   0.660  0.00  0.00     0.006 A 
ENDROOT
BRANCH   1   8
ATOM      8  C1  UNL d   1      -2.512   1.269   0.164  0.00  0.00     0.054 C 
ATOM      9  C   UNL d   1      -2.643   1.787   1.589  0.00  0.00     0.018 C 
ENDBRANCH   1   8
TORSDOF 1
ENDMDL
