MODEL 1
REMARK minimizedAffinity -2.72459841
REMARK minimizedRMSD -1
REMARK  1 active torsions:
REMARK  status: ('A' for Active; 'I' for Inactive)
REMARK    1  A    between atoms: C1_2  and  C2_3 
ROOT
ATOM      1  C2  UNL d   1      -0.674   0.356   0.018  0.00  0.00    -0.081 A 
ATOM      2  C3  UNL d   1      -0.587  -1.042   0.035  0.00  0.00     0.006 A 
ATOM      3  C4  UNL d   1       0.648  -1.677  -0.115  0.00  0.00     0.002 A 
ATOM      4  C5  UNL d   1       1.817  -0.926  -0.275  0.00  0.00    -0.080 A 
ATOM      5  C6  UNL d   1       3.154  -1.595  -0.406  0.00  0.00     0.076 C 
ATOM      6  C7  UNL d   1       1.729   0.470  -0.309  0.00  0.00     0.002 A 
ATOM      7  C8  UNL d   1       0.494   1.105  -0.160  0.00  0.00     0.006 A 
ENDROOT
BRANCH   1   8
ATOM      8  C1  UNL d   1      -1.995   1.044   0.244  0.00  0.00     0.054 C 
ATOM      9  C   UNL d   1      -2.661   0.558   1.523  0.00  0.00     0.018 C 
ENDBRANCH   1   8
TORSDOF 1
ENDMDL
