MODEL 1
REMARK minimizedAffinity -2.27325726
REMARK minimizedRMSD -1
REMARK  1 active torsions:
REMARK  status: ('A' for Active; 'I' for Inactive)
REMARK    1  A    between atoms: C1_2  and  C2_3 
ROOT
ATOM      1  C2  UNL d   1       0.907  -1.106  -0.520  0.00  0.00    -0.081 A 
ATOM      2  C3  UNL d   1       0.799   0.245  -0.167  0.00  0.00     0.006 A 
ATOM      3  C4  UNL d   1      -0.453   0.860  -0.095  0.00  0.00     0.002 A 
ATOM      4  C5  UNL d   1      -1.617   0.133  -0.367  0.00  0.00    -0.080 A 
ATOM      5  C6  UNL d   1      -2.970   0.773  -0.264  0.00  0.00     0.076 C 
ATOM      6  C7  UNL d   1      -1.508  -1.212  -0.737  0.00  0.00     0.002 A 
ATOM      7  C8  UNL d   1      -0.256  -1.827  -0.810  0.00  0.00     0.006 A 
ENDROOT
BRANCH   1   8
ATOM      8  C1  UNL d   1       2.251  -1.789  -0.536  0.00  0.00     0.054 C 
ATOM      9  C   UNL d   1       3.376  -0.802  -0.258  0.00  0.00     0.018 C 
ENDBRANCH   1   8
TORSDOF 1
ENDMDL
