MODEL 1
REMARK minimizedAffinity -0.682096839
REMARK minimizedRMSD -1
REMARK  1 active torsions:
REMARK  status: ('A' for Active; 'I' for Inactive)
REMARK    1  A    between atoms: C1_2  and  C2_3 
ROOT
ATOM      1  C2  UNL d   1       0.624  -1.949  -1.142  0.00  0.00    -0.081 A 
ATOM      2  C3  UNL d   1       0.249  -0.648  -0.786  0.00  0.00     0.006 A 
ATOM      3  C4  UNL d   1       1.197   0.253  -0.296  0.00  0.00     0.002 A 
ATOM      4  C5  UNL d   1       2.537  -0.129  -0.162  0.00  0.00    -0.080 A 
ATOM      5  C6  UNL d   1       3.570   0.839   0.334  0.00  0.00     0.076 C 
ATOM      6  C7  UNL d   1       2.908  -1.434  -0.501  0.00  0.00     0.002 A 
ATOM      7  C8  UNL d   1       1.960  -2.336  -0.990  0.00  0.00     0.006 A 
ENDROOT
BRANCH   1   8
ATOM      8  C1  UNL d   1      -0.383  -2.903  -1.731  0.00  0.00     0.054 C 
ATOM      9  C   UNL d   1      -0.709  -2.543  -3.173  0.00  0.00     0.018 C 
ENDBRANCH   1   8
TORSDOF 1
ENDMDL
