MODEL 1
REMARK minimizedAffinity -1.30573213
REMARK minimizedRMSD -1
REMARK  1 active torsions:
REMARK  status: ('A' for Active; 'I' for Inactive)
REMARK    1  A    between atoms: C1_2  and  C2_3 
ROOT
ATOM      1  C2  UNL d   1       0.661   4.352  -1.221  0.00  0.00    -0.073 A 
ATOM      2  C3  UNL d   1       1.155   4.765   0.021  0.00  0.00    -0.002 A 
ATOM      3  C4  UNL d   1       1.070   3.920   1.129  0.00  0.00     0.004 A 
ATOM      4  C5  UNL d   1       0.499   2.654   1.005  0.00  0.00    -0.004 A 
ATOM      5  C6  UNL d   1       0.011   2.219  -0.232  0.00  0.00    -0.075 A 
ATOM      6  C7  UNL d   1      -0.609   0.860  -0.382  0.00  0.00     0.076 C 
ATOM      7  C8  UNL d   1       0.097   3.074  -1.339  0.00  0.00     0.001 A 
ENDROOT
BRANCH   1   8
ATOM      8  C1  UNL d   1       0.757   5.258  -2.422  0.00  0.00     0.053 C 
ATOM      9  C   UNL d   1      -0.551   5.986  -2.691  0.00  0.00     0.018 C 
ENDBRANCH   1   8
TORSDOF 1
ENDMDL
