MODEL 1
REMARK minimizedAffinity 0.897656322
REMARK minimizedRMSD -1
REMARK  1 active torsions:
REMARK  status: ('A' for Active; 'I' for Inactive)
REMARK    1  A    between atoms: C1_2  and  C2_3 
ROOT
ATOM      1  C2  UNL d   1       0.299   2.897   0.186  0.00  0.00    -0.073 A 
ATOM      2  C3  UNL d   1       1.429   3.000   1.005  0.00  0.00    -0.002 A 
ATOM      3  C4  UNL d   1       2.435   3.920   0.704  0.00  0.00     0.004 A 
ATOM      4  C5  UNL d   1       2.319   4.748  -0.412  0.00  0.00    -0.004 A 
ATOM      5  C6  UNL d   1       1.191   4.668  -1.235  0.00  0.00    -0.075 A 
ATOM      6  C7  UNL d   1       1.051   5.551  -2.440  0.00  0.00     0.076 C 
ATOM      7  C8  UNL d   1       0.186   3.740  -0.928  0.00  0.00     0.001 A 
ENDROOT
BRANCH   1   8
ATOM      8  C1  UNL d   1      -0.793   1.910   0.511  0.00  0.00     0.053 C 
ATOM      9  C   UNL d   1      -0.297   0.783   1.402  0.00  0.00     0.018 C 
ENDBRANCH   1   8
TORSDOF 1
ENDMDL
