MODEL 1
REMARK minimizedAffinity 4.12796879
REMARK minimizedRMSD -1
REMARK  1 active torsions:
REMARK  status: ('A' for Active; 'I' for Inactive)
REMARK    1  A    between atoms: C1_2  and  C2_3 
ROOT
ATOM      1  C2  UNL d   1      -0.107   3.255  -1.060  0.00  0.00    -0.073 A 
ATOM      2  C3  UNL d   1       1.120   3.906  -0.894  0.00  0.00    -0.002 A 
ATOM      3  C4  UNL d   1       1.295   5.210  -1.359  0.00  0.00     0.004 A 
ATOM      4  C5  UNL d   1       0.244   5.879  -1.987  0.00  0.00    -0.004 A 
ATOM      5  C6  UNL d   1      -0.994   5.249  -2.151  0.00  0.00    -0.075 A 
ATOM      6  C7  UNL d   1      -2.134   5.954  -2.827  0.00  0.00     0.076 C 
ATOM      7  C8  UNL d   1      -1.161   3.938  -1.685  0.00  0.00     0.001 A 
ENDROOT
BRANCH   1   8
ATOM      8  C1  UNL d   1      -0.303   1.849  -0.555  0.00  0.00     0.053 C 
ATOM      9  C   UNL d   1      -0.265   1.779   0.964  0.00  0.00     0.018 C 
ENDBRANCH   1   8
TORSDOF 1
ENDMDL
