MODEL 1
REMARK minimizedAffinity -0.213846549
REMARK minimizedRMSD -1
REMARK  1 active torsions:
REMARK  status: ('A' for Active; 'I' for Inactive)
REMARK    1  A    between atoms: C1_2  and  C2_3 
ROOT
ATOM      1  C2  UNL d   1       0.762   4.440  -0.516  0.00  0.00    -0.073 A 
ATOM      2  C3  UNL d   1       1.272   4.147   0.754  0.00  0.00    -0.002 A 
ATOM      3  C4  UNL d   1       1.095   2.879   1.310  0.00  0.00     0.004 A 
ATOM      4  C5  UNL d   1       0.414   1.890   0.600  0.00  0.00    -0.004 A 
ATOM      5  C6  UNL d   1      -0.093   2.160  -0.675  0.00  0.00    -0.075 A 
ATOM      6  C7  UNL d   1      -0.831   1.108  -1.451  0.00  0.00     0.076 C 
ATOM      7  C8  UNL d   1       0.086   3.436  -1.225  0.00  0.00     0.001 A 
ENDROOT
BRANCH   1   8
ATOM      8  C1  UNL d   1       0.956   5.805  -1.123  0.00  0.00     0.053 C 
ATOM      9  C   UNL d   1       0.139   5.986  -2.392  0.00  0.00     0.018 C 
ENDBRANCH   1   8
TORSDOF 1
ENDMDL
