MODEL 1
REMARK minimizedAffinity -2.76322794
REMARK minimizedRMSD -1
REMARK  1 active torsions:
REMARK  status: ('A' for Active; 'I' for Inactive)
REMARK    1  A    between atoms: C1_2  and  C2_3 
ROOT
ATOM      1  C2  UNL d   1      -0.577  -4.794  -2.859  0.00  0.00    -0.073 A 
ATOM      2  C3  UNL d   1      -0.840  -6.000  -3.519  0.00  0.00    -0.002 A 
ATOM      3  C4  UNL d   1      -1.250  -5.999  -4.853  0.00  0.00     0.004 A 
ATOM      4  C5  UNL d   1      -1.394  -4.795  -5.542  0.00  0.00    -0.004 A 
ATOM      5  C6  UNL d   1      -1.125  -3.580  -4.904  0.00  0.00    -0.075 A 
ATOM      6  C7  UNL d   1      -1.277  -2.276  -5.631  0.00  0.00     0.076 C 
ATOM      7  C8  UNL d   1      -0.716  -3.589  -3.563  0.00  0.00     0.001 A 
ENDROOT
BRANCH   1   8
ATOM      8  C1  UNL d   1      -0.128  -4.790  -1.421  0.00  0.00     0.053 C 
ATOM      9  C   UNL d   1       1.094  -5.669  -1.203  0.00  0.00     0.018 C 
ENDBRANCH   1   8
TORSDOF 1
ENDMDL
