MODEL 1
REMARK minimizedAffinity 10.3211126
REMARK minimizedRMSD -1
REMARK  1 active torsions:
REMARK  status: ('A' for Active; 'I' for Inactive)
REMARK    1  A    between atoms: C1_2  and  C2_3 
ROOT
ATOM      1  C2  UNL d   1       0.486   3.455  -0.276  0.00  0.00    -0.073 A 
ATOM      2  C3  UNL d   1      -0.215   4.483   0.364  0.00  0.00    -0.002 A 
ATOM      3  C4  UNL d   1      -0.512   5.664  -0.318  0.00  0.00     0.004 A 
ATOM      4  C5  UNL d   1      -0.117   5.827  -1.646  0.00  0.00    -0.004 A 
ATOM      5  C6  UNL d   1       0.574   4.806  -2.306  0.00  0.00    -0.075 A 
ATOM      6  C7  UNL d   1       1.008   4.965  -3.733  0.00  0.00     0.076 C 
ATOM      7  C8  UNL d   1       0.871   3.624  -1.614  0.00  0.00     0.001 A 
ENDROOT
BRANCH   1   8
ATOM      8  C1  UNL d   1       0.803   2.175   0.454  0.00  0.00     0.053 C 
ATOM      9  C   UNL d   1       0.171   2.137   1.837  0.00  0.00     0.018 C 
ENDBRANCH   1   8
TORSDOF 1
ENDMDL
