MODEL 1
REMARK minimizedAffinity 5.59852505
REMARK minimizedRMSD -1
REMARK  1 active torsions:
REMARK  status: ('A' for Active; 'I' for Inactive)
REMARK    1  A    between atoms: C1_2  and  C2_3 
ROOT
ATOM      1  C2  UNL d   1       0.701   1.067   1.168  0.00  0.00    -0.073 A 
ATOM      2  C3  UNL d   1       1.483   1.991   1.869  0.00  0.00    -0.002 A 
ATOM      3  C4  UNL d   1       1.817   3.216   1.288  0.00  0.00     0.004 A 
ATOM      4  C5  UNL d   1       1.367   3.531   0.006  0.00  0.00    -0.004 A 
ATOM      5  C6  UNL d   1       0.575   2.624  -0.706  0.00  0.00    -0.075 A 
ATOM      6  C7  UNL d   1       0.085   2.947  -2.087  0.00  0.00     0.076 C 
ATOM      7  C8  UNL d   1       0.246   1.396  -0.117  0.00  0.00     0.001 A 
ENDROOT
BRANCH   1   8
ATOM      8  C1  UNL d   1       0.333  -0.254   1.793  0.00  0.00     0.053 C 
ATOM      9  C   UNL d   1       1.235  -1.382   1.316  0.00  0.00     0.018 C 
ENDBRANCH   1   8
TORSDOF 1
ENDMDL
