MODEL 1
REMARK minimizedAffinity -2.2316215
REMARK minimizedRMSD -1
REMARK  1 active torsions:
REMARK  status: ('A' for Active; 'I' for Inactive)
REMARK    1  A    between atoms: C1_2  and  C2_3 
ROOT
ATOM      1  C2  UNL d   1       0.535   3.384  -0.510  0.00  0.00    -0.073 A 
ATOM      2  C3  UNL d   1       0.736   2.904   0.789  0.00  0.00    -0.002 A 
ATOM      3  C4  UNL d   1       0.120   1.724   1.208  0.00  0.00     0.004 A 
ATOM      4  C5  UNL d   1      -0.696   1.008   0.331  0.00  0.00    -0.004 A 
ATOM      5  C6  UNL d   1      -0.899   1.465  -0.975  0.00  0.00    -0.075 A 
ATOM      6  C7  UNL d   1      -1.775   0.709  -1.930  0.00  0.00     0.076 C 
ATOM      7  C8  UNL d   1      -0.279   2.653  -1.387  0.00  0.00     0.001 A 
ENDROOT
BRANCH   1   8
ATOM      8  C1  UNL d   1       1.203   4.654  -0.968  0.00  0.00     0.053 C 
ATOM      9  C   UNL d   1       0.262   5.534  -1.776  0.00  0.00     0.018 C 
ENDBRANCH   1   8
TORSDOF 1
ENDMDL
