MODEL 1
REMARK minimizedAffinity 3.2363987
REMARK minimizedRMSD -1
REMARK  3 active torsions:
REMARK  status: ('A' for Active; 'I' for Inactive)
REMARK    1  A    between atoms: C3'_2  and  C2'_3 
REMARK    2  A    between atoms: C2'_3  and  C1'_4 
REMARK    3  A    between atoms: C1'_4  and  C1_5 
ROOT
ATOM      1  C1  N4B d   1       1.943   0.770   1.046  0.00  0.00    -0.075 A 
ATOM      2  C2  N4B d   1       3.163   1.105   0.420  0.00  0.00     0.002 A 
ATOM      3  C3  N4B d   1       3.266   2.266  -0.306  0.00  0.00     0.002 A 
ATOM      4  C4  N4B d   1       2.161   3.094  -0.436  0.00  0.00    -0.004 A 
ATOM      5  C5  N4B d   1       0.993   2.776   0.193  0.00  0.00     0.002 A 
ATOM      6  C6  N4B d   1       0.877   1.614   0.930  0.00  0.00     0.002 A 
ENDROOT
BRANCH   1   7
ATOM      7  C1' N4B d   1       1.757  -0.531   1.780  0.00  0.00     0.057 C 
BRANCH   7   8
ATOM      8  C2' N4B d   1       1.061  -1.529   0.860  0.00  0.00     0.009 C 
BRANCH   8   9
ATOM      9  C3' N4B d   1      -0.069  -2.259   1.565  0.00  0.00     0.004 C 
ATOM     10  C4' N4B d   1      -1.424  -1.858   1.062  0.00  0.00     0.003 C 
ENDBRANCH   8   9
ENDBRANCH   7   8
ENDBRANCH   1   7
TORSDOF 3
ENDMDL
