MODEL 1
REMARK minimizedAffinity 5.97542524
REMARK minimizedRMSD -1
REMARK  3 active torsions:
REMARK  status: ('A' for Active; 'I' for Inactive)
REMARK    1  A    between atoms: C3'_2  and  C2'_3 
REMARK    2  A    between atoms: C2'_3  and  C1'_4 
REMARK    3  A    between atoms: C1'_4  and  C1_5 
ROOT
ATOM      1  C1  N4B d   1       2.243   0.193   1.728  0.00  0.00    -0.075 A 
ATOM      2  C2  N4B d   1       2.392   1.152   0.703  0.00  0.00     0.002 A 
ATOM      3  C3  N4B d   1       2.460   2.488   1.017  0.00  0.00     0.002 A 
ATOM      4  C4  N4B d   1       2.363   2.886   2.342  0.00  0.00    -0.004 A 
ATOM      5  C5  N4B d   1       2.246   1.951   3.328  0.00  0.00     0.002 A 
ATOM      6  C6  N4B d   1       2.180   0.606   3.027  0.00  0.00     0.002 A 
ENDROOT
BRANCH   1   7
ATOM      7  C1' N4B d   1       2.078  -1.272   1.427  0.00  0.00     0.057 C 
BRANCH   7   8
ATOM      8  C2' N4B d   1       0.604  -1.647   1.557  0.00  0.00     0.009 C 
BRANCH   8   9
ATOM      9  C3' N4B d   1       0.088  -2.360   0.320  0.00  0.00     0.004 C 
ATOM     10  C4' N4B d   1      -1.394  -2.587   0.356  0.00  0.00     0.003 C 
ENDBRANCH   8   9
ENDBRANCH   7   8
ENDBRANCH   1   7
TORSDOF 3
ENDMDL
