MODEL 1
REMARK minimizedAffinity -0.726339996
REMARK minimizedRMSD -1
REMARK  3 active torsions:
REMARK  status: ('A' for Active; 'I' for Inactive)
REMARK    1  A    between atoms: C3'_2  and  C2'_3 
REMARK    2  A    between atoms: C2'_3  and  C1'_4 
REMARK    3  A    between atoms: C1'_4  and  C1_5 
ROOT
ATOM      1  C1  N4B d   1       1.442   1.612   0.431  0.00  0.00    -0.075 A 
ATOM      2  C2  N4B d   1       0.186   2.257   0.452  0.00  0.00     0.002 A 
ATOM      3  C3  N4B d   1       0.018   3.454  -0.201  0.00  0.00     0.002 A 
ATOM      4  C4  N4B d   1       1.092   4.030  -0.863  0.00  0.00    -0.004 A 
ATOM      5  C5  N4B d   1       2.295   3.388  -0.900  0.00  0.00     0.002 A 
ATOM      6  C6  N4B d   1       2.477   2.183  -0.251  0.00  0.00     0.002 A 
ENDROOT
BRANCH   1   7
ATOM      7  C1' N4B d   1       1.697   0.345   1.202  0.00  0.00     0.057 C 
BRANCH   7   8
ATOM      8  C2' N4B d   1       2.925   0.537   2.088  0.00  0.00     0.009 C 
BRANCH   8   9
ATOM      9  C3' N4B d   1       2.545   0.893   3.516  0.00  0.00     0.004 C 
ATOM     10  C4' N4B d   1       3.044   2.245   3.930  0.00  0.00     0.003 C 
ENDBRANCH   8   9
ENDBRANCH   7   8
ENDBRANCH   1   7
TORSDOF 3
ENDMDL
