MODEL 1
REMARK minimizedAffinity 1.21419168
REMARK minimizedRMSD -1
REMARK  3 active torsions:
REMARK  status: ('A' for Active; 'I' for Inactive)
REMARK    1  A    between atoms: C3'_2  and  C2'_3 
REMARK    2  A    between atoms: C2'_3  and  C1'_4 
REMARK    3  A    between atoms: C1'_4  and  C1_5 
ROOT
ATOM      1  C1  N4B d   1       1.686   1.592   0.873  0.00  0.00    -0.075 A 
ATOM      2  C2  N4B d   1       0.330   1.944   0.698  0.00  0.00     0.002 A 
ATOM      3  C3  N4B d   1      -0.007   2.988  -0.129  0.00  0.00     0.002 A 
ATOM      4  C4  N4B d   1       0.991   3.702  -0.774  0.00  0.00    -0.004 A 
ATOM      5  C5  N4B d   1       2.297   3.340  -0.619  0.00  0.00     0.002 A 
ATOM      6  C6  N4B d   1       2.650   2.291   0.206  0.00  0.00     0.002 A 
ENDROOT
BRANCH   1   7
ATOM      7  C1' N4B d   1       2.109   0.514   1.833  0.00  0.00     0.057 C 
BRANCH   7   8
ATOM      8  C2' N4B d   1       1.845  -0.850   1.203  0.00  0.00     0.009 C 
BRANCH   8   9
ATOM      9  C3' N4B d   1       0.604  -1.511   1.779  0.00  0.00     0.004 C 
ATOM     10  C4' N4B d   1      -0.177  -2.274   0.751  0.00  0.00     0.003 C 
ENDBRANCH   8   9
ENDBRANCH   7   8
ENDBRANCH   1   7
TORSDOF 3
ENDMDL
