MODEL 1
REMARK minimizedAffinity 0.238881215
REMARK minimizedRMSD -1
REMARK  3 active torsions:
REMARK  status: ('A' for Active; 'I' for Inactive)
REMARK    1  A    between atoms: C3'_2  and  C2'_3 
REMARK    2  A    between atoms: C2'_3  and  C1'_4 
REMARK    3  A    between atoms: C1'_4  and  C1_5 
ROOT
ATOM      1  C1  N4B d   1       0.794  -1.057   1.432  0.00  0.00    -0.075 A 
ATOM      2  C2  N4B d   1       0.554   0.231   0.903  0.00  0.00     0.002 A 
ATOM      3  C3  N4B d   1       1.516   1.205   1.007  0.00  0.00     0.002 A 
ATOM      4  C4  N4B d   1       2.713   0.922   1.648  0.00  0.00    -0.004 A 
ATOM      5  C5  N4B d   1       2.947  -0.331   2.133  0.00  0.00     0.002 A 
ATOM      6  C6  N4B d   1       1.990  -1.322   2.033  0.00  0.00     0.002 A 
ENDROOT
BRANCH   1   7
ATOM      7  C1' N4B d   1      -0.261  -2.129   1.419  0.00  0.00     0.057 C 
BRANCH   7   8
ATOM      8  C2' N4B d   1      -1.630  -1.483   1.235  0.00  0.00     0.009 C 
BRANCH   8   9
ATOM      9  C3' N4B d   1      -2.648  -2.459   0.670  0.00  0.00     0.004 C 
ATOM     10  C4' N4B d   1      -3.153  -2.053  -0.683  0.00  0.00     0.003 C 
ENDBRANCH   8   9
ENDBRANCH   7   8
ENDBRANCH   1   7
TORSDOF 3
ENDMDL
