MODEL 1
REMARK minimizedAffinity 5.42602825
REMARK minimizedRMSD -1
REMARK  2 active torsions:
REMARK  status: ('A' for Active; 'I' for Inactive)
REMARK    1  A    between atoms: C1_2  and  C2_3 
REMARK    2  A    between atoms: C2_3  and  C3_4 
ROOT
ATOM      1  C3  UNL d   1       2.543  -3.547  -2.235  0.00  0.00    -0.075 A 
ATOM      2  C4  UNL d   1       2.666  -3.700  -0.847  0.00  0.00     0.002 A 
ATOM      3  C5  UNL d   1       3.611  -4.577  -0.312  0.00  0.00     0.002 A 
ATOM      4  C6  UNL d   1       4.435  -5.318  -1.157  0.00  0.00    -0.004 A 
ATOM      5  C7  UNL d   1       4.310  -5.185  -2.538  0.00  0.00     0.002 A 
ATOM      6  C8  UNL d   1       3.369  -4.306  -3.076  0.00  0.00     0.002 A 
ENDROOT
BRANCH   1   7
ATOM      7  C2  UNL d   1       1.543  -2.578  -2.820  0.00  0.00     0.056 C 
BRANCH   7   8
ATOM      8  C1  UNL d   1       1.567  -1.190  -2.171  0.00  0.00     0.007 C 
ATOM      9  C   UNL d   1       1.173  -0.073  -3.128  0.00  0.00     0.009 C 
ENDBRANCH   7   8
ENDBRANCH   1   7
TORSDOF 2
ENDMDL
