MODEL 1
REMARK minimizedAffinity 4.45372629
REMARK minimizedRMSD -1
REMARK  2 active torsions:
REMARK  status: ('A' for Active; 'I' for Inactive)
REMARK    1  A    between atoms: C1_2  and  C2_3 
REMARK    2  A    between atoms: C2_3  and  C3_4 
ROOT
ATOM      1  C3  UNL d   1       3.410  -4.593  -2.208  0.00  0.00    -0.075 A 
ATOM      2  C4  UNL d   1       2.298  -3.768  -2.429  0.00  0.00     0.002 A 
ATOM      3  C5  UNL d   1       2.155  -3.079  -3.633  0.00  0.00     0.002 A 
ATOM      4  C6  UNL d   1       3.125  -3.197  -4.626  0.00  0.00    -0.004 A 
ATOM      5  C7  UNL d   1       4.243  -4.001  -4.411  0.00  0.00     0.002 A 
ATOM      6  C8  UNL d   1       4.386  -4.695  -3.209  0.00  0.00     0.002 A 
ENDROOT
BRANCH   1   7
ATOM      7  C2  UNL d   1       3.556  -5.364  -0.918  0.00  0.00     0.056 C 
BRANCH   7   8
ATOM      8  C1  UNL d   1       4.267  -4.588   0.196  0.00  0.00     0.007 C 
ATOM      9  C   UNL d   1       3.551  -3.300   0.581  0.00  0.00     0.009 C 
ENDBRANCH   7   8
ENDBRANCH   1   7
TORSDOF 2
ENDMDL
