MODEL 1
REMARK minimizedAffinity 5.23724985
REMARK minimizedRMSD -1
REMARK  2 active torsions:
REMARK  status: ('A' for Active; 'I' for Inactive)
REMARK    1  A    between atoms: C1_2  and  C2_3 
REMARK    2  A    between atoms: C2_3  and  C3_4 
ROOT
ATOM      1  C3  UNL d   1       3.164  -4.688  -2.480  0.00  0.00    -0.075 A 
ATOM      2  C4  UNL d   1       4.278  -4.852  -3.315  0.00  0.00     0.002 A 
ATOM      3  C5  UNL d   1       4.327  -4.226  -4.561  0.00  0.00     0.002 A 
ATOM      4  C6  UNL d   1       3.261  -3.440  -4.992  0.00  0.00    -0.004 A 
ATOM      5  C7  UNL d   1       2.141  -3.285  -4.177  0.00  0.00     0.002 A 
ATOM      6  C8  UNL d   1       2.092  -3.905  -2.928  0.00  0.00     0.002 A 
ENDROOT
BRANCH   1   7
ATOM      7  C2  UNL d   1       3.118  -5.338  -1.118  0.00  0.00     0.056 C 
BRANCH   7   8
ATOM      8  C1  UNL d   1       3.306  -4.360   0.047  0.00  0.00     0.007 C 
ATOM      9  C   UNL d   1       4.769  -4.086   0.369  0.00  0.00     0.009 C 
ENDBRANCH   7   8
ENDBRANCH   1   7
TORSDOF 2
ENDMDL
