MODEL 1
REMARK minimizedAffinity 4.20140743
REMARK minimizedRMSD -1
REMARK  2 active torsions:
REMARK  status: ('A' for Active; 'I' for Inactive)
REMARK    1  A    between atoms: C1_2  and  C2_3 
REMARK    2  A    between atoms: C2_3  and  C3_4 
ROOT
ATOM      1  C3  UNL d   1       4.031  -4.871  -1.749  0.00  0.00    -0.075 A 
ATOM      2  C4  UNL d   1       2.697  -4.456  -1.876  0.00  0.00     0.002 A 
ATOM      3  C5  UNL d   1       2.177  -4.116  -3.125  0.00  0.00     0.002 A 
ATOM      4  C6  UNL d   1       2.984  -4.175  -4.259  0.00  0.00    -0.004 A 
ATOM      5  C7  UNL d   1       4.315  -4.570  -4.142  0.00  0.00     0.002 A 
ATOM      6  C8  UNL d   1       4.837  -4.915  -2.895  0.00  0.00     0.002 A 
ENDROOT
BRANCH   1   7
ATOM      7  C2  UNL d   1       4.592  -5.269  -0.405  0.00  0.00     0.056 C 
BRANCH   7   8
ATOM      8  C1  UNL d   1       5.999  -4.728  -0.131  0.00  0.00     0.007 C 
ATOM      9  C   UNL d   1       6.000  -3.441   0.683  0.00  0.00     0.009 C 
ENDBRANCH   7   8
ENDBRANCH   1   7
TORSDOF 2
ENDMDL
