MODEL 1
REMARK minimizedAffinity -0.519254386
REMARK minimizedRMSD -1
REMARK  2 active torsions:
REMARK  status: ('A' for Active; 'I' for Inactive)
REMARK    1  A    between atoms: C1_2  and  C2_3 
REMARK    2  A    between atoms: C2_3  and  C3_4 
ROOT
ATOM      1  C3  UNL d   1       3.263  -3.781  -1.753  0.00  0.00    -0.075 A 
ATOM      2  C4  UNL d   1       4.276  -4.297  -2.575  0.00  0.00     0.002 A 
ATOM      3  C5  UNL d   1       4.282  -4.031  -3.944  0.00  0.00     0.002 A 
ATOM      4  C6  UNL d   1       3.272  -3.255  -4.510  0.00  0.00    -0.004 A 
ATOM      5  C7  UNL d   1       2.252  -2.751  -3.706  0.00  0.00     0.002 A 
ATOM      6  C8  UNL d   1       2.246  -3.013  -2.335  0.00  0.00     0.002 A 
ENDROOT
BRANCH   1   7
ATOM      7  C2  UNL d   1       3.267  -4.042  -0.266  0.00  0.00     0.056 C 
BRANCH   7   8
ATOM      8  C1  UNL d   1       4.658  -4.309   0.317  0.00  0.00     0.007 C 
ATOM      9  C   UNL d   1       5.504  -3.050   0.452  0.00  0.00     0.009 C 
ENDBRANCH   7   8
ENDBRANCH   1   7
TORSDOF 2
ENDMDL
