MODEL 1
REMARK minimizedAffinity 3.52738333
REMARK minimizedRMSD -1
REMARK  2 active torsions:
REMARK  status: ('A' for Active; 'I' for Inactive)
REMARK    1  A    between atoms: C1_2  and  C2_3 
REMARK    2  A    between atoms: C2_3  and  C3_4 
ROOT
ATOM      1  C3  UNL d   1      -5.085  -2.969   3.182  0.00  0.00    -0.075 A 
ATOM      2  C4  UNL d   1      -4.151  -3.432   4.119  0.00  0.00     0.002 A 
ATOM      3  C5  UNL d   1      -4.118  -4.779   4.482  0.00  0.00     0.002 A 
ATOM      4  C6  UNL d   1      -5.024  -5.676   3.921  0.00  0.00    -0.004 A 
ATOM      5  C7  UNL d   1      -5.968  -5.224   3.001  0.00  0.00     0.002 A 
ATOM      6  C8  UNL d   1      -5.999  -3.878   2.633  0.00  0.00     0.002 A 
ENDROOT
BRANCH   1   7
ATOM      7  C2  UNL d   1      -5.106  -1.518   2.763  0.00  0.00     0.056 C 
BRANCH   7   8
ATOM      8  C1  UNL d   1      -4.083  -0.643   3.494  0.00  0.00     0.007 C 
ATOM      9  C   UNL d   1      -3.393   0.364   2.583  0.00  0.00     0.009 C 
ENDBRANCH   7   8
ENDBRANCH   1   7
TORSDOF 2
ENDMDL
