MODEL 1
REMARK minimizedAffinity 1.35354042
REMARK minimizedRMSD -1
REMARK  2 active torsions:
REMARK  status: ('A' for Active; 'I' for Inactive)
REMARK    1  A    between atoms: C1_2  and  C2_3 
REMARK    2  A    between atoms: C2_3  and  C3_4 
ROOT
ATOM      1  C3  UNL d   1       3.971  -4.746  -2.063  0.00  0.00    -0.075 A 
ATOM      2  C4  UNL d   1       4.791  -4.928  -3.186  0.00  0.00     0.002 A 
ATOM      3  C5  UNL d   1       4.418  -4.411  -4.427  0.00  0.00     0.002 A 
ATOM      4  C6  UNL d   1       3.219  -3.716  -4.564  0.00  0.00    -0.004 A 
ATOM      5  C7  UNL d   1       2.388  -3.543  -3.458  0.00  0.00     0.002 A 
ATOM      6  C8  UNL d   1       2.761  -4.055  -2.214  0.00  0.00     0.002 A 
ENDROOT
BRANCH   1   7
ATOM      7  C2  UNL d   1       4.383  -5.277  -0.711  0.00  0.00     0.056 C 
BRANCH   7   8
ATOM      8  C1  UNL d   1       4.196  -4.278   0.435  0.00  0.00     0.007 C 
ATOM      9  C   UNL d   1       5.119  -3.070   0.336  0.00  0.00     0.009 C 
ENDBRANCH   7   8
ENDBRANCH   1   7
TORSDOF 2
ENDMDL
