MODEL 1
REMARK minimizedAffinity 10.4779434
REMARK minimizedRMSD -1
REMARK  2 active torsions:
REMARK  status: ('A' for Active; 'I' for Inactive)
REMARK    1  A    between atoms: C1_2  and  C2_3 
REMARK    2  A    between atoms: C2_3  and  C3_4 
ROOT
ATOM      1  C3  UNL d   1      -4.706  -2.409   2.928  0.00  0.00    -0.075 A 
ATOM      2  C4  UNL d   1      -5.942  -2.955   3.303  0.00  0.00     0.002 A 
ATOM      3  C5  UNL d   1      -5.999  -4.081   4.124  0.00  0.00     0.002 A 
ATOM      4  C6  UNL d   1      -4.824  -4.682   4.571  0.00  0.00    -0.004 A 
ATOM      5  C7  UNL d   1      -3.590  -4.158   4.191  0.00  0.00     0.002 A 
ATOM      6  C8  UNL d   1      -3.530  -3.028   3.373  0.00  0.00     0.002 A 
ENDROOT
BRANCH   1   7
ATOM      7  C2  UNL d   1      -4.638  -1.172   2.064  0.00  0.00     0.056 C 
BRANCH   7   8
ATOM      8  C1  UNL d   1      -3.311  -0.412   2.167  0.00  0.00     0.007 C 
ATOM      9  C   UNL d   1      -3.436   0.918   2.899  0.00  0.00     0.009 C 
ENDBRANCH   7   8
ENDBRANCH   1   7
TORSDOF 2
ENDMDL
