MODEL 1
REMARK minimizedAffinity 1.39961791
REMARK minimizedRMSD -1
REMARK  2 active torsions:
REMARK  status: ('A' for Active; 'I' for Inactive)
REMARK    1  A    between atoms: C1_2  and  C2_3 
REMARK    2  A    between atoms: C2_3  and  C3_4 
ROOT
ATOM      1  C3  UNL d   1       2.783  -3.325  -2.060  0.00  0.00    -0.075 A 
ATOM      2  C4  UNL d   1       3.109  -3.292  -0.697  0.00  0.00     0.002 A 
ATOM      3  C5  UNL d   1       4.091  -4.138  -0.182  0.00  0.00     0.002 A 
ATOM      4  C6  UNL d   1       4.752  -5.034  -1.020  0.00  0.00    -0.004 A 
ATOM      5  C7  UNL d   1       4.425  -5.087  -2.373  0.00  0.00     0.002 A 
ATOM      6  C8  UNL d   1       3.445  -4.238  -2.892  0.00  0.00     0.002 A 
ENDROOT
BRANCH   1   7
ATOM      7  C2  UNL d   1       1.742  -2.391  -2.629  0.00  0.00     0.056 C 
BRANCH   7   8
ATOM      8  C1  UNL d   1       1.762  -0.987  -2.015  0.00  0.00     0.007 C 
ATOM      9  C   UNL d   1       1.281   0.094  -2.974  0.00  0.00     0.009 C 
ENDBRANCH   7   8
ENDBRANCH   1   7
TORSDOF 2
ENDMDL
