MODEL 1
REMARK minimizedAffinity 8.8747139
REMARK minimizedRMSD -1
REMARK  2 active torsions:
REMARK  status: ('A' for Active; 'I' for Inactive)
REMARK    1  A    between atoms: C1_2  and  C2_3 
REMARK    2  A    between atoms: C2_3  and  C3_4 
ROOT
ATOM      1  C3  UNL d   1       3.646  -5.057  -2.022  0.00  0.00    -0.075 A 
ATOM      2  C4  UNL d   1       4.330  -4.847  -3.228  0.00  0.00     0.002 A 
ATOM      3  C5  UNL d   1       3.649  -4.404  -4.362  0.00  0.00     0.002 A 
ATOM      4  C6  UNL d   1       2.275  -4.175  -4.308  0.00  0.00    -0.004 A 
ATOM      5  C7  UNL d   1       1.582  -4.397  -3.120  0.00  0.00     0.002 A 
ATOM      6  C8  UNL d   1       2.263  -4.836  -1.983  0.00  0.00     0.002 A 
ENDROOT
BRANCH   1   7
ATOM      7  C2  UNL d   1       4.383  -5.508  -0.784  0.00  0.00     0.056 C 
BRANCH   7   8
ATOM      8  C1  UNL d   1       4.251  -4.550   0.404  0.00  0.00     0.007 C 
ATOM      9  C   UNL d   1       3.293  -3.396   0.141  0.00  0.00     0.009 C 
ENDBRANCH   7   8
ENDBRANCH   1   7
TORSDOF 2
ENDMDL
