MODEL 1
REMARK minimizedAffinity 6.95922327
REMARK minimizedRMSD -1
REMARK  2 active torsions:
REMARK  status: ('A' for Active; 'I' for Inactive)
REMARK    1  A    between atoms: C1_2  and  C2_3 
REMARK    2  A    between atoms: C2_3  and  C3_4 
ROOT
ATOM      1  C3  UNL d   1       2.741  -4.106  -2.084  0.00  0.00    -0.075 A 
ATOM      2  C4  UNL d   1       3.586  -5.089  -2.619  0.00  0.00     0.002 A 
ATOM      3  C5  UNL d   1       4.632  -5.615  -1.860  0.00  0.00     0.002 A 
ATOM      4  C6  UNL d   1       4.851  -5.158  -0.562  0.00  0.00    -0.004 A 
ATOM      5  C7  UNL d   1       4.028  -4.171  -0.026  0.00  0.00     0.002 A 
ATOM      6  C8  UNL d   1       2.979  -3.646  -0.782  0.00  0.00     0.002 A 
ENDROOT
BRANCH   1   7
ATOM      7  C2  UNL d   1       1.590  -3.554  -2.890  0.00  0.00     0.056 C 
BRANCH   7   8
ATOM      8  C1  UNL d   1       1.838  -2.150  -3.452  0.00  0.00     0.007 C 
ATOM      9  C   UNL d   1       1.279  -1.043  -2.568  0.00  0.00     0.009 C 
ENDBRANCH   7   8
ENDBRANCH   1   7
TORSDOF 2
ENDMDL
