MODEL 1
REMARK minimizedAffinity -0.200379193
REMARK minimizedRMSD -1
REMARK  2 active torsions:
REMARK  status: ('A' for Active; 'I' for Inactive)
REMARK    1  A    between atoms: C1_2  and  C2_3 
REMARK    2  A    between atoms: C2_3  and  C3_4 
ROOT
ATOM      1  C3  UNL d   1       3.215  -4.277  -1.775  0.00  0.00    -0.075 A 
ATOM      2  C4  UNL d   1       2.053  -3.494  -1.709  0.00  0.00     0.002 A 
ATOM      3  C5  UNL d   1       1.626  -2.764  -2.818  0.00  0.00     0.002 A 
ATOM      4  C6  UNL d   1       2.359  -2.799  -4.002  0.00  0.00    -0.004 A 
ATOM      5  C7  UNL d   1       3.524  -3.559  -4.075  0.00  0.00     0.002 A 
ATOM      6  C8  UNL d   1       3.951  -4.294  -2.967  0.00  0.00     0.002 A 
ENDROOT
BRANCH   1   7
ATOM      7  C2  UNL d   1       3.667  -5.092  -0.587  0.00  0.00     0.056 C 
BRANCH   7   8
ATOM      8  C1  UNL d   1       4.433  -4.287   0.467  0.00  0.00     0.007 C 
ATOM      9  C   UNL d   1       5.852  -3.936   0.040  0.00  0.00     0.009 C 
ENDBRANCH   7   8
ENDBRANCH   1   7
TORSDOF 2
ENDMDL
