MODEL 1
REMARK minimizedAffinity 1.22064149
REMARK minimizedRMSD -1
REMARK  2 active torsions:
REMARK  status: ('A' for Active; 'I' for Inactive)
REMARK    1  A    between atoms: C1_2  and  C2_3 
REMARK    2  A    between atoms: C2_3  and  C3_4 
ROOT
ATOM      1  C3  UNL d   1       3.535  -4.717  -2.099  0.00  0.00    -0.075 A 
ATOM      2  C4  UNL d   1       2.707  -5.839  -2.249  0.00  0.00     0.002 A 
ATOM      3  C5  UNL d   1       1.512  -5.747  -2.963  0.00  0.00     0.002 A 
ATOM      4  C6  UNL d   1       1.125  -4.533  -3.526  0.00  0.00    -0.004 A 
ATOM      5  C7  UNL d   1       1.931  -3.408  -3.369  0.00  0.00     0.002 A 
ATOM      6  C8  UNL d   1       3.130  -3.498  -2.659  0.00  0.00     0.002 A 
ENDROOT
BRANCH   1   7
ATOM      7  C2  UNL d   1       4.844  -4.816  -1.353  0.00  0.00     0.056 C 
BRANCH   7   8
ATOM      8  C1  UNL d   1       4.777  -4.312   0.093  0.00  0.00     0.007 C 
ATOM      9  C   UNL d   1       5.999  -3.500   0.502  0.00  0.00     0.009 C 
ENDBRANCH   7   8
ENDBRANCH   1   7
TORSDOF 2
ENDMDL
