MODEL 1
REMARK minimizedAffinity 5.20750237
REMARK minimizedRMSD -1
REMARK  2 active torsions:
REMARK  status: ('A' for Active; 'I' for Inactive)
REMARK    1  A    between atoms: C1_2  and  C2_3 
REMARK    2  A    between atoms: C2_3  and  C3_4 
ROOT
ATOM      1  C3  UNL d   1       3.447  -5.023  -1.828  0.00  0.00    -0.075 A 
ATOM      2  C4  UNL d   1       4.295  -5.029  -2.945  0.00  0.00     0.002 A 
ATOM      3  C5  UNL d   1       3.845  -4.561  -4.179  0.00  0.00     0.002 A 
ATOM      4  C6  UNL d   1       2.540  -4.092  -4.316  0.00  0.00    -0.004 A 
ATOM      5  C7  UNL d   1       1.683  -4.097  -3.217  0.00  0.00     0.002 A 
ATOM      6  C8  UNL d   1       2.133  -4.560  -1.980  0.00  0.00     0.002 A 
ENDROOT
BRANCH   1   7
ATOM      7  C2  UNL d   1       3.937  -5.501  -0.482  0.00  0.00     0.056 C 
BRANCH   7   8
ATOM      8  C1  UNL d   1       4.528  -4.392   0.396  0.00  0.00     0.007 C 
ATOM      9  C   UNL d   1       5.999  -4.122   0.113  0.00  0.00     0.009 C 
ENDBRANCH   7   8
ENDBRANCH   1   7
TORSDOF 2
ENDMDL
