MODEL 1
REMARK minimizedAffinity 16.226059
REMARK minimizedRMSD -1
REMARK  2 active torsions:
REMARK  status: ('A' for Active; 'I' for Inactive)
REMARK    1  A    between atoms: C1_2  and  C2_3 
REMARK    2  A    between atoms: C2_3  and  C3_4 
ROOT
ATOM      1  C3  UNL d   1       1.830   3.624  -0.638  0.00  0.00    -0.075 A 
ATOM      2  C4  UNL d   1       1.370   3.648   0.687  0.00  0.00     0.002 A 
ATOM      3  C5  UNL d   1       0.718   4.773   1.191  0.00  0.00     0.002 A 
ATOM      4  C6  UNL d   1       0.526   5.891   0.382  0.00  0.00    -0.004 A 
ATOM      5  C7  UNL d   1       0.993   5.885  -0.931  0.00  0.00     0.002 A 
ATOM      6  C8  UNL d   1       1.642   4.759  -1.439  0.00  0.00     0.002 A 
ENDROOT
BRANCH   1   7
ATOM      7  C2  UNL d   1       2.510   2.398  -1.198  0.00  0.00     0.056 C 
BRANCH   7   8
ATOM      8  C1  UNL d   1       2.568   1.217  -0.224  0.00  0.00     0.007 C 
ATOM      9  C   UNL d   1       2.247  -0.119  -0.880  0.00  0.00     0.009 C 
ENDBRANCH   7   8
ENDBRANCH   1   7
TORSDOF 2
ENDMDL
