MODEL 1
REMARK minimizedAffinity 13.2782707
REMARK minimizedRMSD -1
REMARK  2 active torsions:
REMARK  status: ('A' for Active; 'I' for Inactive)
REMARK    1  A    between atoms: C1_2  and  C2_3 
REMARK    2  A    between atoms: C2_3  and  C3_4 
ROOT
ATOM      1  C3  UNL d   1      -2.019  -4.116  -3.888  0.00  0.00    -0.075 A 
ATOM      2  C4  UNL d   1      -0.622  -4.077  -3.767  0.00  0.00     0.002 A 
ATOM      3  C5  UNL d   1       0.023  -4.803  -2.766  0.00  0.00     0.002 A 
ATOM      4  C6  UNL d   1      -0.719  -5.568  -1.869  0.00  0.00    -0.004 A 
ATOM      5  C7  UNL d   1      -2.108  -5.602  -1.969  0.00  0.00     0.002 A 
ATOM      6  C8  UNL d   1      -2.756  -4.880  -2.973  0.00  0.00     0.002 A 
ENDROOT
BRANCH   1   7
ATOM      7  C2  UNL d   1      -2.721  -3.356  -4.988  0.00  0.00     0.056 C 
BRANCH   7   8
ATOM      8  C1  UNL d   1      -4.135  -3.863  -5.292  0.00  0.00     0.007 C 
ATOM      9  C   UNL d   1      -5.006  -2.828  -5.992  0.00  0.00     0.009 C 
ENDBRANCH   7   8
ENDBRANCH   1   7
TORSDOF 2
ENDMDL
