MODEL 1
REMARK minimizedAffinity -5.04347754
REMARK minimizedRMSD -1
REMARK  2 active torsions:
REMARK  status: ('A' for Active; 'I' for Inactive)
REMARK    1  A    between atoms: C1_2  and  C2_3 
REMARK    2  A    between atoms: C2_3  and  C3_4 
ROOT
ATOM      1  C3  UNL d   1      -0.028   0.240   0.018  0.00  0.00    -0.075 A 
ATOM      2  C4  UNL d   1       0.659   0.859   1.072  0.00  0.00     0.002 A 
ATOM      3  C5  UNL d   1      -0.003   1.183   2.257  0.00  0.00     0.002 A 
ATOM      4  C6  UNL d   1      -1.360   0.902   2.398  0.00  0.00    -0.004 A 
ATOM      5  C7  UNL d   1      -2.057   0.303   1.351  0.00  0.00     0.002 A 
ATOM      6  C8  UNL d   1      -1.396  -0.026   0.167  0.00  0.00     0.002 A 
ENDROOT
BRANCH   1   7
ATOM      7  C2  UNL d   1       0.690  -0.139  -1.255  0.00  0.00     0.056 C 
BRANCH   7   8
ATOM      8  C1  UNL d   1      -0.242  -0.392  -2.445  0.00  0.00     0.007 C 
ATOM      9  C   UNL d   1       0.322   0.113  -3.767  0.00  0.00     0.009 C 
ENDBRANCH   7   8
ENDBRANCH   1   7
TORSDOF 2
ENDMDL
