MODEL 1
REMARK minimizedAffinity -4.89876175
REMARK minimizedRMSD -1
REMARK  2 active torsions:
REMARK  status: ('A' for Active; 'I' for Inactive)
REMARK    1  A    between atoms: C1_2  and  C2_3 
REMARK    2  A    between atoms: C2_3  and  C3_4 
ROOT
ATOM      1  C3  UNL d   1       0.079  -0.230  -0.301  0.00  0.00    -0.075 A 
ATOM      2  C4  UNL d   1      -1.264  -0.127   0.089  0.00  0.00     0.002 A 
ATOM      3  C5  UNL d   1      -1.599   0.354   1.355  0.00  0.00     0.002 A 
ATOM      4  C6  UNL d   1      -0.598   0.727   2.249  0.00  0.00    -0.004 A 
ATOM      5  C7  UNL d   1       0.740   0.612   1.878  0.00  0.00     0.002 A 
ATOM      6  C8  UNL d   1       1.078   0.136   0.610  0.00  0.00     0.002 A 
ENDROOT
BRANCH   1   7
ATOM      7  C2  UNL d   1       0.447  -0.721  -1.681  0.00  0.00     0.056 C 
BRANCH   7   8
ATOM      8  C1  UNL d   1       1.304   0.262  -2.485  0.00  0.00     0.007 C 
ATOM      9  C   UNL d   1       1.072   0.171  -3.987  0.00  0.00     0.009 C 
ENDBRANCH   7   8
ENDBRANCH   1   7
TORSDOF 2
ENDMDL
