MODEL 1
REMARK minimizedAffinity -3.92191696
REMARK minimizedRMSD -1
REMARK  2 active torsions:
REMARK  status: ('A' for Active; 'I' for Inactive)
REMARK    1  A    between atoms: C1_2  and  C2_3 
REMARK    2  A    between atoms: C2_3  and  C3_4 
ROOT
ATOM      1  C3  UNL d   1       0.636  -0.194  -0.446  0.00  0.00    -0.075 A 
ATOM      2  C4  UNL d   1      -0.160   0.633   0.360  0.00  0.00     0.002 A 
ATOM      3  C5  UNL d   1       0.208   0.903   1.679  0.00  0.00     0.002 A 
ATOM      4  C6  UNL d   1       1.367   0.343   2.211  0.00  0.00    -0.004 A 
ATOM      5  C7  UNL d   1       2.157  -0.493   1.424  0.00  0.00     0.002 A 
ATOM      6  C8  UNL d   1       1.794  -0.761   0.103  0.00  0.00     0.002 A 
ENDROOT
BRANCH   1   7
ATOM      7  C2  UNL d   1       0.260  -0.466  -1.882  0.00  0.00     0.056 C 
BRANCH   7   8
ATOM      8  C1  UNL d   1       1.101   0.306  -2.905  0.00  0.00     0.007 C 
ATOM      9  C   UNL d   1       0.662   0.070  -4.344  0.00  0.00     0.009 C 
ENDBRANCH   7   8
ENDBRANCH   1   7
TORSDOF 2
ENDMDL
