MODEL 1
REMARK minimizedAffinity -5.72098827
REMARK minimizedRMSD -1
REMARK  2 active torsions:
REMARK  status: ('A' for Active; 'I' for Inactive)
REMARK    1  A    between atoms: C1_2  and  C2_3 
REMARK    2  A    between atoms: C2_3  and  C3_4 
ROOT
ATOM      1  C3  UNL d   1      -0.019   0.441   1.014  0.00  0.00    -0.075 A 
ATOM      2  C4  UNL d   1       1.205  -0.032   1.508  0.00  0.00     0.002 A 
ATOM      3  C5  UNL d   1       1.476  -0.003   2.876  0.00  0.00     0.002 A 
ATOM      4  C6  UNL d   1       0.533   0.508   3.765  0.00  0.00    -0.004 A 
ATOM      5  C7  UNL d   1      -0.680   0.996   3.284  0.00  0.00     0.002 A 
ATOM      6  C8  UNL d   1      -0.956   0.964   1.916  0.00  0.00     0.002 A 
ENDROOT
BRANCH   1   7
ATOM      7  C2  UNL d   1      -0.330   0.385  -0.462  0.00  0.00     0.056 C 
BRANCH   7   8
ATOM      8  C1  UNL d   1       0.620  -0.509  -1.266  0.00  0.00     0.007 C 
ATOM      9  C   UNL d   1       0.645  -0.175  -2.752  0.00  0.00     0.009 C 
ENDBRANCH   7   8
ENDBRANCH   1   7
TORSDOF 2
ENDMDL
