MODEL 1
REMARK minimizedAffinity -5.04855013
REMARK minimizedRMSD -1
REMARK  2 active torsions:
REMARK  status: ('A' for Active; 'I' for Inactive)
REMARK    1  A    between atoms: C1_2  and  C2_3 
REMARK    2  A    between atoms: C2_3  and  C3_4 
ROOT
ATOM      1  C3  UNL d   1       0.490   0.238  -3.089  0.00  0.00    -0.075 A 
ATOM      2  C4  UNL d   1       1.489   1.154  -3.451  0.00  0.00     0.002 A 
ATOM      3  C5  UNL d   1       1.682   1.499  -4.789  0.00  0.00     0.002 A 
ATOM      4  C6  UNL d   1       0.888   0.927  -5.781  0.00  0.00    -0.004 A 
ATOM      5  C7  UNL d   1      -0.096   0.003  -5.434  0.00  0.00     0.002 A 
ATOM      6  C8  UNL d   1      -0.294  -0.340  -4.095  0.00  0.00     0.002 A 
ENDROOT
BRANCH   1   7
ATOM      7  C2  UNL d   1       0.257  -0.117  -1.640  0.00  0.00     0.056 C 
BRANCH   7   8
ATOM      8  C1  UNL d   1       0.528  -1.588  -1.306  0.00  0.00     0.007 C 
ATOM      9  C   UNL d   1       1.629  -1.775  -0.270  0.00  0.00     0.009 C 
ENDBRANCH   7   8
ENDBRANCH   1   7
TORSDOF 2
ENDMDL
