MODEL 1
REMARK minimizedAffinity -0.504852891
REMARK minimizedRMSD -1
REMARK  2 active torsions:
REMARK  status: ('A' for Active; 'I' for Inactive)
REMARK    1  A    between atoms: C1_2  and  C2_3 
REMARK    2  A    between atoms: C2_3  and  C3_4 
ROOT
ATOM      1  C3  UNL d   1      -0.605  -0.224   1.389  0.00  0.00    -0.075 A 
ATOM      2  C4  UNL d   1      -1.324   0.360   2.441  0.00  0.00     0.002 A 
ATOM      3  C5  UNL d   1      -0.876   1.540   3.036  0.00  0.00     0.002 A 
ATOM      4  C6  UNL d   1       0.299   2.144   2.595  0.00  0.00    -0.004 A 
ATOM      5  C7  UNL d   1       1.030   1.564   1.561  0.00  0.00     0.002 A 
ATOM      6  C8  UNL d   1       0.582   0.386   0.961  0.00  0.00     0.002 A 
ENDROOT
BRANCH   1   7
ATOM      7  C2  UNL d   1      -1.099  -1.484   0.721  0.00  0.00     0.056 C 
BRANCH   7   8
ATOM      8  C1  UNL d   1      -2.162  -1.244  -0.357  0.00  0.00     0.007 C 
ATOM      9  C   UNL d   1      -2.938   0.051  -0.156  0.00  0.00     0.009 C 
ENDBRANCH   7   8
ENDBRANCH   1   7
TORSDOF 2
ENDMDL
