MODEL 1
REMARK minimizedAffinity -5.70267487
REMARK minimizedRMSD -1
REMARK  2 active torsions:
REMARK  status: ('A' for Active; 'I' for Inactive)
REMARK    1  A    between atoms: C1_2  and  C2_3 
REMARK    2  A    between atoms: C2_3  and  C3_4 
ROOT
ATOM      1  C3  UNL d   1       0.207  -0.237   0.130  0.00  0.00    -0.075 A 
ATOM      2  C4  UNL d   1      -1.174  -0.075   0.316  0.00  0.00     0.002 A 
ATOM      3  C5  UNL d   1      -1.680   0.322   1.554  0.00  0.00     0.002 A 
ATOM      4  C6  UNL d   1      -0.817   0.551   2.622  0.00  0.00    -0.004 A 
ATOM      5  C7  UNL d   1       0.555   0.377   2.454  0.00  0.00     0.002 A 
ATOM      6  C8  UNL d   1       1.066  -0.015   1.215  0.00  0.00     0.002 A 
ENDROOT
BRANCH   1   7
ATOM      7  C2  UNL d   1       0.764  -0.637  -1.215  0.00  0.00     0.056 C 
BRANCH   7   8
ATOM      8  C1  UNL d   1       1.144   0.547  -2.110  0.00  0.00     0.007 C 
ATOM      9  C   UNL d   1       1.547   0.130  -3.518  0.00  0.00     0.009 C 
ENDBRANCH   7   8
ENDBRANCH   1   7
TORSDOF 2
ENDMDL
