MODEL 1
REMARK minimizedAffinity -4.6136632
REMARK minimizedRMSD -1
REMARK  2 active torsions:
REMARK  status: ('A' for Active; 'I' for Inactive)
REMARK    1  A    between atoms: C1_2  and  C2_3 
REMARK    2  A    between atoms: C2_3  and  C3_4 
ROOT
ATOM      1  C3  UNL d   1      -0.760  -0.318   1.310  0.00  0.00    -0.075 A 
ATOM      2  C4  UNL d   1       0.599  -0.661   1.259  0.00  0.00     0.002 A 
ATOM      3  C5  UNL d   1       1.064  -1.574   0.311  0.00  0.00     0.002 A 
ATOM      4  C6  UNL d   1       0.177  -2.160  -0.589  0.00  0.00    -0.004 A 
ATOM      5  C7  UNL d   1      -1.178  -1.839  -0.537  0.00  0.00     0.002 A 
ATOM      6  C8  UNL d   1      -1.645  -0.923   0.408  0.00  0.00     0.002 A 
ENDROOT
BRANCH   1   7
ATOM      7  C2  UNL d   1      -1.264   0.691   2.314  0.00  0.00     0.056 C 
BRANCH   7   8
ATOM      8  C1  UNL d   1      -0.488   2.012   2.315  0.00  0.00     0.007 C 
ATOM      9  C   UNL d   1      -0.111   2.487   0.918  0.00  0.00     0.009 C 
ENDBRANCH   7   8
ENDBRANCH   1   7
TORSDOF 2
ENDMDL
