MODEL 1
REMARK minimizedAffinity -1.56611216
REMARK minimizedRMSD -1
REMARK  2 active torsions:
REMARK  status: ('A' for Active; 'I' for Inactive)
REMARK    1  A    between atoms: C1_2  and  C2_3 
REMARK    2  A    between atoms: C2_3  and  C3_4 
ROOT
ATOM      1  C3  UNL d   1       0.057  -0.810   0.754  0.00  0.00    -0.075 A 
ATOM      2  C4  UNL d   1       1.440  -0.992   0.902  0.00  0.00     0.002 A 
ATOM      3  C5  UNL d   1       2.221  -0.015   1.519  0.00  0.00     0.002 A 
ATOM      4  C6  UNL d   1       1.633   1.160   1.984  0.00  0.00    -0.004 A 
ATOM      5  C7  UNL d   1       0.263   1.359   1.827  0.00  0.00     0.002 A 
ATOM      6  C8  UNL d   1      -0.522   0.380   1.215  0.00  0.00     0.002 A 
ENDROOT
BRANCH   1   7
ATOM      7  C2  UNL d   1      -0.799  -1.877   0.114  0.00  0.00     0.056 C 
BRANCH   7   8
ATOM      8  C1  UNL d   1      -2.276  -1.816   0.517  0.00  0.00     0.007 C 
ATOM      9  C   UNL d   1      -3.187  -1.348  -0.611  0.00  0.00     0.009 C 
ENDBRANCH   7   8
ENDBRANCH   1   7
TORSDOF 2
ENDMDL
