MODEL 1
REMARK minimizedAffinity -2.72273397
REMARK minimizedRMSD -1
REMARK  0 active torsions:
REMARK  status: ('A' for Active; 'I' for Inactive)
ROOT
ATOM      1  C   UNL d   1      -2.276   0.365   1.564  0.00  0.00     0.172 C 
ATOM      2  N   UNL d   1      -1.616  -0.389   0.523  0.00  0.00    -0.070 N 
ATOM      3  C1  UNL d   1      -2.202  -1.342  -0.266  0.00  0.00    -0.004 A 
ATOM      4  C2  UNL d   1      -1.243  -1.822  -1.131  0.00  0.00    -0.047 A 
ATOM      5  C3  UNL d   1      -0.038  -1.135  -0.851  0.00  0.00    -0.047 A 
ATOM      6  C4  UNL d   1      -0.297  -0.253   0.178  0.00  0.00    -0.004 A 
ENDROOT
TORSDOF 0
ENDMDL
