MODEL 1
REMARK minimizedAffinity -1.3395319
REMARK minimizedRMSD -1
REMARK  0 active torsions:
REMARK  status: ('A' for Active; 'I' for Inactive)
ROOT
ATOM      1  C   UNL d   1       0.524  -1.126   2.995  0.00  0.00     0.172 C 
ATOM      2  N   UNL d   1       1.420  -1.208   4.125  0.00  0.00    -0.070 N 
ATOM      3  C1  UNL d   1       2.403  -0.306   4.432  0.00  0.00    -0.004 A 
ATOM      4  C2  UNL d   1       3.031  -0.740   5.579  0.00  0.00    -0.047 A 
ATOM      5  C3  UNL d   1       2.404  -1.945   5.976  0.00  0.00    -0.047 A 
ATOM      6  C4  UNL d   1       1.410  -2.211   5.058  0.00  0.00    -0.004 A 
ENDROOT
TORSDOF 0
ENDMDL
