MODEL 1
REMARK minimizedAffinity -1.95384037
REMARK minimizedRMSD -1
REMARK  0 active torsions:
REMARK  status: ('A' for Active; 'I' for Inactive)
ROOT
ATOM      1  C   UNL d   1       1.418  -2.952  -2.886  0.00  0.00     0.172 C 
ATOM      2  N   UNL d   1       1.478  -2.018  -3.986  0.00  0.00    -0.070 N 
ATOM      3  C1  UNL d   1       2.589  -1.321  -4.382  0.00  0.00    -0.004 A 
ATOM      4  C2  UNL d   1       2.235  -0.542  -5.462  0.00  0.00    -0.047 A 
ATOM      5  C3  UNL d   1       0.864  -0.778  -5.724  0.00  0.00    -0.047 A 
ATOM      6  C4  UNL d   1       0.421  -1.696  -4.795  0.00  0.00    -0.004 A 
ENDROOT
TORSDOF 0
ENDMDL
