MODEL 1
REMARK minimizedAffinity -1.28286731
REMARK minimizedRMSD -1
REMARK  0 active torsions:
REMARK  status: ('A' for Active; 'I' for Inactive)
ROOT
ATOM      1  C   UNL d   1      -2.814  -0.758   2.240  0.00  0.00     0.172 C 
ATOM      2  N   UNL d   1      -1.371  -0.798   2.283  0.00  0.00    -0.070 N 
ATOM      3  C1  UNL d   1      -0.535   0.259   2.038  0.00  0.00    -0.004 A 
ATOM      4  C2  UNL d   1       0.761  -0.187   2.179  0.00  0.00    -0.047 A 
ATOM      5  C3  UNL d   1       0.703  -1.559   2.520  0.00  0.00    -0.047 A 
ATOM      6  C4  UNL d   1      -0.629  -1.911   2.578  0.00  0.00    -0.004 A 
ENDROOT
TORSDOF 0
ENDMDL
