MODEL 1
REMARK minimizedAffinity -0.622952402
REMARK minimizedRMSD -1
REMARK  0 active torsions:
REMARK  status: ('A' for Active; 'I' for Inactive)
ROOT
ATOM      1  C   UNL d   1       1.645  -1.600   3.312  0.00  0.00     0.172 C 
ATOM      2  N   UNL d   1       0.284  -1.423   2.864  0.00  0.00    -0.070 N 
ATOM      3  C1  UNL d   1      -0.241  -0.272   2.341  0.00  0.00    -0.004 A 
ATOM      4  C2  UNL d   1      -1.564  -0.511   2.038  0.00  0.00    -0.047 A 
ATOM      5  C3  UNL d   1      -1.844  -1.852   2.392  0.00  0.00    -0.047 A 
ATOM      6  C4  UNL d   1      -0.683  -2.393   2.901  0.00  0.00    -0.004 A 
ENDROOT
TORSDOF 0
ENDMDL
