MODEL 1
REMARK minimizedAffinity 1.6961689
REMARK minimizedRMSD -1
REMARK  0 active torsions:
REMARK  status: ('A' for Active; 'I' for Inactive)
ROOT
ATOM      1  C   UNL d   1      -2.351  -1.078   1.868  0.00  0.00     0.172 C 
ATOM      2  N   UNL d   1      -0.926  -1.059   2.101  0.00  0.00    -0.070 N 
ATOM      3  C1  UNL d   1      -0.164  -2.133   2.477  0.00  0.00    -0.004 A 
ATOM      4  C2  UNL d   1       1.140  -1.704   2.595  0.00  0.00    -0.047 A 
ATOM      5  C3  UNL d   1       1.163  -0.325   2.280  0.00  0.00    -0.047 A 
ATOM      6  C4  UNL d   1      -0.130   0.049   1.978  0.00  0.00    -0.004 A 
ENDROOT
TORSDOF 0
ENDMDL
