MODEL 1
REMARK minimizedAffinity 0.993553996
REMARK minimizedRMSD -1
REMARK  0 active torsions:
REMARK  status: ('A' for Active; 'I' for Inactive)
ROOT
ATOM      1  C   UNL d   1       1.565  -0.857   5.915  0.00  0.00     0.172 C 
ATOM      2  N   UNL d   1       1.290  -1.122   4.522  0.00  0.00    -0.070 N 
ATOM      3  C1  UNL d   1       2.047  -0.694   3.464  0.00  0.00    -0.004 A 
ATOM      4  C2  UNL d   1       1.452  -1.152   2.308  0.00  0.00    -0.047 A 
ATOM      5  C3  UNL d   1       0.298  -1.879   2.684  0.00  0.00    -0.047 A 
ATOM      6  C4  UNL d   1       0.221  -1.844   4.060  0.00  0.00    -0.004 A 
ENDROOT
TORSDOF 0
ENDMDL
