MODEL 1
REMARK minimizedAffinity -2.45471907
REMARK minimizedRMSD -1
REMARK  0 active torsions:
REMARK  status: ('A' for Active; 'I' for Inactive)
ROOT
ATOM      1  C   UNL d   1       1.473  -1.033   3.459  0.00  0.00     0.172 C 
ATOM      2  N   UNL d   1       0.135  -0.908   2.930  0.00  0.00    -0.070 N 
ATOM      3  C1  UNL d   1      -0.415   0.234   2.412  0.00  0.00    -0.004 A 
ATOM      4  C2  UNL d   1      -1.702  -0.059   2.016  0.00  0.00    -0.047 A 
ATOM      5  C3  UNL d   1      -1.934  -1.425   2.307  0.00  0.00    -0.047 A 
ATOM      6  C4  UNL d   1      -0.780  -1.926   2.872  0.00  0.00    -0.004 A 
ENDROOT
TORSDOF 0
ENDMDL
