MODEL 1
REMARK minimizedAffinity 0.940700054
REMARK minimizedRMSD -1
REMARK  0 active torsions:
REMARK  status: ('A' for Active; 'I' for Inactive)
ROOT
ATOM      1  C   UNL d   1       1.630  -0.055  -5.638  0.00  0.00     0.172 C 
ATOM      2  N   UNL d   1       0.253  -0.435  -5.428  0.00  0.00    -0.070 N 
ATOM      3  C1  UNL d   1      -0.720   0.358  -4.880  0.00  0.00    -0.004 A 
ATOM      4  C2  UNL d   1      -1.891  -0.367  -4.853  0.00  0.00    -0.047 A 
ATOM      5  C3  UNL d   1      -1.613  -1.641  -5.404  0.00  0.00    -0.047 A 
ATOM      6  C4  UNL d   1      -0.279  -1.655  -5.752  0.00  0.00    -0.004 A 
ENDROOT
TORSDOF 0
ENDMDL
