MODEL 1
REMARK minimizedAffinity -3.36099911
REMARK minimizedRMSD -1
REMARK  0 active torsions:
REMARK  status: ('A' for Active; 'I' for Inactive)
ROOT
ATOM      1  C   UNL d   1      -0.542  -0.930  -0.920  0.00  0.00     0.172 C 
ATOM      2  N   UNL d   1      -1.424  -0.685   0.196  0.00  0.00    -0.070 N 
ATOM      3  C1  UNL d   1      -2.687  -0.162   0.116  0.00  0.00    -0.004 A 
ATOM      4  C2  UNL d   1      -3.194  -0.086   1.395  0.00  0.00    -0.047 A 
ATOM      5  C3  UNL d   1      -2.202  -0.580   2.275  0.00  0.00    -0.047 A 
ATOM      6  C4  UNL d   1      -1.116  -0.943   1.506  0.00  0.00    -0.004 A 
ENDROOT
TORSDOF 0
ENDMDL
