MODEL 1
REMARK minimizedAffinity -2.12980437
REMARK minimizedRMSD -1
REMARK  0 active torsions:
REMARK  status: ('A' for Active; 'I' for Inactive)
ROOT
ATOM      1  C   UNL d   1      -0.975  -1.241   2.391  0.00  0.00     0.023 A 
ATOM      2  C1  UNL d   1      -1.341  -0.571   1.223  0.00  0.00     0.003 A 
ATOM      3  C2  UNL d   1      -0.359  -0.134   0.331  0.00  0.00     0.048 A 
ATOM      4  C3  UNL d   1       0.986  -0.371   0.612  0.00  0.00     0.023 A 
ATOM      5  C4  UNL d   1       1.356  -1.042   1.778  0.00  0.00     0.048 A 
ATOM      6  C5  UNL d   1       0.372  -1.477   2.668  0.00  0.00     0.003 A 
ATOM      7  I   UNL d   1       2.448   0.278  -0.715  0.00  0.00    -0.146 I 
ENDROOT
TORSDOF 0
ENDMDL
