MODEL 1
REMARK minimizedAffinity -3.15623736
REMARK minimizedRMSD -1
REMARK  0 active torsions:
REMARK  status: ('A' for Active; 'I' for Inactive)
ROOT
ATOM      1  C   UNL d   1       0.656  -1.190   2.307  0.00  0.00     0.023 A 
ATOM      2  C1  UNL d   1      -0.709  -1.014   2.080  0.00  0.00     0.003 A 
ATOM      3  C2  UNL d   1      -1.148  -0.374   0.919  0.00  0.00     0.048 A 
ATOM      4  C3  UNL d   1      -0.217   0.085  -0.012  0.00  0.00     0.023 A 
ATOM      5  C4  UNL d   1       1.150  -0.089   0.210  0.00  0.00     0.048 A 
ATOM      6  C5  UNL d   1       1.584  -0.728   1.373  0.00  0.00     0.003 A 
ATOM      7  I   UNL d   1      -0.868   1.037  -1.741  0.00  0.00    -0.146 I 
ENDROOT
TORSDOF 0
ENDMDL
