MODEL 1
REMARK minimizedAffinity -4.45403004
REMARK minimizedRMSD -1
REMARK  0 active torsions:
REMARK  status: ('A' for Active; 'I' for Inactive)
ROOT
ATOM      1  C   UNL d   1       2.081  -1.324   2.844  0.00  0.00     0.023 A 
ATOM      2  C1  UNL d   1       2.607  -1.601   1.582  0.00  0.00     0.003 A 
ATOM      3  C2  UNL d   1       1.941  -1.163   0.435  0.00  0.00     0.048 A 
ATOM      4  C3  UNL d   1       0.751  -0.447   0.557  0.00  0.00     0.023 A 
ATOM      5  C4  UNL d   1       0.222  -0.167   1.818  0.00  0.00     0.048 A 
ATOM      6  C5  UNL d   1       0.890  -0.608   2.962  0.00  0.00     0.003 A 
ATOM      7  I   UNL d   1      -0.242   0.206  -1.148  0.00  0.00    -0.146 I 
ENDROOT
TORSDOF 0
ENDMDL
