MODEL 1
REMARK minimizedAffinity -3.54299092
REMARK minimizedRMSD -1
REMARK  0 active torsions:
REMARK  status: ('A' for Active; 'I' for Inactive)
ROOT
ATOM      1  C   UNL d   1       0.950  -1.437   2.355  0.00  0.00     0.023 A 
ATOM      2  C1  UNL d   1      -0.145  -0.575   2.403  0.00  0.00     0.003 A 
ATOM      3  C2  UNL d   1      -0.664  -0.038   1.223  0.00  0.00     0.048 A 
ATOM      4  C3  UNL d   1      -0.084  -0.368  -0.001  0.00  0.00     0.023 A 
ATOM      5  C4  UNL d   1       1.012  -1.232  -0.054  0.00  0.00     0.048 A 
ATOM      6  C5  UNL d   1       1.528  -1.765   1.129  0.00  0.00     0.003 A 
ATOM      7  I   UNL d   1      -0.855   0.429  -1.759  0.00  0.00    -0.146 I 
ENDROOT
TORSDOF 0
ENDMDL
