MODEL 1
REMARK minimizedAffinity -4.36418152
REMARK minimizedRMSD -1
REMARK  0 active torsions:
REMARK  status: ('A' for Active; 'I' for Inactive)
ROOT
ATOM      1  C   UNL d   1       1.539  -0.637   2.787  0.00  0.00     0.023 A 
ATOM      2  C1  UNL d   1       0.257  -1.162   2.623  0.00  0.00     0.003 A 
ATOM      3  C2  UNL d   1      -0.287  -1.293   1.344  0.00  0.00     0.048 A 
ATOM      4  C3  UNL d   1       0.456  -0.899   0.232  0.00  0.00     0.023 A 
ATOM      5  C4  UNL d   1       1.740  -0.374   0.391  0.00  0.00     0.048 A 
ATOM      6  C5  UNL d   1       2.280  -0.244   1.672  0.00  0.00     0.003 A 
ATOM      7  I   UNL d   1      -0.351  -1.093  -1.673  0.00  0.00    -0.146 I 
ENDROOT
TORSDOF 0
ENDMDL
