MODEL 1
REMARK minimizedAffinity 0.609383106
REMARK minimizedRMSD -1
REMARK  0 active torsions:
REMARK  status: ('A' for Active; 'I' for Inactive)
ROOT
ATOM      1  C   UNL d   1      -1.673  -1.161   2.099  0.00  0.00     0.023 A 
ATOM      2  C1  UNL d   1      -0.600  -1.750   2.769  0.00  0.00     0.003 A 
ATOM      3  C2  UNL d   1       0.690  -1.655   2.243  0.00  0.00     0.048 A 
ATOM      4  C3  UNL d   1       0.901  -0.969   1.048  0.00  0.00     0.023 A 
ATOM      5  C4  UNL d   1      -0.169  -0.377   0.374  0.00  0.00     0.048 A 
ATOM      6  C5  UNL d   1      -1.458  -0.476   0.903  0.00  0.00     0.003 A 
ATOM      7  I   UNL d   1       2.820  -0.825   0.264  0.00  0.00    -0.146 I 
ENDROOT
TORSDOF 0
ENDMDL
