MODEL 1
REMARK minimizedAffinity 0.378392726
REMARK minimizedRMSD -1
REMARK  0 active torsions:
REMARK  status: ('A' for Active; 'I' for Inactive)
ROOT
ATOM      1  C   UNL d   1      -4.149  -2.036  -4.336  0.00  0.00     0.078 C 
ATOM      2  C1  UNL d   1      -4.519  -3.422  -4.775  0.00  0.00    -0.077 A 
ATOM      3  C2  UNL d   1      -3.742  -4.526  -4.407  0.00  0.00    -0.001 A 
ATOM      4  C3  UNL d   1      -4.093  -5.809  -4.831  0.00  0.00     0.003 A 
ATOM      5  C4  UNL d   1      -5.221  -5.999  -5.626  0.00  0.00    -0.005 A 
ATOM      6  C5  UNL d   1      -6.000  -4.905  -5.999  0.00  0.00     0.003 A 
ATOM      7  C6  UNL d   1      -5.650  -3.622  -5.576  0.00  0.00    -0.001 A 
ENDROOT
TORSDOF 0
ENDMDL
