MODEL 1
REMARK minimizedAffinity 11.2298088
REMARK minimizedRMSD -1
REMARK  0 active torsions:
REMARK  status: ('A' for Active; 'I' for Inactive)
ROOT
ATOM      1  C   UNL d   1      -3.369   0.847  -2.625  0.00  0.00     0.078 C 
ATOM      2  C1  UNL d   1      -4.003   2.041  -1.976  0.00  0.00    -0.077 A 
ATOM      3  C2  UNL d   1      -3.223   3.026  -1.358  0.00  0.00    -0.001 A 
ATOM      4  C3  UNL d   1      -3.827   4.126  -0.749  0.00  0.00     0.003 A 
ATOM      5  C4  UNL d   1      -5.215   4.252  -0.750  0.00  0.00    -0.005 A 
ATOM      6  C5  UNL d   1      -6.000   3.276  -1.361  0.00  0.00     0.003 A 
ATOM      7  C6  UNL d   1      -5.397   2.175  -1.970  0.00  0.00    -0.001 A 
ENDROOT
TORSDOF 0
ENDMDL
