MODEL 1
REMARK minimizedAffinity 8.94119453
REMARK minimizedRMSD -1
REMARK  0 active torsions:
REMARK  status: ('A' for Active; 'I' for Inactive)
ROOT
ATOM      1  C   UNL d   1      -2.322   3.747  -0.625  0.00  0.00     0.078 C 
ATOM      2  C1  UNL d   1      -3.596   3.885   0.154  0.00  0.00    -0.077 A 
ATOM      3  C2  UNL d   1      -4.819   4.095  -0.495  0.00  0.00    -0.001 A 
ATOM      4  C3  UNL d   1      -5.995   4.231   0.243  0.00  0.00     0.003 A 
ATOM      5  C4  UNL d   1      -5.960   4.159   1.635  0.00  0.00    -0.005 A 
ATOM      6  C5  UNL d   1      -4.748   3.953   2.289  0.00  0.00     0.003 A 
ATOM      7  C6  UNL d   1      -3.570   3.816   1.553  0.00  0.00    -0.001 A 
ENDROOT
TORSDOF 0
ENDMDL
