MODEL 1
REMARK minimizedAffinity 9.80420876
REMARK minimizedRMSD -1
REMARK  0 active torsions:
REMARK  status: ('A' for Active; 'I' for Inactive)
ROOT
ATOM      1  C   UNL d   1       4.745   5.242  -5.985  0.00  0.00     0.078 C 
ATOM      2  C1  UNL d   1       4.794   5.352  -4.491  0.00  0.00    -0.077 A 
ATOM      3  C2  UNL d   1       3.699   4.977  -3.703  0.00  0.00    -0.001 A 
ATOM      4  C3  UNL d   1       3.756   5.094  -2.313  0.00  0.00     0.003 A 
ATOM      5  C4  UNL d   1       4.905   5.587  -1.699  0.00  0.00    -0.005 A 
ATOM      6  C5  UNL d   1       5.999   5.965  -2.475  0.00  0.00     0.003 A 
ATOM      7  C6  UNL d   1       5.944   5.849  -3.864  0.00  0.00    -0.001 A 
ENDROOT
TORSDOF 0
ENDMDL
