MODEL 1
REMARK minimizedAffinity 0.256988972
REMARK minimizedRMSD -1
REMARK  0 active torsions:
REMARK  status: ('A' for Active; 'I' for Inactive)
ROOT
ATOM      1  C   UNL d   1       4.793   5.993  -1.763  0.00  0.00     0.078 C 
ATOM      2  C1  UNL d   1       4.813   5.723  -3.238  0.00  0.00    -0.077 A 
ATOM      3  C2  UNL d   1       3.696   5.182  -3.887  0.00  0.00    -0.001 A 
ATOM      4  C3  UNL d   1       3.732   4.927  -5.259  0.00  0.00     0.003 A 
ATOM      5  C4  UNL d   1       4.883   5.208  -5.993  0.00  0.00    -0.005 A 
ATOM      6  C5  UNL d   1       6.000   5.743  -5.355  0.00  0.00     0.003 A 
ATOM      7  C6  UNL d   1       5.966   5.999  -3.983  0.00  0.00    -0.001 A 
ENDROOT
TORSDOF 0
ENDMDL
