MODEL 1
REMARK minimizedAffinity -0.54508841
REMARK minimizedRMSD -1
REMARK  0 active torsions:
REMARK  status: ('A' for Active; 'I' for Inactive)
ROOT
ATOM      1  C   UNL d   1       2.753   0.990   1.256  0.00  0.00     0.078 C 
ATOM      2  C1  UNL d   1       2.041   0.118   2.248  0.00  0.00    -0.077 A 
ATOM      3  C2  UNL d   1       1.546  -1.138   1.879  0.00  0.00    -0.001 A 
ATOM      4  C3  UNL d   1       0.877  -1.934   2.810  0.00  0.00     0.003 A 
ATOM      5  C4  UNL d   1       0.697  -1.483   4.116  0.00  0.00    -0.005 A 
ATOM      6  C5  UNL d   1       1.184  -0.233   4.492  0.00  0.00     0.003 A 
ATOM      7  C6  UNL d   1       1.853   0.565   3.562  0.00  0.00    -0.001 A 
ENDROOT
TORSDOF 0
ENDMDL
