MODEL 1
REMARK minimizedAffinity 7.67977285
REMARK minimizedRMSD -1
REMARK  0 active torsions:
REMARK  status: ('A' for Active; 'I' for Inactive)
ROOT
ATOM      1  C   UNL d   1       2.586  -0.549   1.261  0.00  0.00     0.078 C 
ATOM      2  C1  UNL d   1       1.977  -1.443   2.300  0.00  0.00    -0.077 A 
ATOM      3  C2  UNL d   1       1.658  -2.775   2.008  0.00  0.00    -0.001 A 
ATOM      4  C3  UNL d   1       1.083  -3.593   2.982  0.00  0.00     0.003 A 
ATOM      5  C4  UNL d   1       0.821  -3.088   4.254  0.00  0.00    -0.005 A 
ATOM      6  C5  UNL d   1       1.133  -1.763   4.553  0.00  0.00     0.003 A 
ATOM      7  C6  UNL d   1       1.708  -0.944   3.581  0.00  0.00    -0.001 A 
ENDROOT
TORSDOF 0
ENDMDL
