MODEL 1
REMARK minimizedAffinity 6.59932899
REMARK minimizedRMSD -1
REMARK  0 active torsions:
REMARK  status: ('A' for Active; 'I' for Inactive)
ROOT
ATOM      1  C   UNL d   1       3.001   2.838  -0.893  0.00  0.00     0.078 C 
ATOM      2  C1  UNL d   1       2.953   1.596  -0.055  0.00  0.00    -0.077 A 
ATOM      3  C2  UNL d   1       2.118   1.514   1.066  0.00  0.00    -0.001 A 
ATOM      4  C3  UNL d   1       2.090   0.354   1.843  0.00  0.00     0.003 A 
ATOM      5  C4  UNL d   1       2.897  -0.731   1.508  0.00  0.00    -0.005 A 
ATOM      6  C5  UNL d   1       3.733  -0.658   0.396  0.00  0.00     0.003 A 
ATOM      7  C6  UNL d   1       3.762   0.500  -0.382  0.00  0.00    -0.001 A 
ENDROOT
TORSDOF 0
ENDMDL
