MODEL 1
REMARK minimizedAffinity 0.98122251
REMARK minimizedRMSD -1
REMARK  1 active torsions:
REMARK  status: ('A' for Active; 'I' for Inactive)
REMARK    1  A    between atoms: C1_2  and  C2_3 
ROOT
ATOM      1  C2  UNL d   1      -0.284  -1.710   3.920  0.00  0.00    -0.076 A 
ATOM      2  C3  UNL d   1      -1.380  -2.442   4.408  0.00  0.00     0.004 A 
ATOM      3  C4  UNL d   1      -2.648  -2.293   3.848  0.00  0.00    -0.003 A 
ATOM      4  C5  UNL d   1      -2.839  -1.412   2.790  0.00  0.00     0.000 A 
ATOM      5  C6  UNL d   1      -1.759  -0.691   2.282  0.00  0.00     0.000 A 
ATOM      6  C7  UNL d   1      -0.471  -0.841   2.824  0.00  0.00    -0.073 A 
ATOM      7  C8  UNL d   1       0.656  -0.034   2.241  0.00  0.00     0.078 C 
ENDROOT
BRANCH   1   8
ATOM      8  C1  UNL d   1       1.062  -1.892   4.586  0.00  0.00     0.053 C 
ATOM      9  C   UNL d   1       1.403  -0.751   5.532  0.00  0.00     0.018 C 
ENDBRANCH   1   8
TORSDOF 1
ENDMDL
