MODEL 1
REMARK minimizedAffinity 4.48673725
REMARK minimizedRMSD -1
REMARK  1 active torsions:
REMARK  status: ('A' for Active; 'I' for Inactive)
REMARK    1  A    between atoms: C1_2  and  C2_3 
ROOT
ATOM      1  C2  UNL d   1       0.932  -4.995  -3.665  0.00  0.00    -0.076 A 
ATOM      2  C3  UNL d   1       1.433  -5.463  -4.892  0.00  0.00     0.004 A 
ATOM      3  C4  UNL d   1       0.599  -5.608  -5.999  0.00  0.00    -0.003 A 
ATOM      4  C5  UNL d   1      -0.750  -5.286  -5.898  0.00  0.00     0.000 A 
ATOM      5  C6  UNL d   1      -1.261  -4.803  -4.693  0.00  0.00     0.000 A 
ATOM      6  C7  UNL d   1      -0.430  -4.635  -3.572  0.00  0.00    -0.073 A 
ATOM      7  C8  UNL d   1      -1.035  -4.116  -2.297  0.00  0.00     0.078 C 
ENDROOT
BRANCH   1   8
ATOM      8  C1  UNL d   1       1.878  -4.884  -2.491  0.00  0.00     0.053 C 
ATOM      9  C   UNL d   1       2.912  -5.999  -2.469  0.00  0.00     0.018 C 
ENDBRANCH   1   8
TORSDOF 1
ENDMDL
