MODEL 1
REMARK minimizedAffinity 4.61330175
REMARK minimizedRMSD -1
REMARK  1 active torsions:
REMARK  status: ('A' for Active; 'I' for Inactive)
REMARK    1  A    between atoms: C1_2  and  C2_3 
ROOT
ATOM      1  C2  UNL d   1       5.754  -1.731  -3.214  0.00  0.00    -0.076 A 
ATOM      2  C3  UNL d   1       5.999  -0.534  -3.907  0.00  0.00     0.004 A 
ATOM      3  C4  UNL d   1       5.827  -0.456  -5.288  0.00  0.00    -0.003 A 
ATOM      4  C5  UNL d   1       5.406  -1.575  -5.998  0.00  0.00     0.000 A 
ATOM      5  C6  UNL d   1       5.141  -2.767  -5.324  0.00  0.00     0.000 A 
ATOM      6  C7  UNL d   1       5.294  -2.857  -3.930  0.00  0.00    -0.073 A 
ATOM      7  C8  UNL d   1       5.000  -4.169  -3.255  0.00  0.00     0.078 C 
ENDROOT
BRANCH   1   8
ATOM      8  C1  UNL d   1       5.984  -1.763  -1.719  0.00  0.00     0.053 C 
ATOM      9  C   UNL d   1       4.937  -0.970  -0.952  0.00  0.00     0.018 C 
ENDBRANCH   1   8
TORSDOF 1
ENDMDL
