MODEL 1
REMARK minimizedAffinity 7.6156826
REMARK minimizedRMSD -1
REMARK  1 active torsions:
REMARK  status: ('A' for Active; 'I' for Inactive)
REMARK    1  A    between atoms: C1_2  and  C2_3 
ROOT
ATOM      1  C2  UNL d   1       1.489  -1.219   3.668  0.00  0.00    -0.076 A 
ATOM      2  C3  UNL d   1       2.690  -0.590   4.042  0.00  0.00     0.004 A 
ATOM      3  C4  UNL d   1       3.370  -0.970   5.197  0.00  0.00    -0.003 A 
ATOM      4  C5  UNL d   1       2.861  -1.987   5.998  0.00  0.00     0.000 A 
ATOM      5  C6  UNL d   1       1.681  -2.634   5.634  0.00  0.00     0.000 A 
ATOM      6  C7  UNL d   1       0.991  -2.274   4.463  0.00  0.00    -0.073 A 
ATOM      7  C8  UNL d   1      -0.280  -3.001   4.122  0.00  0.00     0.078 C 
ENDROOT
BRANCH   1   8
ATOM      8  C1  UNL d   1       0.781  -0.746   2.419  0.00  0.00     0.053 C 
ATOM      9  C   UNL d   1      -0.374   0.195   2.725  0.00  0.00     0.018 C 
ENDBRANCH   1   8
TORSDOF 1
ENDMDL
