MODEL 1
REMARK minimizedAffinity -1.92247152
REMARK minimizedRMSD -1
REMARK  1 active torsions:
REMARK  status: ('A' for Active; 'I' for Inactive)
REMARK    1  A    between atoms: C1_2  and  C2_3 
ROOT
ATOM      1  C2  UNL d   1      -0.551  -1.254  -2.474  0.00  0.00    -0.076 A 
ATOM      2  C3  UNL d   1       0.201  -2.135  -1.678  0.00  0.00     0.004 A 
ATOM      3  C4  UNL d   1       1.580  -2.254  -1.846  0.00  0.00    -0.003 A 
ATOM      4  C5  UNL d   1       2.228  -1.494  -2.813  0.00  0.00     0.000 A 
ATOM      5  C6  UNL d   1       1.500  -0.602  -3.600  0.00  0.00     0.000 A 
ATOM      6  C7  UNL d   1       0.112  -0.458  -3.432  0.00  0.00    -0.073 A 
ATOM      7  C8  UNL d   1      -0.624   0.514  -4.312  0.00  0.00     0.078 C 
ENDROOT
BRANCH   1   8
ATOM      8  C1  UNL d   1      -2.047  -1.188  -2.265  0.00  0.00     0.053 C 
ATOM      9  C   UNL d   1      -2.455  -1.559  -0.848  0.00  0.00     0.018 C 
ENDBRANCH   1   8
TORSDOF 1
ENDMDL
