MODEL 1
REMARK minimizedAffinity 5.45627308
REMARK minimizedRMSD -1
REMARK  1 active torsions:
REMARK  status: ('A' for Active; 'I' for Inactive)
REMARK    1  A    between atoms: C1_2  and  C2_3 
ROOT
ATOM      1  C2  UNL d   1       0.177  -1.205   3.093  0.00  0.00    -0.076 A 
ATOM      2  C3  UNL d   1      -0.435  -2.470   3.100  0.00  0.00     0.004 A 
ATOM      3  C4  UNL d   1      -1.700  -2.660   2.546  0.00  0.00    -0.003 A 
ATOM      4  C5  UNL d   1      -2.374  -1.586   1.975  0.00  0.00     0.000 A 
ATOM      5  C6  UNL d   1      -1.775  -0.327   1.943  0.00  0.00     0.000 A 
ATOM      6  C7  UNL d   1      -0.493  -0.123   2.482  0.00  0.00    -0.073 A 
ATOM      7  C8  UNL d   1       0.102   1.257   2.426  0.00  0.00     0.078 C 
ENDROOT
BRANCH   1   8
ATOM      8  C1  UNL d   1       1.538  -1.054   3.733  0.00  0.00     0.053 C 
ATOM      9  C   UNL d   1       1.893  -2.229   4.631  0.00  0.00     0.018 C 
ENDBRANCH   1   8
TORSDOF 1
ENDMDL
