MODEL 1
REMARK minimizedAffinity 9.83516502
REMARK minimizedRMSD -1
REMARK  1 active torsions:
REMARK  status: ('A' for Active; 'I' for Inactive)
REMARK    1  A    between atoms: C1_2  and  C2_3 
ROOT
ATOM      1  C2  UNL d   1       1.049  -1.610  -3.579  0.00  0.00    -0.076 A 
ATOM      2  C3  UNL d   1       1.229  -0.576  -4.514  0.00  0.00     0.004 A 
ATOM      3  C4  UNL d   1       0.166  -0.119  -5.292  0.00  0.00    -0.003 A 
ATOM      4  C5  UNL d   1      -1.094  -0.689  -5.147  0.00  0.00     0.000 A 
ATOM      5  C6  UNL d   1      -1.294  -1.704  -4.211  0.00  0.00     0.000 A 
ATOM      6  C7  UNL d   1      -0.237  -2.164  -3.408  0.00  0.00    -0.073 A 
ATOM      7  C8  UNL d   1      -0.509  -3.265  -2.419  0.00  0.00     0.078 C 
ENDROOT
BRANCH   1   8
ATOM      8  C1  UNL d   1       2.245  -2.083  -2.783  0.00  0.00     0.053 C 
ATOM      9  C   UNL d   1       3.563  -1.612  -3.377  0.00  0.00     0.018 C 
ENDBRANCH   1   8
TORSDOF 1
ENDMDL
