MODEL 1
REMARK minimizedAffinity 7.15176344
REMARK minimizedRMSD -1
REMARK  1 active torsions:
REMARK  status: ('A' for Active; 'I' for Inactive)
REMARK    1  A    between atoms: C1_2  and  C2_3 
ROOT
ATOM      1  C2  UNL d   1       1.258   0.434   2.132  0.00  0.00    -0.076 A 
ATOM      2  C3  UNL d   1       0.153   1.288   2.291  0.00  0.00     0.004 A 
ATOM      3  C4  UNL d   1       0.186   2.599   1.820  0.00  0.00    -0.003 A 
ATOM      4  C5  UNL d   1       1.324   3.078   1.181  0.00  0.00     0.000 A 
ATOM      5  C6  UNL d   1       2.423   2.239   0.998  0.00  0.00     0.000 A 
ATOM      6  C7  UNL d   1       2.400   0.909   1.453  0.00  0.00    -0.073 A 
ATOM      7  C8  UNL d   1       3.616   0.051   1.235  0.00  0.00     0.078 C 
ENDROOT
BRANCH   1   8
ATOM      8  C1  UNL d   1       1.175  -0.970   2.688  0.00  0.00     0.053 C 
ATOM      9  C   UNL d   1       1.761  -1.078   4.087  0.00  0.00     0.018 C 
ENDBRANCH   1   8
TORSDOF 1
ENDMDL
