MODEL 1
REMARK minimizedAffinity -4.22509718
REMARK minimizedRMSD -1
REMARK  0 active torsions:
REMARK  status: ('A' for Active; 'I' for Inactive)
ROOT
ATOM      1  C2' OXE d   1       0.239   1.788  -2.174  0.00  0.00     0.078 C 
ATOM      2  C1' OXE d   1       0.821  -0.580  -0.783  0.00  0.00     0.078 C 
ATOM      3  C1  OXE d   1       0.107   0.518  -0.035  0.00  0.00    -0.078 A 
ATOM      4  C2  OXE d   1      -0.133   1.691  -0.710  0.00  0.00    -0.078 A 
ATOM      5  C3  OXE d   1      -0.837   2.715  -0.084  0.00  0.00     0.003 A 
ATOM      6  C4  OXE d   1      -1.169   2.621   1.273  0.00  0.00    -0.002 A 
ATOM      7  C5  OXE d   1      -0.899   1.450   1.990  0.00  0.00    -0.002 A 
ATOM      8  C6  OXE d   1      -0.301   0.376   1.341  0.00  0.00     0.003 A 
ENDROOT
TORSDOF 0
ENDMDL
