MODEL 1
REMARK minimizedAffinity -3.17999744
REMARK minimizedRMSD -1
REMARK  0 active torsions:
REMARK  status: ('A' for Active; 'I' for Inactive)
ROOT
ATOM      1  C2' OXE d   1       0.031   0.317   2.299  0.00  0.00     0.078 C 
ATOM      2  C1' OXE d   1       0.370  -0.647  -0.316  0.00  0.00     0.078 C 
ATOM      3  C1  OXE d   1       0.007   0.807  -0.143  0.00  0.00    -0.078 A 
ATOM      4  C2  OXE d   1      -0.202   1.259   1.137  0.00  0.00    -0.078 A 
ATOM      5  C3  OXE d   1      -0.485   2.604   1.356  0.00  0.00     0.003 A 
ATOM      6  C4  OXE d   1      -0.708   3.466   0.275  0.00  0.00    -0.002 A 
ATOM      7  C5  OXE d   1      -0.539   3.016  -1.038  0.00  0.00    -0.002 A 
ATOM      8  C6  OXE d   1      -0.141   1.703  -1.263  0.00  0.00     0.003 A 
ENDROOT
TORSDOF 0
ENDMDL
