MODEL 1
REMARK minimizedAffinity -5.47040749
REMARK minimizedRMSD -1
REMARK  0 active torsions:
REMARK  status: ('A' for Active; 'I' for Inactive)
ROOT
ATOM      1  C2' OXE d   1      -0.952   2.852  -1.672  0.00  0.00     0.078 C 
ATOM      2  C1' OXE d   1      -1.176   3.714   0.990  0.00  0.00     0.078 C 
ATOM      3  C1  OXE d   1      -0.662   2.318   0.744  0.00  0.00    -0.078 A 
ATOM      4  C2  OXE d   1      -0.599   1.888  -0.560  0.00  0.00    -0.078 A 
ATOM      5  C3  OXE d   1      -0.081   0.628  -0.846  0.00  0.00     0.003 A 
ATOM      6  C4  OXE d   1       0.234  -0.261   0.189  0.00  0.00    -0.002 A 
ATOM      7  C5  OXE d   1       0.140   0.143   1.525  0.00  0.00    -0.002 A 
ATOM      8  C6  OXE d   1      -0.265   1.441   1.817  0.00  0.00     0.003 A 
ENDROOT
TORSDOF 0
ENDMDL
