MODEL 1
REMARK minimizedAffinity -4.78062153
REMARK minimizedRMSD -1
REMARK  0 active torsions:
REMARK  status: ('A' for Active; 'I' for Inactive)
ROOT
ATOM      1  C2' OXE d   1      -0.195  -0.762  -0.830  0.00  0.00     0.078 C 
ATOM      2  C1' OXE d   1       1.022  -0.397   1.673  0.00  0.00     0.078 C 
ATOM      3  C1  OXE d   1       0.076   0.673   1.188  0.00  0.00    -0.078 A 
ATOM      4  C2  OXE d   1      -0.479   0.509  -0.058  0.00  0.00    -0.078 A 
ATOM      5  C3  OXE d   1      -1.401   1.439  -0.530  0.00  0.00     0.003 A 
ATOM      6  C4  OXE d   1      -1.650   2.616   0.185  0.00  0.00    -0.002 A 
ATOM      7  C5  OXE d   1      -1.064   2.822   1.439  0.00  0.00    -0.002 A 
ATOM      8  C6  OXE d   1      -0.234   1.843   1.972  0.00  0.00     0.003 A 
ENDROOT
TORSDOF 0
ENDMDL
