MODEL 1
REMARK minimizedAffinity -5.19216251
REMARK minimizedRMSD -1
REMARK  0 active torsions:
REMARK  status: ('A' for Active; 'I' for Inactive)
ROOT
ATOM      1  C2' OXE d   1      -0.038  -0.130   2.613  0.00  0.00     0.078 C 
ATOM      2  C1' OXE d   1       0.344  -0.594  -0.129  0.00  0.00     0.078 C 
ATOM      3  C1  OXE d   1      -0.290   0.712   0.282  0.00  0.00    -0.078 A 
ATOM      4  C2  OXE d   1      -0.516   0.910   1.623  0.00  0.00    -0.078 A 
ATOM      5  C3  OXE d   1      -1.048   2.120   2.061  0.00  0.00     0.003 A 
ATOM      6  C4  OXE d   1      -1.496   3.072   1.138  0.00  0.00    -0.002 A 
ATOM      7  C5  OXE d   1      -1.312   2.873  -0.235  0.00  0.00    -0.002 A 
ATOM      8  C6  OXE d   1      -0.673   1.719  -0.676  0.00  0.00     0.003 A 
ENDROOT
TORSDOF 0
ENDMDL
