MODEL 1
REMARK minimizedAffinity -3.6308589
REMARK minimizedRMSD -1
REMARK  0 active torsions:
REMARK  status: ('A' for Active; 'I' for Inactive)
ROOT
ATOM      1  C2' OXE d   1      -1.495   2.573   1.129  0.00  0.00     0.078 C 
ATOM      2  C1' OXE d   1      -1.061   2.275  -1.629  0.00  0.00     0.078 C 
ATOM      3  C1  OXE d   1      -0.338   1.335  -0.697  0.00  0.00    -0.078 A 
ATOM      4  C2  OXE d   1      -0.520   1.519   0.653  0.00  0.00    -0.078 A 
ATOM      5  C3  OXE d   1       0.081   0.645   1.554  0.00  0.00     0.003 A 
ATOM      6  C4  OXE d   1       0.990  -0.322   1.106  0.00  0.00    -0.002 A 
ATOM      7  C5  OXE d   1       1.220  -0.499  -0.262  0.00  0.00    -0.002 A 
ATOM      8  C6  OXE d   1       0.534   0.291  -1.177  0.00  0.00     0.003 A 
ENDROOT
TORSDOF 0
ENDMDL
