MODEL 1
REMARK minimizedAffinity -6.38790846
REMARK minimizedRMSD -1
REMARK  0 active torsions:
REMARK  status: ('A' for Active; 'I' for Inactive)
ROOT
ATOM      1  C2' OXE d   1       0.555  -0.039   1.773  0.00  0.00     0.078 C 
ATOM      2  C1' OXE d   1       0.012  -0.130  -0.980  0.00  0.00     0.078 C 
ATOM      3  C1  OXE d   1      -0.371   1.121  -0.228  0.00  0.00    -0.078 A 
ATOM      4  C2  OXE d   1      -0.144   1.138   1.127  0.00  0.00    -0.078 A 
ATOM      5  C3  OXE d   1      -0.428   2.288   1.859  0.00  0.00     0.003 A 
ATOM      6  C4  OXE d   1      -1.083   3.368   1.256  0.00  0.00    -0.002 A 
ATOM      7  C5  OXE d   1      -1.360   3.355  -0.116  0.00  0.00    -0.002 A 
ATOM      8  C6  OXE d   1      -0.972   2.259  -0.878  0.00  0.00     0.003 A 
ENDROOT
TORSDOF 0
ENDMDL
