MODEL 1
REMARK minimizedAffinity -2.33437657
REMARK minimizedRMSD -1
REMARK  0 active torsions:
REMARK  status: ('A' for Active; 'I' for Inactive)
ROOT
ATOM      1  C2' OXE d   1       0.824   0.782  -1.865  0.00  0.00     0.078 C 
ATOM      2  C1' OXE d   1       0.482  -1.721  -0.640  0.00  0.00     0.078 C 
ATOM      3  C1  OXE d   1       0.409  -0.494   0.234  0.00  0.00    -0.078 A 
ATOM      4  C2  OXE d   1       0.623   0.723  -0.366  0.00  0.00    -0.078 A 
ATOM      5  C3  OXE d   1       0.513   1.891   0.385  0.00  0.00     0.003 A 
ATOM      6  C4  OXE d   1       0.337   1.827   1.772  0.00  0.00    -0.002 A 
ATOM      7  C5  OXE d   1       0.156   0.595   2.409  0.00  0.00    -0.002 A 
ATOM      8  C6  OXE d   1       0.147  -0.570   1.650  0.00  0.00     0.003 A 
ENDROOT
TORSDOF 0
ENDMDL
