MODEL 1
REMARK minimizedAffinity -2.53168058
REMARK minimizedRMSD -1
REMARK  0 active torsions:
REMARK  status: ('A' for Active; 'I' for Inactive)
ROOT
ATOM      1  C   UNL d   1      -0.445  -0.106  -0.548  0.00  0.00     0.172 C 
ATOM      2  N   UNL d   1       0.751  -0.101  -1.356  0.00  0.00    -0.070 N 
ATOM      3  C1  UNL d   1       1.970   0.394  -0.976  0.00  0.00    -0.004 A 
ATOM      4  C2  UNL d   1       2.846   0.211  -2.024  0.00  0.00    -0.047 A 
ATOM      5  C3  UNL d   1       2.128  -0.414  -3.072  0.00  0.00    -0.047 A 
ATOM      6  C4  UNL d   1       0.834  -0.595  -2.631  0.00  0.00    -0.004 A 
ENDROOT
TORSDOF 0
ENDMDL
