MODEL 1
REMARK minimizedAffinity -2.49926901
REMARK minimizedRMSD -1
REMARK  0 active torsions:
REMARK  status: ('A' for Active; 'I' for Inactive)
ROOT
ATOM      1  C   UNL d   1      -0.602  -0.064   0.548  0.00  0.00     0.172 C 
ATOM      2  N   UNL d   1       0.255   0.094  -0.604  0.00  0.00    -0.070 N 
ATOM      3  C1  UNL d   1       0.555  -0.883  -1.516  0.00  0.00    -0.004 A 
ATOM      4  C2  UNL d   1       1.399  -0.336  -2.458  0.00  0.00    -0.047 A 
ATOM      5  C3  UNL d   1       1.614   1.016  -2.100  0.00  0.00    -0.047 A 
ATOM      6  C4  UNL d   1       0.894   1.255  -0.948  0.00  0.00    -0.004 A 
ENDROOT
TORSDOF 0
ENDMDL
