MODEL 1
REMARK minimizedAffinity -2.73067856
REMARK minimizedRMSD -1
REMARK  0 active torsions:
REMARK  status: ('A' for Active; 'I' for Inactive)
ROOT
ATOM      1  C   UNL d   1      -5.998   3.313  -5.832  0.00  0.00     0.172 C 
ATOM      2  N   UNL d   1      -4.837   4.171  -5.880  0.00  0.00    -0.070 N 
ATOM      3  C1  UNL d   1      -3.534   3.753  -5.842  0.00  0.00    -0.004 A 
ATOM      4  C2  UNL d   1      -2.730   4.871  -5.911  0.00  0.00    -0.047 A 
ATOM      5  C3  UNL d   1      -3.580   5.999  -5.993  0.00  0.00    -0.047 A 
ATOM      6  C4  UNL d   1      -4.879   5.537  -5.972  0.00  0.00    -0.004 A 
ENDROOT
TORSDOF 0
ENDMDL
