MODEL 1
REMARK minimizedAffinity -3.23966312
REMARK minimizedRMSD -1
REMARK  0 active torsions:
REMARK  status: ('A' for Active; 'I' for Inactive)
ROOT
ATOM      1  C   UNL d   1      -3.717  -0.091   1.242  0.00  0.00     0.172 C 
ATOM      2  N   UNL d   1      -3.121   1.056   1.888  0.00  0.00    -0.070 N 
ATOM      3  C1  UNL d   1      -1.842   1.124   2.372  0.00  0.00    -0.004 A 
ATOM      4  C2  UNL d   1      -1.661   2.380   2.910  0.00  0.00    -0.047 A 
ATOM      5  C3  UNL d   1      -2.873   3.091   2.743  0.00  0.00    -0.047 A 
ATOM      6  C4  UNL d   1      -3.760   2.248   2.107  0.00  0.00    -0.004 A 
ENDROOT
TORSDOF 0
ENDMDL
