MODEL 1
REMARK minimizedAffinity -3.70870543
REMARK minimizedRMSD -1
REMARK  0 active torsions:
REMARK  status: ('A' for Active; 'I' for Inactive)
ROOT
ATOM      1  C   UNL d   1      -0.189  -0.449   0.929  0.00  0.00     0.172 C 
ATOM      2  N   UNL d   1       0.603  -0.202  -0.253  0.00  0.00    -0.070 N 
ATOM      3  C1  UNL d   1       1.229   0.976  -0.563  0.00  0.00    -0.004 A 
ATOM      4  C2  UNL d   1       1.877   0.806  -1.767  0.00  0.00    -0.047 A 
ATOM      5  C3  UNL d   1       1.631  -0.520  -2.197  0.00  0.00    -0.047 A 
ATOM      6  C4  UNL d   1       0.840  -1.121  -1.241  0.00  0.00    -0.004 A 
ENDROOT
TORSDOF 0
ENDMDL
