MODEL 1
REMARK minimizedAffinity -2.99244452
REMARK minimizedRMSD -1
REMARK  0 active torsions:
REMARK  status: ('A' for Active; 'I' for Inactive)
ROOT
ATOM      1  C   UNL d   1      -1.008   0.079   0.393  0.00  0.00     0.172 C 
ATOM      2  N   UNL d   1      -0.034   0.110  -0.672  0.00  0.00    -0.070 N 
ATOM      3  C1  UNL d   1      -0.260  -0.261  -1.971  0.00  0.00    -0.004 A 
ATOM      4  C2  UNL d   1       0.915  -0.084  -2.670  0.00  0.00    -0.047 A 
ATOM      5  C3  UNL d   1       1.880   0.409  -1.760  0.00  0.00    -0.047 A 
ATOM      6  C4  UNL d   1       1.265   0.520  -0.530  0.00  0.00    -0.004 A 
ENDROOT
TORSDOF 0
ENDMDL
