MODEL 1
REMARK minimizedAffinity -3.54000497
REMARK minimizedRMSD -1
REMARK  0 active torsions:
REMARK  status: ('A' for Active; 'I' for Inactive)
ROOT
ATOM      1  C   UNL d   1      -0.667  -0.211   0.512  0.00  0.00     0.172 C 
ATOM      2  N   UNL d   1       0.260  -0.073  -0.587  0.00  0.00    -0.070 N 
ATOM      3  C1  UNL d   1      -0.008  -0.362  -1.899  0.00  0.00    -0.004 A 
ATOM      4  C2  UNL d   1       1.129  -0.097  -2.630  0.00  0.00    -0.047 A 
ATOM      5  C3  UNL d   1       2.116   0.365  -1.727  0.00  0.00    -0.047 A 
ATOM      6  C4  UNL d   1       1.551   0.370  -0.469  0.00  0.00    -0.004 A 
ENDROOT
TORSDOF 0
ENDMDL
