MODEL 1
REMARK minimizedAffinity -3.54248548
REMARK minimizedRMSD -1
REMARK  0 active torsions:
REMARK  status: ('A' for Active; 'I' for Inactive)
ROOT
ATOM      1  C   UNL d   1      -0.790  -0.042   0.992  0.00  0.00     0.172 C 
ATOM      2  N   UNL d   1       0.044   0.167  -0.168  0.00  0.00    -0.070 N 
ATOM      3  C1  UNL d   1      -0.340  -0.014  -1.470  0.00  0.00    -0.004 A 
ATOM      4  C2  UNL d   1       0.738   0.288  -2.274  0.00  0.00    -0.047 A 
ATOM      5  C3  UNL d   1       1.807   0.663  -1.425  0.00  0.00    -0.047 A 
ATOM      6  C4  UNL d   1       1.350   0.578  -0.127  0.00  0.00    -0.004 A 
ENDROOT
TORSDOF 0
ENDMDL
