MODEL 1
REMARK minimizedAffinity -3.05785918
REMARK minimizedRMSD -1
REMARK  0 active torsions:
REMARK  status: ('A' for Active; 'I' for Inactive)
ROOT
ATOM      1  C   UNL d   1      -0.293  -0.377   1.151  0.00  0.00     0.172 C 
ATOM      2  N   UNL d   1       0.405  -0.031  -0.065  0.00  0.00    -0.070 N 
ATOM      3  C1  UNL d   1       0.201  -0.603  -1.292  0.00  0.00    -0.004 A 
ATOM      4  C2  UNL d   1       1.058   0.000  -2.187  0.00  0.00    -0.047 A 
ATOM      5  C3  UNL d   1       1.803   0.968  -1.472  0.00  0.00    -0.047 A 
ATOM      6  C4  UNL d   1       1.379   0.927  -0.161  0.00  0.00    -0.004 A 
ENDROOT
TORSDOF 0
ENDMDL
