MODEL 1
REMARK minimizedAffinity -3.1358726
REMARK minimizedRMSD -1
REMARK  0 active torsions:
REMARK  status: ('A' for Active; 'I' for Inactive)
ROOT
ATOM      1  C   UNL d   1       2.513   0.226  -1.914  0.00  0.00     0.172 C 
ATOM      2  N   UNL d   1       1.614  -0.337  -0.934  0.00  0.00    -0.070 N 
ATOM      3  C1  UNL d   1       1.375  -1.672  -0.743  0.00  0.00    -0.004 A 
ATOM      4  C2  UNL d   1       0.461  -1.794   0.281  0.00  0.00    -0.047 A 
ATOM      5  C3  UNL d   1       0.140  -0.488   0.721  0.00  0.00    -0.047 A 
ATOM      6  C4  UNL d   1       0.868   0.395  -0.048  0.00  0.00    -0.004 A 
ENDROOT
TORSDOF 0
ENDMDL
