MODEL 1
REMARK minimizedAffinity -2.97899771
REMARK minimizedRMSD -1
REMARK  0 active torsions:
REMARK  status: ('A' for Active; 'I' for Inactive)
ROOT
ATOM      1  C   UNL d   1      -0.469  -0.238   0.943  0.00  0.00     0.172 C 
ATOM      2  N   UNL d   1       0.227   0.072  -0.284  0.00  0.00    -0.070 N 
ATOM      3  C1  UNL d   1      -0.230  -0.188  -1.548  0.00  0.00    -0.004 A 
ATOM      4  C2  UNL d   1       0.721   0.258  -2.440  0.00  0.00    -0.047 A 
ATOM      5  C3  UNL d   1       1.786   0.805  -1.686  0.00  0.00    -0.047 A 
ATOM      6  C4  UNL d   1       1.454   0.677  -0.354  0.00  0.00    -0.004 A 
ENDROOT
TORSDOF 0
ENDMDL
