MODEL 1
REMARK minimizedAffinity -3.47327089
REMARK minimizedRMSD -1
REMARK  0 active torsions:
REMARK  status: ('A' for Active; 'I' for Inactive)
ROOT
ATOM      1  C   UNL d   1      -0.242  -1.156   0.780  0.00  0.00     0.172 C 
ATOM      2  N   UNL d   1       0.457  -0.736  -0.411  0.00  0.00    -0.070 N 
ATOM      3  C1  UNL d   1       0.609  -1.479  -1.552  0.00  0.00    -0.004 A 
ATOM      4  C2  UNL d   1       1.332  -0.727  -2.452  0.00  0.00    -0.047 A 
ATOM      5  C3  UNL d   1       1.627   0.510  -1.831  0.00  0.00    -0.047 A 
ATOM      6  C4  UNL d   1       1.073   0.478  -0.568  0.00  0.00    -0.004 A 
ENDROOT
TORSDOF 0
ENDMDL
