MODEL 1
REMARK minimizedAffinity -2.83843732
REMARK minimizedRMSD -1
REMARK  0 active torsions:
REMARK  status: ('A' for Active; 'I' for Inactive)
ROOT
ATOM      1  C   UNL d   1      -0.699  -0.084   0.978  0.00  0.00     0.172 C 
ATOM      2  N   UNL d   1       0.015  -0.124  -0.276  0.00  0.00    -0.070 N 
ATOM      3  C1  UNL d   1       0.387  -1.258  -0.947  0.00  0.00    -0.004 A 
ATOM      4  C2  UNL d   1       1.043  -0.872  -2.096  0.00  0.00    -0.047 A 
ATOM      5  C3  UNL d   1       1.068   0.542  -2.115  0.00  0.00    -0.047 A 
ATOM      6  C4  UNL d   1       0.425   0.980  -0.977  0.00  0.00    -0.004 A 
ENDROOT
TORSDOF 0
ENDMDL
