MODEL 1
REMARK minimizedAffinity -3.17566562
REMARK minimizedRMSD -1
REMARK  0 active torsions:
REMARK  status: ('A' for Active; 'I' for Inactive)
ROOT
ATOM      1  C   UNL d   1       1.545  -3.522  -1.658  0.00  0.00     0.172 C 
ATOM      2  N   UNL d   1       0.974  -2.205  -1.819  0.00  0.00    -0.070 N 
ATOM      3  C1  UNL d   1       1.275  -1.322  -2.822  0.00  0.00    -0.004 A 
ATOM      4  C2  UNL d   1       0.521  -0.185  -2.622  0.00  0.00    -0.047 A 
ATOM      5  C3  UNL d   1      -0.258  -0.392  -1.459  0.00  0.00    -0.047 A 
ATOM      6  C4  UNL d   1       0.042  -1.650  -0.983  0.00  0.00    -0.004 A 
ENDROOT
TORSDOF 0
ENDMDL
