MODEL 1
REMARK minimizedAffinity -2.88882613
REMARK minimizedRMSD -1
REMARK  0 active torsions:
REMARK  status: ('A' for Active; 'I' for Inactive)
ROOT
ATOM      1  C   UNL d   1      -0.235   0.307  -0.415  0.00  0.00     0.172 C 
ATOM      2  N   UNL d   1       1.017   0.222  -1.129  0.00  0.00    -0.070 N 
ATOM      3  C1  UNL d   1       1.242  -0.517  -2.260  0.00  0.00    -0.004 A 
ATOM      4  C2  UNL d   1       2.556  -0.331  -2.631  0.00  0.00    -0.047 A 
ATOM      5  C3  UNL d   1       3.141   0.549  -1.690  0.00  0.00    -0.047 A 
ATOM      6  C4  UNL d   1       2.166   0.876  -0.771  0.00  0.00    -0.004 A 
ENDROOT
TORSDOF 0
ENDMDL
