MODEL 1
REMARK minimizedAffinity 5.74910736
REMARK minimizedRMSD -1
REMARK  1 active torsions:
REMARK  status: ('A' for Active; 'I' for Inactive)
REMARK    1  A    between atoms: C3_4  and  O_7 
ROOT
ATOM      1  C   UNL d   1      -0.123   3.604  -1.807  0.00  0.00    -0.033 A 
ATOM      2  C1  UNL d   1       1.263   3.770  -1.821  0.00  0.00     0.039 A 
ATOM      3  C2  UNL d   1       2.042   3.234  -0.794  0.00  0.00    -0.080 A 
ATOM      4  C3  UNL d   1       1.424   2.534   0.239  0.00  0.00     0.150 A 
ATOM      5  C4  UNL d   1       0.044   2.362   0.257  0.00  0.00    -0.007 A 
ATOM      6  C5  UNL d   1      -0.733   2.899  -0.769  0.00  0.00     0.039 A 
ENDROOT
BRANCH   4   7
ATOM      7  O   UNL d   1       2.142   1.997   1.266  0.00  0.00    -0.526 OA
ATOM      8  H5  UNL d   1       3.079   2.220   1.135  0.00  0.00     0.418 HD
ENDBRANCH   4   7
TORSDOF 1
ENDMDL
