MODEL 1
REMARK minimizedAffinity -1.48747623
REMARK minimizedRMSD -1
REMARK  1 active torsions:
REMARK  status: ('A' for Active; 'I' for Inactive)
REMARK    1  A    between atoms: C3_4  and  O_7 
ROOT
ATOM      1  C   UNL d   1       0.712   2.596   1.187  0.00  0.00    -0.033 A 
ATOM      2  C1  UNL d   1      -0.218   2.452   0.156  0.00  0.00     0.039 A 
ATOM      3  C2  UNL d   1      -0.270   3.391  -0.876  0.00  0.00    -0.080 A 
ATOM      4  C3  UNL d   1       0.612   4.468  -0.865  0.00  0.00     0.150 A 
ATOM      5  C4  UNL d   1       1.543   4.616   0.158  0.00  0.00    -0.007 A 
ATOM      6  C5  UNL d   1       1.593   3.677   1.187  0.00  0.00     0.039 A 
ENDROOT
BRANCH   4   7
ATOM      7  O   UNL d   1       0.596   5.413  -1.848  0.00  0.00    -0.526 OA
ATOM      8  H5  UNL d   1      -0.118   5.196  -2.471  0.00  0.00     0.418 HD
ENDBRANCH   4   7
TORSDOF 1
ENDMDL
