MODEL 1
REMARK minimizedAffinity -4.08034754
REMARK minimizedRMSD -1
REMARK  1 active torsions:
REMARK  status: ('A' for Active; 'I' for Inactive)
REMARK    1  A    between atoms: C3_4  and  O_7 
ROOT
ATOM      1  C   UNL d   1      -0.137   2.951  -1.540  0.00  0.00    -0.033 A 
ATOM      2  C1  UNL d   1      -0.266   2.033  -0.496  0.00  0.00     0.039 A 
ATOM      3  C2  UNL d   1       0.553   2.133   0.630  0.00  0.00    -0.080 A 
ATOM      4  C3  UNL d   1       1.496   3.155   0.700  0.00  0.00     0.150 A 
ATOM      5  C4  UNL d   1       1.627   4.076  -0.334  0.00  0.00    -0.007 A 
ATOM      6  C5  UNL d   1       0.809   3.974  -1.458  0.00  0.00     0.039 A 
ENDROOT
BRANCH   4   7
ATOM      7  O   UNL d   1       2.321   3.290   1.777  0.00  0.00    -0.526 OA
ATOM      8  H5  UNL d   1       2.136   2.567   2.399  0.00  0.00     0.418 HD
ENDBRANCH   4   7
TORSDOF 1
ENDMDL
