MODEL 1
REMARK minimizedAffinity -2.62142253
REMARK minimizedRMSD -1
REMARK  1 active torsions:
REMARK  status: ('A' for Active; 'I' for Inactive)
REMARK    1  A    between atoms: C3_4  and  O_7 
ROOT
ATOM      1  C   UNL d   1       5.866  -3.452  -3.719  0.00  0.00    -0.033 A 
ATOM      2  C1  UNL d   1       5.399  -4.116  -2.584  0.00  0.00     0.039 A 
ATOM      3  C2  UNL d   1       4.428  -3.522  -1.775  0.00  0.00    -0.080 A 
ATOM      4  C3  UNL d   1       3.932  -2.266  -2.113  0.00  0.00     0.150 A 
ATOM      5  C4  UNL d   1       4.390  -1.601  -3.246  0.00  0.00    -0.007 A 
ATOM      6  C5  UNL d   1       5.361  -2.195  -4.051  0.00  0.00     0.039 A 
ENDROOT
BRANCH   4   7
ATOM      7  O   UNL d   1       2.988  -1.644  -1.353  0.00  0.00    -0.526 OA
ATOM      8  H5  UNL d   1       2.788  -2.210  -0.588  0.00  0.00     0.418 HD
ENDBRANCH   4   7
TORSDOF 1
ENDMDL
