MODEL 1
REMARK minimizedAffinity -1.91142642
REMARK minimizedRMSD -1
REMARK  1 active torsions:
REMARK  status: ('A' for Active; 'I' for Inactive)
REMARK    1  A    between atoms: C3_4  and  O_7 
ROOT
ATOM      1  C   UNL d   1       4.953  -5.730  -1.823  0.00  0.00    -0.033 A 
ATOM      2  C1  UNL d   1       5.721  -5.236  -0.767  0.00  0.00     0.039 A 
ATOM      3  C2  UNL d   1       5.507  -3.941  -0.291  0.00  0.00    -0.080 A 
ATOM      4  C3  UNL d   1       4.522  -3.152  -0.879  0.00  0.00     0.150 A 
ATOM      5  C4  UNL d   1       3.750  -3.639  -1.929  0.00  0.00    -0.007 A 
ATOM      6  C5  UNL d   1       3.966  -4.932  -2.403  0.00  0.00     0.039 A 
ENDROOT
BRANCH   4   7
ATOM      7  O   UNL d   1       4.280  -1.880  -0.452  0.00  0.00    -0.526 OA
ATOM      8  H5  UNL d   1       4.907  -1.669   0.259  0.00  0.00     0.418 HD
ENDBRANCH   4   7
TORSDOF 1
ENDMDL
