MODEL 1
REMARK minimizedAffinity 0.700294793
REMARK minimizedRMSD -1
REMARK  1 active torsions:
REMARK  status: ('A' for Active; 'I' for Inactive)
REMARK    1  A    between atoms: C3_4  and  O_7 
ROOT
ATOM      1  C   UNL d   1       4.195  -5.606  -2.176  0.00  0.00    -0.033 A 
ATOM      2  C1  UNL d   1       3.475  -4.536  -2.710  0.00  0.00     0.039 A 
ATOM      3  C2  UNL d   1       3.559  -3.273  -2.121  0.00  0.00    -0.080 A 
ATOM      4  C3  UNL d   1       4.367  -3.093  -1.001  0.00  0.00     0.150 A 
ATOM      5  C4  UNL d   1       5.089  -4.154  -0.466  0.00  0.00    -0.007 A 
ATOM      6  C5  UNL d   1       5.003  -5.415  -1.055  0.00  0.00     0.039 A 
ENDROOT
BRANCH   4   7
ATOM      7  O   UNL d   1       4.477  -1.880  -0.389  0.00  0.00    -0.526 OA
ATOM      8  H5  UNL d   1       3.900  -1.249  -0.851  0.00  0.00     0.418 HD
ENDBRANCH   4   7
TORSDOF 1
ENDMDL
