MODEL 1
REMARK minimizedAffinity -3.23109889
REMARK minimizedRMSD -1
REMARK  1 active torsions:
REMARK  status: ('A' for Active; 'I' for Inactive)
REMARK    1  A    between atoms: C3_4  and  O_7 
ROOT
ATOM      1  C   UNL d   1       4.134  -4.506  -2.845  0.00  0.00    -0.033 A 
ATOM      2  C1  UNL d   1       3.846  -3.207  -3.267  0.00  0.00     0.039 A 
ATOM      3  C2  UNL d   1       3.909  -2.146  -2.362  0.00  0.00    -0.080 A 
ATOM      4  C3  UNL d   1       4.262  -2.397  -1.039  0.00  0.00     0.150 A 
ATOM      5  C4  UNL d   1       4.554  -3.688  -0.612  0.00  0.00    -0.007 A 
ATOM      6  C5  UNL d   1       4.489  -4.746  -1.517  0.00  0.00     0.039 A 
ENDROOT
BRANCH   4   7
ATOM      7  O   UNL d   1       4.332  -1.395  -0.117  0.00  0.00    -0.526 OA
ATOM      8  H5  UNL d   1       4.077  -0.562  -0.548  0.00  0.00     0.418 HD
ENDBRANCH   4   7
TORSDOF 1
ENDMDL
