MODEL 1
REMARK minimizedAffinity 1.86210835
REMARK minimizedRMSD -1
REMARK  1 active torsions:
REMARK  status: ('A' for Active; 'I' for Inactive)
REMARK    1  A    between atoms: C3_4  and  O_7 
ROOT
ATOM      1  C   UNL d   1       0.728   1.745   3.162  0.00  0.00    -0.033 A 
ATOM      2  C1  UNL d   1      -0.488   1.600   2.492  0.00  0.00     0.039 A 
ATOM      3  C2  UNL d   1      -0.663   2.169   1.229  0.00  0.00    -0.080 A 
ATOM      4  C3  UNL d   1       0.384   2.879   0.648  0.00  0.00     0.150 A 
ATOM      5  C4  UNL d   1       1.600   3.024   1.309  0.00  0.00    -0.007 A 
ATOM      6  C5  UNL d   1       1.773   2.455   2.570  0.00  0.00     0.039 A 
ENDROOT
BRANCH   4   7
ATOM      7  O   UNL d   1       0.259   3.456  -0.580  0.00  0.00    -0.526 OA
ATOM      8  H5  UNL d   1      -0.644   3.298  -0.904  0.00  0.00     0.418 HD
ENDBRANCH   4   7
TORSDOF 1
ENDMDL
