MODEL 1
REMARK minimizedAffinity 2.21099281
REMARK minimizedRMSD -1
REMARK  1 active torsions:
REMARK  status: ('A' for Active; 'I' for Inactive)
REMARK    1  A    between atoms: C3_4  and  O_7 
ROOT
ATOM      1  C   UNL d   1       4.550  -5.570  -2.423  0.00  0.00    -0.033 A 
ATOM      2  C1  UNL d   1       4.054  -4.618  -3.316  0.00  0.00     0.039 A 
ATOM      3  C2  UNL d   1       3.856  -3.301  -2.896  0.00  0.00    -0.080 A 
ATOM      4  C3  UNL d   1       4.157  -2.950  -1.583  0.00  0.00     0.150 A 
ATOM      5  C4  UNL d   1       4.655  -3.892  -0.689  0.00  0.00    -0.007 A 
ATOM      6  C5  UNL d   1       4.851  -5.207  -1.110  0.00  0.00     0.039 A 
ENDROOT
BRANCH   4   7
ATOM      7  O   UNL d   1       3.976  -1.678  -1.126  0.00  0.00    -0.526 OA
ATOM      8  H5  UNL d   1       3.600  -1.144  -1.845  0.00  0.00     0.418 HD
ENDBRANCH   4   7
TORSDOF 1
ENDMDL
