MODEL 1
REMARK minimizedAffinity 1.23948836
REMARK minimizedRMSD -1
REMARK  1 active torsions:
REMARK  status: ('A' for Active; 'I' for Inactive)
REMARK    1  A    between atoms: C3_4  and  O_7 
ROOT
ATOM      1  C   UNL d   1       4.016  -4.896  -2.554  0.00  0.00    -0.033 A 
ATOM      2  C1  UNL d   1       2.824  -5.619  -2.636  0.00  0.00     0.039 A 
ATOM      3  C2  UNL d   1       1.840  -5.460  -1.658  0.00  0.00    -0.080 A 
ATOM      4  C3  UNL d   1       2.059  -4.574  -0.606  0.00  0.00     0.150 A 
ATOM      5  C4  UNL d   1       3.242  -3.848  -0.521  0.00  0.00    -0.007 A 
ATOM      6  C5  UNL d   1       4.224  -4.009  -1.497  0.00  0.00     0.039 A 
ENDROOT
BRANCH   4   7
ATOM      7  O   UNL d   1       1.130  -4.389   0.374  0.00  0.00    -0.526 OA
ATOM      8  H5  UNL d   1       0.377  -4.977   0.200  0.00  0.00     0.418 HD
ENDBRANCH   4   7
TORSDOF 1
ENDMDL
