MODEL 1
REMARK minimizedAffinity 4.65686035
REMARK minimizedRMSD -1
REMARK  1 active torsions:
REMARK  status: ('A' for Active; 'I' for Inactive)
REMARK    1  A    between atoms: C3_4  and  O_7 
ROOT
ATOM      1  C   UNL d   1       4.248  -3.338   4.873  0.00  0.00    -0.033 A 
ATOM      2  C1  UNL d   1       3.741  -2.682   3.749  0.00  0.00     0.039 A 
ATOM      3  C2  UNL d   1       2.428  -2.209   3.748  0.00  0.00    -0.080 A 
ATOM      4  C3  UNL d   1       1.633  -2.397   4.876  0.00  0.00     0.150 A 
ATOM      5  C4  UNL d   1       2.133  -3.047   6.000  0.00  0.00    -0.007 A 
ATOM      6  C5  UNL d   1       3.444  -3.519   5.998  0.00  0.00     0.039 A 
ENDROOT
BRANCH   4   7
ATOM      7  O   UNL d   1       0.343  -1.958   4.920  0.00  0.00    -0.526 OA
ATOM      8  H5  UNL d   1       0.126  -1.554   4.063  0.00  0.00     0.418 HD
ENDBRANCH   4   7
TORSDOF 1
ENDMDL
