MODEL 1
REMARK minimizedAffinity -4.71782637
REMARK minimizedRMSD -1
REMARK  0 active torsions:
REMARK  status: ('A' for Active; 'I' for Inactive)
ROOT
ATOM      1  C1  BNZ d   1       2.250  -1.272   0.054  0.00  0.00     0.000 A 
ATOM      2  C2  BNZ d   1       0.902  -1.230  -0.187  0.00  0.00     0.000 A 
ATOM      3  C3  BNZ d   1       0.220  -0.047  -0.141  0.00  0.00     0.000 A 
ATOM      4  C4  BNZ d   1       0.876   1.085   0.184  0.00  0.00     0.000 A 
ATOM      5  C5  BNZ d   1       2.233   1.058   0.438  0.00  0.00     0.000 A 
ATOM      6  C6  BNZ d   1       2.924  -0.128   0.353  0.00  0.00     0.000 A 
ENDROOT
TORSDOF 0
ENDMDL
