MODEL 1
REMARK minimizedAffinity -5.06973743
REMARK minimizedRMSD -1
REMARK  0 active torsions:
REMARK  status: ('A' for Active; 'I' for Inactive)
ROOT
ATOM      1  C1  BNZ d   1       0.848  -1.128   0.078  0.00  0.00     0.000 A 
ATOM      2  C2  BNZ d   1       2.214  -1.171   0.159  0.00  0.00     0.000 A 
ATOM      3  C3  BNZ d   1       2.934  -0.044   0.441  0.00  0.00     0.000 A 
ATOM      4  C4  BNZ d   1       2.291   1.131   0.602  0.00  0.00     0.000 A 
ATOM      5  C5  BNZ d   1       0.915   1.192   0.515  0.00  0.00     0.000 A 
ATOM      6  C6  BNZ d   1       0.190   0.048   0.268  0.00  0.00     0.000 A 
ENDROOT
TORSDOF 0
ENDMDL
