MODEL 1
REMARK minimizedAffinity -4.73888683
REMARK minimizedRMSD -1
REMARK  0 active torsions:
REMARK  status: ('A' for Active; 'I' for Inactive)
ROOT
ATOM      1  C1  BNZ d   1       2.443  -1.231   0.397  0.00  0.00     0.000 A 
ATOM      2  C2  BNZ d   1       1.142  -1.182  -0.029  0.00  0.00     0.000 A 
ATOM      3  C3  BNZ d   1       0.447  -0.005  -0.023  0.00  0.00     0.000 A 
ATOM      4  C4  BNZ d   1       1.040   1.112   0.446  0.00  0.00     0.000 A 
ATOM      5  C5  BNZ d   1       2.347   1.077   0.888  0.00  0.00     0.000 A 
ATOM      6  C6  BNZ d   1       3.056  -0.101   0.843  0.00  0.00     0.000 A 
ENDROOT
TORSDOF 0
ENDMDL
