MODEL 1
REMARK minimizedAffinity -3.78591871
REMARK minimizedRMSD -1
REMARK  0 active torsions:
REMARK  status: ('A' for Active; 'I' for Inactive)
ROOT
ATOM      1  C1  BNZ d   1       2.677   0.495   0.436  0.00  0.00     0.000 A 
ATOM      2  C2  BNZ d   1       1.541   1.189   0.114  0.00  0.00     0.000 A 
ATOM      3  C3  BNZ d   1       0.327   0.561   0.067  0.00  0.00     0.000 A 
ATOM      4  C4  BNZ d   1       0.257  -0.765   0.302  0.00  0.00     0.000 A 
ATOM      5  C5  BNZ d   1       1.395  -1.480   0.619  0.00  0.00     0.000 A 
ATOM      6  C6  BNZ d   1       2.609  -0.837   0.704  0.00  0.00     0.000 A 
ENDROOT
TORSDOF 0
ENDMDL
