MODEL 1
REMARK minimizedAffinity -5.11987734
REMARK minimizedRMSD -1
REMARK  0 active torsions:
REMARK  status: ('A' for Active; 'I' for Inactive)
ROOT
ATOM      1  C1  BNZ d   1       1.018   1.268   0.049  0.00  0.00     0.000 A 
ATOM      2  C2  BNZ d   1       2.151   0.615   0.458  0.00  0.00     0.000 A 
ATOM      3  C3  BNZ d   1       2.138  -0.734   0.682  0.00  0.00     0.000 A 
ATOM      4  C4  BNZ d   1       0.986  -1.419   0.536  0.00  0.00     0.000 A 
ATOM      5  C5  BNZ d   1      -0.166  -0.773   0.134  0.00  0.00     0.000 A 
ATOM      6  C6  BNZ d   1      -0.141   0.577  -0.128  0.00  0.00     0.000 A 
ENDROOT
TORSDOF 0
ENDMDL
