MODEL 1
REMARK minimizedAffinity -3.48240495
REMARK minimizedRMSD -1
REMARK  0 active torsions:
REMARK  status: ('A' for Active; 'I' for Inactive)
ROOT
ATOM      1  C1  BNZ d   1      -3.219   0.787  -1.918  0.00  0.00     0.000 A 
ATOM      2  C2  BNZ d   1      -3.797   0.444  -3.111  0.00  0.00     0.000 A 
ATOM      3  C3  BNZ d   1      -3.720  -0.836  -3.584  0.00  0.00     0.000 A 
ATOM      4  C4  BNZ d   1      -3.031  -1.761  -2.885  0.00  0.00     0.000 A 
ATOM      5  C5  BNZ d   1      -2.434  -1.429  -1.685  0.00  0.00     0.000 A 
ATOM      6  C6  BNZ d   1      -2.547  -0.149  -1.193  0.00  0.00     0.000 A 
ENDROOT
TORSDOF 0
ENDMDL
