MODEL 1
REMARK minimizedAffinity -4.84883547
REMARK minimizedRMSD -1
REMARK  0 active torsions:
REMARK  status: ('A' for Active; 'I' for Inactive)
ROOT
ATOM      1  C1  BNZ d   1       2.670  -1.834   1.835  0.00  0.00     0.000 A 
ATOM      2  C2  BNZ d   1       3.436  -0.699   1.799  0.00  0.00     0.000 A 
ATOM      3  C3  BNZ d   1       3.007   0.415   1.134  0.00  0.00     0.000 A 
ATOM      4  C4  BNZ d   1       1.832   0.380   0.473  0.00  0.00     0.000 A 
ATOM      5  C5  BNZ d   1       1.052  -0.759   0.492  0.00  0.00     0.000 A 
ATOM      6  C6  BNZ d   1       1.470  -1.866   1.195  0.00  0.00     0.000 A 
ENDROOT
TORSDOF 0
ENDMDL
