MODEL 1
REMARK minimizedAffinity -3.41321969
REMARK minimizedRMSD -1
REMARK  0 active torsions:
REMARK  status: ('A' for Active; 'I' for Inactive)
ROOT
ATOM      1  C1  BNZ d   1       2.166   0.832   0.609  0.00  0.00     0.000 A 
ATOM      2  C2  BNZ d   1       1.053   1.360   0.010  0.00  0.00     0.000 A 
ATOM      3  C3  BNZ d   1       0.003   0.560  -0.343  0.00  0.00     0.000 A 
ATOM      4  C4  BNZ d   1       0.083  -0.771  -0.135  0.00  0.00     0.000 A 
ATOM      5  C5  BNZ d   1       1.202  -1.319   0.459  0.00  0.00     0.000 A 
ATOM      6  C6  BNZ d   1       2.241  -0.505   0.849  0.00  0.00     0.000 A 
ENDROOT
TORSDOF 0
ENDMDL
