MODEL 1
REMARK minimizedAffinity 3.00390029
REMARK minimizedRMSD -1
REMARK  1 active torsions:
REMARK  status: ('A' for Active; 'I' for Inactive)
REMARK    1  A    between atoms: C3_4  and  O_7 
ROOT
ATOM      1  C   UNL d   1      -3.872   1.242   5.999  0.00  0.00    -0.033 A 
ATOM      2  C1  UNL d   1      -5.233   0.940   5.923  0.00  0.00     0.039 A 
ATOM      3  C2  UNL d   1      -5.963   1.280   4.783  0.00  0.00    -0.080 A 
ATOM      4  C3  UNL d   1      -5.321   1.921   3.726  0.00  0.00     0.150 A 
ATOM      5  C4  UNL d   1      -3.965   2.221   3.793  0.00  0.00    -0.007 A 
ATOM      6  C5  UNL d   1      -3.238   1.881   4.933  0.00  0.00     0.039 A 
ENDROOT
BRANCH   4   7
ATOM      7  O   UNL d   1      -5.993   2.277   2.595  0.00  0.00    -0.526 OA
ATOM      8  H5  UNL d   1      -6.928   2.032   2.702  0.00  0.00     0.418 HD
ENDBRANCH   4   7
TORSDOF 1
ENDMDL
