MODEL 1
REMARK minimizedAffinity 8.55285835
REMARK minimizedRMSD -1
REMARK  1 active torsions:
REMARK  status: ('A' for Active; 'I' for Inactive)
REMARK    1  A    between atoms: C3_4  and  O_7 
ROOT
ATOM      1  C   UNL d   1       1.290  -0.969   2.289  0.00  0.00    -0.033 A 
ATOM      2  C1  UNL d   1       0.199  -1.747   1.898  0.00  0.00     0.039 A 
ATOM      3  C2  UNL d   1       0.400  -2.911   1.153  0.00  0.00    -0.080 A 
ATOM      4  C3  UNL d   1       1.696  -3.285   0.807  0.00  0.00     0.150 A 
ATOM      5  C4  UNL d   1       2.788  -2.516   1.196  0.00  0.00    -0.007 A 
ATOM      6  C5  UNL d   1       2.585  -1.354   1.939  0.00  0.00     0.039 A 
ENDROOT
BRANCH   4   7
ATOM      7  O   UNL d   1       1.942  -4.410   0.077  0.00  0.00    -0.526 OA
ATOM      8  H5  UNL d   1       1.092  -4.825  -0.145  0.00  0.00     0.418 HD
ENDBRANCH   4   7
TORSDOF 1
ENDMDL
