MODEL 1
REMARK minimizedAffinity 3.12906241
REMARK minimizedRMSD -1
REMARK  1 active torsions:
REMARK  status: ('A' for Active; 'I' for Inactive)
REMARK    1  A    between atoms: C3_4  and  O_7 
ROOT
ATOM      1  C   UNL d   1      -4.882   1.588   6.000  0.00  0.00    -0.033 A 
ATOM      2  C1  UNL d   1      -3.779   2.111   5.322  0.00  0.00     0.039 A 
ATOM      3  C2  UNL d   1      -3.784   2.181   3.927  0.00  0.00    -0.080 A 
ATOM      4  C3  UNL d   1      -4.896   1.727   3.224  0.00  0.00     0.150 A 
ATOM      5  C4  UNL d   1      -6.000   1.208   3.893  0.00  0.00    -0.007 A 
ATOM      6  C5  UNL d   1      -5.993   1.138   5.286  0.00  0.00     0.039 A 
ENDROOT
BRANCH   4   7
ATOM      7  O   UNL d   1      -4.945   1.771   1.862  0.00  0.00    -0.526 OA
ATOM      8  H5  UNL d   1      -4.102   2.126   1.535  0.00  0.00     0.418 HD
ENDBRANCH   4   7
TORSDOF 1
ENDMDL
