MODEL 1
REMARK minimizedAffinity 3.25457001
REMARK minimizedRMSD -1
REMARK  1 active torsions:
REMARK  status: ('A' for Active; 'I' for Inactive)
REMARK    1  A    between atoms: C3_4  and  O_7 
ROOT
ATOM      1  C   UNL d   1       2.727  -2.975   0.623  0.00  0.00    -0.033 A 
ATOM      2  C1  UNL d   1       1.491  -2.572   0.116  0.00  0.00     0.039 A 
ATOM      3  C2  UNL d   1       0.606  -1.850   0.919  0.00  0.00    -0.080 A 
ATOM      4  C3  UNL d   1       0.970  -1.538   2.226  0.00  0.00     0.150 A 
ATOM      5  C4  UNL d   1       2.202  -1.933   2.737  0.00  0.00    -0.007 A 
ATOM      6  C5  UNL d   1       3.083  -2.654   1.934  0.00  0.00     0.039 A 
ENDROOT
BRANCH   4   7
ATOM      7  O   UNL d   1       0.138  -0.839   3.050  0.00  0.00    -0.526 OA
ATOM      8  H5  UNL d   1      -0.688  -0.658   2.571  0.00  0.00     0.418 HD
ENDBRANCH   4   7
TORSDOF 1
ENDMDL
