MODEL 1
REMARK minimizedAffinity -0.419371009
REMARK minimizedRMSD -1
REMARK  0 active torsions:
REMARK  status: ('A' for Active; 'I' for Inactive)
ROOT
ATOM      1  C   UNL d   1      -1.718  -1.716   1.823  0.00  0.00    -0.002 A 
ATOM      2  C1  UNL d   1      -1.173  -2.585   0.889  0.00  0.00     0.010 A 
ATOM      3  C2  UNL d   1      -0.370  -2.102  -0.147  0.00  0.00     0.041 A 
ATOM      4  C3  UNL d   1      -0.120  -0.717  -0.227  0.00  0.00    -0.075 A 
ATOM      5  S   UNL d   1       0.834   0.100  -1.407  0.00  0.00     0.015 SA
ATOM      6  C4  UNL d   1       0.541   1.622  -0.698  0.00  0.00     0.022 A 
ATOM      7  C5  UNL d   1      -0.264   1.527   0.413  0.00  0.00     0.026 A 
ATOM      8  C6  UNL d   1      -0.658   0.177   0.703  0.00  0.00    -0.082 A 
ATOM      9  C7  UNL d   1      -1.468  -0.343   1.740  0.00  0.00     0.045 A 
ENDROOT
TORSDOF 0
ENDMDL
