MODEL 1
REMARK minimizedAffinity -0.62630266
REMARK minimizedRMSD -1
REMARK  0 active torsions:
REMARK  status: ('A' for Active; 'I' for Inactive)
ROOT
ATOM      1  C   UNL d   1      -1.268  -1.921   1.590  0.00  0.00    -0.002 A 
ATOM      2  C1  UNL d   1      -1.483  -0.564   1.786  0.00  0.00     0.010 A 
ATOM      3  C2  UNL d   1      -1.084   0.365   0.823  0.00  0.00     0.041 A 
ATOM      4  C3  UNL d   1      -0.462  -0.098  -0.353  0.00  0.00    -0.075 A 
ATOM      5  S   UNL d   1       0.110   0.856  -1.671  0.00  0.00     0.015 SA
ATOM      6  C4  UNL d   1       0.651  -0.515  -2.526  0.00  0.00     0.022 A 
ATOM      7  C5  UNL d   1       0.410  -1.680  -1.838  0.00  0.00     0.026 A 
ATOM      8  C6  UNL d   1      -0.236  -1.459  -0.574  0.00  0.00    -0.082 A 
ATOM      9  C7  UNL d   1      -0.651  -2.376   0.421  0.00  0.00     0.045 A 
ENDROOT
TORSDOF 0
ENDMDL
