MODEL 1
REMARK minimizedAffinity -3.28416634
REMARK minimizedRMSD -1
REMARK  0 active torsions:
REMARK  status: ('A' for Active; 'I' for Inactive)
ROOT
ATOM      1  C   UNL d   1      -0.294  -2.245   1.260  0.00  0.00    -0.002 A 
ATOM      2  C1  UNL d   1       0.378  -2.661   0.118  0.00  0.00     0.010 A 
ATOM      3  C2  UNL d   1       0.757  -1.737  -0.858  0.00  0.00     0.041 A 
ATOM      4  C3  UNL d   1       0.449  -0.376  -0.665  0.00  0.00    -0.075 A 
ATOM      5  S   UNL d   1       0.816   0.933  -1.726  0.00  0.00     0.015 SA
ATOM      6  C4  UNL d   1       0.091   2.074  -0.689  0.00  0.00     0.022 A 
ATOM      7  C5  UNL d   1      -0.424   1.488   0.443  0.00  0.00     0.026 A 
ATOM      8  C6  UNL d   1      -0.225   0.066   0.476  0.00  0.00    -0.082 A 
ATOM      9  C7  UNL d   1      -0.598  -0.894   1.447  0.00  0.00     0.045 A 
ENDROOT
TORSDOF 0
ENDMDL
