MODEL 1
REMARK minimizedAffinity 0.800695539
REMARK minimizedRMSD -1
REMARK  0 active torsions:
REMARK  status: ('A' for Active; 'I' for Inactive)
ROOT
ATOM      1  C   UNL d   1      -0.692  -3.230   0.759  0.00  0.00    -0.002 A 
ATOM      2  C1  UNL d   1       0.529  -3.054   0.123  0.00  0.00     0.010 A 
ATOM      3  C2  UNL d   1       1.017  -1.771  -0.134  0.00  0.00     0.041 A 
ATOM      4  C3  UNL d   1       0.251  -0.658   0.264  0.00  0.00    -0.075 A 
ATOM      5  S   UNL d   1       0.649   1.006   0.054  0.00  0.00     0.015 SA
ATOM      6  C4  UNL d   1      -0.791   1.523   0.804  0.00  0.00     0.022 A 
ATOM      7  C5  UNL d   1      -1.569   0.465   1.211  0.00  0.00     0.026 A 
ATOM      8  C6  UNL d   1      -0.981  -0.810   0.907  0.00  0.00    -0.082 A 
ATOM      9  C7  UNL d   1      -1.449  -2.123   1.153  0.00  0.00     0.045 A 
ENDROOT
TORSDOF 0
ENDMDL
