MODEL 1
REMARK minimizedAffinity -0.0656742752
REMARK minimizedRMSD -1
REMARK  0 active torsions:
REMARK  status: ('A' for Active; 'I' for Inactive)
ROOT
ATOM      1  C   UNL d   1       0.056   0.995  -0.986  0.00  0.00    -0.002 A 
ATOM      2  C1  UNL d   1      -0.779   1.340   0.068  0.00  0.00     0.010 A 
ATOM      3  C2  UNL d   1      -1.326   0.355   0.892  0.00  0.00     0.041 A 
ATOM      4  C3  UNL d   1      -1.016  -0.996   0.638  0.00  0.00    -0.075 A 
ATOM      5  S   UNL d   1      -1.569  -2.372   1.516  0.00  0.00     0.015 SA
ATOM      6  C4  UNL d   1      -0.710  -3.450   0.514  0.00  0.00     0.022 A 
ATOM      7  C5  UNL d   1      -0.013  -2.793  -0.472  0.00  0.00     0.026 A 
ATOM      8  C6  UNL d   1      -0.177  -1.367  -0.416  0.00  0.00    -0.082 A 
ATOM      9  C7  UNL d   1       0.362  -0.345  -1.235  0.00  0.00     0.045 A 
ENDROOT
TORSDOF 0
ENDMDL
