MODEL 1
REMARK minimizedAffinity -2.97388434
REMARK minimizedRMSD -1
REMARK  0 active torsions:
REMARK  status: ('A' for Active; 'I' for Inactive)
ROOT
ATOM      1  C   UNL d   1       0.404  -3.663  -1.572  0.00  0.00    -0.002 A 
ATOM      2  C1  UNL d   1      -0.182  -3.900  -0.336  0.00  0.00     0.010 A 
ATOM      3  C2  UNL d   1      -0.586  -2.837   0.474  0.00  0.00     0.041 A 
ATOM      4  C3  UNL d   1      -0.391  -1.519   0.016  0.00  0.00    -0.075 A 
ATOM      5  S   UNL d   1      -0.808  -0.062   0.837  0.00  0.00     0.015 SA
ATOM      6  C4  UNL d   1      -0.220   0.910  -0.433  0.00  0.00     0.022 A 
ATOM      7  C5  UNL d   1       0.287   0.158  -1.466  0.00  0.00     0.026 A 
ATOM      8  C6  UNL d   1       0.196  -1.255  -1.225  0.00  0.00    -0.082 A 
ATOM      9  C7  UNL d   1       0.595  -2.354  -2.022  0.00  0.00     0.045 A 
ENDROOT
TORSDOF 0
ENDMDL
