MODEL 1
REMARK minimizedAffinity -0.541320026
REMARK minimizedRMSD -1
REMARK  0 active torsions:
REMARK  status: ('A' for Active; 'I' for Inactive)
ROOT
ATOM      1  C   UNL d   1      -0.848   1.576  -0.803  0.00  0.00    -0.002 A 
ATOM      2  C1  UNL d   1      -1.179   1.060   0.442  0.00  0.00     0.010 A 
ATOM      3  C2  UNL d   1      -0.787  -0.230   0.803  0.00  0.00     0.041 A 
ATOM      4  C3  UNL d   1      -0.048  -1.001  -0.116  0.00  0.00    -0.075 A 
ATOM      5  S   UNL d   1       0.540  -2.606   0.109  0.00  0.00     0.015 SA
ATOM      6  C4  UNL d   1       1.245  -2.644  -1.442  0.00  0.00     0.022 A 
ATOM      7  C5  UNL d   1       1.046  -1.470  -2.129  0.00  0.00     0.026 A 
ATOM      8  C6  UNL d   1       0.298  -0.503  -1.375  0.00  0.00    -0.082 A 
ATOM      9  C7  UNL d   1      -0.115   0.809  -1.712  0.00  0.00     0.045 A 
ENDROOT
TORSDOF 0
ENDMDL
