MODEL 1
REMARK minimizedAffinity -1.63744307
REMARK minimizedRMSD -1
REMARK  0 active torsions:
REMARK  status: ('A' for Active; 'I' for Inactive)
ROOT
ATOM      1  C   UNL d   1      -0.502  -3.193   0.327  0.00  0.00    -0.002 A 
ATOM      2  C1  UNL d   1       0.480  -2.967  -0.628  0.00  0.00     0.010 A 
ATOM      3  C2  UNL d   1       0.826  -1.665  -0.996  0.00  0.00     0.041 A 
ATOM      4  C3  UNL d   1       0.164  -0.584  -0.382  0.00  0.00    -0.075 A 
ATOM      5  S   UNL d   1       0.423   1.095  -0.674  0.00  0.00     0.015 SA
ATOM      6  C4  UNL d   1      -0.762   1.552   0.463  0.00  0.00     0.022 A 
ATOM      7  C5  UNL d   1      -1.351   0.463   1.060  0.00  0.00     0.026 A 
ATOM      8  C6  UNL d   1      -0.827  -0.786   0.583  0.00  0.00    -0.082 A 
ATOM      9  C7  UNL d   1      -1.156  -2.118   0.934  0.00  0.00     0.045 A 
ENDROOT
TORSDOF 0
ENDMDL
