MODEL 1
REMARK minimizedAffinity -1.05639732
REMARK minimizedRMSD -1
REMARK  0 active torsions:
REMARK  status: ('A' for Active; 'I' for Inactive)
ROOT
ATOM      1  C   UNL d   1       0.323  -2.630  -0.005  0.00  0.00    -0.002 A 
ATOM      2  C1  UNL d   1       0.521  -2.646  -1.378  0.00  0.00     0.010 A 
ATOM      3  C2  UNL d   1       0.447  -1.466  -2.121  0.00  0.00     0.041 A 
ATOM      4  C3  UNL d   1       0.170  -0.257  -1.452  0.00  0.00    -0.075 A 
ATOM      5  S   UNL d   1       0.033   1.311  -2.155  0.00  0.00     0.015 SA
ATOM      6  C4  UNL d   1      -0.290   2.040  -0.649  0.00  0.00     0.022 A 
ATOM      7  C5  UNL d   1      -0.297   1.124   0.376  0.00  0.00     0.026 A 
ATOM      8  C6  UNL d   1      -0.031  -0.215  -0.070  0.00  0.00    -0.082 A 
ATOM      9  C7  UNL d   1       0.049  -1.429   0.654  0.00  0.00     0.045 A 
ENDROOT
TORSDOF 0
ENDMDL
