MODEL 1
REMARK minimizedAffinity -2.43971372
REMARK minimizedRMSD -1
REMARK  0 active torsions:
REMARK  status: ('A' for Active; 'I' for Inactive)
ROOT
ATOM      1  C   UNL d   1      -1.134   0.503   1.116  0.00  0.00    -0.002 A 
ATOM      2  C1  UNL d   1      -0.569   1.012  -0.045  0.00  0.00     0.010 A 
ATOM      3  C2  UNL d   1       0.124   0.176  -0.923  0.00  0.00     0.041 A 
ATOM      4  C3  UNL d   1       0.238  -1.193  -0.613  0.00  0.00    -0.075 A 
ATOM      5  S   UNL d   1       1.040  -2.405  -1.540  0.00  0.00     0.015 SA
ATOM      6  C4  UNL d   1       0.651  -3.627  -0.418  0.00  0.00     0.022 A 
ATOM      7  C5  UNL d   1      -0.073  -3.140   0.644  0.00  0.00     0.026 A 
ATOM      8  C6  UNL d   1      -0.323  -1.729   0.549  0.00  0.00    -0.082 A 
ATOM      9  C7  UNL d   1      -1.018  -0.856   1.420  0.00  0.00     0.045 A 
ENDROOT
TORSDOF 0
ENDMDL
