MODEL 1
REMARK minimizedAffinity -3.38401604
REMARK minimizedRMSD -1
REMARK  0 active torsions:
REMARK  status: ('A' for Active; 'I' for Inactive)
ROOT
ATOM      1  C   UNL d   1       0.850  -2.667  -0.734  0.00  0.00    -0.002 A 
ATOM      2  C1  UNL d   1      -0.119  -3.065   0.176  0.00  0.00     0.010 A 
ATOM      3  C2  UNL d   1      -0.927  -2.120   0.812  0.00  0.00     0.041 A 
ATOM      4  C3  UNL d   1      -0.744  -0.756   0.514  0.00  0.00    -0.075 A 
ATOM      5  S   UNL d   1      -1.618   0.578   1.170  0.00  0.00     0.015 SA
ATOM      6  C4  UNL d   1      -0.726   1.707   0.256  0.00  0.00     0.022 A 
ATOM      7  C5  UNL d   1       0.220   1.099  -0.535  0.00  0.00     0.026 A 
ATOM      8  C6  UNL d   1       0.224  -0.331  -0.400  0.00  0.00    -0.082 A 
ATOM      9  C7  UNL d   1       1.028  -1.313  -1.028  0.00  0.00     0.045 A 
ENDROOT
TORSDOF 0
ENDMDL
