MODEL 1
REMARK minimizedAffinity 3.07278395
REMARK minimizedRMSD -1
REMARK  0 active torsions:
REMARK  status: ('A' for Active; 'I' for Inactive)
ROOT
ATOM      1  C4' PXY d   1       1.941   2.437  -2.382  0.00  0.00     0.077 C 
ATOM      2  C1' PXY d   1       0.257   0.657   2.853  0.00  0.00     0.077 C 
ATOM      3  C1  PXY d   1       0.698   1.136   1.485  0.00  0.00    -0.082 A 
ATOM      4  C2  PXY d   1       0.493   0.370   0.426  0.00  0.00     0.003 A 
ATOM      5  C3  PXY d   1       0.914   0.773  -0.815  0.00  0.00     0.003 A 
ATOM      6  C4  PXY d   1       1.504   1.998  -0.982  0.00  0.00    -0.082 A 
ATOM      7  C5  PXY d   1       1.707   2.790   0.092  0.00  0.00     0.003 A 
ATOM      8  C6  PXY d   1       1.309   2.344   1.349  0.00  0.00     0.003 A 
ENDROOT
TORSDOF 0
ENDMDL
