MODEL 1
REMARK minimizedAffinity 2.30951166
REMARK minimizedRMSD -1
REMARK  0 active torsions:
REMARK  status: ('A' for Active; 'I' for Inactive)
ROOT
ATOM      1  C4' PXY d   1       0.083   0.720   2.846  0.00  0.00     0.077 C 
ATOM      2  C1' PXY d   1       2.216   2.222  -2.312  0.00  0.00     0.077 C 
ATOM      3  C1  PXY d   1       1.650   1.818  -0.965  0.00  0.00    -0.082 A 
ATOM      4  C2  PXY d   1       1.540   2.722  -0.004  0.00  0.00     0.003 A 
ATOM      5  C3  PXY d   1       1.060   2.366   1.230  0.00  0.00     0.003 A 
ATOM      6  C4  PXY d   1       0.640   1.085   1.467  0.00  0.00    -0.082 A 
ATOM      7  C5  PXY d   1       0.740   0.160   0.489  0.00  0.00     0.003 A 
ATOM      8  C6  PXY d   1       1.268   0.532  -0.744  0.00  0.00     0.003 A 
ENDROOT
TORSDOF 0
ENDMDL
