MODEL 1
REMARK minimizedAffinity 6.53230047
REMARK minimizedRMSD -1
REMARK  0 active torsions:
REMARK  status: ('A' for Active; 'I' for Inactive)
ROOT
ATOM      1  C4' PXY d   1       2.878  -1.309  -4.883  0.00  0.00     0.077 C 
ATOM      2  C1' PXY d   1      -2.879  -1.010  -4.459  0.00  0.00     0.077 C 
ATOM      3  C1  PXY d   1      -1.368  -1.081  -4.560  0.00  0.00    -0.082 A 
ATOM      4  C2  PXY d   1      -0.802  -1.357  -5.724  0.00  0.00     0.003 A 
ATOM      5  C3  PXY d   1       0.561  -1.456  -5.825  0.00  0.00     0.003 A 
ATOM      6  C4  PXY d   1       1.356  -1.218  -4.737  0.00  0.00    -0.082 A 
ATOM      7  C5  PXY d   1       0.787  -0.926  -3.548  0.00  0.00     0.003 A 
ATOM      8  C6  PXY d   1      -0.601  -0.870  -3.457  0.00  0.00     0.003 A 
ENDROOT
TORSDOF 0
ENDMDL
