MODEL 1
REMARK minimizedAffinity -0.0802646875
REMARK minimizedRMSD -1
REMARK  0 active torsions:
REMARK  status: ('A' for Active; 'I' for Inactive)
ROOT
ATOM      1  C4' PXY d   1      -2.524   5.985  -2.999  0.00  0.00     0.077 C 
ATOM      2  C1' PXY d   1       2.710   5.985  -5.451  0.00  0.00     0.077 C 
ATOM      3  C1  PXY d   1       1.343   5.980  -4.797  0.00  0.00    -0.082 A 
ATOM      4  C2  PXY d   1       0.256   5.972  -5.552  0.00  0.00     0.003 A 
ATOM      5  C3  PXY d   1      -0.988   6.000  -4.978  0.00  0.00     0.003 A 
ATOM      6  C4  PXY d   1      -1.123   5.981  -3.615  0.00  0.00    -0.082 A 
ATOM      7  C5  PXY d   1      -0.020   5.978  -2.838  0.00  0.00     0.003 A 
ATOM      8  C6  PXY d   1       1.235   5.992  -3.441  0.00  0.00     0.003 A 
ENDROOT
TORSDOF 0
ENDMDL
