MODEL 1
REMARK minimizedAffinity 9.07774925
REMARK minimizedRMSD -1
REMARK  0 active torsions:
REMARK  status: ('A' for Active; 'I' for Inactive)
ROOT
ATOM      1  C4' PXY d   1      -0.080  -0.916  -5.998  0.00  0.00     0.077 C 
ATOM      2  C1' PXY d   1      -3.674  -2.153  -1.643  0.00  0.00     0.077 C 
ATOM      3  C1  PXY d   1      -2.722  -1.827  -2.777  0.00  0.00    -0.082 A 
ATOM      4  C2  PXY d   1      -3.203  -1.392  -3.930  0.00  0.00     0.003 A 
ATOM      5  C3  PXY d   1      -2.358  -1.122  -4.976  0.00  0.00     0.003 A 
ATOM      6  C4  PXY d   1      -1.003  -1.249  -4.823  0.00  0.00    -0.082 A 
ATOM      7  C5  PXY d   1      -0.504  -1.681  -3.646  0.00  0.00     0.003 A 
ATOM      8  C6  PXY d   1      -1.381  -1.989  -2.610  0.00  0.00     0.003 A 
ENDROOT
TORSDOF 0
ENDMDL
