MODEL 1
REMARK minimizedAffinity 2.85911632
REMARK minimizedRMSD -1
REMARK  0 active torsions:
REMARK  status: ('A' for Active; 'I' for Inactive)
ROOT
ATOM      1  C4' PXY d   1       1.783   5.205  -5.933  0.00  0.00     0.077 C 
ATOM      2  C1' PXY d   1      -2.810   6.000  -2.513  0.00  0.00     0.077 C 
ATOM      3  C1  PXY d   1      -1.598   5.793  -3.400  0.00  0.00    -0.082 A 
ATOM      4  C2  PXY d   1      -1.697   6.000  -4.703  0.00  0.00     0.003 A 
ATOM      5  C3  PXY d   1      -0.620   5.787  -5.524  0.00  0.00     0.003 A 
ATOM      6  C4  PXY d   1       0.587   5.410  -4.998  0.00  0.00    -0.082 A 
ATOM      7  C5  PXY d   1       0.700   5.207  -3.668  0.00  0.00     0.003 A 
ATOM      8  C6  PXY d   1      -0.417   5.389  -2.858  0.00  0.00     0.003 A 
ENDROOT
TORSDOF 0
ENDMDL
