MODEL 1
REMARK minimizedAffinity 9.22219849
REMARK minimizedRMSD -1
REMARK  0 active torsions:
REMARK  status: ('A' for Active; 'I' for Inactive)
ROOT
ATOM      1  C4' PXY d   1      -0.501   0.895   2.689  0.00  0.00     0.077 C 
ATOM      2  C1' PXY d   1       2.431   2.366  -2.071  0.00  0.00     0.077 C 
ATOM      3  C1  PXY d   1       1.659   1.968  -0.828  0.00  0.00    -0.082 A 
ATOM      4  C2  PXY d   1       1.145   2.906  -0.049  0.00  0.00     0.003 A 
ATOM      5  C3  PXY d   1       0.472   2.565   1.096  0.00  0.00     0.003 A 
ATOM      6  C4  PXY d   1       0.278   1.249   1.419  0.00  0.00    -0.082 A 
ATOM      7  C5  PXY d   1       0.790   0.286   0.625  0.00  0.00     0.003 A 
ATOM      8  C6  PXY d   1       1.506   0.654  -0.511  0.00  0.00     0.003 A 
ENDROOT
TORSDOF 0
ENDMDL
