MODEL 1
REMARK minimizedAffinity 2.13061976
REMARK minimizedRMSD -1
REMARK  0 active torsions:
REMARK  status: ('A' for Active; 'I' for Inactive)
ROOT
ATOM      1  C4' PXY d   1       1.800   5.039  -4.971  0.00  0.00     0.077 C 
ATOM      2  C1' PXY d   1      -3.775   6.000  -3.783  0.00  0.00     0.077 C 
ATOM      3  C1  PXY d   1      -2.310   5.755  -4.085  0.00  0.00    -0.082 A 
ATOM      4  C2  PXY d   1      -1.942   5.416  -5.309  0.00  0.00     0.003 A 
ATOM      5  C3  PXY d   1      -0.624   5.160  -5.592  0.00  0.00     0.003 A 
ATOM      6  C4  PXY d   1       0.333   5.305  -4.623  0.00  0.00    -0.082 A 
ATOM      7  C5  PXY d   1      -0.034   5.661  -3.374  0.00  0.00     0.003 A 
ATOM      8  C6  PXY d   1      -1.381   5.876  -3.098  0.00  0.00     0.003 A 
ENDROOT
TORSDOF 0
ENDMDL
