MODEL 1
REMARK minimizedAffinity 2.76033497
REMARK minimizedRMSD -1
REMARK  0 active torsions:
REMARK  status: ('A' for Active; 'I' for Inactive)
ROOT
ATOM      1  C4' PXY d   1       0.281   5.928  -4.054  0.00  0.00     0.077 C 
ATOM      2  C1' PXY d   1      -4.180   5.998  -0.379  0.00  0.00     0.077 C 
ATOM      3  C1  PXY d   1      -3.003   5.985  -1.334  0.00  0.00    -0.082 A 
ATOM      4  C2  PXY d   1      -3.218   5.999  -2.639  0.00  0.00     0.003 A 
ATOM      5  C3  PXY d   1      -2.166   5.955  -3.516  0.00  0.00     0.003 A 
ATOM      6  C4  PXY d   1      -0.877   5.950  -3.053  0.00  0.00    -0.082 A 
ATOM      7  C5  PXY d   1      -0.649   5.946  -1.723  0.00  0.00     0.003 A 
ATOM      8  C6  PXY d   1      -1.732   5.949  -0.849  0.00  0.00     0.003 A 
ENDROOT
TORSDOF 0
ENDMDL
