MODEL 1
REMARK minimizedAffinity 1.40962672
REMARK minimizedRMSD -1
REMARK  0 active torsions:
REMARK  status: ('A' for Active; 'I' for Inactive)
ROOT
ATOM      1  C4' PXY d   1      -3.856   5.974  -0.979  0.00  0.00     0.077 C 
ATOM      2  C1' PXY d   1       0.050   5.993  -5.241  0.00  0.00     0.077 C 
ATOM      3  C1  PXY d   1      -0.983   5.993  -4.132  0.00  0.00    -0.082 A 
ATOM      4  C2  PXY d   1      -0.587   5.988  -2.869  0.00  0.00     0.003 A 
ATOM      5  C3  PXY d   1      -1.508   5.956  -1.854  0.00  0.00     0.003 A 
ATOM      6  C4  PXY d   1      -2.848   5.983  -2.132  0.00  0.00    -0.082 A 
ATOM      7  C5  PXY d   1      -3.260   6.000  -3.418  0.00  0.00     0.003 A 
ATOM      8  C6  PXY d   1      -2.310   5.990  -4.435  0.00  0.00     0.003 A 
ENDROOT
TORSDOF 0
ENDMDL
