MODEL 1
REMARK minimizedAffinity -3.12886238
REMARK minimizedRMSD -1
REMARK  0 active torsions:
REMARK  status: ('A' for Active; 'I' for Inactive)
ROOT
ATOM      1  C4' PXY d   1       2.189   5.594  -5.988  0.00  0.00     0.077 C 
ATOM      2  C1' PXY d   1      -2.893   5.999  -3.263  0.00  0.00     0.077 C 
ATOM      3  C1  PXY d   1      -1.566   5.886  -3.987  0.00  0.00    -0.082 A 
ATOM      4  C2  PXY d   1      -0.437   5.991  -3.305  0.00  0.00     0.003 A 
ATOM      5  C3  PXY d   1       0.772   5.923  -3.949  0.00  0.00     0.003 A 
ATOM      6  C4  PXY d   1       0.826   5.692  -5.297  0.00  0.00    -0.082 A 
ATOM      7  C5  PXY d   1      -0.321   5.574  -5.999  0.00  0.00     0.003 A 
ATOM      8  C6  PXY d   1      -1.538   5.687  -5.333  0.00  0.00     0.003 A 
ENDROOT
TORSDOF 0
ENDMDL
