MODEL 1
REMARK minimizedAffinity 7.04949999
REMARK minimizedRMSD -1
REMARK  0 active torsions:
REMARK  status: ('A' for Active; 'I' for Inactive)
ROOT
ATOM      1  C4' PXY d   1       0.444   6.000  -6.000  0.00  0.00     0.077 C 
ATOM      2  C1' PXY d   1       5.330   3.696  -3.942  0.00  0.00     0.077 C 
ATOM      3  C1  PXY d   1       4.043   4.288  -4.481  0.00  0.00    -0.082 A 
ATOM      4  C2  PXY d   1       4.078   5.429  -5.150  0.00  0.00     0.003 A 
ATOM      5  C3  PXY d   1       2.920   5.995  -5.618  0.00  0.00     0.003 A 
ATOM      6  C4  PXY d   1       1.720   5.360  -5.445  0.00  0.00    -0.082 A 
ATOM      7  C5  PXY d   1       1.677   4.190  -4.773  0.00  0.00     0.003 A 
ATOM      8  C6  PXY d   1       2.858   3.653  -4.271  0.00  0.00     0.003 A 
ENDROOT
TORSDOF 0
ENDMDL
