MODEL 1
REMARK minimizedAffinity -3.33646154
REMARK minimizedRMSD -1
REMARK  0 active torsions:
REMARK  status: ('A' for Active; 'I' for Inactive)
ROOT
ATOM      1  C4' PXY d   1       3.252   5.909  -5.507  0.00  0.00     0.077 C 
ATOM      2  C1' PXY d   1      -2.261   5.525  -3.814  0.00  0.00     0.077 C 
ATOM      3  C1  PXY d   1      -0.818   5.618  -4.268  0.00  0.00    -0.082 A 
ATOM      4  C2  PXY d   1       0.131   5.873  -3.383  0.00  0.00     0.003 A 
ATOM      5  C3  PXY d   1       1.438   5.992  -3.781  0.00  0.00     0.003 A 
ATOM      6  C4  PXY d   1       1.783   5.797  -5.092  0.00  0.00    -0.082 A 
ATOM      7  C5  PXY d   1       0.821   5.526  -6.000  0.00  0.00     0.003 A 
ATOM      8  C6  PXY d   1      -0.504   5.449  -5.582  0.00  0.00     0.003 A 
ENDROOT
TORSDOF 0
ENDMDL
