MODEL 1
REMARK minimizedAffinity 10.3601999
REMARK minimizedRMSD -1
REMARK  0 active torsions:
REMARK  status: ('A' for Active; 'I' for Inactive)
ROOT
ATOM      1  C4' PXY d   1       2.363   3.524  -0.470  0.00  0.00     0.077 C 
ATOM      2  C1' PXY d   1      -0.685  -1.094   1.203  0.00  0.00     0.077 C 
ATOM      3  C1  PXY d   1       0.111   0.115   0.752  0.00  0.00    -0.082 A 
ATOM      4  C2  PXY d   1       1.137   0.530   1.476  0.00  0.00     0.003 A 
ATOM      5  C3  PXY d   1       1.848   1.641   1.100  0.00  0.00     0.003 A 
ATOM      6  C4  PXY d   1       1.537   2.302  -0.058  0.00  0.00    -0.082 A 
ATOM      7  C5  PXY d   1       0.498   1.879  -0.808  0.00  0.00     0.003 A 
ATOM      8  C6  PXY d   1      -0.236   0.774  -0.387  0.00  0.00     0.003 A 
ENDROOT
TORSDOF 0
ENDMDL
