MODEL 1
REMARK minimizedAffinity 8.96956825
REMARK minimizedRMSD -1
REMARK  0 active torsions:
REMARK  status: ('A' for Active; 'I' for Inactive)
ROOT
ATOM      1  C4' PXY d   1       0.366  -0.025   0.881  0.00  0.00     0.077 C 
ATOM      2  C1' PXY d   1      -1.215  -1.592  -4.454  0.00  0.00     0.077 C 
ATOM      3  C1  PXY d   1      -0.812  -1.175  -3.053  0.00  0.00    -0.082 A 
ATOM      4  C2  PXY d   1       0.471  -1.069  -2.746  0.00  0.00     0.003 A 
ATOM      5  C3  PXY d   1       0.853  -0.725  -1.475  0.00  0.00     0.003 A 
ATOM      6  C4  PXY d   1      -0.087  -0.433  -0.524  0.00  0.00    -0.082 A 
ATOM      7  C5  PXY d   1      -1.398  -0.528  -0.833  0.00  0.00     0.003 A 
ATOM      8  C6  PXY d   1      -1.765  -0.919  -2.117  0.00  0.00     0.003 A 
ENDROOT
TORSDOF 0
ENDMDL
