MODEL 1
REMARK minimizedAffinity 9.97177887
REMARK minimizedRMSD -1
REMARK  0 active torsions:
REMARK  status: ('A' for Active; 'I' for Inactive)
ROOT
ATOM      1  C4' PXY d   1      -0.597   0.135  -4.898  0.00  0.00     0.077 C 
ATOM      2  C1' PXY d   1      -4.301  -2.782  -1.553  0.00  0.00     0.077 C 
ATOM      3  C1  PXY d   1      -3.328  -2.028  -2.437  0.00  0.00    -0.082 A 
ATOM      4  C2  PXY d   1      -2.704  -0.962  -1.963  0.00  0.00     0.003 A 
ATOM      5  C3  PXY d   1      -1.845  -0.249  -2.759  0.00  0.00     0.003 A 
ATOM      6  C4  PXY d   1      -1.581  -0.663  -4.037  0.00  0.00    -0.082 A 
ATOM      7  C5  PXY d   1      -2.205  -1.756  -4.525  0.00  0.00     0.003 A 
ATOM      8  C6  PXY d   1      -3.105  -2.442  -3.714  0.00  0.00     0.003 A 
ENDROOT
TORSDOF 0
ENDMDL
