MODEL 1
REMARK minimizedAffinity 0.723002493
REMARK minimizedRMSD -1
REMARK  0 active torsions:
REMARK  status: ('A' for Active; 'I' for Inactive)
ROOT
ATOM      1  C4' PXY d   1       0.109   5.976  -5.165  0.00  0.00     0.077 C 
ATOM      2  C1' PXY d   1      -4.645   5.999  -1.877  0.00  0.00     0.077 C 
ATOM      3  C1  PXY d   1      -3.391   5.998  -2.729  0.00  0.00    -0.082 A 
ATOM      4  C2  PXY d   1      -3.497   5.996  -4.048  0.00  0.00     0.003 A 
ATOM      5  C3  PXY d   1      -2.374   5.963  -4.834  0.00  0.00     0.003 A 
ATOM      6  C4  PXY d   1      -1.129   5.986  -4.265  0.00  0.00    -0.082 A 
ATOM      7  C5  PXY d   1      -1.013   6.000  -2.920  0.00  0.00     0.003 A 
ATOM      8  C6  PXY d   1      -2.165   5.992  -2.140  0.00  0.00     0.003 A 
ENDROOT
TORSDOF 0
ENDMDL
