MODEL 1
REMARK minimizedAffinity 0.919796586
REMARK minimizedRMSD -1
REMARK  0 active torsions:
REMARK  status: ('A' for Active; 'I' for Inactive)
ROOT
ATOM      1  C4' PXY d   1      -1.335   5.989  -3.289  0.00  0.00     0.077 C 
ATOM      2  C1' PXY d   1       3.801   5.954  -5.940  0.00  0.00     0.077 C 
ATOM      3  C1  PXY d   1       2.449   5.968  -5.255  0.00  0.00    -0.082 A 
ATOM      4  C2  PXY d   1       2.384   5.968  -3.934  0.00  0.00     0.003 A 
ATOM      5  C3  PXY d   1       1.170   5.949  -3.298  0.00  0.00     0.003 A 
ATOM      6  C4  PXY d   1       0.008   5.984  -4.023  0.00  0.00    -0.082 A 
ATOM      7  C5  PXY d   1       0.065   5.995  -5.371  0.00  0.00     0.003 A 
ATOM      8  C6  PXY d   1       1.308   5.973  -5.998  0.00  0.00     0.003 A 
ENDROOT
TORSDOF 0
ENDMDL
