MODEL 1
REMARK minimizedAffinity -3.40021038
REMARK minimizedRMSD -1
REMARK  0 active torsions:
REMARK  status: ('A' for Active; 'I' for Inactive)
ROOT
ATOM      1  C4' PXY d   1       4.417   5.158  -5.757  0.00  0.00     0.077 C 
ATOM      2  C1' PXY d   1      -1.149   5.268  -4.201  0.00  0.00     0.077 C 
ATOM      3  C1  PXY d   1       0.309   5.227  -4.614  0.00  0.00    -0.082 A 
ATOM      4  C2  PXY d   1       1.187   5.998  -3.993  0.00  0.00     0.003 A 
ATOM      5  C3  PXY d   1       2.504   5.998  -4.375  0.00  0.00     0.003 A 
ATOM      6  C4  PXY d   1       2.936   5.159  -5.367  0.00  0.00    -0.082 A 
ATOM      7  C5  PXY d   1       2.049   4.361  -5.998  0.00  0.00     0.003 A 
ATOM      8  C6  PXY d   1       0.710   4.407  -5.623  0.00  0.00     0.003 A 
ENDROOT
TORSDOF 0
ENDMDL
