MODEL 1
REMARK minimizedAffinity 3.79058218
REMARK minimizedRMSD -1
REMARK  0 active torsions:
REMARK  status: ('A' for Active; 'I' for Inactive)
ROOT
ATOM      1  C4' PXY d   1       0.384   3.481  -5.629  0.00  0.00     0.077 C 
ATOM      2  C1' PXY d   1       5.606   5.959  -5.667  0.00  0.00     0.077 C 
ATOM      3  C1  PXY d   1       4.242   5.298  -5.659  0.00  0.00    -0.082 A 
ATOM      4  C2  PXY d   1       3.173   5.999  -6.000  0.00  0.00     0.003 A 
ATOM      5  C3  PXY d   1       1.928   5.425  -5.967  0.00  0.00     0.003 A 
ATOM      6  C4  PXY d   1       1.782   4.105  -5.632  0.00  0.00    -0.082 A 
ATOM      7  C5  PXY d   1       2.869   3.381  -5.293  0.00  0.00     0.003 A 
ATOM      8  C6  PXY d   1       4.119   3.993  -5.293  0.00  0.00     0.003 A 
ENDROOT
TORSDOF 0
ENDMDL
