MODEL 1
REMARK minimizedAffinity -2.11143708
REMARK minimizedRMSD -1
REMARK  0 active torsions:
REMARK  status: ('A' for Active; 'I' for Inactive)
ROOT
ATOM      1  C   UNL d   1      -0.480  -0.581   1.447  0.00  0.00     0.020 A 
ATOM      2  C1  UNL d   1      -0.312   0.643   0.802  0.00  0.00     0.020 A 
ATOM      3  C2  UNL d   1       0.075   0.678  -0.539  0.00  0.00     0.034 A 
ATOM      4  C3  UNL d   1       0.296  -0.513  -1.239  0.00  0.00     0.017 A 
ATOM      5  C4  UNL d   1       0.127  -1.742  -0.591  0.00  0.00     0.017 A 
ATOM      6  C5  UNL d   1      -0.261  -1.771   0.752  0.00  0.00     0.034 A 
ATOM      7 Cl   UNL d   1       0.380  -3.254  -1.388  0.00  0.00    -0.070 Cl
ATOM      8 Cl1  UNL d   1       0.772  -0.396  -2.896  0.00  0.00    -0.070 Cl
ENDROOT
TORSDOF 0
ENDMDL
