MODEL 1
REMARK minimizedAffinity -4.61684084
REMARK minimizedRMSD -1
REMARK  0 active torsions:
REMARK  status: ('A' for Active; 'I' for Inactive)
ROOT
ATOM      1  C   UNL d   1       1.638  -1.671  -2.374  0.00  0.00     0.020 A 
ATOM      2  C1  UNL d   1       2.053  -0.473  -2.955  0.00  0.00     0.020 A 
ATOM      3  C2  UNL d   1       1.801   0.739  -2.309  0.00  0.00     0.034 A 
ATOM      4  C3  UNL d   1       1.134   0.756  -1.079  0.00  0.00     0.017 A 
ATOM      5  C4  UNL d   1       0.718  -0.447  -0.497  0.00  0.00     0.017 A 
ATOM      6  C5  UNL d   1       0.972  -1.658  -1.148  0.00  0.00     0.034 A 
ATOM      7 Cl   UNL d   1      -0.111  -0.506   1.018  0.00  0.00    -0.070 Cl
ATOM      8 Cl1  UNL d   1       0.857   2.292  -0.336  0.00  0.00    -0.070 Cl
ENDROOT
TORSDOF 0
ENDMDL
