MODEL 1
REMARK minimizedAffinity -3.58070612
REMARK minimizedRMSD -1
REMARK  0 active torsions:
REMARK  status: ('A' for Active; 'I' for Inactive)
ROOT
ATOM      1  C   UNL d   1       2.201  -1.139  -2.481  0.00  0.00     0.020 A 
ATOM      2  C1  UNL d   1       1.519  -2.228  -1.939  0.00  0.00     0.020 A 
ATOM      3  C2  UNL d   1       0.712  -2.055  -0.812  0.00  0.00     0.034 A 
ATOM      4  C3  UNL d   1       0.586  -0.791  -0.225  0.00  0.00     0.017 A 
ATOM      5  C4  UNL d   1       1.271   0.301  -0.770  0.00  0.00     0.017 A 
ATOM      6  C5  UNL d   1       2.077   0.122  -1.898  0.00  0.00     0.034 A 
ATOM      7 Cl   UNL d   1       1.164   1.891  -0.100  0.00  0.00    -0.070 Cl
ATOM      8 Cl1  UNL d   1      -0.429  -0.650   1.167  0.00  0.00    -0.070 Cl
ENDROOT
TORSDOF 0
ENDMDL
