MODEL 1
REMARK minimizedAffinity -3.4007597
REMARK minimizedRMSD -1
REMARK  0 active torsions:
REMARK  status: ('A' for Active; 'I' for Inactive)
ROOT
ATOM      1  C   UNL d   1       1.551   0.425  -2.018  0.00  0.00     0.020 A 
ATOM      2  C1  UNL d   1       0.921   1.215  -1.058  0.00  0.00     0.020 A 
ATOM      3  C2  UNL d   1       0.138   0.617  -0.067  0.00  0.00     0.034 A 
ATOM      4  C3  UNL d   1      -0.016  -0.774  -0.035  0.00  0.00     0.017 A 
ATOM      5  C4  UNL d   1       0.618  -1.565  -1.000  0.00  0.00     0.017 A 
ATOM      6  C5  UNL d   1       1.400  -0.962  -1.989  0.00  0.00     0.034 A 
ATOM      7 Cl   UNL d   1       0.475  -3.288  -1.025  0.00  0.00    -0.070 Cl
ATOM      8 Cl1  UNL d   1      -0.998  -1.445   1.218  0.00  0.00    -0.070 Cl
ENDROOT
TORSDOF 0
ENDMDL
