MODEL 1
REMARK minimizedAffinity 0.331172049
REMARK minimizedRMSD -1
REMARK  0 active torsions:
REMARK  status: ('A' for Active; 'I' for Inactive)
ROOT
ATOM      1  C   UNL d   1      -0.256   0.917   0.495  0.00  0.00     0.020 A 
ATOM      2  C1  UNL d   1      -0.712  -0.284   1.037  0.00  0.00     0.020 A 
ATOM      3  C2  UNL d   1      -0.436  -1.491   0.391  0.00  0.00     0.034 A 
ATOM      4  C3  UNL d   1       0.297  -1.499  -0.801  0.00  0.00     0.017 A 
ATOM      5  C4  UNL d   1       0.754  -0.293  -1.345  0.00  0.00     0.017 A 
ATOM      6  C5  UNL d   1       0.475   0.913  -0.693  0.00  0.00     0.034 A 
ATOM      7 Cl   UNL d   1       1.665  -0.224  -2.812  0.00  0.00    -0.070 Cl
ATOM      8 Cl1  UNL d   1       0.602  -3.028  -1.546  0.00  0.00    -0.070 Cl
ENDROOT
TORSDOF 0
ENDMDL
