MODEL 1
REMARK minimizedAffinity -2.80219126
REMARK minimizedRMSD -1
REMARK  0 active torsions:
REMARK  status: ('A' for Active; 'I' for Inactive)
ROOT
ATOM      1  C   UNL d   1       0.855   0.305  -1.850  0.00  0.00     0.020 A 
ATOM      2  C1  UNL d   1       0.609   1.202  -0.811  0.00  0.00     0.020 A 
ATOM      3  C2  UNL d   1       0.304   0.725   0.466  0.00  0.00     0.034 A 
ATOM      4  C3  UNL d   1       0.244  -0.652   0.707  0.00  0.00     0.017 A 
ATOM      5  C4  UNL d   1       0.490  -1.552  -0.336  0.00  0.00     0.017 A 
ATOM      6  C5  UNL d   1       0.795  -1.069  -1.612  0.00  0.00     0.034 A 
ATOM      7 Cl   UNL d   1       0.434  -3.265  -0.115  0.00  0.00    -0.070 Cl
ATOM      8 Cl1  UNL d   1      -0.139  -1.171   2.310  0.00  0.00    -0.070 Cl
ENDROOT
TORSDOF 0
ENDMDL
