MODEL 1
REMARK minimizedAffinity -2.754915
REMARK minimizedRMSD -1
REMARK  0 active torsions:
REMARK  status: ('A' for Active; 'I' for Inactive)
ROOT
ATOM      1  C   UNL d   1      -0.107  -1.593   0.277  0.00  0.00     0.020 A 
ATOM      2  C1  UNL d   1      -0.471  -0.773   1.344  0.00  0.00     0.020 A 
ATOM      3  C2  UNL d   1      -0.146   0.585   1.323  0.00  0.00     0.034 A 
ATOM      4  C3  UNL d   1       0.546   1.127   0.234  0.00  0.00     0.017 A 
ATOM      5  C4  UNL d   1       0.911   0.302  -0.837  0.00  0.00     0.017 A 
ATOM      6  C5  UNL d   1       0.583  -1.057  -0.811  0.00  0.00     0.034 A 
ATOM      7 Cl   UNL d   1       1.766   0.898  -2.216  0.00  0.00    -0.070 Cl
ATOM      8 Cl1  UNL d   1       0.916   2.814   0.275  0.00  0.00    -0.070 Cl
ENDROOT
TORSDOF 0
ENDMDL
