MODEL 1
REMARK minimizedAffinity -3.07097864
REMARK minimizedRMSD -1
REMARK  0 active torsions:
REMARK  status: ('A' for Active; 'I' for Inactive)
ROOT
ATOM      1  C   UNL d   1      -5.756   0.741  -5.999  0.00  0.00     0.020 A 
ATOM      2  C1  UNL d   1      -4.447   0.261  -5.999  0.00  0.00     0.020 A 
ATOM      3  C2  UNL d   1      -3.380   1.142  -5.812  0.00  0.00     0.034 A 
ATOM      4  C3  UNL d   1      -3.620   2.508  -5.624  0.00  0.00     0.017 A 
ATOM      5  C4  UNL d   1      -4.934   2.989  -5.624  0.00  0.00     0.017 A 
ATOM      6  C5  UNL d   1      -5.999   2.102  -5.812  0.00  0.00     0.034 A 
ATOM      7 Cl   UNL d   1      -5.309   4.661  -5.399  0.00  0.00    -0.070 Cl
ATOM      8 Cl1  UNL d   1      -2.253   3.541  -5.399  0.00  0.00    -0.070 Cl
ENDROOT
TORSDOF 0
ENDMDL
