MODEL 1
REMARK minimizedAffinity -5.05084419
REMARK minimizedRMSD -1
REMARK  0 active torsions:
REMARK  status: ('A' for Active; 'I' for Inactive)
ROOT
ATOM      1  C   UNL d   1       1.467   1.772  -0.350  0.00  0.00     0.020 A 
ATOM      2  C1  UNL d   1       1.812   1.043  -1.487  0.00  0.00     0.020 A 
ATOM      3  C2  UNL d   1       1.419  -0.291  -1.607  0.00  0.00     0.034 A 
ATOM      4  C3  UNL d   1       0.679  -0.902  -0.588  0.00  0.00     0.017 A 
ATOM      5  C4  UNL d   1       0.333  -0.170   0.554  0.00  0.00     0.017 A 
ATOM      6  C5  UNL d   1       0.729   1.166   0.669  0.00  0.00     0.034 A 
ATOM      7 Cl   UNL d   1      -0.578  -0.854   1.853  0.00  0.00    -0.070 Cl
ATOM      8 Cl1  UNL d   1       0.226  -2.555  -0.803  0.00  0.00    -0.070 Cl
ENDROOT
TORSDOF 0
ENDMDL
