MODEL 1
REMARK minimizedAffinity -1.12279475
REMARK minimizedRMSD -1
REMARK  0 active torsions:
REMARK  status: ('A' for Active; 'I' for Inactive)
ROOT
ATOM      1  C   UNL d   1      -0.941   0.319   1.150  0.00  0.00     0.020 A 
ATOM      2  C1  UNL d   1      -0.359   1.514   0.728  0.00  0.00     0.020 A 
ATOM      3  C2  UNL d   1       0.683   1.492  -0.202  0.00  0.00     0.034 A 
ATOM      4  C3  UNL d   1       1.145   0.274  -0.713  0.00  0.00     0.017 A 
ATOM      5  C4  UNL d   1       0.560  -0.925  -0.289  0.00  0.00     0.017 A 
ATOM      6  C5  UNL d   1      -0.483  -0.897   0.643  0.00  0.00     0.034 A 
ATOM      7 Cl   UNL d   1       1.076  -2.467  -0.874  0.00  0.00    -0.070 Cl
ATOM      8 Cl1  UNL d   1       2.436   0.322  -1.861  0.00  0.00    -0.070 Cl
ENDROOT
TORSDOF 0
ENDMDL
