MODEL 1
REMARK minimizedAffinity -1.17932606
REMARK minimizedRMSD -1
REMARK  0 active torsions:
REMARK  status: ('A' for Active; 'I' for Inactive)
ROOT
ATOM      1  C   UNL d   1      -3.472   3.065   3.983  0.00  0.00     0.020 A 
ATOM      2  C1  UNL d   1      -2.143   2.989   4.398  0.00  0.00     0.020 A 
ATOM      3  C2  UNL d   1      -1.280   2.063   3.808  0.00  0.00     0.034 A 
ATOM      4  C3  UNL d   1      -1.744   1.210   2.800  0.00  0.00     0.017 A 
ATOM      5  C4  UNL d   1      -3.078   1.288   2.384  0.00  0.00     0.017 A 
ATOM      6  C5  UNL d   1      -3.939   2.217   2.978  0.00  0.00     0.034 A 
ATOM      7 Cl   UNL d   1      -3.724   0.269   1.146  0.00  0.00    -0.070 Cl
ATOM      8 Cl1  UNL d   1      -0.621   0.090   2.115  0.00  0.00    -0.070 Cl
ENDROOT
TORSDOF 0
ENDMDL
