MODEL 1
REMARK minimizedAffinity -0.16428791
REMARK minimizedRMSD -1
REMARK  0 active torsions:
REMARK  status: ('A' for Active; 'I' for Inactive)
ROOT
ATOM      1  C   UNL d   1       2.564   1.161  -1.691  0.00  0.00     0.020 A 
ATOM      2  C1  UNL d   1       2.394   0.102  -0.800  0.00  0.00     0.020 A 
ATOM      3  C2  UNL d   1       1.167  -0.081  -0.159  0.00  0.00     0.034 A 
ATOM      4  C3  UNL d   1       0.105   0.795  -0.409  0.00  0.00     0.017 A 
ATOM      5  C4  UNL d   1       0.277   1.858  -1.304  0.00  0.00     0.017 A 
ATOM      6  C5  UNL d   1       1.508   2.037  -1.942  0.00  0.00     0.034 A 
ATOM      7 Cl   UNL d   1      -0.987   2.981  -1.663  0.00  0.00    -0.070 Cl
ATOM      8 Cl1  UNL d   1      -1.385   0.509   0.418  0.00  0.00    -0.070 Cl
ENDROOT
TORSDOF 0
ENDMDL
