MODEL 1
REMARK minimizedAffinity -2.96243024
REMARK minimizedRMSD -1
REMARK  0 active torsions:
REMARK  status: ('A' for Active; 'I' for Inactive)
ROOT
ATOM      1  C   UNL d   1       1.737   0.665  -2.321  0.00  0.00     0.020 A 
ATOM      2  C1  UNL d   1       2.261  -0.475  -2.930  0.00  0.00     0.020 A 
ATOM      3  C2  UNL d   1       1.921  -1.742  -2.450  0.00  0.00     0.034 A 
ATOM      4  C3  UNL d   1       1.055  -1.872  -1.358  0.00  0.00     0.017 A 
ATOM      5  C4  UNL d   1       0.530  -0.727  -0.748  0.00  0.00     0.017 A 
ATOM      6  C5  UNL d   1       0.873   0.539  -1.232  0.00  0.00     0.034 A 
ATOM      7 Cl   UNL d   1      -0.545  -0.808   0.604  0.00  0.00    -0.070 Cl
ATOM      8 Cl1  UNL d   1       0.677  -3.469  -0.818  0.00  0.00    -0.070 Cl
ENDROOT
TORSDOF 0
ENDMDL
