MODEL 1
REMARK minimizedAffinity -4.1641798
REMARK minimizedRMSD -1
REMARK  0 active torsions:
REMARK  status: ('A' for Active; 'I' for Inactive)
ROOT
ATOM      1  C   UNL d   1      -0.144  -0.056   1.149  0.00  0.00     0.020 A 
ATOM      2  C1  UNL d   1       0.460   1.071   0.594  0.00  0.00     0.020 A 
ATOM      3  C2  UNL d   1       1.037   1.001  -0.676  0.00  0.00     0.034 A 
ATOM      4  C3  UNL d   1       1.011  -0.200  -1.395  0.00  0.00     0.017 A 
ATOM      5  C4  UNL d   1       0.405  -1.331  -0.837  0.00  0.00     0.017 A 
ATOM      6  C5  UNL d   1      -0.171  -1.255   0.434  0.00  0.00     0.034 A 
ATOM      7 Cl   UNL d   1       0.334  -2.847  -1.664  0.00  0.00    -0.070 Cl
ATOM      8 Cl1  UNL d   1       1.744  -0.214  -2.960  0.00  0.00    -0.070 Cl
ENDROOT
TORSDOF 0
ENDMDL
