MODEL 1
REMARK minimizedAffinity -2.83082342
REMARK minimizedRMSD -1
REMARK  1 active torsions:
REMARK  status: ('A' for Active; 'I' for Inactive)
REMARK    1  A    between atoms: C1_2  and  C2_3 
ROOT
ATOM      1  C2  UNL d   1      -0.362  -0.178  -0.049  0.00  0.00    -0.077 A 
ATOM      2  C3  UNL d   1      -0.811  -0.063   1.275  0.00  0.00     0.002 A 
ATOM      3  C4  UNL d   1      -1.158  -1.202   2.004  0.00  0.00     0.002 A 
ATOM      4  C5  UNL d   1      -1.056  -2.463   1.421  0.00  0.00    -0.004 A 
ATOM      5  C6  UNL d   1      -0.613  -2.588   0.105  0.00  0.00     0.002 A 
ATOM      6  C7  UNL d   1      -0.267  -1.451  -0.626  0.00  0.00     0.002 A 
ENDROOT
BRANCH   1   7
ATOM      7  C1  UNL d   1       0.060   1.044  -0.821  0.00  0.00     0.055 C 
ATOM      8  C   UNL d   1       0.949   1.950   0.018  0.00  0.00     0.019 C 
ENDBRANCH   1   7
TORSDOF 1
ENDMDL
