MODEL 1
REMARK minimizedAffinity -3.02175307
REMARK minimizedRMSD -1
REMARK  1 active torsions:
REMARK  status: ('A' for Active; 'I' for Inactive)
REMARK    1  A    between atoms: C1_2  and  C2_3 
ROOT
ATOM      1  C2  UNL d   1      -0.983  -1.182   0.961  0.00  0.00    -0.077 A 
ATOM      2  C3  UNL d   1      -0.470  -2.472   1.156  0.00  0.00     0.002 A 
ATOM      3  C4  UNL d   1       0.459  -3.007   0.261  0.00  0.00     0.002 A 
ATOM      4  C5  UNL d   1       0.886  -2.256  -0.832  0.00  0.00    -0.004 A 
ATOM      5  C6  UNL d   1       0.381  -0.973  -1.036  0.00  0.00     0.002 A 
ATOM      6  C7  UNL d   1      -0.549  -0.438  -0.143  0.00  0.00     0.002 A 
ENDROOT
BRANCH   1   7
ATOM      7  C1  UNL d   1      -1.948  -0.586   1.952  0.00  0.00     0.055 C 
ATOM      8  C   UNL d   1      -1.672  -1.086   3.363  0.00  0.00     0.019 C 
ENDBRANCH   1   7
TORSDOF 1
ENDMDL
