MODEL 1
REMARK minimizedAffinity -5.50785923
REMARK minimizedRMSD -1
REMARK  1 active torsions:
REMARK  status: ('A' for Active; 'I' for Inactive)
REMARK    1  A    between atoms: C1_2  and  C2_3 
ROOT
ATOM      1  C2  UNL d   1      -0.181  -0.207   0.149  0.00  0.00    -0.077 A 
ATOM      2  C3  UNL d   1       0.518  -1.130  -0.641  0.00  0.00     0.002 A 
ATOM      3  C4  UNL d   1       0.527  -2.485  -0.303  0.00  0.00     0.002 A 
ATOM      4  C5  UNL d   1      -0.164  -2.928   0.823  0.00  0.00    -0.004 A 
ATOM      5  C6  UNL d   1      -0.860  -2.017   1.616  0.00  0.00     0.002 A 
ATOM      6  C7  UNL d   1      -0.870  -0.663   1.280  0.00  0.00     0.002 A 
ENDROOT
BRANCH   1   7
ATOM      7  C1  UNL d   1      -0.233   1.247  -0.242  0.00  0.00     0.055 C 
ATOM      8  C   UNL d   1       0.976   2.006   0.286  0.00  0.00     0.019 C 
ENDBRANCH   1   7
TORSDOF 1
ENDMDL
