MODEL 1
REMARK minimizedAffinity -2.19341421
REMARK minimizedRMSD -1
REMARK  1 active torsions:
REMARK  status: ('A' for Active; 'I' for Inactive)
REMARK    1  A    between atoms: C1_2  and  C2_3 
ROOT
ATOM      1  C2  UNL d   1       0.686  -1.461  -0.716  0.00  0.00    -0.077 A 
ATOM      2  C3  UNL d   1       0.414  -0.540   0.306  0.00  0.00     0.002 A 
ATOM      3  C4  UNL d   1       0.034   0.767  -0.004  0.00  0.00     0.002 A 
ATOM      4  C5  UNL d   1      -0.082   1.163  -1.335  0.00  0.00    -0.004 A 
ATOM      5  C6  UNL d   1       0.189   0.256  -2.358  0.00  0.00     0.002 A 
ATOM      6  C7  UNL d   1       0.570  -1.051  -2.050  0.00  0.00     0.002 A 
ENDROOT
BRANCH   1   7
ATOM      7  C1  UNL d   1       1.049  -2.885  -0.384  0.00  0.00     0.055 C 
ATOM      8  C   UNL d   1      -0.194  -3.734  -0.157  0.00  0.00     0.019 C 
ENDBRANCH   1   7
TORSDOF 1
ENDMDL
