MODEL 1
REMARK minimizedAffinity -4.13739061
REMARK minimizedRMSD -1
REMARK  1 active torsions:
REMARK  status: ('A' for Active; 'I' for Inactive)
REMARK    1  A    between atoms: C1_2  and  C2_3 
ROOT
ATOM      1  C2  UNL d   1      -0.493  -0.027  -0.148  0.00  0.00    -0.077 A 
ATOM      2  C3  UNL d   1      -0.709  -1.395   0.067  0.00  0.00     0.002 A 
ATOM      3  C4  UNL d   1      -1.210  -1.848   1.290  0.00  0.00     0.002 A 
ATOM      4  C5  UNL d   1      -1.503  -0.939   2.304  0.00  0.00    -0.004 A 
ATOM      5  C6  UNL d   1      -1.289   0.424   2.101  0.00  0.00     0.002 A 
ATOM      6  C7  UNL d   1      -0.787   0.878   0.880  0.00  0.00     0.002 A 
ENDROOT
BRANCH   1   7
ATOM      7  C1  UNL d   1       0.001   0.467  -1.482  0.00  0.00     0.055 C 
ATOM      8  C   UNL d   1       0.377  -0.690  -2.396  0.00  0.00     0.019 C 
ENDBRANCH   1   7
TORSDOF 1
ENDMDL
