MODEL 1
REMARK minimizedAffinity -2.77802181
REMARK minimizedRMSD -1
REMARK  1 active torsions:
REMARK  status: ('A' for Active; 'I' for Inactive)
REMARK    1  A    between atoms: C1_2  and  C2_3 
ROOT
ATOM      1  C2  UNL d   1      -1.421  -2.088   0.723  0.00  0.00    -0.077 A 
ATOM      2  C3  UNL d   1      -1.100  -0.801   1.176  0.00  0.00     0.002 A 
ATOM      3  C4  UNL d   1       0.169  -0.267   0.943  0.00  0.00     0.002 A 
ATOM      4  C5  UNL d   1       1.124  -1.011   0.254  0.00  0.00    -0.004 A 
ATOM      5  C6  UNL d   1       0.815  -2.293  -0.199  0.00  0.00     0.002 A 
ATOM      6  C7  UNL d   1      -0.452  -2.829   0.034  0.00  0.00     0.002 A 
ENDROOT
BRANCH   1   7
ATOM      7  C1  UNL d   1      -2.805  -2.647   0.930  0.00  0.00     0.055 C 
ATOM      8  C   UNL d   1      -3.546  -2.793  -0.391  0.00  0.00     0.019 C 
ENDBRANCH   1   7
TORSDOF 1
ENDMDL
