MODEL 1
REMARK minimizedAffinity -2.98340344
REMARK minimizedRMSD -1
REMARK  1 active torsions:
REMARK  status: ('A' for Active; 'I' for Inactive)
REMARK    1  A    between atoms: C1_2  and  C2_3 
ROOT
ATOM      1  C2  UNL d   1      -0.063  -0.327   0.024  0.00  0.00    -0.077 A 
ATOM      2  C3  UNL d   1      -0.922  -0.870   0.990  0.00  0.00     0.002 A 
ATOM      3  C4  UNL d   1      -0.796  -2.206   1.376  0.00  0.00     0.002 A 
ATOM      4  C5  UNL d   1       0.189  -3.008   0.804  0.00  0.00    -0.004 A 
ATOM      5  C6  UNL d   1       1.047  -2.478  -0.159  0.00  0.00     0.002 A 
ATOM      6  C7  UNL d   1       0.922  -1.143  -0.546  0.00  0.00     0.002 A 
ENDROOT
BRANCH   1   7
ATOM      7  C1  UNL d   1      -0.165   1.127  -0.358  0.00  0.00     0.055 C 
ATOM      8  C   UNL d   1       0.871   1.966   0.376  0.00  0.00     0.019 C 
ENDBRANCH   1   7
TORSDOF 1
ENDMDL
