MODEL 1
REMARK minimizedAffinity -4.66441059
REMARK minimizedRMSD -1
REMARK  1 active torsions:
REMARK  status: ('A' for Active; 'I' for Inactive)
REMARK    1  A    between atoms: C1_2  and  C2_3 
ROOT
ATOM      1  C2  UNL d   1      -0.256  -0.448  -0.793  0.00  0.00    -0.077 A 
ATOM      2  C3  UNL d   1       0.501  -1.602  -1.037  0.00  0.00     0.002 A 
ATOM      3  C4  UNL d   1       0.617  -2.591  -0.058  0.00  0.00     0.002 A 
ATOM      4  C5  UNL d   1      -0.026  -2.438   1.169  0.00  0.00    -0.004 A 
ATOM      5  C6  UNL d   1      -0.780  -1.293   1.422  0.00  0.00     0.002 A 
ATOM      6  C7  UNL d   1      -0.895  -0.303   0.445  0.00  0.00     0.002 A 
ENDROOT
BRANCH   1   7
ATOM      7  C1  UNL d   1      -0.422   0.597  -1.865  0.00  0.00     0.055 C 
ATOM      8  C   UNL d   1       0.092   0.098  -3.208  0.00  0.00     0.019 C 
ENDBRANCH   1   7
TORSDOF 1
ENDMDL
