MODEL 1
REMARK minimizedAffinity -5.55806398
REMARK minimizedRMSD -1
REMARK  1 active torsions:
REMARK  status: ('A' for Active; 'I' for Inactive)
REMARK    1  A    between atoms: C1_2  and  C2_3 
ROOT
ATOM      1  C2  UNL d   1      -0.036  -0.274   0.091  0.00  0.00    -0.077 A 
ATOM      2  C3  UNL d   1       0.328  -1.093  -0.987  0.00  0.00     0.002 A 
ATOM      3  C4  UNL d   1       0.172  -2.478  -0.906  0.00  0.00     0.002 A 
ATOM      4  C5  UNL d   1      -0.352  -3.056   0.248  0.00  0.00    -0.004 A 
ATOM      5  C6  UNL d   1      -0.716  -2.250   1.326  0.00  0.00     0.002 A 
ATOM      6  C7  UNL d   1      -0.560  -0.866   1.248  0.00  0.00     0.002 A 
ENDROOT
BRANCH   1   7
ATOM      7  C1  UNL d   1       0.085   1.224  -0.013  0.00  0.00     0.055 C 
ATOM      8  C   UNL d   1      -0.007   1.688  -1.459  0.00  0.00     0.019 C 
ENDBRANCH   1   7
TORSDOF 1
ENDMDL
