MODEL 1
REMARK minimizedAffinity -4.01823139
REMARK minimizedRMSD -1
REMARK  1 active torsions:
REMARK  status: ('A' for Active; 'I' for Inactive)
REMARK    1  A    between atoms: C1_2  and  C2_3 
ROOT
ATOM      1  C2  UNL d   1      -0.019  -1.151  -0.450  0.00  0.00    -0.077 A 
ATOM      2  C3  UNL d   1       0.258  -1.524  -1.773  0.00  0.00     0.002 A 
ATOM      3  C4  UNL d   1       0.091  -2.848  -2.183  0.00  0.00     0.002 A 
ATOM      4  C5  UNL d   1      -0.358  -3.808  -1.279  0.00  0.00    -0.004 A 
ATOM      5  C6  UNL d   1      -0.634  -3.448   0.039  0.00  0.00     0.002 A 
ATOM      6  C7  UNL d   1      -0.466  -2.125   0.452  0.00  0.00     0.002 A 
ENDROOT
BRANCH   1   7
ATOM      7  C1  UNL d   1       0.114   0.286  -0.018  0.00  0.00     0.055 C 
ATOM      8  C   UNL d   1      -0.989   0.676   0.955  0.00  0.00     0.019 C 
ENDBRANCH   1   7
TORSDOF 1
ENDMDL
