MODEL 1
REMARK minimizedAffinity -3.63393998
REMARK minimizedRMSD -1
REMARK  1 active torsions:
REMARK  status: ('A' for Active; 'I' for Inactive)
REMARK    1  A    between atoms: C1_2  and  C2_3 
ROOT
ATOM      1  C2  UNL d   1       0.020  -0.372  -0.214  0.00  0.00    -0.077 A 
ATOM      2  C3  UNL d   1      -0.718  -1.015   0.789  0.00  0.00     0.002 A 
ATOM      3  C4  UNL d   1      -0.603  -2.393   0.978  0.00  0.00     0.002 A 
ATOM      4  C5  UNL d   1       0.251  -3.140   0.169  0.00  0.00    -0.004 A 
ATOM      5  C6  UNL d   1       0.988  -2.510  -0.833  0.00  0.00     0.002 A 
ATOM      6  C7  UNL d   1       0.874  -1.133  -1.024  0.00  0.00     0.002 A 
ENDROOT
BRANCH   1   7
ATOM      7  C1  UNL d   1      -0.065   1.122  -0.387  0.00  0.00     0.055 C 
ATOM      8  C   UNL d   1       1.186   1.812   0.139  0.00  0.00     0.019 C 
ENDBRANCH   1   7
TORSDOF 1
ENDMDL
