MODEL 1
REMARK minimizedAffinity -4.97770834
REMARK minimizedRMSD -1
REMARK  1 active torsions:
REMARK  status: ('A' for Active; 'I' for Inactive)
REMARK    1  A    between atoms: C1_2  and  C2_3 
ROOT
ATOM      1  C2  UNL d   1       0.140   0.354  -0.429  0.00  0.00    -0.077 A 
ATOM      2  C3  UNL d   1      -0.839   0.019   0.517  0.00  0.00     0.002 A 
ATOM      3  C4  UNL d   1      -0.982  -1.302   0.947  0.00  0.00     0.002 A 
ATOM      4  C5  UNL d   1      -0.148  -2.296   0.441  0.00  0.00    -0.004 A 
ATOM      5  C6  UNL d   1       0.828  -1.973  -0.501  0.00  0.00     0.002 A 
ATOM      6  C7  UNL d   1       0.972  -0.654  -0.934  0.00  0.00     0.002 A 
ENDROOT
BRANCH   1   7
ATOM      7  C1  UNL d   1       0.329   1.786  -0.858  0.00  0.00     0.055 C 
ATOM      8  C   UNL d   1       1.104   2.578   0.185  0.00  0.00     0.019 C 
ENDBRANCH   1   7
TORSDOF 1
ENDMDL
