MODEL 1
REMARK minimizedAffinity -5.42338657
REMARK minimizedRMSD -1
REMARK  0 active torsions:
REMARK  status: ('A' for Active; 'I' for Inactive)
ROOT
ATOM      1  C2' OXE d   1       0.730   1.660   0.099  0.00  0.00     0.078 C 
ATOM      2  C1' OXE d   1      -0.334  -0.810   0.906  0.00  0.00     0.078 C 
ATOM      3  C1  OXE d   1       0.495  -0.779  -0.354  0.00  0.00    -0.078 A 
ATOM      4  C2  OXE d   1       0.972   0.442  -0.767  0.00  0.00    -0.078 A 
ATOM      5  C3  OXE d   1       1.788   0.519  -1.892  0.00  0.00     0.003 A 
ATOM      6  C4  OXE d   1       1.999  -0.610  -2.693  0.00  0.00    -0.002 A 
ATOM      7  C5  OXE d   1       1.489  -1.856  -2.312  0.00  0.00    -0.002 A 
ATOM      8  C6  OXE d   1       0.772  -1.965  -1.126  0.00  0.00     0.003 A 
ENDROOT
TORSDOF 0
ENDMDL
