MODEL 1
REMARK minimizedAffinity -2.83521056
REMARK minimizedRMSD -1
REMARK  0 active torsions:
REMARK  status: ('A' for Active; 'I' for Inactive)
ROOT
ATOM      1  C2' OXE d   1       0.347  -3.005  -1.523  0.00  0.00     0.078 C 
ATOM      2  C1' OXE d   1       0.671  -0.483  -2.713  0.00  0.00     0.078 C 
ATOM      3  C1  OXE d   1       0.277  -0.529  -1.258  0.00  0.00    -0.078 A 
ATOM      4  C2  OXE d   1       0.075  -1.766  -0.697  0.00  0.00    -0.078 A 
ATOM      5  C3  OXE d   1      -0.237  -1.867   0.656  0.00  0.00     0.003 A 
ATOM      6  C4  OXE d   1      -0.496  -0.716   1.411  0.00  0.00    -0.002 A 
ATOM      7  C5  OXE d   1      -0.335   0.554   0.848  0.00  0.00    -0.002 A 
ATOM      8  C6  OXE d   1       0.091   0.665  -0.471  0.00  0.00     0.003 A 
ENDROOT
TORSDOF 0
ENDMDL
