MODEL 1
REMARK minimizedAffinity -5.09201765
REMARK minimizedRMSD -1
REMARK  0 active torsions:
REMARK  status: ('A' for Active; 'I' for Inactive)
ROOT
ATOM      1  C2' OXE d   1       0.869   2.214  -0.613  0.00  0.00     0.078 C 
ATOM      2  C1' OXE d   1      -0.115  -0.030   0.757  0.00  0.00     0.078 C 
ATOM      3  C1  OXE d   1       0.656  -0.266  -0.518  0.00  0.00    -0.078 A 
ATOM      4  C2  OXE d   1       1.093   0.840  -1.206  0.00  0.00    -0.078 A 
ATOM      5  C3  OXE d   1       1.856   0.677  -2.359  0.00  0.00     0.003 A 
ATOM      6  C4  OXE d   1       2.051  -0.597  -2.906  0.00  0.00    -0.002 A 
ATOM      7  C5  OXE d   1       1.580  -1.734  -2.242  0.00  0.00    -0.002 A 
ATOM      8  C6  OXE d   1       0.919  -1.589  -1.027  0.00  0.00     0.003 A 
ENDROOT
TORSDOF 0
ENDMDL
