MODEL 1
REMARK minimizedAffinity -3.79575992
REMARK minimizedRMSD -1
REMARK  0 active torsions:
REMARK  status: ('A' for Active; 'I' for Inactive)
ROOT
ATOM      1  C2' OXE d   1      -0.010  -2.595   0.362  0.00  0.00     0.078 C 
ATOM      2  C1' OXE d   1      -0.151   0.066   1.246  0.00  0.00     0.078 C 
ATOM      3  C1  OXE d   1       0.318  -0.182  -0.166  0.00  0.00    -0.078 A 
ATOM      4  C2  OXE d   1       0.428  -1.490  -0.575  0.00  0.00    -0.078 A 
ATOM      5  C3  OXE d   1       0.804  -1.773  -1.885  0.00  0.00     0.003 A 
ATOM      6  C4  OXE d   1       1.218  -0.745  -2.742  0.00  0.00    -0.002 A 
ATOM      7  C5  OXE d   1       1.151   0.590  -2.332  0.00  0.00    -0.002 A 
ATOM      8  C6  OXE d   1       0.664   0.891  -1.065  0.00  0.00     0.003 A 
ENDROOT
TORSDOF 0
ENDMDL
