MODEL 1
REMARK minimizedAffinity -4.41870022
REMARK minimizedRMSD -1
REMARK  0 active torsions:
REMARK  status: ('A' for Active; 'I' for Inactive)
ROOT
ATOM      1  C2' OXE d   1      -0.358  -0.758   0.933  0.00  0.00     0.078 C 
ATOM      2  C1' OXE d   1       0.764   1.509  -0.285  0.00  0.00     0.078 C 
ATOM      3  C1  OXE d   1       1.067   0.161  -0.892  0.00  0.00    -0.078 A 
ATOM      4  C2  OXE d   1       0.552  -0.946  -0.261  0.00  0.00    -0.078 A 
ATOM      5  C3  OXE d   1       0.757  -2.209  -0.810  0.00  0.00     0.003 A 
ATOM      6  C4  OXE d   1       1.608  -2.375  -1.909  0.00  0.00    -0.002 A 
ATOM      7  C5  OXE d   1       2.174  -1.264  -2.542  0.00  0.00    -0.002 A 
ATOM      8  C6  OXE d   1       1.880   0.012  -2.073  0.00  0.00     0.003 A 
ENDROOT
TORSDOF 0
ENDMDL
