MODEL 1
REMARK minimizedAffinity -5.56405115
REMARK minimizedRMSD -1
REMARK  0 active torsions:
REMARK  status: ('A' for Active; 'I' for Inactive)
ROOT
ATOM      1  C2' OXE d   1       0.375   1.588  -0.409  0.00  0.00     0.078 C 
ATOM      2  C1' OXE d   1      -0.670  -0.819   0.590  0.00  0.00     0.078 C 
ATOM      3  C1  OXE d   1       0.303  -0.898  -0.560  0.00  0.00    -0.078 A 
ATOM      4  C2  OXE d   1       0.774   0.287  -1.073  0.00  0.00    -0.078 A 
ATOM      5  C3  OXE d   1       1.716   0.269  -2.097  0.00  0.00     0.003 A 
ATOM      6  C4  OXE d   1       2.072  -0.938  -2.712  0.00  0.00    -0.002 A 
ATOM      7  C5  OXE d   1       1.574  -2.153  -2.231  0.00  0.00    -0.002 A 
ATOM      8  C6  OXE d   1       0.723  -2.154  -1.130  0.00  0.00     0.003 A 
ENDROOT
TORSDOF 0
ENDMDL
