MODEL 1
REMARK minimizedAffinity -3.73816919
REMARK minimizedRMSD -1
REMARK  0 active torsions:
REMARK  status: ('A' for Active; 'I' for Inactive)
ROOT
ATOM      1  C2' OXE d   1      -0.898  -1.358   0.995  0.00  0.00     0.078 C 
ATOM      2  C1' OXE d   1       0.341  -3.007  -0.909  0.00  0.00     0.078 C 
ATOM      3  C1  OXE d   1       0.599  -1.523  -0.989  0.00  0.00    -0.078 A 
ATOM      4  C2  OXE d   1      -0.048  -0.719  -0.082  0.00  0.00    -0.078 A 
ATOM      5  C3  OXE d   1       0.197   0.651  -0.078  0.00  0.00     0.003 A 
ATOM      6  C4  OXE d   1       0.976   1.235  -1.084  0.00  0.00    -0.002 A 
ATOM      7  C5  OXE d   1       1.613   0.439  -2.041  0.00  0.00    -0.002 A 
ATOM      8  C6  OXE d   1       1.469  -0.943  -1.982  0.00  0.00     0.003 A 
ENDROOT
TORSDOF 0
ENDMDL
