MODEL 1
REMARK minimizedAffinity -4.81375074
REMARK minimizedRMSD -1
REMARK  0 active torsions:
REMARK  status: ('A' for Active; 'I' for Inactive)
ROOT
ATOM      1  C2' OXE d   1       0.852   1.817  -0.658  0.00  0.00     0.078 C 
ATOM      2  C1' OXE d   1      -0.460  -0.310   0.620  0.00  0.00     0.078 C 
ATOM      3  C1  OXE d   1       0.420  -0.634  -0.562  0.00  0.00    -0.078 A 
ATOM      4  C2  OXE d   1       1.021   0.418  -1.210  0.00  0.00    -0.078 A 
ATOM      5  C3  OXE d   1       1.885   0.170  -2.272  0.00  0.00     0.003 A 
ATOM      6  C4  OXE d   1       2.028  -1.126  -2.782  0.00  0.00    -0.002 A 
ATOM      7  C5  OXE d   1       1.393  -2.207  -2.162  0.00  0.00    -0.002 A 
ATOM      8  C6  OXE d   1       0.621  -1.984  -1.027  0.00  0.00     0.003 A 
ENDROOT
TORSDOF 0
ENDMDL
