MODEL 1
REMARK minimizedAffinity -3.19785833
REMARK minimizedRMSD -1
REMARK  0 active torsions:
REMARK  status: ('A' for Active; 'I' for Inactive)
ROOT
ATOM      1  C2' OXE d   1       1.624   0.905  -2.011  0.00  0.00     0.078 C 
ATOM      2  C1' OXE d   1       0.860   2.573   0.114  0.00  0.00     0.078 C 
ATOM      3  C1  OXE d   1       0.513   1.108   0.210  0.00  0.00    -0.078 A 
ATOM      4  C2  OXE d   1       0.850   0.308  -0.855  0.00  0.00    -0.078 A 
ATOM      5  C3  OXE d   1       0.602  -1.061  -0.795  0.00  0.00     0.003 A 
ATOM      6  C4  OXE d   1      -0.124  -1.603   0.272  0.00  0.00    -0.002 A 
ATOM      7  C5  OXE d   1      -0.511  -0.799   1.349  0.00  0.00    -0.002 A 
ATOM      8  C6  OXE d   1      -0.163   0.548   1.353  0.00  0.00     0.003 A 
ENDROOT
TORSDOF 0
ENDMDL
