MODEL 1
REMARK minimizedAffinity -3.10825372
REMARK minimizedRMSD -1
REMARK  0 active torsions:
REMARK  status: ('A' for Active; 'I' for Inactive)
ROOT
ATOM      1  C2' OXE d   1      -0.142  -1.175   2.152  0.00  0.00     0.078 C 
ATOM      2  C1' OXE d   1       0.398  -3.006   0.093  0.00  0.00     0.078 C 
ATOM      3  C1  OXE d   1       0.488  -1.536  -0.232  0.00  0.00    -0.078 A 
ATOM      4  C2  OXE d   1       0.176  -0.647   0.769  0.00  0.00    -0.078 A 
ATOM      5  C3  OXE d   1       0.296   0.720   0.538  0.00  0.00     0.003 A 
ATOM      6  C4  OXE d   1       0.580   1.200  -0.746  0.00  0.00    -0.002 A 
ATOM      7  C5  OXE d   1       0.862   0.312  -1.789  0.00  0.00    -0.002 A 
ATOM      8  C6  OXE d   1       0.862  -1.056  -1.539  0.00  0.00     0.003 A 
ENDROOT
TORSDOF 0
ENDMDL
