MODEL 1
REMARK minimizedAffinity -0.20588997
REMARK minimizedRMSD -1
REMARK  0 active torsions:
REMARK  status: ('A' for Active; 'I' for Inactive)
ROOT
ATOM      1  C2' OXE d   1       0.552  -2.740  -1.535  0.00  0.00     0.078 C 
ATOM      2  C1' OXE d   1       1.500  -0.327  -2.612  0.00  0.00     0.078 C 
ATOM      3  C1  OXE d   1       0.738  -0.266  -1.312  0.00  0.00    -0.078 A 
ATOM      4  C2  OXE d   1       0.238  -1.446  -0.816  0.00  0.00    -0.078 A 
ATOM      5  C3  OXE d   1      -0.425  -1.453   0.408  0.00  0.00     0.003 A 
ATOM      6  C4  OXE d   1      -0.720  -0.250   1.061  0.00  0.00    -0.002 A 
ATOM      7  C5  OXE d   1      -0.254   0.967   0.553  0.00  0.00    -0.002 A 
ATOM      8  C6  OXE d   1       0.511   0.972  -0.608  0.00  0.00     0.003 A 
ENDROOT
TORSDOF 0
ENDMDL
