MODEL 1
REMARK minimizedAffinity -3.27827072
REMARK minimizedRMSD -1
REMARK  0 active torsions:
REMARK  status: ('A' for Active; 'I' for Inactive)
ROOT
ATOM      1  C2' OXE d   1      -5.249   4.504  -5.361  0.00  0.00     0.078 C 
ATOM      2  C1' OXE d   1      -2.589   3.609  -5.287  0.00  0.00     0.078 C 
ATOM      3  C1  OXE d   1      -3.668   2.589  -5.556  0.00  0.00    -0.078 A 
ATOM      4  C2  OXE d   1      -4.970   3.028  -5.544  0.00  0.00    -0.078 A 
ATOM      5  C3  OXE d   1      -5.999   2.139  -5.841  0.00  0.00     0.003 A 
ATOM      6  C4  OXE d   1      -5.733   0.774  -5.999  0.00  0.00    -0.002 A 
ATOM      7  C5  OXE d   1      -4.418   0.299  -5.976  0.00  0.00    -0.002 A 
ATOM      8  C6  OXE d   1      -3.372   1.199  -5.798  0.00  0.00     0.003 A 
ENDROOT
TORSDOF 0
ENDMDL
