MODEL 1
REMARK minimizedAffinity -5.64343596
REMARK minimizedRMSD -1
REMARK  0 active torsions:
REMARK  status: ('A' for Active; 'I' for Inactive)
ROOT
ATOM      1  C2' OXE d   1       1.368   2.113  -0.343  0.00  0.00     0.078 C 
ATOM      2  C1' OXE d   1       1.352   0.292  -2.479  0.00  0.00     0.078 C 
ATOM      3  C1  OXE d   1       0.874  -0.197  -1.134  0.00  0.00    -0.078 A 
ATOM      4  C2  OXE d   1       0.929   0.688  -0.084  0.00  0.00    -0.078 A 
ATOM      5  C3  OXE d   1       0.449   0.305   1.165  0.00  0.00     0.003 A 
ATOM      6  C4  OXE d   1       0.054  -1.018   1.398  0.00  0.00    -0.002 A 
ATOM      7  C5  OXE d   1       0.027  -1.946   0.351  0.00  0.00    -0.002 A 
ATOM      8  C6  OXE d   1       0.393  -1.541  -0.928  0.00  0.00     0.003 A 
ENDROOT
TORSDOF 0
ENDMDL
