MODEL 1
REMARK minimizedAffinity -5.04503298
REMARK minimizedRMSD -1
REMARK  0 active torsions:
REMARK  status: ('A' for Active; 'I' for Inactive)
ROOT
ATOM      1  C2' OXE d   1      -0.633  -0.147   0.793  0.00  0.00     0.078 C 
ATOM      2  C1' OXE d   1       0.269  -2.251  -0.832  0.00  0.00     0.078 C 
ATOM      3  C1  OXE d   1       0.591  -0.842  -1.262  0.00  0.00    -0.078 A 
ATOM      4  C2  OXE d   1       0.106   0.183  -0.486  0.00  0.00    -0.078 A 
ATOM      5  C3  OXE d   1       0.421   1.500  -0.807  0.00  0.00     0.003 A 
ATOM      6  C4  OXE d   1       1.096   1.797  -1.997  0.00  0.00    -0.002 A 
ATOM      7  C5  OXE d   1       1.565   0.770  -2.823  0.00  0.00    -0.002 A 
ATOM      8  C6  OXE d   1       1.359  -0.553  -2.449  0.00  0.00     0.003 A 
ENDROOT
TORSDOF 0
ENDMDL
