MODEL 1
REMARK minimizedAffinity -0.85185492
REMARK minimizedRMSD -1
REMARK  0 active torsions:
REMARK  status: ('A' for Active; 'I' for Inactive)
ROOT
ATOM      1  C2' OXE d   1       2.250  -1.473  -1.830  0.00  0.00     0.078 C 
ATOM      2  C1' OXE d   1       2.902   1.223  -1.394  0.00  0.00     0.078 C 
ATOM      3  C1  OXE d   1       1.700   0.664  -0.673  0.00  0.00    -0.078 A 
ATOM      4  C2  OXE d   1       1.361  -0.643  -0.929  0.00  0.00    -0.078 A 
ATOM      5  C3  OXE d   1       0.295  -1.224  -0.249  0.00  0.00     0.003 A 
ATOM      6  C4  OXE d   1      -0.528  -0.447   0.575  0.00  0.00    -0.002 A 
ATOM      7  C5  OXE d   1      -0.224   0.897   0.818  0.00  0.00    -0.002 A 
ATOM      8  C6  OXE d   1       0.909   1.455   0.236  0.00  0.00     0.003 A 
ENDROOT
TORSDOF 0
ENDMDL
