MODEL 1
REMARK minimizedAffinity -1.77635133
REMARK minimizedRMSD -1
REMARK  0 active torsions:
REMARK  status: ('A' for Active; 'I' for Inactive)
ROOT
ATOM      1  C2' OXE d   1      -3.482   0.303   1.312  0.00  0.00     0.078 C 
ATOM      2  C1' OXE d   1      -0.855   0.193   2.295  0.00  0.00     0.078 C 
ATOM      3  C1  OXE d   1      -1.785   1.221   2.889  0.00  0.00    -0.078 A 
ATOM      4  C2  OXE d   1      -3.055   1.299   2.369  0.00  0.00    -0.078 A 
ATOM      5  C3  OXE d   1      -3.971   2.193   2.918  0.00  0.00     0.003 A 
ATOM      6  C4  OXE d   1      -3.565   3.117   3.888  0.00  0.00    -0.002 A 
ATOM      7  C5  OXE d   1      -2.265   3.081   4.403  0.00  0.00    -0.002 A 
ATOM      8  C6  OXE d   1      -1.377   2.114   3.945  0.00  0.00     0.003 A 
ENDROOT
TORSDOF 0
ENDMDL
