MODEL 1
REMARK minimizedAffinity -0.324885428
REMARK minimizedRMSD -1
REMARK  0 active torsions:
REMARK  status: ('A' for Active; 'I' for Inactive)
ROOT
ATOM      1  C2' OXE d   1      -0.828   2.763  -1.513  0.00  0.00     0.078 C 
ATOM      2  C1' OXE d   1      -1.143   0.653   0.311  0.00  0.00     0.078 C 
ATOM      3  C1  OXE d   1       0.187   0.786  -0.387  0.00  0.00    -0.078 A 
ATOM      4  C2  OXE d   1       0.316   1.794  -1.313  0.00  0.00    -0.078 A 
ATOM      5  C3  OXE d   1       1.540   1.995  -1.945  0.00  0.00     0.003 A 
ATOM      6  C4  OXE d   1       2.590   1.088  -1.762  0.00  0.00    -0.002 A 
ATOM      7  C5  OXE d   1       2.466   0.032  -0.854  0.00  0.00    -0.002 A 
ATOM      8  C6  OXE d   1       1.288  -0.108  -0.128  0.00  0.00     0.003 A 
ENDROOT
TORSDOF 0
ENDMDL
