MODEL 1
REMARK minimizedAffinity -3.10960364
REMARK minimizedRMSD -1
REMARK  0 active torsions:
REMARK  status: ('A' for Active; 'I' for Inactive)
ROOT
ATOM      1  C2' OXE d   1      -0.455  -1.038   0.361  0.00  0.00     0.078 C 
ATOM      2  C1' OXE d   1       0.689  -3.247  -0.939  0.00  0.00     0.078 C 
ATOM      3  C1  OXE d   1       1.075  -1.871  -1.420  0.00  0.00    -0.078 A 
ATOM      4  C2  OXE d   1       0.475  -0.796  -0.809  0.00  0.00    -0.078 A 
ATOM      5  C3  OXE d   1       0.836   0.496  -1.177  0.00  0.00     0.003 A 
ATOM      6  C4  OXE d   1       1.689   0.711  -2.267  0.00  0.00    -0.002 A 
ATOM      7  C5  OXE d   1       2.280  -0.370  -2.929  0.00  0.00    -0.002 A 
ATOM      8  C6  OXE d   1       2.018  -1.664  -2.491  0.00  0.00     0.003 A 
ENDROOT
TORSDOF 0
ENDMDL
