MODEL 1
REMARK minimizedAffinity -5.93061495
REMARK minimizedRMSD -1
REMARK  0 active torsions:
REMARK  status: ('A' for Active; 'I' for Inactive)
ROOT
ATOM      1  C2' OXE d   1      -0.318  -1.405   1.073  0.00  0.00     0.078 C 
ATOM      2  C1' OXE d   1       0.557   1.189   0.452  0.00  0.00     0.078 C 
ATOM      3  C1  OXE d   1       0.912   0.078  -0.505  0.00  0.00    -0.078 A 
ATOM      4  C2  OXE d   1       0.519  -1.195  -0.169  0.00  0.00    -0.078 A 
ATOM      5  C3  OXE d   1       0.773  -2.248  -1.044  0.00  0.00     0.003 A 
ATOM      6  C4  OXE d   1       1.557  -2.047  -2.187  0.00  0.00    -0.002 A 
ATOM      7  C5  OXE d   1       2.001  -0.765  -2.527  0.00  0.00    -0.002 A 
ATOM      8  C6  OXE d   1       1.651   0.313  -1.721  0.00  0.00     0.003 A 
ENDROOT
TORSDOF 0
ENDMDL
