MODEL 1
REMARK minimizedAffinity -4.77841139
REMARK minimizedRMSD -1
REMARK  0 active torsions:
REMARK  status: ('A' for Active; 'I' for Inactive)
ROOT
ATOM      1  C2' OXE d   1       1.630  -0.363  -2.883  0.00  0.00     0.078 C 
ATOM      2  C1' OXE d   1       0.413  -2.634  -1.768  0.00  0.00     0.078 C 
ATOM      3  C1  OXE d   1       0.419  -1.366  -0.951  0.00  0.00    -0.078 A 
ATOM      4  C2  OXE d   1       1.058  -0.273  -1.485  0.00  0.00    -0.078 A 
ATOM      5  C3  OXE d   1       1.046   0.937  -0.796  0.00  0.00     0.003 A 
ATOM      6  C4  OXE d   1       0.524   1.009   0.501  0.00  0.00    -0.002 A 
ATOM      7  C5  OXE d   1      -0.096  -0.104   1.079  0.00  0.00    -0.002 A 
ATOM      8  C6  OXE d   1      -0.194  -1.284   0.351  0.00  0.00     0.003 A 
ENDROOT
TORSDOF 0
ENDMDL
