MODEL 1
REMARK minimizedAffinity 0.935681462
REMARK minimizedRMSD -1
REMARK  0 active torsions:
REMARK  status: ('A' for Active; 'I' for Inactive)
ROOT
ATOM      1  C1  BNZ d   1       3.134  -1.762   0.984  0.00  0.00     0.000 A 
ATOM      2  C2  BNZ d   1       3.780  -0.610   1.347  0.00  0.00     0.000 A 
ATOM      3  C3  BNZ d   1       3.539   0.564   0.690  0.00  0.00     0.000 A 
ATOM      4  C4  BNZ d   1       2.684   0.577  -0.353  0.00  0.00     0.000 A 
ATOM      5  C5  BNZ d   1       2.032  -0.578  -0.737  0.00  0.00     0.000 A 
ATOM      6  C6  BNZ d   1       2.248  -1.750  -0.048  0.00  0.00     0.000 A 
ENDROOT
TORSDOF 0
ENDMDL
