MODEL 1
REMARK minimizedAffinity 4.56147051
REMARK minimizedRMSD -1
REMARK  0 active torsions:
REMARK  status: ('A' for Active; 'I' for Inactive)
ROOT
ATOM      1  C1  BNZ d   1      -0.660  -0.623  -0.089  0.00  0.00     0.000 A 
ATOM      2  C2  BNZ d   1      -0.000  -1.794  -0.354  0.00  0.00     0.000 A 
ATOM      3  C3  BNZ d   1       1.355  -1.884  -0.200  0.00  0.00     0.000 A 
ATOM      4  C4  BNZ d   1       2.053  -0.795   0.181  0.00  0.00     0.000 A 
ATOM      5  C5  BNZ d   1       1.403   0.395   0.443  0.00  0.00     0.000 A 
ATOM      6  C6  BNZ d   1       0.035   0.472   0.323  0.00  0.00     0.000 A 
ENDROOT
TORSDOF 0
ENDMDL
