MODEL 1
REMARK minimizedAffinity -2.97542286
REMARK minimizedRMSD -1
REMARK  0 active torsions:
REMARK  status: ('A' for Active; 'I' for Inactive)
ROOT
ATOM      1  C1  BNZ d   1       3.437   2.712   1.230  0.00  0.00     0.000 A 
ATOM      2  C2  BNZ d   1       2.879   3.079   2.426  0.00  0.00     0.000 A 
ATOM      3  C3  BNZ d   1       1.578   2.775   2.714  0.00  0.00     0.000 A 
ATOM      4  C4  BNZ d   1       0.826   2.140   1.792  0.00  0.00     0.000 A 
ATOM      5  C5  BNZ d   1       1.371   1.771   0.578  0.00  0.00     0.000 A 
ATOM      6  C6  BNZ d   1       2.692   2.044   0.307  0.00  0.00     0.000 A 
ENDROOT
TORSDOF 0
ENDMDL
