MODEL 1
REMARK minimizedAffinity 6.62600803
REMARK minimizedRMSD -1
REMARK  0 active torsions:
REMARK  status: ('A' for Active; 'I' for Inactive)
ROOT
ATOM      1  C1  BNZ d   1      -0.828  -3.836  -1.586  0.00  0.00     0.000 A 
ATOM      2  C2  BNZ d   1      -1.799  -3.855  -2.552  0.00  0.00     0.000 A 
ATOM      3  C3  BNZ d   1      -2.632  -4.930  -2.685  0.00  0.00     0.000 A 
ATOM      4  C4  BNZ d   1      -2.469  -6.000  -1.881  0.00  0.00     0.000 A 
ATOM      5  C5  BNZ d   1      -1.489  -6.000  -0.908  0.00  0.00     0.000 A 
ATOM      6  C6  BNZ d   1      -0.677  -4.900  -0.751  0.00  0.00     0.000 A 
ENDROOT
TORSDOF 0
ENDMDL
