MODEL 1
REMARK minimizedAffinity -1.93215954
REMARK minimizedRMSD -1
REMARK  0 active torsions:
REMARK  status: ('A' for Active; 'I' for Inactive)
ROOT
ATOM      1  C1  BNZ d   1       3.590  -0.278  -1.214  0.00  0.00     0.000 A 
ATOM      2  C2  BNZ d   1       2.635  -0.854  -0.419  0.00  0.00     0.000 A 
ATOM      3  C3  BNZ d   1       2.146  -2.099  -0.703  0.00  0.00     0.000 A 
ATOM      4  C4  BNZ d   1       2.583  -2.748  -1.802  0.00  0.00     0.000 A 
ATOM      5  C5  BNZ d   1       3.538  -2.176  -2.618  0.00  0.00     0.000 A 
ATOM      6  C6  BNZ d   1       4.056  -0.939  -2.307  0.00  0.00     0.000 A 
ENDROOT
TORSDOF 0
ENDMDL
