MODEL 1
REMARK minimizedAffinity -0.164776638
REMARK minimizedRMSD -1
REMARK  0 active torsions:
REMARK  status: ('A' for Active; 'I' for Inactive)
ROOT
ATOM      1  C1  BNZ d   1      -0.321  -2.242  -1.078  0.00  0.00     0.000 A 
ATOM      2  C2  BNZ d   1       0.880  -2.782  -0.699  0.00  0.00     0.000 A 
ATOM      3  C3  BNZ d   1       1.819  -2.020  -0.062  0.00  0.00     0.000 A 
ATOM      4  C4  BNZ d   1       1.574  -0.712   0.159  0.00  0.00     0.000 A 
ATOM      5  C5  BNZ d   1       0.372  -0.152  -0.225  0.00  0.00     0.000 A 
ATOM      6  C6  BNZ d   1      -0.587  -0.931  -0.831  0.00  0.00     0.000 A 
ENDROOT
TORSDOF 0
ENDMDL
