MODEL 1
REMARK minimizedAffinity 3.50753379
REMARK minimizedRMSD -1
REMARK  0 active torsions:
REMARK  status: ('A' for Active; 'I' for Inactive)
ROOT
ATOM      1  C   UNL d   1      -3.492   2.242   3.944  0.00  0.00     0.172 C 
ATOM      2  N   UNL d   1      -2.376   2.226   3.028  0.00  0.00    -0.070 N 
ATOM      3  C1  UNL d   1      -1.852   3.318   2.389  0.00  0.00    -0.004 A 
ATOM      4  C2  UNL d   1      -0.803   2.886   1.607  0.00  0.00    -0.047 A 
ATOM      5  C3  UNL d   1      -0.692   1.486   1.782  0.00  0.00    -0.047 A 
ATOM      6  C4  UNL d   1      -1.678   1.104   2.666  0.00  0.00    -0.004 A 
ENDROOT
TORSDOF 0
ENDMDL
