MODEL 1
REMARK minimizedAffinity -4.1287508
REMARK minimizedRMSD -1
REMARK  0 active torsions:
REMARK  status: ('A' for Active; 'I' for Inactive)
ROOT
ATOM      1  C   UNL d   1      -2.101   1.598   2.844  0.00  0.00     0.172 C 
ATOM      2  N   UNL d   1      -1.274   0.790   1.980  0.00  0.00    -0.070 N 
ATOM      3  C1  UNL d   1      -1.551  -0.489   1.576  0.00  0.00    -0.004 A 
ATOM      4  C2  UNL d   1      -0.521  -0.908   0.762  0.00  0.00    -0.047 A 
ATOM      5  C3  UNL d   1       0.409   0.156   0.674  0.00  0.00    -0.047 A 
ATOM      6  C4  UNL d   1      -0.082   1.194   1.437  0.00  0.00    -0.004 A 
ENDROOT
TORSDOF 0
ENDMDL
