MODEL 1
REMARK minimizedAffinity -2.45339489
REMARK minimizedRMSD -1
REMARK  0 active torsions:
REMARK  status: ('A' for Active; 'I' for Inactive)
ROOT
ATOM      1  C   UNL d   1       0.647   0.836   1.524  0.00  0.00     0.172 C 
ATOM      2  N   UNL d   1      -0.713   0.669   1.979  0.00  0.00    -0.070 N 
ATOM      3  C1  UNL d   1      -1.620   1.677   2.171  0.00  0.00    -0.004 A 
ATOM      4  C2  UNL d   1      -2.797   1.108   2.607  0.00  0.00    -0.047 A 
ATOM      5  C3  UNL d   1      -2.590  -0.290   2.680  0.00  0.00    -0.047 A 
ATOM      6  C4  UNL d   1      -1.291  -0.534   2.286  0.00  0.00    -0.004 A 
ENDROOT
TORSDOF 0
ENDMDL
