MODEL 1
REMARK minimizedAffinity -0.73670572
REMARK minimizedRMSD -1
REMARK  0 active torsions:
REMARK  status: ('A' for Active; 'I' for Inactive)
ROOT
ATOM      1  C   UNL d   1      -2.224   2.133   3.019  0.00  0.00     0.172 C 
ATOM      2  N   UNL d   1      -1.273   1.381   2.234  0.00  0.00    -0.070 N 
ATOM      3  C1  UNL d   1      -0.371   1.911   1.351  0.00  0.00    -0.004 A 
ATOM      4  C2  UNL d   1       0.350   0.869   0.808  0.00  0.00    -0.047 A 
ATOM      5  C3  UNL d   1      -0.136  -0.328   1.385  0.00  0.00    -0.047 A 
ATOM      6  C4  UNL d   1      -1.141   0.018   2.264  0.00  0.00    -0.004 A 
ENDROOT
TORSDOF 0
ENDMDL
