MODEL 1
REMARK minimizedAffinity -1.67241156
REMARK minimizedRMSD -1
REMARK  0 active torsions:
REMARK  status: ('A' for Active; 'I' for Inactive)
ROOT
ATOM      1  C   UNL d   1      -4.330   2.169   4.407  0.00  0.00     0.172 C 
ATOM      2  N   UNL d   1      -3.411   1.632   3.432  0.00  0.00    -0.070 N 
ATOM      3  C1  UNL d   1      -3.405   0.345   2.964  0.00  0.00    -0.004 A 
ATOM      4  C2  UNL d   1      -2.381   0.232   2.050  0.00  0.00    -0.047 A 
ATOM      5  C3  UNL d   1      -1.747   1.495   1.966  0.00  0.00    -0.047 A 
ATOM      6  C4  UNL d   1      -2.405   2.343   2.831  0.00  0.00    -0.004 A 
ENDROOT
TORSDOF 0
ENDMDL
