MODEL 1
REMARK minimizedAffinity -1.97899461
REMARK minimizedRMSD -1
REMARK  0 active torsions:
REMARK  status: ('A' for Active; 'I' for Inactive)
ROOT
ATOM      1  C   UNL d   1      -2.842  -5.065  -0.713  0.00  0.00     0.172 C 
ATOM      2  N   UNL d   1      -3.106  -3.780  -1.317  0.00  0.00    -0.070 N 
ATOM      3  C1  UNL d   1      -3.528  -2.659  -0.654  0.00  0.00    -0.004 A 
ATOM      4  C2  UNL d   1      -3.663  -1.647  -1.581  0.00  0.00    -0.047 A 
ATOM      5  C3  UNL d   1      -3.309  -2.179  -2.843  0.00  0.00    -0.047 A 
ATOM      6  C4  UNL d   1      -2.969  -3.501  -2.651  0.00  0.00    -0.004 A 
ENDROOT
TORSDOF 0
ENDMDL
