MODEL 1
REMARK minimizedAffinity -0.956151247
REMARK minimizedRMSD -1
REMARK  0 active torsions:
REMARK  status: ('A' for Active; 'I' for Inactive)
ROOT
ATOM      1  C   UNL d   1      -0.459  -3.848  -4.589  0.00  0.00     0.172 C 
ATOM      2  N   UNL d   1      -1.884  -3.709  -4.777  0.00  0.00    -0.070 N 
ATOM      3  C1  UNL d   1      -2.811  -3.568  -3.778  0.00  0.00    -0.004 A 
ATOM      4  C2  UNL d   1      -4.053  -3.465  -4.367  0.00  0.00    -0.047 A 
ATOM      5  C3  UNL d   1      -3.866  -3.547  -5.767  0.00  0.00    -0.047 A 
ATOM      6  C4  UNL d   1      -2.514  -3.698  -5.993  0.00  0.00    -0.004 A 
ENDROOT
TORSDOF 0
ENDMDL
