MODEL 1
REMARK minimizedAffinity -0.798688769
REMARK minimizedRMSD -1
REMARK  0 active torsions:
REMARK  status: ('A' for Active; 'I' for Inactive)
ROOT
ATOM      1  C   UNL d   1      -2.656   2.186   3.392  0.00  0.00     0.172 C 
ATOM      2  N   UNL d   1      -1.716   1.526   2.517  0.00  0.00    -0.070 N 
ATOM      3  C1  UNL d   1      -1.648   0.177   2.290  0.00  0.00    -0.004 A 
ATOM      4  C2  UNL d   1      -0.623  -0.049   1.397  0.00  0.00    -0.047 A 
ATOM      5  C3  UNL d   1      -0.054   1.206   1.078  0.00  0.00    -0.047 A 
ATOM      6  C4  UNL d   1      -0.750   2.164   1.785  0.00  0.00    -0.004 A 
ENDROOT
TORSDOF 0
ENDMDL
