MODEL 1
REMARK minimizedAffinity -1.57592475
REMARK minimizedRMSD -1
REMARK  0 active torsions:
REMARK  status: ('A' for Active; 'I' for Inactive)
ROOT
ATOM      1  C   UNL d   1      -1.464  -0.501   1.235  0.00  0.00     0.172 C 
ATOM      2  N   UNL d   1      -0.640   0.682   1.312  0.00  0.00    -0.070 N 
ATOM      3  C1  UNL d   1       0.668   0.771   0.916  0.00  0.00    -0.004 A 
ATOM      4  C2  UNL d   1       1.093   2.061   1.153  0.00  0.00    -0.047 A 
ATOM      5  C3  UNL d   1       0.004   2.770   1.711  0.00  0.00    -0.047 A 
ATOM      6  C4  UNL d   1      -1.057   1.893   1.799  0.00  0.00    -0.004 A 
ENDROOT
TORSDOF 0
ENDMDL
