MODEL 1
REMARK minimizedAffinity -1.89706707
REMARK minimizedRMSD -1
REMARK  0 active torsions:
REMARK  status: ('A' for Active; 'I' for Inactive)
ROOT
ATOM      1  C   UNL d   1       0.911  -4.465  -3.513  0.00  0.00     0.172 C 
ATOM      2  N   UNL d   1      -0.296  -3.856  -3.007  0.00  0.00    -0.070 N 
ATOM      3  C1  UNL d   1      -1.064  -2.936  -3.670  0.00  0.00    -0.004 A 
ATOM      4  C2  UNL d   1      -2.123  -2.603  -2.853  0.00  0.00    -0.047 A 
ATOM      5  C3  UNL d   1      -1.986  -3.348  -1.657  0.00  0.00    -0.047 A 
ATOM      6  C4  UNL d   1      -0.846  -4.115  -1.780  0.00  0.00    -0.004 A 
ENDROOT
TORSDOF 0
ENDMDL
