MODEL 1
REMARK minimizedAffinity -3.18736768
REMARK minimizedRMSD -1
REMARK  0 active torsions:
REMARK  status: ('A' for Active; 'I' for Inactive)
ROOT
ATOM      1  C   UNL d   1       0.349   1.765   0.367  0.00  0.00     0.172 C 
ATOM      2  N   UNL d   1      -0.781   1.561   1.244  0.00  0.00    -0.070 N 
ATOM      3  C1  UNL d   1      -1.370   0.357   1.520  0.00  0.00    -0.004 A 
ATOM      4  C2  UNL d   1      -2.409   0.586   2.396  0.00  0.00    -0.047 A 
ATOM      5  C3  UNL d   1      -2.446   1.977   2.654  0.00  0.00    -0.047 A 
ATOM      6  C4  UNL d   1      -1.427   2.557   1.928  0.00  0.00    -0.004 A 
ENDROOT
TORSDOF 0
ENDMDL
