MODEL 1
REMARK minimizedAffinity -2.33804822
REMARK minimizedRMSD -1
REMARK  0 active torsions:
REMARK  status: ('A' for Active; 'I' for Inactive)
ROOT
ATOM      1  C   UNL d   1      -0.707  -0.811   1.358  0.00  0.00     0.172 C 
ATOM      2  N   UNL d   1      -0.879   0.561   1.774  0.00  0.00    -0.070 N 
ATOM      3  C1  UNL d   1      -0.127   1.624   1.351  0.00  0.00    -0.004 A 
ATOM      4  C2  UNL d   1      -0.605   2.755   1.976  0.00  0.00    -0.047 A 
ATOM      5  C3  UNL d   1      -1.681   2.358   2.805  0.00  0.00    -0.047 A 
ATOM      6  C4  UNL d   1      -1.829   0.995   2.661  0.00  0.00    -0.004 A 
ENDROOT
TORSDOF 0
ENDMDL
