MODEL 1
REMARK minimizedAffinity -0.986838639
REMARK minimizedRMSD -1
REMARK  0 active torsions:
REMARK  status: ('A' for Active; 'I' for Inactive)
ROOT
ATOM      1  C   UNL d   1      -2.950   2.064   3.510  0.00  0.00     0.172 C 
ATOM      2  N   UNL d   1      -1.940   1.966   2.483  0.00  0.00    -0.070 N 
ATOM      3  C1  UNL d   1      -1.544   2.981   1.653  0.00  0.00    -0.004 A 
ATOM      4  C2  UNL d   1      -0.564   2.488   0.820  0.00  0.00    -0.047 A 
ATOM      5  C3  UNL d   1      -0.364   1.129   1.160  0.00  0.00    -0.047 A 
ATOM      6  C4  UNL d   1      -1.228   0.832   2.192  0.00  0.00    -0.004 A 
ENDROOT
TORSDOF 0
ENDMDL
