MODEL 1
REMARK minimizedAffinity 13.4294968
REMARK minimizedRMSD -1
REMARK  0 active torsions:
REMARK  status: ('A' for Active; 'I' for Inactive)
ROOT
ATOM      1  C   UNL d   1       5.953   1.469  -0.941  0.00  0.00     0.023 A 
ATOM      2  C1  UNL d   1       5.928   2.562  -0.074  0.00  0.00     0.003 A 
ATOM      3  C2  UNL d   1       5.934   3.861  -0.587  0.00  0.00     0.048 A 
ATOM      4  C3  UNL d   1       5.964   4.060  -1.967  0.00  0.00     0.023 A 
ATOM      5  C4  UNL d   1       5.989   2.969  -2.837  0.00  0.00     0.048 A 
ATOM      6  C5  UNL d   1       5.984   1.673  -2.320  0.00  0.00     0.003 A 
ATOM      7  I   UNL d   1       5.973   5.993  -2.732  0.00  0.00    -0.146 I 
ENDROOT
TORSDOF 0
ENDMDL
