MODEL 1
REMARK minimizedAffinity 6.24850607
REMARK minimizedRMSD -1
REMARK  0 active torsions:
REMARK  status: ('A' for Active; 'I' for Inactive)
ROOT
ATOM      1  C   UNL d   1       5.215   2.494  -2.745  0.00  0.00     0.023 A 
ATOM      2  C1  UNL d   1       6.000   2.966  -1.693  0.00  0.00     0.003 A 
ATOM      3  C2  UNL d   1       5.570   2.808  -0.374  0.00  0.00     0.048 A 
ATOM      4  C3  UNL d   1       4.354   2.176  -0.114  0.00  0.00     0.023 A 
ATOM      5  C4  UNL d   1       3.566   1.702  -1.164  0.00  0.00     0.048 A 
ATOM      6  C5  UNL d   1       4.000   1.863  -2.481  0.00  0.00     0.003 A 
ATOM      7  I   UNL d   1       3.712   1.940   1.848  0.00  0.00    -0.146 I 
ENDROOT
TORSDOF 0
ENDMDL
