MODEL 1
REMARK minimizedAffinity -2.00764966
REMARK minimizedRMSD -1
REMARK  0 active torsions:
REMARK  status: ('A' for Active; 'I' for Inactive)
ROOT
ATOM      1  C   UNL d   1       2.997   0.400   0.790  0.00  0.00     0.023 A 
ATOM      2  C1  UNL d   1       2.733  -0.882   1.274  0.00  0.00     0.003 A 
ATOM      3  C2  UNL d   1       3.594  -1.470   2.203  0.00  0.00     0.048 A 
ATOM      4  C3  UNL d   1       4.716  -0.771   2.645  0.00  0.00     0.023 A 
ATOM      5  C4  UNL d   1       4.984   0.512   2.165  0.00  0.00     0.048 A 
ATOM      6  C5  UNL d   1       4.121   1.096   1.235  0.00  0.00     0.003 A 
ATOM      7  I   UNL d   1       5.998  -1.644   4.028  0.00  0.00    -0.146 I 
ENDROOT
TORSDOF 0
ENDMDL
