MODEL 1
REMARK minimizedAffinity 7.52351427
REMARK minimizedRMSD -1
REMARK  0 active torsions:
REMARK  status: ('A' for Active; 'I' for Inactive)
ROOT
ATOM      1  C   UNL d   1       2.621  -0.386   0.506  0.00  0.00     0.023 A 
ATOM      2  C1  UNL d   1       2.509  -1.574   1.229  0.00  0.00     0.003 A 
ATOM      3  C2  UNL d   1       3.478  -1.910   2.177  0.00  0.00     0.048 A 
ATOM      4  C3  UNL d   1       4.555  -1.052   2.398  0.00  0.00     0.023 A 
ATOM      5  C4  UNL d   1       4.671   0.138   1.678  0.00  0.00     0.048 A 
ATOM      6  C5  UNL d   1       3.701   0.469   0.731  0.00  0.00     0.003 A 
ATOM      7  I   UNL d   1       5.998  -1.550   3.809  0.00  0.00    -0.146 I 
ENDROOT
TORSDOF 0
ENDMDL
