MODEL 1
REMARK minimizedAffinity -0.289311171
REMARK minimizedRMSD -1
REMARK  0 active torsions:
REMARK  status: ('A' for Active; 'I' for Inactive)
ROOT
ATOM      1  C   UNL d   1       4.914   2.345  -2.041  0.00  0.00     0.023 A 
ATOM      2  C1  UNL d   1       3.670   1.721  -1.951  0.00  0.00     0.003 A 
ATOM      3  C2  UNL d   1       3.284   1.099  -0.762  0.00  0.00     0.048 A 
ATOM      4  C3  UNL d   1       4.146   1.106   0.334  0.00  0.00     0.023 A 
ATOM      5  C4  UNL d   1       5.392   1.730   0.249  0.00  0.00     0.048 A 
ATOM      6  C5  UNL d   1       5.774   2.350  -0.943  0.00  0.00     0.003 A 
ATOM      7  I   UNL d   1       3.573   0.182   2.105  0.00  0.00    -0.146 I 
ENDROOT
TORSDOF 0
ENDMDL
