MODEL 1
REMARK minimizedAffinity 14.2929401
REMARK minimizedRMSD -1
REMARK  0 active torsions:
REMARK  status: ('A' for Active; 'I' for Inactive)
ROOT
ATOM      1  C   UNL d   1       6.000   3.001  -1.410  0.00  0.00     0.023 A 
ATOM      2  C1  UNL d   1       5.990   2.721  -0.044  0.00  0.00     0.003 A 
ATOM      3  C2  UNL d   1       5.019   1.871   0.489  0.00  0.00     0.048 A 
ATOM      4  C3  UNL d   1       4.060   1.304  -0.350  0.00  0.00     0.023 A 
ATOM      5  C4  UNL d   1       4.067   1.580  -1.718  0.00  0.00     0.048 A 
ATOM      6  C5  UNL d   1       5.040   2.431  -2.247  0.00  0.00     0.003 A 
ATOM      7  I   UNL d   1       2.613   0.039   0.441  0.00  0.00    -0.146 I 
ENDROOT
TORSDOF 0
ENDMDL
