MODEL 1
REMARK minimizedAffinity 6.31228304
REMARK minimizedRMSD -1
REMARK  0 active torsions:
REMARK  status: ('A' for Active; 'I' for Inactive)
ROOT
ATOM      1  C   UNL d   1       5.996   3.012  -2.013  0.00  0.00     0.023 A 
ATOM      2  C1  UNL d   1       5.800   2.973  -0.633  0.00  0.00     0.003 A 
ATOM      3  C2  UNL d   1       4.749   2.228  -0.096  0.00  0.00     0.048 A 
ATOM      4  C3  UNL d   1       3.897   1.523  -0.945  0.00  0.00     0.023 A 
ATOM      5  C4  UNL d   1       4.090   1.557  -2.327  0.00  0.00     0.048 A 
ATOM      6  C5  UNL d   1       5.142   2.304  -2.860  0.00  0.00     0.003 A 
ATOM      7  I   UNL d   1       2.331   0.412  -0.148  0.00  0.00    -0.146 I 
ENDROOT
TORSDOF 0
ENDMDL
