MODEL 1
REMARK minimizedAffinity 4.79824114
REMARK minimizedRMSD -1
REMARK  0 active torsions:
REMARK  status: ('A' for Active; 'I' for Inactive)
ROOT
ATOM      1  C   UNL d   1      -3.392   1.906  -3.197  0.00  0.00     0.020 A 
ATOM      2  C1  UNL d   1      -4.005   3.059  -3.686  0.00  0.00     0.020 A 
ATOM      3  C2  UNL d   1      -3.276   3.964  -4.459  0.00  0.00     0.034 A 
ATOM      4  C3  UNL d   1      -1.928   3.717  -4.747  0.00  0.00     0.017 A 
ATOM      5  C4  UNL d   1      -1.313   2.560  -4.256  0.00  0.00     0.017 A 
ATOM      6  C5  UNL d   1      -2.049   1.657  -3.482  0.00  0.00     0.034 A 
ATOM      7 Cl   UNL d   1       0.346   2.188  -4.568  0.00  0.00    -0.070 Cl
ATOM      8 Cl1  UNL d   1      -1.087   4.879  -5.710  0.00  0.00    -0.070 Cl
ENDROOT
TORSDOF 0
ENDMDL
