MODEL 1
REMARK minimizedAffinity -2.10897923
REMARK minimizedRMSD -1
REMARK  0 active torsions:
REMARK  status: ('A' for Active; 'I' for Inactive)
ROOT
ATOM      1  C   UNL d   1      -3.191   2.602  -3.753  0.00  0.00     0.020 A 
ATOM      2  C1  UNL d   1      -2.622   3.746  -4.312  0.00  0.00     0.020 A 
ATOM      3  C2  UNL d   1      -1.328   3.697  -4.835  0.00  0.00     0.034 A 
ATOM      4  C3  UNL d   1      -0.599   2.503  -4.798  0.00  0.00     0.017 A 
ATOM      5  C4  UNL d   1      -1.171   1.356  -4.236  0.00  0.00     0.017 A 
ATOM      6  C5  UNL d   1      -2.467   1.410  -3.715  0.00  0.00     0.034 A 
ATOM      7 Cl   UNL d   1      -0.332  -0.153  -4.156  0.00  0.00    -0.070 Cl
ATOM      8 Cl1  UNL d   1       0.996   2.516  -5.463  0.00  0.00    -0.070 Cl
ENDROOT
TORSDOF 0
ENDMDL
