MODEL 1
REMARK minimizedAffinity 4.8960948
REMARK minimizedRMSD -1
REMARK  0 active torsions:
REMARK  status: ('A' for Active; 'I' for Inactive)
ROOT
ATOM      1  C   UNL d   1      -3.340   3.814  -3.658  0.00  0.00     0.020 A 
ATOM      2  C1  UNL d   1      -3.185   2.671  -2.874  0.00  0.00     0.020 A 
ATOM      3  C2  UNL d   1      -2.008   1.924  -2.955  0.00  0.00     0.034 A 
ATOM      4  C3  UNL d   1      -0.982   2.317  -3.821  0.00  0.00     0.017 A 
ATOM      5  C4  UNL d   1      -1.139   3.465  -4.608  0.00  0.00     0.017 A 
ATOM      6  C5  UNL d   1      -2.319   4.209  -4.523  0.00  0.00     0.034 A 
ATOM      7 Cl   UNL d   1       0.083   4.013  -5.700  0.00  0.00    -0.070 Cl
ATOM      8 Cl1  UNL d   1       0.446   1.346  -3.870  0.00  0.00    -0.070 Cl
ENDROOT
TORSDOF 0
ENDMDL
