MODEL 1
REMARK minimizedAffinity 1.09640896
REMARK minimizedRMSD -1
REMARK  0 active torsions:
REMARK  status: ('A' for Active; 'I' for Inactive)
ROOT
ATOM      1  C   UNL d   1       1.931   2.012  -5.710  0.00  0.00     0.020 A 
ATOM      2  C1  UNL d   1       1.262   3.201  -5.999  0.00  0.00     0.020 A 
ATOM      3  C2  UNL d   1      -0.055   3.382  -5.572  0.00  0.00     0.034 A 
ATOM      4  C3  UNL d   1      -0.707   2.374  -4.853  0.00  0.00     0.017 A 
ATOM      5  C4  UNL d   1      -0.035   1.182  -4.562  0.00  0.00     0.017 A 
ATOM      6  C5  UNL d   1       1.284   1.005  -4.992  0.00  0.00     0.034 A 
ATOM      7 Cl   UNL d   1      -0.773  -0.108  -3.679  0.00  0.00    -0.070 Cl
ATOM      8 Cl1  UNL d   1      -2.336   2.667  -4.355  0.00  0.00    -0.070 Cl
ENDROOT
TORSDOF 0
ENDMDL
