MODEL 1
REMARK minimizedAffinity 8.20518303
REMARK minimizedRMSD -1
REMARK  0 active torsions:
REMARK  status: ('A' for Active; 'I' for Inactive)
ROOT
ATOM      1  C   UNL d   1      -2.407   3.339  -0.359  0.00  0.00     0.020 A 
ATOM      2  C1  UNL d   1      -3.559   2.554  -0.309  0.00  0.00     0.020 A 
ATOM      3  C2  UNL d   1      -4.103   2.037  -1.486  0.00  0.00     0.034 A 
ATOM      4  C3  UNL d   1      -3.497   2.304  -2.719  0.00  0.00     0.017 A 
ATOM      5  C4  UNL d   1      -2.341   3.092  -2.769  0.00  0.00     0.017 A 
ATOM      6  C5  UNL d   1      -1.800   3.607  -1.587  0.00  0.00     0.034 A 
ATOM      7 Cl   UNL d   1      -1.537   3.464  -4.252  0.00  0.00    -0.070 Cl
ATOM      8 Cl1  UNL d   1      -4.225   1.631  -4.134  0.00  0.00    -0.070 Cl
ENDROOT
TORSDOF 0
ENDMDL
