MODEL 1
REMARK minimizedAffinity 6.54299259
REMARK minimizedRMSD -1
REMARK  0 active torsions:
REMARK  status: ('A' for Active; 'I' for Inactive)
ROOT
ATOM      1  C   UNL d   1       0.230   4.527  -6.000  0.00  0.00     0.020 A 
ATOM      2  C1  UNL d   1      -0.884   5.228  -5.540  0.00  0.00     0.020 A 
ATOM      3  C2  UNL d   1      -1.839   4.583  -4.752  0.00  0.00     0.034 A 
ATOM      4  C3  UNL d   1      -1.681   3.232  -4.420  0.00  0.00     0.017 A 
ATOM      5  C4  UNL d   1      -0.562   2.529  -4.882  0.00  0.00     0.017 A 
ATOM      6  C5  UNL d   1       0.391   3.181  -5.671  0.00  0.00     0.034 A 
ATOM      7 Cl   UNL d   1      -0.299   0.861  -4.514  0.00  0.00    -0.070 Cl
ATOM      8 Cl1  UNL d   1      -2.900   2.498  -3.441  0.00  0.00    -0.070 Cl
ENDROOT
TORSDOF 0
ENDMDL
