MODEL 1
REMARK minimizedAffinity 12.8221664
REMARK minimizedRMSD -1
REMARK  0 active torsions:
REMARK  status: ('A' for Active; 'I' for Inactive)
ROOT
ATOM      1  C   UNL d   1       3.778  -3.958   1.783  0.00  0.00     0.020 A 
ATOM      2  C1  UNL d   1       4.164  -3.589   0.495  0.00  0.00     0.020 A 
ATOM      3  C2  UNL d   1       3.225  -3.056  -0.390  0.00  0.00     0.034 A 
ATOM      4  C3  UNL d   1       1.895  -2.890   0.011  0.00  0.00     0.017 A 
ATOM      5  C4  UNL d   1       1.508  -3.260   1.304  0.00  0.00     0.017 A 
ATOM      6  C5  UNL d   1       2.452  -3.794   2.186  0.00  0.00     0.034 A 
ATOM      7 Cl   UNL d   1      -0.116  -3.086   1.872  0.00  0.00    -0.070 Cl
ATOM      8 Cl1  UNL d   1       0.787  -2.224  -1.135  0.00  0.00    -0.070 Cl
ENDROOT
TORSDOF 0
ENDMDL
