MODEL 1
REMARK minimizedAffinity 9.95448208
REMARK minimizedRMSD -1
REMARK  0 active torsions:
REMARK  status: ('A' for Active; 'I' for Inactive)
ROOT
ATOM      1  C   UNL d   1       5.933  -4.076   0.403  0.00  0.00     0.020 A 
ATOM      2  C1  UNL d   1       4.892  -4.981   0.607  0.00  0.00     0.020 A 
ATOM      3  C2  UNL d   1       3.567  -4.550   0.525  0.00  0.00     0.034 A 
ATOM      4  C3  UNL d   1       3.278  -3.210   0.240  0.00  0.00     0.017 A 
ATOM      5  C4  UNL d   1       4.324  -2.303   0.035  0.00  0.00     0.017 A 
ATOM      6  C5  UNL d   1       5.650  -2.740   0.118  0.00  0.00     0.034 A 
ATOM      7 Cl   UNL d   1       4.047  -0.635  -0.321  0.00  0.00    -0.070 Cl
ATOM      8 Cl1  UNL d   1       1.616  -2.747   0.154  0.00  0.00    -0.070 Cl
ENDROOT
TORSDOF 0
ENDMDL
