MODEL 1
REMARK minimizedAffinity 3.98884177
REMARK minimizedRMSD -1
REMARK  0 active torsions:
REMARK  status: ('A' for Active; 'I' for Inactive)
ROOT
ATOM      1  C   UNL d   1      -3.235   2.999  -2.999  0.00  0.00     0.020 A 
ATOM      2  C1  UNL d   1      -3.495   4.257  -3.542  0.00  0.00     0.020 A 
ATOM      3  C2  UNL d   1      -2.610   4.814  -4.467  0.00  0.00     0.034 A 
ATOM      4  C3  UNL d   1      -1.460   4.114  -4.851  0.00  0.00     0.017 A 
ATOM      5  C4  UNL d   1      -1.200   2.851  -4.305  0.00  0.00     0.017 A 
ATOM      6  C5  UNL d   1      -2.090   2.298  -3.379  0.00  0.00     0.034 A 
ATOM      7 Cl   UNL d   1       0.197   1.927  -4.730  0.00  0.00    -0.070 Cl
ATOM      8 Cl1  UNL d   1      -0.409   4.863  -6.000  0.00  0.00    -0.070 Cl
ENDROOT
TORSDOF 0
ENDMDL
