MODEL 1
REMARK minimizedAffinity 9.2930603
REMARK minimizedRMSD -1
REMARK  0 active torsions:
REMARK  status: ('A' for Active; 'I' for Inactive)
ROOT
ATOM      1  C   UNL d   1       3.737  -3.747  -0.166  0.00  0.00     0.020 A 
ATOM      2  C1  UNL d   1       3.381  -4.083   1.140  0.00  0.00     0.020 A 
ATOM      3  C2  UNL d   1       2.137  -3.701   1.645  0.00  0.00     0.034 A 
ATOM      4  C3  UNL d   1       1.243  -2.980   0.844  0.00  0.00     0.017 A 
ATOM      5  C4  UNL d   1       1.601  -2.644  -0.467  0.00  0.00     0.017 A 
ATOM      6  C5  UNL d   1       2.849  -3.029  -0.967  0.00  0.00     0.034 A 
ATOM      7 Cl   UNL d   1       0.552  -1.757  -1.515  0.00  0.00    -0.070 Cl
ATOM      8 Cl1  UNL d   1      -0.279  -2.541   1.533  0.00  0.00    -0.070 Cl
ENDROOT
TORSDOF 0
ENDMDL
