MODEL 1
REMARK minimizedAffinity 10.4719753
REMARK minimizedRMSD -1
REMARK  0 active torsions:
REMARK  status: ('A' for Active; 'I' for Inactive)
ROOT
ATOM      1  C   UNL d   1       0.642   3.425  -5.889  0.00  0.00     0.020 A 
ATOM      2  C1  UNL d   1      -0.358   4.380  -5.708  0.00  0.00     0.020 A 
ATOM      3  C2  UNL d   1      -1.457   4.094  -4.895  0.00  0.00     0.034 A 
ATOM      4  C3  UNL d   1      -1.559   2.850  -4.261  0.00  0.00     0.017 A 
ATOM      5  C4  UNL d   1      -0.554   1.893  -4.443  0.00  0.00     0.017 A 
ATOM      6  C5  UNL d   1       0.544   2.185  -5.258  0.00  0.00     0.034 A 
ATOM      7 Cl   UNL d   1      -0.609   0.337  -3.693  0.00  0.00    -0.070 Cl
ATOM      8 Cl1  UNL d   1      -2.945   2.565  -3.270  0.00  0.00    -0.070 Cl
ENDROOT
TORSDOF 0
ENDMDL
