MODEL 1
REMARK minimizedAffinity 1.90045786
REMARK minimizedRMSD -1
REMARK  0 active torsions:
REMARK  status: ('A' for Active; 'I' for Inactive)
ROOT
ATOM      1  C   UNL d   1      -3.772   3.042  -3.476  0.00  0.00     0.020 A 
ATOM      2  C1  UNL d   1      -3.735   1.740  -2.977  0.00  0.00     0.020 A 
ATOM      3  C2  UNL d   1      -2.617   0.936  -3.207  0.00  0.00     0.034 A 
ATOM      4  C3  UNL d   1      -1.532   1.432  -3.938  0.00  0.00     0.017 A 
ATOM      5  C4  UNL d   1      -1.570   2.739  -4.439  0.00  0.00     0.017 A 
ATOM      6  C5  UNL d   1      -2.692   3.540  -4.205  0.00  0.00     0.034 A 
ATOM      7 Cl   UNL d   1      -0.269   3.421  -5.350  0.00  0.00    -0.070 Cl
ATOM      8 Cl1  UNL d   1      -0.182   0.382  -4.185  0.00  0.00    -0.070 Cl
ENDROOT
TORSDOF 0
ENDMDL
