MODEL 1
REMARK minimizedAffinity 6.79547167
REMARK minimizedRMSD -1
REMARK  0 active torsions:
REMARK  status: ('A' for Active; 'I' for Inactive)
ROOT
ATOM      1  C   UNL d   1       3.422  -4.108   1.065  0.00  0.00     0.020 A 
ATOM      2  C1  UNL d   1       2.988  -2.848   0.654  0.00  0.00     0.020 A 
ATOM      3  C2  UNL d   1       1.625  -2.544   0.659  0.00  0.00     0.034 A 
ATOM      4  C3  UNL d   1       0.691  -3.500   1.075  0.00  0.00     0.017 A 
ATOM      5  C4  UNL d   1       1.128  -4.764   1.487  0.00  0.00     0.017 A 
ATOM      6  C5  UNL d   1       2.494  -5.063   1.481  0.00  0.00     0.034 A 
ATOM      7 Cl   UNL d   1       0.036  -5.996   2.014  0.00  0.00    -0.070 Cl
ATOM      8 Cl1  UNL d   1      -0.978  -3.055   1.055  0.00  0.00    -0.070 Cl
ENDROOT
TORSDOF 0
ENDMDL
