MODEL 1
REMARK minimizedAffinity 11.7845459
REMARK minimizedRMSD -1
REMARK  0 active torsions:
REMARK  status: ('A' for Active; 'I' for Inactive)
ROOT
ATOM      1  C   UNL d   1       4.985   5.981   5.951  0.00  0.00     0.020 A 
ATOM      2  C1  UNL d   1       5.842   5.124   5.261  0.00  0.00     0.020 A 
ATOM      3  C2  UNL d   1       5.336   4.281   4.270  0.00  0.00     0.034 A 
ATOM      4  C3  UNL d   1       3.970   4.292   3.965  0.00  0.00     0.017 A 
ATOM      5  C4  UNL d   1       3.111   5.152   4.658  0.00  0.00     0.017 A 
ATOM      6  C5  UNL d   1       3.622   5.995   5.650  0.00  0.00     0.034 A 
ATOM      7 Cl   UNL d   1       1.414   5.222   4.338  0.00  0.00    -0.070 Cl
ATOM      8 Cl1  UNL d   1       3.415   3.222   2.727  0.00  0.00    -0.070 Cl
ENDROOT
TORSDOF 0
ENDMDL
