MODEL 1
REMARK minimizedAffinity -4.25553703
REMARK minimizedRMSD -1
REMARK  1 active torsions:
REMARK  status: ('A' for Active; 'I' for Inactive)
REMARK    1  A    between atoms: C1_2  and  C2_3 
ROOT
ATOM      1  C2  UNL d   1       0.361  -0.614   0.050  0.00  0.00    -0.081 A 
ATOM      2  C3  UNL d   1       1.301  -0.694   1.085  0.00  0.00     0.006 A 
ATOM      3  C4  UNL d   1       1.038  -0.111   2.327  0.00  0.00     0.002 A 
ATOM      4  C5  UNL d   1      -0.171   0.554   2.557  0.00  0.00    -0.080 A 
ATOM      5  C6  UNL d   1      -0.479   1.157   3.895  0.00  0.00     0.076 C 
ATOM      6  C7  UNL d   1      -1.103   0.648   1.518  0.00  0.00     0.002 A 
ATOM      7  C8  UNL d   1      -0.840   0.066   0.276  0.00  0.00     0.006 A 
ENDROOT
BRANCH   1   8
ATOM      8  C1  UNL d   1       0.615  -1.298  -1.269  0.00  0.00     0.054 C 
ATOM      9  C   UNL d   1      -0.218  -0.677  -2.382  0.00  0.00     0.018 C 
ENDBRANCH   1   8
TORSDOF 1
ENDMDL
