MODEL 1
REMARK minimizedAffinity -5.71683979
REMARK minimizedRMSD -1
REMARK  1 active torsions:
REMARK  status: ('A' for Active; 'I' for Inactive)
REMARK    1  A    between atoms: C1_2  and  C2_3 
ROOT
ATOM      1  C2  UNL d   1      -0.113   0.086  -4.480  0.00  0.00    -0.081 A 
ATOM      2  C3  UNL d   1      -0.221  -1.217  -3.978  0.00  0.00     0.006 A 
ATOM      3  C4  UNL d   1      -1.209  -2.081  -4.456  0.00  0.00     0.002 A 
ATOM      4  C5  UNL d   1      -2.100  -1.660  -5.449  0.00  0.00    -0.080 A 
ATOM      5  C6  UNL d   1      -3.146  -2.587  -5.993  0.00  0.00     0.076 C 
ATOM      6  C7  UNL d   1      -2.004  -0.353  -5.938  0.00  0.00     0.002 A 
ATOM      7  C8  UNL d   1      -1.016   0.512  -5.460  0.00  0.00     0.006 A 
ENDROOT
BRANCH   1   8
ATOM      8  C1  UNL d   1       0.992   0.998  -4.013  0.00  0.00     0.054 C 
ATOM      9  C   UNL d   1       2.072   0.224  -3.270  0.00  0.00     0.018 C 
ENDBRANCH   1   8
TORSDOF 1
ENDMDL
