MODEL 1
REMARK minimizedAffinity -2.02103209
REMARK minimizedRMSD -1
REMARK  1 active torsions:
REMARK  status: ('A' for Active; 'I' for Inactive)
REMARK    1  A    between atoms: C1_2  and  C2_3 
ROOT
ATOM      1  C2  UNL d   1       0.305  -0.544  -2.225  0.00  0.00    -0.081 A 
ATOM      2  C3  UNL d   1       1.341  -1.334  -1.711  0.00  0.00     0.006 A 
ATOM      3  C4  UNL d   1       1.631  -1.320  -0.345  0.00  0.00     0.002 A 
ATOM      4  C5  UNL d   1       0.887  -0.523   0.531  0.00  0.00    -0.080 A 
ATOM      5  C6  UNL d   1       1.169  -0.522   2.004  0.00  0.00     0.076 C 
ATOM      6  C7  UNL d   1      -0.136   0.280   0.016  0.00  0.00     0.002 A 
ATOM      7  C8  UNL d   1      -0.427   0.267  -1.350  0.00  0.00     0.006 A 
ENDROOT
BRANCH   1   8
ATOM      8  C1  UNL d   1      -0.053  -0.605  -3.688  0.00  0.00     0.054 C 
ATOM      9  C   UNL d   1      -0.758   0.666  -4.139  0.00  0.00     0.018 C 
ENDBRANCH   1   8
TORSDOF 1
ENDMDL
