MODEL 1
REMARK minimizedAffinity -1.20070422
REMARK minimizedRMSD -1
REMARK  1 active torsions:
REMARK  status: ('A' for Active; 'I' for Inactive)
REMARK    1  A    between atoms: C1_2  and  C2_3 
ROOT
ATOM      1  C2  UNL d   1      -0.826   0.344   2.069  0.00  0.00    -0.081 A 
ATOM      2  C3  UNL d   1      -1.632  -0.393   1.192  0.00  0.00     0.006 A 
ATOM      3  C4  UNL d   1      -1.229  -0.610  -0.127  0.00  0.00     0.002 A 
ATOM      4  C5  UNL d   1      -0.011  -0.101  -0.590  0.00  0.00    -0.080 A 
ATOM      5  C6  UNL d   1       0.448  -0.353  -1.995  0.00  0.00     0.076 C 
ATOM      6  C7  UNL d   1       0.786   0.650   0.281  0.00  0.00     0.002 A 
ATOM      7  C8  UNL d   1       0.383   0.867   1.600  0.00  0.00     0.006 A 
ENDROOT
BRANCH   1   8
ATOM      8  C1  UNL d   1      -1.228   0.524   3.510  0.00  0.00     0.054 C 
ATOM      9  C   UNL d   1      -1.498  -0.815   4.182  0.00  0.00     0.018 C 
ENDBRANCH   1   8
TORSDOF 1
ENDMDL
