MODEL 1
REMARK minimizedAffinity 4.8017478
REMARK minimizedRMSD -1
REMARK  0 active torsions:
REMARK  status: ('A' for Active; 'I' for Inactive)
ROOT
ATOM      1  C2' OXE d   1       0.351   5.337  -2.898  0.00  0.00     0.078 C 
ATOM      2  C1' OXE d   1      -0.918   2.840  -3.071  0.00  0.00     0.078 C 
ATOM      3  C1  OXE d   1       0.317   2.943  -2.212  0.00  0.00    -0.078 A 
ATOM      4  C2  OXE d   1       0.959   4.157  -2.171  0.00  0.00    -0.078 A 
ATOM      5  C3  OXE d   1       2.072   4.322  -1.351  0.00  0.00     0.003 A 
ATOM      6  C4  OXE d   1       2.633   3.223  -0.690  0.00  0.00    -0.002 A 
ATOM      7  C5  OXE d   1       2.019   1.968  -0.750  0.00  0.00    -0.002 A 
ATOM      8  C6  OXE d   1       0.839   1.821  -1.471  0.00  0.00     0.003 A 
ENDROOT
TORSDOF 0
ENDMDL
