MODEL 1
REMARK minimizedAffinity 10.4680815
REMARK minimizedRMSD -1
REMARK  0 active torsions:
REMARK  status: ('A' for Active; 'I' for Inactive)
ROOT
ATOM      1  C2' OXE d   1      -2.211   2.704  -2.525  0.00  0.00     0.078 C 
ATOM      2  C1' OXE d   1      -0.573   0.681  -3.576  0.00  0.00     0.078 C 
ATOM      3  C1  OXE d   1      -0.301   2.101  -4.007  0.00  0.00    -0.078 A 
ATOM      4  C2  OXE d   1      -1.137   3.079  -3.524  0.00  0.00    -0.078 A 
ATOM      5  C3  OXE d   1      -0.897   4.412  -3.846  0.00  0.00     0.003 A 
ATOM      6  C4  OXE d   1       0.092   4.749  -4.778  0.00  0.00    -0.002 A 
ATOM      7  C5  OXE d   1       0.929   3.764  -5.313  0.00  0.00    -0.002 A 
ATOM      8  C6  OXE d   1       0.774   2.443  -4.905  0.00  0.00     0.003 A 
ENDROOT
TORSDOF 0
ENDMDL
