MODEL 1
REMARK minimizedAffinity 9.25345707
REMARK minimizedRMSD -1
REMARK  0 active torsions:
REMARK  status: ('A' for Active; 'I' for Inactive)
ROOT
ATOM      1  C2' OXE d   1      -0.645   4.330  -2.289  0.00  0.00     0.078 C 
ATOM      2  C1' OXE d   1       0.847   2.757  -0.506  0.00  0.00     0.078 C 
ATOM      3  C1  OXE d   1      -0.656   2.662  -0.439  0.00  0.00    -0.078 A 
ATOM      4  C2  OXE d   1      -1.379   3.470  -1.283  0.00  0.00    -0.078 A 
ATOM      5  C3  OXE d   1      -2.768   3.381  -1.300  0.00  0.00     0.003 A 
ATOM      6  C4  OXE d   1      -3.440   2.591  -0.360  0.00  0.00    -0.002 A 
ATOM      7  C5  OXE d   1      -2.723   1.790   0.536  0.00  0.00    -0.002 A 
ATOM      8  C6  OXE d   1      -1.334   1.781   0.481  0.00  0.00     0.003 A 
ENDROOT
TORSDOF 0
ENDMDL
