MODEL 1
REMARK minimizedAffinity 0.924128652
REMARK minimizedRMSD -1
REMARK  0 active torsions:
REMARK  status: ('A' for Active; 'I' for Inactive)
ROOT
ATOM      1  C2' OXE d   1       3.301   1.850  -1.347  0.00  0.00     0.078 C 
ATOM      2  C1' OXE d   1       0.958   3.381  -1.127  0.00  0.00     0.078 C 
ATOM      3  C1  OXE d   1       0.923   1.964  -0.612  0.00  0.00    -0.078 A 
ATOM      4  C2  OXE d   1       2.060   1.207  -0.766  0.00  0.00    -0.078 A 
ATOM      5  C3  OXE d   1       2.099  -0.089  -0.259  0.00  0.00     0.003 A 
ATOM      6  C4  OXE d   1       0.944  -0.679   0.268  0.00  0.00    -0.002 A 
ATOM      7  C5  OXE d   1      -0.236   0.061   0.397  0.00  0.00    -0.002 A 
ATOM      8  C6  OXE d   1      -0.250   1.394   0.002  0.00  0.00     0.003 A 
ENDROOT
TORSDOF 0
ENDMDL
