MODEL 1
REMARK minimizedAffinity 3.27104998
REMARK minimizedRMSD -1
REMARK  0 active torsions:
REMARK  status: ('A' for Active; 'I' for Inactive)
ROOT
ATOM      1  C2' OXE d   1       2.974   1.529  -0.856  0.00  0.00     0.078 C 
ATOM      2  C1' OXE d   1       0.517   2.885  -0.794  0.00  0.00     0.078 C 
ATOM      3  C1  OXE d   1       0.569   1.496  -0.208  0.00  0.00    -0.078 A 
ATOM      4  C2  OXE d   1       1.764   0.822  -0.284  0.00  0.00    -0.078 A 
ATOM      5  C3  OXE d   1       1.881  -0.440   0.290  0.00  0.00     0.003 A 
ATOM      6  C4  OXE d   1       0.755  -1.091   0.808  0.00  0.00    -0.002 A 
ATOM      7  C5  OXE d   1      -0.481  -0.437   0.860  0.00  0.00    -0.002 A 
ATOM      8  C6  OXE d   1      -0.581   0.870   0.396  0.00  0.00     0.003 A 
ENDROOT
TORSDOF 0
ENDMDL
