MODEL 1
REMARK minimizedAffinity 5.38718605
REMARK minimizedRMSD -1
REMARK  0 active torsions:
REMARK  status: ('A' for Active; 'I' for Inactive)
ROOT
ATOM      1  C2' OXE d   1       2.261  -3.154  -4.851  0.00  0.00     0.078 C 
ATOM      2  C1' OXE d   1       2.207  -5.938  -4.490  0.00  0.00     0.078 C 
ATOM      3  C1  OXE d   1       3.555  -5.267  -4.587  0.00  0.00    -0.078 A 
ATOM      4  C2  OXE d   1       3.571  -3.911  -4.811  0.00  0.00    -0.078 A 
ATOM      5  C3  OXE d   1       4.787  -3.235  -4.854  0.00  0.00     0.003 A 
ATOM      6  C4  OXE d   1       5.994  -3.944  -4.825  0.00  0.00    -0.002 A 
ATOM      7  C5  OXE d   1       5.999  -5.330  -4.638  0.00  0.00    -0.002 A 
ATOM      8  C6  OXE d   1       4.791  -6.000  -4.475  0.00  0.00     0.003 A 
ENDROOT
TORSDOF 0
ENDMDL
