MODEL 1
REMARK minimizedAffinity 11.4981966
REMARK minimizedRMSD -1
REMARK  0 active torsions:
REMARK  status: ('A' for Active; 'I' for Inactive)
ROOT
ATOM      1  C2' OXE d   1       4.746  -0.296  -2.602  0.00  0.00     0.078 C 
ATOM      2  C1' OXE d   1       4.799   2.491  -2.935  0.00  0.00     0.078 C 
ATOM      3  C1  OXE d   1       3.742   1.911  -2.029  0.00  0.00    -0.078 A 
ATOM      4  C2  OXE d   1       3.694   0.542  -1.909  0.00  0.00    -0.078 A 
ATOM      5  C3  OXE d   1       2.774  -0.042  -1.043  0.00  0.00     0.003 A 
ATOM      6  C4  OXE d   1       1.798   0.740  -0.413  0.00  0.00    -0.002 A 
ATOM      7  C5  OXE d   1       1.804   2.132  -0.553  0.00  0.00    -0.002 A 
ATOM      8  C6  OXE d   1       2.794   2.735  -1.322  0.00  0.00     0.003 A 
ENDROOT
TORSDOF 0
ENDMDL
