MODEL 1
REMARK minimizedAffinity 13.6725807
REMARK minimizedRMSD -1
REMARK  0 active torsions:
REMARK  status: ('A' for Active; 'I' for Inactive)
ROOT
ATOM      1  C2' OXE d   1      -4.753  -3.287  -0.318  0.00  0.00     0.078 C 
ATOM      2  C1' OXE d   1      -5.242  -6.000  -0.847  0.00  0.00     0.078 C 
ATOM      3  C1  OXE d   1      -4.172  -5.308  -1.653  0.00  0.00    -0.078 A 
ATOM      4  C2  OXE d   1      -3.971  -3.969  -1.420  0.00  0.00    -0.078 A 
ATOM      5  C3  OXE d   1      -2.959  -3.295  -2.097  0.00  0.00     0.003 A 
ATOM      6  C4  OXE d   1      -2.247  -3.930  -3.122  0.00  0.00    -0.002 A 
ATOM      7  C5  OXE d   1      -2.463  -5.284  -3.402  0.00  0.00    -0.002 A 
ATOM      8  C6  OXE d   1      -3.390  -5.996  -2.650  0.00  0.00     0.003 A 
ENDROOT
TORSDOF 0
ENDMDL
