MODEL 1
REMARK minimizedAffinity 7.30829954
REMARK minimizedRMSD -1
REMARK  0 active torsions:
REMARK  status: ('A' for Active; 'I' for Inactive)
ROOT
ATOM      1  C2' OXE d   1       4.724   2.021  -1.508  0.00  0.00     0.078 C 
ATOM      2  C1' OXE d   1       4.872   4.028   0.449  0.00  0.00     0.078 C 
ATOM      3  C1  OXE d   1       3.506   3.635  -0.054  0.00  0.00    -0.078 A 
ATOM      4  C2  OXE d   1       3.446   2.685  -1.045  0.00  0.00    -0.078 A 
ATOM      5  C3  OXE d   1       2.207   2.247  -1.506  0.00  0.00     0.003 A 
ATOM      6  C4  OXE d   1       1.030   2.874  -1.080  0.00  0.00    -0.002 A 
ATOM      7  C5  OXE d   1       1.072   3.872  -0.100  0.00  0.00    -0.002 A 
ATOM      8  C6  OXE d   1       2.295   4.233   0.453  0.00  0.00     0.003 A 
ENDROOT
TORSDOF 0
ENDMDL
