MODEL 1
REMARK minimizedAffinity 11.6688862
REMARK minimizedRMSD -1
REMARK  0 active torsions:
REMARK  status: ('A' for Active; 'I' for Inactive)
ROOT
ATOM      1  C2' OXE d   1      -2.626   3.049  -1.455  0.00  0.00     0.078 C 
ATOM      2  C1' OXE d   1      -3.323   2.460  -4.110  0.00  0.00     0.078 C 
ATOM      3  C1  OXE d   1      -1.995   3.133  -3.863  0.00  0.00    -0.078 A 
ATOM      4  C2  OXE d   1      -1.683   3.459  -2.566  0.00  0.00    -0.078 A 
ATOM      5  C3  OXE d   1      -0.448   4.031  -2.277  0.00  0.00     0.003 A 
ATOM      6  C4  OXE d   1       0.414   4.417  -3.311  0.00  0.00    -0.002 A 
ATOM      7  C5  OXE d   1       0.098   4.130  -4.643  0.00  0.00    -0.002 A 
ATOM      8  C6  OXE d   1      -1.081   3.451  -4.932  0.00  0.00     0.003 A 
ENDROOT
TORSDOF 0
ENDMDL
