MODEL 1
REMARK minimizedAffinity 3.94124746
REMARK minimizedRMSD -1
REMARK  0 active torsions:
REMARK  status: ('A' for Active; 'I' for Inactive)
ROOT
ATOM      1  C2' OXE d   1      -5.990  -5.993  -0.060  0.00  0.00     0.078 C 
ATOM      2  C1' OXE d   1      -4.408  -3.686   0.170  0.00  0.00     0.078 C 
ATOM      3  C1  OXE d   1      -4.586  -4.283  -1.204  0.00  0.00    -0.078 A 
ATOM      4  C2  OXE d   1      -5.323  -5.438  -1.300  0.00  0.00    -0.078 A 
ATOM      5  C3  OXE d   1      -5.564  -6.000  -2.551  0.00  0.00     0.003 A 
ATOM      6  C4  OXE d   1      -4.935  -5.486  -3.692  0.00  0.00    -0.002 A 
ATOM      7  C5  OXE d   1      -4.147  -4.333  -3.609  0.00  0.00    -0.002 A 
ATOM      8  C6  OXE d   1      -3.998  -3.696  -2.383  0.00  0.00     0.003 A 
ENDROOT
TORSDOF 0
ENDMDL
