MODEL 1
REMARK minimizedAffinity 3.0899415
REMARK minimizedRMSD -1
REMARK  0 active torsions:
REMARK  status: ('A' for Active; 'I' for Inactive)
ROOT
ATOM      1  C2' OXE d   1      -5.992  -5.969  -0.273  0.00  0.00     0.078 C 
ATOM      2  C1' OXE d   1      -4.416  -3.653  -0.455  0.00  0.00     0.078 C 
ATOM      3  C1  OXE d   1      -4.618  -4.261   0.911  0.00  0.00    -0.078 A 
ATOM      4  C2  OXE d   1      -5.429  -5.367   0.996  0.00  0.00    -0.078 A 
ATOM      5  C3  OXE d   1      -5.606  -5.999   2.224  0.00  0.00     0.003 A 
ATOM      6  C4  OXE d   1      -5.090  -5.430   3.395  0.00  0.00    -0.002 A 
ATOM      7  C5  OXE d   1      -4.294  -4.281   3.335  0.00  0.00    -0.002 A 
ATOM      8  C6  OXE d   1      -4.014  -3.710   2.098  0.00  0.00     0.003 A 
ENDROOT
TORSDOF 0
ENDMDL
