MODEL 1
REMARK minimizedAffinity -2.24522996
REMARK minimizedRMSD -1
REMARK  0 active torsions:
REMARK  status: ('A' for Active; 'I' for Inactive)
ROOT
ATOM      1  C2' OXE d   1      -1.699  -2.268   0.327  0.00  0.00     0.078 C 
ATOM      2  C1' OXE d   1      -0.733   0.368   0.313  0.00  0.00     0.078 C 
ATOM      3  C1  OXE d   1       0.277  -0.752   0.278  0.00  0.00    -0.078 A 
ATOM      4  C2  OXE d   1      -0.203  -2.039   0.333  0.00  0.00    -0.078 A 
ATOM      5  C3  OXE d   1       0.683  -3.109   0.249  0.00  0.00     0.003 A 
ATOM      6  C4  OXE d   1       2.065  -2.888   0.264  0.00  0.00    -0.002 A 
ATOM      7  C5  OXE d   1       2.576  -1.586   0.249  0.00  0.00    -0.002 A 
ATOM      8  C6  OXE d   1       1.697  -0.509   0.213  0.00  0.00     0.003 A 
ENDROOT
TORSDOF 0
ENDMDL
