MODEL 1
REMARK minimizedAffinity -0.294754565
REMARK minimizedRMSD -1
REMARK  0 active torsions:
REMARK  status: ('A' for Active; 'I' for Inactive)
ROOT
ATOM      1  C2' OXE d   1       1.404   3.623  -1.124  0.00  0.00     0.078 C 
ATOM      2  C1' OXE d   1       3.166   1.440  -1.025  0.00  0.00     0.078 C 
ATOM      3  C1  OXE d   1       1.759   1.231  -0.525  0.00  0.00    -0.078 A 
ATOM      4  C2  OXE d   1       0.917   2.318  -0.534  0.00  0.00    -0.078 A 
ATOM      5  C3  OXE d   1      -0.408   2.166  -0.134  0.00  0.00     0.003 A 
ATOM      6  C4  OXE d   1      -0.848   0.958   0.419  0.00  0.00    -0.002 A 
ATOM      7  C5  OXE d   1       0.005  -0.150   0.474  0.00  0.00    -0.002 A 
ATOM      8  C6  OXE d   1       1.295  -0.042  -0.032  0.00  0.00     0.003 A 
ENDROOT
TORSDOF 0
ENDMDL
