MODEL 1
REMARK minimizedAffinity 1.48016572
REMARK minimizedRMSD -1
REMARK  0 active torsions:
REMARK  status: ('A' for Active; 'I' for Inactive)
ROOT
ATOM      1  C2' OXE d   1      -0.980   0.593   0.235  0.00  0.00     0.078 C 
ATOM      2  C1' OXE d   1       1.145  -1.235   0.384  0.00  0.00     0.078 C 
ATOM      3  C1  OXE d   1       1.454   0.167  -0.077  0.00  0.00    -0.078 A 
ATOM      4  C2  OXE d   1       0.400   1.042  -0.192  0.00  0.00    -0.078 A 
ATOM      5  C3  OXE d   1       0.638   2.363  -0.560  0.00  0.00     0.003 A 
ATOM      6  C4  OXE d   1       1.917   2.767  -0.963  0.00  0.00    -0.002 A 
ATOM      7  C5  OXE d   1       2.997   1.881  -0.892  0.00  0.00    -0.002 A 
ATOM      8  C6  OXE d   1       2.791   0.592  -0.412  0.00  0.00     0.003 A 
ENDROOT
TORSDOF 0
ENDMDL
