MODEL 1
REMARK minimizedAffinity -3.56852937
REMARK minimizedRMSD -1
REMARK  0 active torsions:
REMARK  status: ('A' for Active; 'I' for Inactive)
ROOT
ATOM      1  C2' OXE d   1      -2.608  -3.062   0.200  0.00  0.00     0.078 C 
ATOM      2  C1' OXE d   1      -2.106  -3.036   2.962  0.00  0.00     0.078 C 
ATOM      3  C1  OXE d   1      -1.164  -2.269   2.068  0.00  0.00    -0.078 A 
ATOM      4  C2  OXE d   1      -1.390  -2.325   0.714  0.00  0.00    -0.078 A 
ATOM      5  C3  OXE d   1      -0.584  -1.591  -0.151  0.00  0.00     0.003 A 
ATOM      6  C4  OXE d   1       0.547  -0.921   0.332  0.00  0.00    -0.002 A 
ATOM      7  C5  OXE d   1       0.818  -0.883   1.704  0.00  0.00    -0.002 A 
ATOM      8  C6  OXE d   1      -0.050  -1.515   2.588  0.00  0.00     0.003 A 
ENDROOT
TORSDOF 0
ENDMDL
