MODEL 1
REMARK minimizedAffinity 12.4386244
REMARK minimizedRMSD -1
REMARK  0 active torsions:
REMARK  status: ('A' for Active; 'I' for Inactive)
ROOT
ATOM      1  C2' OXE d   1       2.004   1.149  -0.490  0.00  0.00     0.078 C 
ATOM      2  C1' OXE d   1       1.004  -0.428   1.606  0.00  0.00     0.078 C 
ATOM      3  C1  OXE d   1       2.461  -0.041   1.651  0.00  0.00    -0.078 A 
ATOM      4  C2  OXE d   1       2.953   0.692   0.598  0.00  0.00    -0.078 A 
ATOM      5  C3  OXE d   1       4.277   1.122   0.616  0.00  0.00     0.003 A 
ATOM      6  C4  OXE d   1       5.150   0.687   1.620  0.00  0.00    -0.002 A 
ATOM      7  C5  OXE d   1       4.678  -0.093   2.682  0.00  0.00    -0.002 A 
ATOM      8  C6  OXE d   1       3.330  -0.429   2.735  0.00  0.00     0.003 A 
ENDROOT
TORSDOF 0
ENDMDL
