MODEL 1
REMARK minimizedAffinity 0.634055316
REMARK minimizedRMSD -1
REMARK  0 active torsions:
REMARK  status: ('A' for Active; 'I' for Inactive)
ROOT
ATOM      1  C2' OXE d   1      -0.926   1.355  -0.335  0.00  0.00     0.078 C 
ATOM      2  C1' OXE d   1       0.344  -0.052  -2.406  0.00  0.00     0.078 C 
ATOM      3  C1  OXE d   1       0.308  -0.691  -1.040  0.00  0.00    -0.078 A 
ATOM      4  C2  OXE d   1      -0.274   0.025  -0.022  0.00  0.00    -0.078 A 
ATOM      5  C3  OXE d   1      -0.383  -0.541   1.245  0.00  0.00     0.003 A 
ATOM      6  C4  OXE d   1       0.231  -1.767   1.528  0.00  0.00    -0.002 A 
ATOM      7  C5  OXE d   1       0.864  -2.495   0.515  0.00  0.00    -0.002 A 
ATOM      8  C6  OXE d   1       0.874  -1.992  -0.781  0.00  0.00     0.003 A 
ENDROOT
TORSDOF 0
ENDMDL
