MODEL 1
REMARK minimizedAffinity -1.49326968
REMARK minimizedRMSD -1
REMARK  2 active torsions:
REMARK  status: ('A' for Active; 'I' for Inactive)
REMARK    1  A    between atoms: C2'_3  and  C1'_4 
REMARK    2  A    between atoms: C1'_4  and  C1_5 
ROOT
ATOM      1  C1  I4B d   1       0.016   0.001   0.021  0.00  0.00    -0.075 A 
ATOM      2  C2  I4B d   1       0.725   1.172   0.120  0.00  0.00     0.003 A 
ATOM      3  C3  I4B d   1       2.101   1.147   0.456  0.00  0.00     0.002 A 
ATOM      4  C4  I4B d   1       2.710  -0.060   0.732  0.00  0.00    -0.004 A 
ATOM      5  C5  I4B d   1       1.996  -1.248   0.609  0.00  0.00     0.002 A 
ATOM      6  C6  I4B d   1       0.643  -1.219   0.239  0.00  0.00     0.003 A 
ENDROOT
BRANCH   1   7
ATOM      7  C1' I4B d   1      -1.442   0.067  -0.303  0.00  0.00     0.060 C 
BRANCH   7   8
ATOM      8  C2' I4B d   1      -1.581   0.541  -1.736  0.00  0.00    -0.013 C 
ATOM      9  C4' I4B d   1      -1.688  -0.623  -2.687  0.00  0.00     0.013 C 
ATOM     10  C3' I4B d   1      -2.793   1.420  -1.818  0.00  0.00     0.013 C 
ENDBRANCH   7   8
ENDBRANCH   1   7
TORSDOF 2
ENDMDL
