MODEL 1
REMARK minimizedAffinity -5.84804106
REMARK minimizedRMSD -1
REMARK  2 active torsions:
REMARK  status: ('A' for Active; 'I' for Inactive)
REMARK    1  A    between atoms: C2'_3  and  C1'_4 
REMARK    2  A    between atoms: C1'_4  and  C1_5 
ROOT
ATOM      1  C1  I4B d   1      -0.377   0.243  -0.086  0.00  0.00    -0.075 A 
ATOM      2  C2  I4B d   1       0.276  -0.805   0.514  0.00  0.00     0.003 A 
ATOM      3  C3  I4B d   1       1.658  -0.709   0.808  0.00  0.00     0.002 A 
ATOM      4  C4  I4B d   1       2.353   0.426   0.443  0.00  0.00    -0.004 A 
ATOM      5  C5  I4B d   1       1.684   1.496  -0.143  0.00  0.00     0.002 A 
ATOM      6  C6  I4B d   1       0.308   1.409  -0.398  0.00  0.00     0.003 A 
ENDROOT
BRANCH   1   7
ATOM      7  C1' I4B d   1      -1.829   0.094  -0.413  0.00  0.00     0.060 C 
BRANCH   7   8
ATOM      8  C2' I4B d   1      -1.974   0.129  -1.920  0.00  0.00    -0.013 C 
ATOM      9  C4' I4B d   1      -1.941  -1.259  -2.503  0.00  0.00     0.013 C 
ATOM     10  C3' I4B d   1      -3.264   0.822  -2.246  0.00  0.00     0.013 C 
ENDBRANCH   7   8
ENDBRANCH   1   7
TORSDOF 2
ENDMDL
