MODEL 1
REMARK minimizedAffinity -5.04112482
REMARK minimizedRMSD -1
REMARK  2 active torsions:
REMARK  status: ('A' for Active; 'I' for Inactive)
REMARK    1  A    between atoms: C2'_3  and  C1'_4 
REMARK    2  A    between atoms: C1'_4  and  C1_5 
ROOT
ATOM      1  C1  I4B d   1      -0.031  -0.106  -0.210  0.00  0.00    -0.075 A 
ATOM      2  C2  I4B d   1       0.709   0.947  -0.686  0.00  0.00     0.003 A 
ATOM      3  C3  I4B d   1       2.111   0.980  -0.489  0.00  0.00     0.002 A 
ATOM      4  C4  I4B d   1       2.720  -0.030   0.228  0.00  0.00    -0.004 A 
ATOM      5  C5  I4B d   1       1.971  -1.108   0.690  0.00  0.00     0.002 A 
ATOM      6  C6  I4B d   1       0.589  -1.153   0.460  0.00  0.00     0.003 A 
ENDROOT
BRANCH   1   7
ATOM      7  C1' I4B d   1      -1.514  -0.092  -0.407  0.00  0.00     0.060 C 
BRANCH   7   8
ATOM      8  C2' I4B d   1      -1.789   0.230  -1.861  0.00  0.00    -0.013 C 
ATOM      9  C4' I4B d   1      -2.138  -1.012  -2.638  0.00  0.00     0.013 C 
ATOM     10  C3' I4B d   1      -2.904   1.231  -1.911  0.00  0.00     0.013 C 
ENDBRANCH   7   8
ENDBRANCH   1   7
TORSDOF 2
ENDMDL
