MODEL 1
REMARK minimizedAffinity -4.64844704
REMARK minimizedRMSD -1
REMARK  2 active torsions:
REMARK  status: ('A' for Active; 'I' for Inactive)
REMARK    1  A    between atoms: C2'_3  and  C1'_4 
REMARK    2  A    between atoms: C1'_4  and  C1_5 
ROOT
ATOM      1  C1  I4B d   1       0.177  -0.014   0.096  0.00  0.00    -0.075 A 
ATOM      2  C2  I4B d   1       0.951   1.113  -0.028  0.00  0.00     0.003 A 
ATOM      3  C3  I4B d   1       2.331   1.069   0.286  0.00  0.00     0.002 A 
ATOM      4  C4  I4B d   1       2.881  -0.102   0.766  0.00  0.00    -0.004 A 
ATOM      5  C5  I4B d   1       2.101  -1.250   0.870  0.00  0.00     0.002 A 
ATOM      6  C6  I4B d   1       0.743  -1.210   0.521  0.00  0.00     0.003 A 
ENDROOT
BRANCH   1   7
ATOM      7  C1' I4B d   1      -1.283   0.076  -0.213  0.00  0.00     0.060 C 
BRANCH   7   8
ATOM      8  C2' I4B d   1      -1.430   0.357  -1.695  0.00  0.00    -0.013 C 
ATOM      9  C4' I4B d   1      -1.378  -0.915  -2.499  0.00  0.00     0.013 C 
ATOM     10  C3' I4B d   1      -2.729   1.077  -1.903  0.00  0.00     0.013 C 
ENDBRANCH   7   8
ENDBRANCH   1   7
TORSDOF 2
ENDMDL
