MODEL 1
REMARK minimizedAffinity 5.62186909
REMARK minimizedRMSD -1
REMARK  2 active torsions:
REMARK  status: ('A' for Active; 'I' for Inactive)
REMARK    1  A    between atoms: C2'_3  and  C1'_4 
REMARK    2  A    between atoms: C1'_4  and  C1_5 
ROOT
ATOM      1  C1  I4B d   1       1.857  -0.205  -0.329  0.00  0.00    -0.075 A 
ATOM      2  C2  I4B d   1       2.045   0.496  -1.494  0.00  0.00     0.003 A 
ATOM      3  C3  I4B d   1       2.960   0.028  -2.467  0.00  0.00     0.002 A 
ATOM      4  C4  I4B d   1       3.698  -1.110  -2.215  0.00  0.00    -0.004 A 
ATOM      5  C5  I4B d   1       3.489  -1.833  -1.044  0.00  0.00     0.002 A 
ATOM      6  C6  I4B d   1       2.553  -1.384  -0.100  0.00  0.00     0.003 A 
ENDROOT
BRANCH   1   7
ATOM      7  C1' I4B d   1       0.906   0.336   0.692  0.00  0.00     0.060 C 
BRANCH   7   8
ATOM      8  C2' I4B d   1       0.973   1.848   0.637  0.00  0.00    -0.013 C 
ATOM      9  C4' I4B d   1      -0.397   2.459   0.771  0.00  0.00     0.013 C 
ATOM     10  C3' I4B d   1       1.883   2.312   1.735  0.00  0.00     0.013 C 
ENDBRANCH   7   8
ENDBRANCH   1   7
TORSDOF 2
ENDMDL
