MODEL 1
REMARK minimizedAffinity 0.793103337
REMARK minimizedRMSD -1
REMARK  2 active torsions:
REMARK  status: ('A' for Active; 'I' for Inactive)
REMARK    1  A    between atoms: C2'_3  and  C1'_4 
REMARK    2  A    between atoms: C1'_4  and  C1_5 
ROOT
ATOM      1  C1  I4B d   1      -0.720   2.770  -4.964  0.00  0.00    -0.075 A 
ATOM      2  C2  I4B d   1      -1.262   3.489  -6.000  0.00  0.00     0.003 A 
ATOM      3  C3  I4B d   1      -1.538   4.869  -5.842  0.00  0.00     0.002 A 
ATOM      4  C4  I4B d   1      -1.306   5.473  -4.623  0.00  0.00    -0.004 A 
ATOM      5  C5  I4B d   1      -0.734   4.748  -3.582  0.00  0.00     0.002 A 
ATOM      6  C6  I4B d   1      -0.428   3.391  -3.757  0.00  0.00     0.003 A 
ENDROOT
BRANCH   1   7
ATOM      7  C1' I4B d   1      -0.471   1.307  -5.155  0.00  0.00     0.060 C 
BRANCH   7   8
ATOM      8  C2' I4B d   1       0.978   1.031  -4.807  0.00  0.00    -0.013 C 
ATOM      9  C4' I4B d   1       1.185  -0.417  -4.446  0.00  0.00     0.013 C 
ATOM     10  C3' I4B d   1       1.819   1.422  -5.985  0.00  0.00     0.013 C 
ENDBRANCH   7   8
ENDBRANCH   1   7
TORSDOF 2
ENDMDL
