MODEL 1
REMARK minimizedAffinity 7.11594009
REMARK minimizedRMSD -1
REMARK  2 active torsions:
REMARK  status: ('A' for Active; 'I' for Inactive)
REMARK    1  A    between atoms: C2'_3  and  C1'_4 
REMARK    2  A    between atoms: C1'_4  and  C1_5 
ROOT
ATOM      1  C1  I4B d   1      -0.656   2.414   1.195  0.00  0.00    -0.075 A 
ATOM      2  C2  I4B d   1      -1.540   2.670   2.214  0.00  0.00     0.003 A 
ATOM      3  C3  I4B d   1      -1.155   3.490   3.302  0.00  0.00     0.002 A 
ATOM      4  C4  I4B d   1       0.131   3.988   3.357  0.00  0.00    -0.004 A 
ATOM      5  C5  I4B d   1       1.018   3.745   2.312  0.00  0.00     0.002 A 
ATOM      6  C6  I4B d   1       0.619   2.964   1.218  0.00  0.00     0.003 A 
ENDROOT
BRANCH   1   7
ATOM      7  C1' I4B d   1      -1.085   1.517   0.078  0.00  0.00     0.060 C 
BRANCH   7   8
ATOM      8  C2' I4B d   1      -1.451   0.172   0.672  0.00  0.00    -0.013 C 
ATOM      9  C4' I4B d   1      -2.654  -0.419  -0.015  0.00  0.00     0.013 C 
ATOM     10  C3' I4B d   1      -0.259  -0.729   0.547  0.00  0.00     0.013 C 
ENDBRANCH   7   8
ENDBRANCH   1   7
TORSDOF 2
ENDMDL
