MODEL 1
REMARK minimizedAffinity -4.89374018
REMARK minimizedRMSD -1
REMARK  2 active torsions:
REMARK  status: ('A' for Active; 'I' for Inactive)
REMARK    1  A    between atoms: C2'_3  and  C1'_4 
REMARK    2  A    between atoms: C1'_4  and  C1_5 
ROOT
ATOM      1  C1  I4B d   1       0.666  -0.300   0.076  0.00  0.00    -0.075 A 
ATOM      2  C2  I4B d   1       0.515  -1.578  -0.403  0.00  0.00     0.003 A 
ATOM      3  C3  I4B d   1       1.359  -2.057  -1.434  0.00  0.00     0.002 A 
ATOM      4  C4  I4B d   1       2.301  -1.214  -1.988  0.00  0.00    -0.004 A 
ATOM      5  C5  I4B d   1       2.468   0.073  -1.486  0.00  0.00     0.002 A 
ATOM      6  C6  I4B d   1       1.654   0.529  -0.439  0.00  0.00     0.003 A 
ENDROOT
BRANCH   1   7
ATOM      7  C1' I4B d   1      -0.264   0.184   1.142  0.00  0.00     0.060 C 
BRANCH   7   8
ATOM      8  C2' I4B d   1      -1.095   1.310   0.561  0.00  0.00    -0.013 C 
ATOM      9  C4' I4B d   1      -2.552   0.934   0.495  0.00  0.00     0.013 C 
ATOM     10  C3' I4B d   1      -0.888   2.526   1.413  0.00  0.00     0.013 C 
ENDBRANCH   7   8
ENDBRANCH   1   7
TORSDOF 2
ENDMDL
