MODEL 1
REMARK minimizedAffinity 3.01664686
REMARK minimizedRMSD -1
REMARK  2 active torsions:
REMARK  status: ('A' for Active; 'I' for Inactive)
REMARK    1  A    between atoms: C2'_3  and  C1'_4 
REMARK    2  A    between atoms: C1'_4  and  C1_5 
ROOT
ATOM      1  C1  I4B d   1       0.271   0.765  -0.959  0.00  0.00    -0.075 A 
ATOM      2  C2  I4B d   1      -0.460   1.528  -1.835  0.00  0.00     0.003 A 
ATOM      3  C3  I4B d   1       0.140   2.031  -3.015  0.00  0.00     0.002 A 
ATOM      4  C4  I4B d   1       1.478   1.790  -3.253  0.00  0.00    -0.004 A 
ATOM      5  C5  I4B d   1       2.211   0.997  -2.375  0.00  0.00     0.002 A 
ATOM      6  C6  I4B d   1       1.602   0.470  -1.227  0.00  0.00     0.003 A 
ENDROOT
BRANCH   1   7
ATOM      7  C1' I4B d   1      -0.385   0.277   0.294  0.00  0.00     0.060 C 
BRANCH   7   8
ATOM      8  C2' I4B d   1      -1.596   1.149   0.556  0.00  0.00    -0.013 C 
ATOM      9  C4' I4B d   1      -2.587   0.452   1.450  0.00  0.00     0.013 C 
ATOM     10  C3' I4B d   1      -1.120   2.431   1.172  0.00  0.00     0.013 C 
ENDBRANCH   7   8
ENDBRANCH   1   7
TORSDOF 2
ENDMDL
