MODEL 1
REMARK minimizedAffinity 2.39524865
REMARK minimizedRMSD -1
REMARK  2 active torsions:
REMARK  status: ('A' for Active; 'I' for Inactive)
REMARK    1  A    between atoms: C2'_3  and  C1'_4 
REMARK    2  A    between atoms: C1'_4  and  C1_5 
ROOT
ATOM      1  C1  I4B d   1      -0.774   1.533   0.935  0.00  0.00    -0.075 A 
ATOM      2  C2  I4B d   1       0.352   0.803   0.648  0.00  0.00     0.003 A 
ATOM      3  C3  I4B d   1       0.286  -0.610   0.573  0.00  0.00     0.002 A 
ATOM      4  C4  I4B d   1      -0.907  -1.250   0.839  0.00  0.00    -0.004 A 
ATOM      5  C5  I4B d   1      -2.053  -0.507   1.107  0.00  0.00     0.002 A 
ATOM      6  C6  I4B d   1      -1.990   0.894   1.143  0.00  0.00     0.003 A 
ENDROOT
BRANCH   1   7
ATOM      7  C1' I4B d   1      -0.662   3.021   1.039  0.00  0.00     0.060 C 
BRANCH   7   8
ATOM      8  C2' I4B d   1       0.029   3.346   2.348  0.00  0.00    -0.013 C 
ATOM      9  C4' I4B d   1      -0.869   3.065   3.524  0.00  0.00     0.013 C 
ATOM     10  C3' I4B d   1       1.287   2.534   2.421  0.00  0.00     0.013 C 
ENDBRANCH   7   8
ENDBRANCH   1   7
TORSDOF 2
ENDMDL
