MODEL 1
REMARK minimizedAffinity 2.29415894
REMARK minimizedRMSD -1
REMARK  2 active torsions:
REMARK  status: ('A' for Active; 'I' for Inactive)
REMARK    1  A    between atoms: C2'_3  and  C1'_4 
REMARK    2  A    between atoms: C1'_4  and  C1_5 
ROOT
ATOM      1  C1  I4B d   1      -1.886  -1.270   0.160  0.00  0.00    -0.075 A 
ATOM      2  C2  I4B d   1      -1.373  -0.546   1.208  0.00  0.00     0.003 A 
ATOM      3  C3  I4B d   1      -1.846   0.763   1.469  0.00  0.00     0.002 A 
ATOM      4  C4  I4B d   1      -2.789   1.325   0.633  0.00  0.00    -0.004 A 
ATOM      5  C5  I4B d   1      -3.324   0.581  -0.415  0.00  0.00     0.002 A 
ATOM      6  C6  I4B d   1      -2.879  -0.729  -0.646  0.00  0.00     0.003 A 
ENDROOT
BRANCH   1   7
ATOM      7  C1' I4B d   1      -1.341  -2.637  -0.107  0.00  0.00     0.060 C 
BRANCH   7   8
ATOM      8  C2' I4B d   1      -1.916  -3.120  -1.422  0.00  0.00    -0.013 C 
ATOM      9  C4' I4B d   1      -0.831  -3.607  -2.346  0.00  0.00     0.013 C 
ATOM     10  C3' I4B d   1      -2.902  -4.210  -1.124  0.00  0.00     0.013 C 
ENDBRANCH   7   8
ENDBRANCH   1   7
TORSDOF 2
ENDMDL
