MODEL 1
REMARK minimizedAffinity 0.6764943
REMARK minimizedRMSD -1
REMARK  2 active torsions:
REMARK  status: ('A' for Active; 'I' for Inactive)
REMARK    1  A    between atoms: C2'_3  and  C1'_4 
REMARK    2  A    between atoms: C1'_4  and  C1_5 
ROOT
ATOM      1  C1  I4B d   1       1.043  -0.103   0.513  0.00  0.00    -0.075 A 
ATOM      2  C2  I4B d   1       0.927   1.263   0.452  0.00  0.00     0.003 A 
ATOM      3  C3  I4B d   1      -0.285   1.893   0.829  0.00  0.00     0.002 A 
ATOM      4  C4  I4B d   1      -1.363   1.119   1.209  0.00  0.00    -0.004 A 
ATOM      5  C5  I4B d   1      -1.235  -0.264   1.292  0.00  0.00     0.002 A 
ATOM      6  C6  I4B d   1      -0.021  -0.879   0.953  0.00  0.00     0.003 A 
ENDROOT
BRANCH   1   7
ATOM      7  C1' I4B d   1       2.326  -0.736   0.076  0.00  0.00     0.060 C 
BRANCH   7   8
ATOM      8  C2' I4B d   1       2.490  -0.483  -1.409  0.00  0.00    -0.013 C 
ATOM      9  C4' I4B d   1       3.916  -0.140  -1.750  0.00  0.00     0.013 C 
ATOM     10  C3' I4B d   1       2.039  -1.713  -2.141  0.00  0.00     0.013 C 
ENDBRANCH   7   8
ENDBRANCH   1   7
TORSDOF 2
ENDMDL
