MODEL 1
REMARK minimizedAffinity 0.784835279
REMARK minimizedRMSD -1
REMARK  2 active torsions:
REMARK  status: ('A' for Active; 'I' for Inactive)
REMARK    1  A    between atoms: C2'_3  and  C1'_4 
REMARK    2  A    between atoms: C1'_4  and  C1_5 
ROOT
ATOM      1  C1  I4B d   1       2.221   2.477  -5.259  0.00  0.00    -0.075 A 
ATOM      2  C2  I4B d   1       2.975   3.358  -5.995  0.00  0.00     0.003 A 
ATOM      3  C3  I4B d   1       4.163   3.905  -5.454  0.00  0.00     0.002 A 
ATOM      4  C4  I4B d   1       4.531   3.586  -4.162  0.00  0.00    -0.004 A 
ATOM      5  C5  I4B d   1       3.779   2.676  -3.426  0.00  0.00     0.002 A 
ATOM      6  C6  I4B d   1       2.623   2.108  -3.982  0.00  0.00     0.003 A 
ENDROOT
BRANCH   1   7
ATOM      7  C1' I4B d   1       0.955   1.944  -5.850  0.00  0.00     0.060 C 
BRANCH   7   8
ATOM      8  C2' I4B d   1      -0.151   2.937  -5.556  0.00  0.00    -0.013 C 
ATOM      9  C4' I4B d   1      -1.490   2.407  -5.998  0.00  0.00     0.013 C 
ATOM     10  C3' I4B d   1      -0.140   3.220  -4.084  0.00  0.00     0.013 C 
ENDBRANCH   7   8
ENDBRANCH   1   7
TORSDOF 2
ENDMDL
