MODEL 1
REMARK minimizedAffinity 0.418983459
REMARK minimizedRMSD -1
REMARK  2 active torsions:
REMARK  status: ('A' for Active; 'I' for Inactive)
REMARK    1  A    between atoms: C2'_3  and  C1'_4 
REMARK    2  A    between atoms: C1'_4  and  C1_5 
ROOT
ATOM      1  C1  I4B d   1       0.017   0.542   0.574  0.00  0.00    -0.075 A 
ATOM      2  C2  I4B d   1      -0.438   1.829   0.717  0.00  0.00     0.003 A 
ATOM      3  C3  I4B d   1      -1.828   2.089   0.798  0.00  0.00     0.002 A 
ATOM      4  C4  I4B d   1      -2.722   1.045   0.681  0.00  0.00    -0.004 A 
ATOM      5  C5  I4B d   1      -2.259  -0.262   0.559  0.00  0.00     0.002 A 
ATOM      6  C6  I4B d   1      -0.880  -0.517   0.517  0.00  0.00     0.003 A 
ENDROOT
BRANCH   1   7
ATOM      7  C1' I4B d   1       1.490   0.307   0.459  0.00  0.00     0.060 C 
BRANCH   7   8
ATOM      8  C2' I4B d   1       1.728  -0.580  -0.747  0.00  0.00    -0.013 C 
ATOM      9  C4' I4B d   1       2.235   0.218  -1.919  0.00  0.00     0.013 C 
ATOM     10  C3' I4B d   1       2.708  -1.645  -0.352  0.00  0.00     0.013 C 
ENDBRANCH   7   8
ENDBRANCH   1   7
TORSDOF 2
ENDMDL
