MODEL 1
REMARK minimizedAffinity 4.56705666
REMARK minimizedRMSD -1
REMARK  2 active torsions:
REMARK  status: ('A' for Active; 'I' for Inactive)
REMARK    1  A    between atoms: C2'_3  and  C1'_4 
REMARK    2  A    between atoms: C1'_4  and  C1_5 
ROOT
ATOM      1  C1  I4B d   1       0.240   2.112   1.715  0.00  0.00    -0.075 A 
ATOM      2  C2  I4B d   1       0.978   2.856   2.601  0.00  0.00     0.003 A 
ATOM      3  C3  I4B d   1       2.360   2.599   2.771  0.00  0.00     0.002 A 
ATOM      4  C4  I4B d   1       2.949   1.562   2.076  0.00  0.00    -0.004 A 
ATOM      5  C5  I4B d   1       2.204   0.823   1.161  0.00  0.00     0.002 A 
ATOM      6  C6  I4B d   1       0.844   1.107   0.970  0.00  0.00     0.003 A 
ENDROOT
BRANCH   1   7
ATOM      7  C1' I4B d   1      -1.224   2.389   1.585  0.00  0.00     0.060 C 
BRANCH   7   8
ATOM      8  C2' I4B d   1      -1.843   1.262   0.783  0.00  0.00    -0.013 C 
ATOM      9  C4' I4B d   1      -2.081   0.048   1.642  0.00  0.00     0.013 C 
ATOM     10  C3' I4B d   1      -3.124   1.766   0.189  0.00  0.00     0.013 C 
ENDBRANCH   7   8
ENDBRANCH   1   7
TORSDOF 2
ENDMDL
