MODEL 1
REMARK minimizedAffinity 2.32419205
REMARK minimizedRMSD -1
REMARK  2 active torsions:
REMARK  status: ('A' for Active; 'I' for Inactive)
REMARK    1  A    between atoms: C2'_3  and  C1'_4 
REMARK    2  A    between atoms: C1'_4  and  C1_5 
ROOT
ATOM      1  C1  I4B d   1      -0.306   0.351   0.882  0.00  0.00    -0.075 A 
ATOM      2  C2  I4B d   1      -0.151   1.709   1.002  0.00  0.00     0.003 A 
ATOM      3  C3  I4B d   1      -1.243   2.519   1.396  0.00  0.00     0.002 A 
ATOM      4  C4  I4B d   1      -2.477   1.939   1.609  0.00  0.00    -0.004 A 
ATOM      5  C5  I4B d   1      -2.627   0.559   1.509  0.00  0.00     0.002 A 
ATOM      6  C6  I4B d   1      -1.531  -0.242   1.155  0.00  0.00     0.003 A 
ENDROOT
BRANCH   1   7
ATOM      7  C1' I4B d   1       0.861  -0.470   0.432  0.00  0.00     0.060 C 
BRANCH   7   8
ATOM      8  C2' I4B d   1       1.883   0.466  -0.180  0.00  0.00    -0.013 C 
ATOM      9  C4' I4B d   1       3.076   0.636   0.722  0.00  0.00     0.013 C 
ATOM     10  C3' I4B d   1       2.286  -0.095  -1.511  0.00  0.00     0.013 C 
ENDBRANCH   7   8
ENDBRANCH   1   7
TORSDOF 2
ENDMDL
