MODEL 1
REMARK minimizedAffinity 2.60195541
REMARK minimizedRMSD -1
REMARK  0 active torsions:
REMARK  status: ('A' for Active; 'I' for Inactive)
ROOT
ATOM      1  C   UNL d   1       3.752  -5.247  -3.728  0.00  0.00     0.078 C 
ATOM      2  C1  UNL d   1       2.999  -5.264  -2.431  0.00  0.00    -0.077 A 
ATOM      3  C2  UNL d   1       1.816  -6.000  -2.294  0.00  0.00    -0.001 A 
ATOM      4  C3  UNL d   1       1.120  -5.998  -1.084  0.00  0.00     0.003 A 
ATOM      5  C4  UNL d   1       1.598  -5.262  -0.003  0.00  0.00    -0.005 A 
ATOM      6  C5  UNL d   1       2.774  -4.524  -0.130  0.00  0.00     0.003 A 
ATOM      7  C6  UNL d   1       3.471  -4.524  -1.339  0.00  0.00    -0.001 A 
ENDROOT
TORSDOF 0
ENDMDL
