MODEL 1
REMARK minimizedAffinity 7.41980839
REMARK minimizedRMSD -1
REMARK  0 active torsions:
REMARK  status: ('A' for Active; 'I' for Inactive)
ROOT
ATOM      1  C   UNL d   1       1.578  -5.975  -0.282  0.00  0.00     0.078 C 
ATOM      2  C1  UNL d   1       1.714  -5.976  -1.775  0.00  0.00    -0.077 A 
ATOM      3  C2  UNL d   1       0.584  -5.985  -2.603  0.00  0.00    -0.001 A 
ATOM      4  C3  UNL d   1       0.726  -5.996  -3.991  0.00  0.00     0.003 A 
ATOM      5  C4  UNL d   1       1.996  -5.998  -4.565  0.00  0.00    -0.005 A 
ATOM      6  C5  UNL d   1       3.126  -5.991  -3.750  0.00  0.00     0.003 A 
ATOM      7  C6  UNL d   1       2.986  -5.981  -2.361  0.00  0.00    -0.001 A 
ENDROOT
TORSDOF 0
ENDMDL
