MODEL 1
REMARK minimizedAffinity 6.71498442
REMARK minimizedRMSD -1
REMARK  0 active torsions:
REMARK  status: ('A' for Active; 'I' for Inactive)
ROOT
ATOM      1  C   UNL d   1      -0.903   2.290   2.126  0.00  0.00     0.078 C 
ATOM      2  C1  UNL d   1      -0.495   3.356   1.153  0.00  0.00    -0.077 A 
ATOM      3  C2  UNL d   1       0.632   3.195   0.337  0.00  0.00    -0.001 A 
ATOM      4  C3  UNL d   1       1.006   4.199  -0.557  0.00  0.00     0.003 A 
ATOM      5  C4  UNL d   1       0.258   5.372  -0.644  0.00  0.00    -0.005 A 
ATOM      6  C5  UNL d   1      -0.863   5.542   0.165  0.00  0.00     0.003 A 
ATOM      7  C6  UNL d   1      -1.238   4.539   1.060  0.00  0.00    -0.001 A 
ENDROOT
TORSDOF 0
ENDMDL
