MODEL 1
REMARK minimizedAffinity 10.3996868
REMARK minimizedRMSD -1
REMARK  0 active torsions:
REMARK  status: ('A' for Active; 'I' for Inactive)
ROOT
ATOM      1  C   UNL d   1      -3.654  -0.051   2.189  0.00  0.00     0.078 C 
ATOM      2  C1  UNL d   1      -4.456  -0.547   3.355  0.00  0.00    -0.077 A 
ATOM      3  C2  UNL d   1      -4.444  -1.900   3.715  0.00  0.00    -0.001 A 
ATOM      4  C3  UNL d   1      -5.203  -2.349   4.797  0.00  0.00     0.003 A 
ATOM      5  C4  UNL d   1      -5.979  -1.452   5.527  0.00  0.00    -0.005 A 
ATOM      6  C5  UNL d   1      -5.999  -0.104   5.175  0.00  0.00     0.003 A 
ATOM      7  C6  UNL d   1      -5.241   0.347   4.094  0.00  0.00    -0.001 A 
ENDROOT
TORSDOF 0
ENDMDL
