MODEL 1
REMARK minimizedAffinity 8.92957687
REMARK minimizedRMSD -1
REMARK  0 active torsions:
REMARK  status: ('A' for Active; 'I' for Inactive)
ROOT
ATOM      1  C   UNL d   1       0.391   2.642   1.466  0.00  0.00     0.078 C 
ATOM      2  C1  UNL d   1       0.038   3.819   0.607  0.00  0.00    -0.077 A 
ATOM      3  C2  UNL d   1      -0.692   4.896   1.124  0.00  0.00    -0.001 A 
ATOM      4  C3  UNL d   1      -1.022   5.980   0.310  0.00  0.00     0.003 A 
ATOM      5  C4  UNL d   1      -0.628   5.998  -1.027  0.00  0.00    -0.005 A 
ATOM      6  C5  UNL d   1       0.097   4.929  -1.551  0.00  0.00     0.003 A 
ATOM      7  C6  UNL d   1       0.428   3.844  -0.738  0.00  0.00    -0.001 A 
ENDROOT
TORSDOF 0
ENDMDL
