MODEL 1
REMARK minimizedAffinity 5.72008705
REMARK minimizedRMSD -1
REMARK  0 active torsions:
REMARK  status: ('A' for Active; 'I' for Inactive)
ROOT
ATOM      1  C   UNL d   1      -0.048   4.002   0.300  0.00  0.00     0.078 C 
ATOM      2  C1  UNL d   1      -0.022   3.097   1.495  0.00  0.00    -0.077 A 
ATOM      3  C2  UNL d   1       1.183   2.786   2.138  0.00  0.00    -0.001 A 
ATOM      4  C3  UNL d   1       1.193   1.934   3.244  0.00  0.00     0.003 A 
ATOM      5  C4  UNL d   1       0.003   1.386   3.716  0.00  0.00    -0.005 A 
ATOM      6  C5  UNL d   1      -1.201   1.688   3.082  0.00  0.00     0.003 A 
ATOM      7  C6  UNL d   1      -1.213   2.540   1.976  0.00  0.00    -0.001 A 
ENDROOT
TORSDOF 0
ENDMDL
