MODEL 1
REMARK minimizedAffinity -4.17776155
REMARK minimizedRMSD -1
REMARK  0 active torsions:
REMARK  status: ('A' for Active; 'I' for Inactive)
ROOT
ATOM      1  C1  DEN d   1      -0.313  -1.352  -1.233  0.00  0.00     0.130 A 
ATOM      2  C2  DEN d   1      -1.193  -0.190  -1.142  0.00  0.00    -0.031 A 
ATOM      3  C3  DEN d   1      -0.642   0.720  -0.117  0.00  0.00     0.027 A 
ATOM      4  C4  DEN d   1       1.479   0.447   1.324  0.00  0.00     0.027 A 
ATOM      5  C5  DEN d   1       2.543  -0.380   1.610  0.00  0.00    -0.003 A 
ATOM      6  C6  DEN d   1       2.710  -1.594   0.998  0.00  0.00     0.001 A 
ATOM      7  C7  DEN d   1       1.823  -1.996   0.035  0.00  0.00     0.017 A 
ATOM      8  C8  DEN d   1       0.743  -1.171  -0.254  0.00  0.00    -0.094 A 
ATOM      9  C9  DEN d   1       0.599   0.058   0.367  0.00  0.00    -0.072 A 
ENDROOT
TORSDOF 0
ENDMDL
