MODEL 1
REMARK minimizedAffinity -5.11088657
REMARK minimizedRMSD -1
REMARK  0 active torsions:
REMARK  status: ('A' for Active; 'I' for Inactive)
ROOT
ATOM      1  C1  DEN d   1       1.445   1.623   0.565  0.00  0.00     0.130 A 
ATOM      2  C2  DEN d   1       0.201   2.144   0.005  0.00  0.00    -0.031 A 
ATOM      3  C3  DEN d   1      -0.570   1.004  -0.531  0.00  0.00     0.027 A 
ATOM      4  C4  DEN d   1       0.035  -1.503  -0.543  0.00  0.00     0.027 A 
ATOM      5  C5  DEN d   1       0.993  -2.428  -0.192  0.00  0.00    -0.003 A 
ATOM      6  C6  DEN d   1       2.174  -2.067   0.400  0.00  0.00     0.001 A 
ATOM      7  C7  DEN d   1       2.409  -0.751   0.701  0.00  0.00     0.017 A 
ATOM      8  C8  DEN d   1       1.450   0.188   0.343  0.00  0.00    -0.094 A 
ATOM      9  C9  DEN d   1       0.258  -0.198  -0.244  0.00  0.00    -0.072 A 
ENDROOT
TORSDOF 0
ENDMDL
