MODEL 1
REMARK minimizedAffinity -3.99342346
REMARK minimizedRMSD -1
REMARK  0 active torsions:
REMARK  status: ('A' for Active; 'I' for Inactive)
ROOT
ATOM      1  C1  DEN d   1      -0.044   2.193  -0.364  0.00  0.00     0.130 A 
ATOM      2  C2  DEN d   1       1.209   2.714   0.176  0.00  0.00    -0.031 A 
ATOM      3  C3  DEN d   1       2.045   1.566   0.578  0.00  0.00     0.027 A 
ATOM      4  C4  DEN d   1       1.526  -0.955   0.416  0.00  0.00     0.027 A 
ATOM      5  C5  DEN d   1       0.583  -1.885   0.038  0.00  0.00    -0.003 A 
ATOM      6  C6  DEN d   1      -0.638  -1.523  -0.465  0.00  0.00     0.001 A 
ATOM      7  C7  DEN d   1      -0.932  -0.198  -0.645  0.00  0.00     0.017 A 
ATOM      8  C8  DEN d   1       0.010   0.746  -0.259  0.00  0.00    -0.094 A 
ATOM      9  C9  DEN d   1       1.244   0.360   0.235  0.00  0.00    -0.072 A 
ENDROOT
TORSDOF 0
ENDMDL
