MODEL 1
REMARK minimizedAffinity -4.23683786
REMARK minimizedRMSD -1
REMARK  0 active torsions:
REMARK  status: ('A' for Active; 'I' for Inactive)
ROOT
ATOM      1  C1  DEN d   1       1.104   2.211  -0.375  0.00  0.00     0.130 A 
ATOM      2  C2  DEN d   1       2.474   2.700  -0.251  0.00  0.00    -0.031 A 
ATOM      3  C3  DEN d   1       3.378   1.533  -0.255  0.00  0.00     0.027 A 
ATOM      4  C4  DEN d   1       2.792  -0.972  -0.446  0.00  0.00     0.027 A 
ATOM      5  C5  DEN d   1       1.761  -1.878  -0.560  0.00  0.00    -0.003 A 
ATOM      6  C6  DEN d   1       0.448  -1.490  -0.586  0.00  0.00     0.001 A 
ATOM      7  C7  DEN d   1       0.132  -0.158  -0.542  0.00  0.00     0.017 A 
ATOM      8  C8  DEN d   1       1.166   0.761  -0.420  0.00  0.00    -0.094 A 
ATOM      9  C9  DEN d   1       2.488   0.350  -0.408  0.00  0.00    -0.072 A 
ENDROOT
TORSDOF 0
ENDMDL
