MODEL 1
REMARK minimizedAffinity -6.47350693
REMARK minimizedRMSD -1
REMARK  0 active torsions:
REMARK  status: ('A' for Active; 'I' for Inactive)
ROOT
ATOM      1  C1  DEN d   1       2.158  -1.048  -0.683  0.00  0.00     0.130 A 
ATOM      2  C2  DEN d   1       3.384  -0.255  -0.646  0.00  0.00    -0.031 A 
ATOM      3  C3  DEN d   1       3.006   1.172  -0.661  0.00  0.00     0.027 A 
ATOM      4  C4  DEN d   1       0.654   2.227  -0.733  0.00  0.00     0.027 A 
ATOM      5  C5  DEN d   1      -0.696   1.957  -0.787  0.00  0.00    -0.003 A 
ATOM      6  C6  DEN d   1      -1.184   0.679  -0.844  0.00  0.00     0.001 A 
ATOM      7  C7  DEN d   1      -0.317  -0.381  -0.803  0.00  0.00     0.017 A 
ATOM      8  C8  DEN d   1       1.046  -0.117  -0.756  0.00  0.00    -0.094 A 
ATOM      9  C9  DEN d   1       1.519   1.182  -0.687  0.00  0.00    -0.072 A 
ENDROOT
TORSDOF 0
ENDMDL
