MODEL 1
REMARK minimizedAffinity 0.216789261
REMARK minimizedRMSD -1
REMARK  1 active torsions:
REMARK  status: ('A' for Active; 'I' for Inactive)
REMARK    1  A    between atoms: N_2  and  C1_3 
ROOT
ATOM      1  C1  UNL d   1      -0.279  -0.366  -0.156  0.00  0.00     0.143 A 
ATOM      2  C2  UNL d   1      -0.744  -0.800   1.090  0.00  0.00    -0.057 A 
ATOM      3  C3  UNL d   1      -1.174  -2.118   1.286  0.00  0.00     0.033 A 
ATOM      4  C4  UNL d   1      -1.175  -3.020   0.227  0.00  0.00    -0.042 A 
ATOM      5  C5  UNL d   1      -0.741  -2.603  -1.027  0.00  0.00     0.033 A 
ATOM      6  C6  UNL d   1      -0.306  -1.288  -1.214  0.00  0.00    -0.057 A 
ENDROOT
BRANCH   1   7
ATOM      7  N   UNL d   1       0.069   0.957  -0.439  0.00  0.00    -0.732 N 
ATOM      8  C   UNL d   1       1.241   1.556   0.164  0.00  0.00     0.284 C 
ATOM      9  H3  UNL d   1      -0.060   1.192  -1.420  0.00  0.00     0.395 HD
ENDBRANCH   1   7
TORSDOF 1
ENDMDL
