MODEL 1
REMARK minimizedAffinity -2.55198646
REMARK minimizedRMSD -1
REMARK  1 active torsions:
REMARK  status: ('A' for Active; 'I' for Inactive)
REMARK    1  A    between atoms: N_2  and  C1_3 
ROOT
ATOM      1  C1  UNL d   1       0.993   1.451   0.124  0.00  0.00     0.143 A 
ATOM      2  C2  UNL d   1       2.375   1.550  -0.069  0.00  0.00    -0.057 A 
ATOM      3  C3  UNL d   1       3.096   2.656   0.399  0.00  0.00     0.033 A 
ATOM      4  C4  UNL d   1       2.440   3.699   1.044  0.00  0.00    -0.042 A 
ATOM      5  C5  UNL d   1       1.063   3.633   1.225  0.00  0.00     0.033 A 
ATOM      6  C6  UNL d   1       0.350   2.523   0.761  0.00  0.00    -0.057 A 
ENDROOT
BRANCH   1   7
ATOM      7  N   UNL d   1       0.206   0.424  -0.404  0.00  0.00    -0.732 N 
ATOM      8  C   UNL d   1      -0.991  -0.013   0.281  0.00  0.00     0.284 C 
ATOM      9  H3  UNL d   1       0.106   0.492  -1.414  0.00  0.00     0.395 HD
ENDBRANCH   1   7
TORSDOF 1
ENDMDL
