MODEL 1
REMARK minimizedAffinity 1.90861452
REMARK minimizedRMSD -1
REMARK  1 active torsions:
REMARK  status: ('A' for Active; 'I' for Inactive)
REMARK    1  A    between atoms: N_2  and  C1_3 
ROOT
ATOM      1  C1  UNL d   1      -0.250   0.157  -1.081  0.00  0.00     0.143 A 
ATOM      2  C2  UNL d   1      -1.237  -0.513  -0.350  0.00  0.00    -0.057 A 
ATOM      3  C3  UNL d   1      -1.346  -0.357   1.037  0.00  0.00     0.033 A 
ATOM      4  C4  UNL d   1      -0.448   0.454   1.724  0.00  0.00    -0.042 A 
ATOM      5  C5  UNL d   1       0.556   1.111   1.022  0.00  0.00     0.033 A 
ATOM      6  C6  UNL d   1       0.656   0.955  -0.364  0.00  0.00    -0.057 A 
ENDROOT
BRANCH   1   7
ATOM      7  N   UNL d   1      -0.029  -0.034  -2.447  0.00  0.00    -0.732 N 
ATOM      8  C   UNL d   1       1.301  -0.310  -2.946  0.00  0.00     0.284 C 
ATOM      9  H3  UNL d   1      -0.761  -0.588  -2.885  0.00  0.00     0.395 HD
ENDBRANCH   1   7
TORSDOF 1
ENDMDL
