MODEL 1
REMARK minimizedAffinity 4.52191448
REMARK minimizedRMSD -1
REMARK  1 active torsions:
REMARK  status: ('A' for Active; 'I' for Inactive)
REMARK    1  A    between atoms: N_2  and  C1_3 
ROOT
ATOM      1  C1  UNL d   1       1.628   2.252   0.927  0.00  0.00     0.143 A 
ATOM      2  C2  UNL d   1       2.368   1.493   0.013  0.00  0.00    -0.057 A 
ATOM      3  C3  UNL d   1       1.816   0.368  -0.612  0.00  0.00     0.033 A 
ATOM      4  C4  UNL d   1       0.520  -0.037  -0.310  0.00  0.00    -0.042 A 
ATOM      5  C5  UNL d   1      -0.225   0.687   0.614  0.00  0.00     0.033 A 
ATOM      6  C6  UNL d   1       0.329   1.814   1.229  0.00  0.00    -0.057 A 
ENDROOT
BRANCH   1   7
ATOM      7  N   UNL d   1       2.153   3.322   1.654  0.00  0.00    -0.732 N 
ATOM      8  C   UNL d   1       1.345   4.015   2.634  0.00  0.00     0.284 C 
ATOM      9  H3  UNL d   1       3.113   3.158   1.949  0.00  0.00     0.395 HD
ENDBRANCH   1   7
TORSDOF 1
ENDMDL
