MODEL 1
REMARK minimizedAffinity -5.08381414
REMARK minimizedRMSD -1
REMARK  1 active torsions:
REMARK  status: ('A' for Active; 'I' for Inactive)
REMARK    1  A    between atoms: N_2  and  C1_3 
ROOT
ATOM      1  C1  UNL d   1      -0.250  -0.312  -0.016  0.00  0.00     0.143 A 
ATOM      2  C2  UNL d   1      -0.028  -1.108  -1.145  0.00  0.00    -0.057 A 
ATOM      3  C3  UNL d   1       0.076  -2.500  -1.043  0.00  0.00     0.033 A 
ATOM      4  C4  UNL d   1      -0.012  -3.121   0.199  0.00  0.00    -0.042 A 
ATOM      5  C5  UNL d   1      -0.207  -2.348   1.338  0.00  0.00     0.033 A 
ATOM      6  C6  UNL d   1      -0.317  -0.959   1.229  0.00  0.00    -0.057 A 
ENDROOT
BRANCH   1   7
ATOM      7  N   UNL d   1      -0.265   1.084  -0.039  0.00  0.00    -0.732 N 
ATOM      8  C   UNL d   1       0.758   1.844   0.648  0.00  0.00     0.284 C 
ATOM      9  H3  UNL d   1      -0.514   1.455  -0.953  0.00  0.00     0.395 HD
ENDBRANCH   1   7
TORSDOF 1
ENDMDL
