MODEL 1
REMARK minimizedAffinity -3.67268348
REMARK minimizedRMSD -1
REMARK  1 active torsions:
REMARK  status: ('A' for Active; 'I' for Inactive)
REMARK    1  A    between atoms: N_2  and  C1_3 
ROOT
ATOM      1  C1  UNL d   1       1.827   1.927   0.120  0.00  0.00     0.143 A 
ATOM      2  C2  UNL d   1       0.480   1.599   0.303  0.00  0.00    -0.057 A 
ATOM      3  C3  UNL d   1      -0.108   0.534  -0.390  0.00  0.00     0.033 A 
ATOM      4  C4  UNL d   1       0.636  -0.205  -1.303  0.00  0.00    -0.042 A 
ATOM      5  C5  UNL d   1       1.970   0.120  -1.520  0.00  0.00     0.033 A 
ATOM      6  C6  UNL d   1       2.554   1.180  -0.820  0.00  0.00    -0.057 A 
ENDROOT
BRANCH   1   7
ATOM      7  N   UNL d   1       2.444   3.036   0.706  0.00  0.00    -0.732 N 
ATOM      8  C   UNL d   1       1.708   3.902   1.601  0.00  0.00     0.284 C 
ATOM      9  H3  UNL d   1       3.395   2.836   1.009  0.00  0.00     0.395 HD
ENDBRANCH   1   7
TORSDOF 1
ENDMDL
