MODEL 1
REMARK minimizedAffinity 6.15637493
REMARK minimizedRMSD -1
REMARK  1 active torsions:
REMARK  status: ('A' for Active; 'I' for Inactive)
REMARK    1  A    between atoms: N_2  and  C1_3 
ROOT
ATOM      1  C1  UNL d   1       0.417   1.413   0.957  0.00  0.00     0.143 A 
ATOM      2  C2  UNL d   1      -0.635   0.939   0.166  0.00  0.00    -0.057 A 
ATOM      3  C3  UNL d   1      -1.511  -0.047   0.637  0.00  0.00     0.033 A 
ATOM      4  C4  UNL d   1      -1.331  -0.598   1.902  0.00  0.00    -0.042 A 
ATOM      5  C5  UNL d   1      -0.277  -0.160   2.695  0.00  0.00     0.033 A 
ATOM      6  C6  UNL d   1       0.590   0.829   2.221  0.00  0.00    -0.057 A 
ENDROOT
BRANCH   1   7
ATOM      7  N   UNL d   1       1.380   2.320   0.507  0.00  0.00    -0.732 N 
ATOM      8  C   UNL d   1       1.533   3.609   1.147  0.00  0.00     0.284 C 
ATOM      9  H3  UNL d   1       2.259   1.867   0.269  0.00  0.00     0.395 HD
ENDBRANCH   1   7
TORSDOF 1
ENDMDL
