MODEL 1
REMARK minimizedAffinity 0.440140516
REMARK minimizedRMSD -1
REMARK  1 active torsions:
REMARK  status: ('A' for Active; 'I' for Inactive)
REMARK    1  A    between atoms: N_2  and  C1_3 
ROOT
ATOM      1  C1  UNL d   1      -0.762  -1.335   0.548  0.00  0.00     0.143 A 
ATOM      2  C2  UNL d   1      -0.986  -0.249   1.400  0.00  0.00    -0.057 A 
ATOM      3  C3  UNL d   1      -0.520   1.032   1.081  0.00  0.00     0.033 A 
ATOM      4  C4  UNL d   1       0.205   1.245  -0.087  0.00  0.00    -0.042 A 
ATOM      5  C5  UNL d   1       0.460   0.175  -0.937  0.00  0.00     0.033 A 
ATOM      6  C6  UNL d   1      -0.013  -1.101  -0.616  0.00  0.00    -0.057 A 
ENDROOT
BRANCH   1   7
ATOM      7  N   UNL d   1      -1.114  -2.652   0.856  0.00  0.00    -0.732 N 
ATOM      8  C   UNL d   1      -1.111  -3.675  -0.168  0.00  0.00     0.284 C 
ATOM      9  H3  UNL d   1      -0.733  -2.956   1.749  0.00  0.00     0.395 HD
ENDBRANCH   1   7
TORSDOF 1
ENDMDL
