MODEL 1
REMARK minimizedAffinity -4.25527334
REMARK minimizedRMSD -1
REMARK  1 active torsions:
REMARK  status: ('A' for Active; 'I' for Inactive)
REMARK    1  A    between atoms: N_2  and  C1_3 
ROOT
ATOM      1  C1  UNL d   1      -0.113  -0.389  -0.878  0.00  0.00     0.143 A 
ATOM      2  C2  UNL d   1      -0.533  -1.085   0.261  0.00  0.00    -0.057 A 
ATOM      3  C3  UNL d   1      -0.618  -2.483   0.267  0.00  0.00     0.033 A 
ATOM      4  C4  UNL d   1      -0.310  -3.209  -0.878  0.00  0.00    -0.042 A 
ATOM      5  C5  UNL d   1       0.085  -2.537  -2.029  0.00  0.00     0.033 A 
ATOM      6  C6  UNL d   1       0.174  -1.142  -2.027  0.00  0.00    -0.057 A 
ENDROOT
BRANCH   1   7
ATOM      7  N   UNL d   1      -0.103   1.004  -0.978  0.00  0.00    -0.732 N 
ATOM      8  C   UNL d   1       0.697   1.802  -0.074  0.00  0.00     0.284 C 
ATOM      9  H3  UNL d   1      -0.082   1.324  -1.944  0.00  0.00     0.395 HD
ENDBRANCH   1   7
TORSDOF 1
ENDMDL
