MODEL 1
REMARK minimizedAffinity -2.13529348
REMARK minimizedRMSD -1
REMARK  0 active torsions:
REMARK  status: ('A' for Active; 'I' for Inactive)
ROOT
ATOM      1  C4' PXY d   1       3.665  -1.723  -0.618  0.00  0.00     0.077 C 
ATOM      2  C1' PXY d   1      -1.672  -3.670  -1.689  0.00  0.00     0.077 C 
ATOM      3  C1  PXY d   1      -0.269  -3.171  -1.402  0.00  0.00    -0.082 A 
ATOM      4  C2  PXY d   1      -0.038  -1.869  -1.343  0.00  0.00     0.003 A 
ATOM      5  C3  PXY d   1       1.231  -1.400  -1.116  0.00  0.00     0.003 A 
ATOM      6  C4  PXY d   1       2.263  -2.272  -0.895  0.00  0.00    -0.082 A 
ATOM      7  C5  PXY d   1       2.033  -3.601  -0.943  0.00  0.00     0.003 A 
ATOM      8  C6  PXY d   1       0.746  -4.057  -1.216  0.00  0.00     0.003 A 
ENDROOT
TORSDOF 0
ENDMDL
