MODEL 1
REMARK minimizedAffinity -3.94249916
REMARK minimizedRMSD -1
REMARK  0 active torsions:
REMARK  status: ('A' for Active; 'I' for Inactive)
ROOT
ATOM      1  C4' PXY d   1       1.842  -0.508   2.663  0.00  0.00     0.077 C 
ATOM      2  C1' PXY d   1      -2.048   2.300  -0.563  0.00  0.00     0.077 C 
ATOM      3  C1  PXY d   1      -1.024   1.575   0.288  0.00  0.00    -0.082 A 
ATOM      4  C2  PXY d   1      -0.618   0.366  -0.065  0.00  0.00     0.003 A 
ATOM      5  C3  PXY d   1       0.284  -0.317   0.710  0.00  0.00     0.003 A 
ATOM      6  C4  PXY d   1       0.816   0.265   1.829  0.00  0.00    -0.082 A 
ATOM      7  C5  PXY d   1       0.415   1.502   2.190  0.00  0.00     0.003 A 
ATOM      8  C6  PXY d   1      -0.532   2.162   1.412  0.00  0.00     0.003 A 
ENDROOT
TORSDOF 0
ENDMDL
