MODEL 1
REMARK minimizedAffinity -2.17917895
REMARK minimizedRMSD -1
REMARK  0 active torsions:
REMARK  status: ('A' for Active; 'I' for Inactive)
ROOT
ATOM      1  C4' PXY d   1      -0.861   3.173   2.234  0.00  0.00     0.077 C 
ATOM      2  C1' PXY d   1      -0.092  -1.395  -1.224  0.00  0.00     0.077 C 
ATOM      3  C1  PXY d   1      -0.301  -0.191  -0.326  0.00  0.00    -0.082 A 
ATOM      4  C2  PXY d   1       0.578   0.076   0.625  0.00  0.00     0.003 A 
ATOM      5  C3  PXY d   1       0.388   1.142   1.467  0.00  0.00     0.003 A 
ATOM      6  C4  PXY d   1      -0.686   1.974   1.298  0.00  0.00    -0.082 A 
ATOM      7  C5  PXY d   1      -1.582   1.715   0.323  0.00  0.00     0.003 A 
ATOM      8  C6  PXY d   1      -1.393   0.604  -0.494  0.00  0.00     0.003 A 
ENDROOT
TORSDOF 0
ENDMDL
