MODEL 1
REMARK minimizedAffinity -3.04527497
REMARK minimizedRMSD -1
REMARK  0 active torsions:
REMARK  status: ('A' for Active; 'I' for Inactive)
ROOT
ATOM      1  C4' PXY d   1       3.779  -1.035   0.296  0.00  0.00     0.077 C 
ATOM      2  C1' PXY d   1      -1.860   0.219   0.497  0.00  0.00     0.077 C 
ATOM      3  C1  PXY d   1      -0.384  -0.118   0.435  0.00  0.00    -0.082 A 
ATOM      4  C2  PXY d   1       0.376   0.068   1.502  0.00  0.00     0.003 A 
ATOM      5  C3  PXY d   1       1.719  -0.202   1.454  0.00  0.00     0.003 A 
ATOM      6  C4  PXY d   1       2.281  -0.718   0.317  0.00  0.00    -0.082 A 
ATOM      7  C5  PXY d   1       1.511  -0.920  -0.773  0.00  0.00     0.003 A 
ATOM      8  C6  PXY d   1       0.158  -0.601  -0.716  0.00  0.00     0.003 A 
ENDROOT
TORSDOF 0
ENDMDL
