MODEL 1
REMARK minimizedAffinity -1.18173552
REMARK minimizedRMSD -1
REMARK  0 active torsions:
REMARK  status: ('A' for Active; 'I' for Inactive)
ROOT
ATOM      1  C4' PXY d   1       4.908  -1.414   2.964  0.00  0.00     0.077 C 
ATOM      2  C1' PXY d   1       0.406   0.003  -0.372  0.00  0.00     0.077 C 
ATOM      3  C1  PXY d   1       1.591  -0.376   0.493  0.00  0.00    -0.082 A 
ATOM      4  C2  PXY d   1       1.496  -0.285   1.810  0.00  0.00     0.003 A 
ATOM      5  C3  PXY d   1       2.569  -0.593   2.606  0.00  0.00     0.003 A 
ATOM      6  C4  PXY d   1       3.734  -1.050   2.052  0.00  0.00    -0.082 A 
ATOM      7  C5  PXY d   1       3.836  -1.157   0.710  0.00  0.00     0.003 A 
ATOM      8  C6  PXY d   1       2.749  -0.799  -0.083  0.00  0.00     0.003 A 
ENDROOT
TORSDOF 0
ENDMDL
