MODEL 1
REMARK minimizedAffinity -2.76452637
REMARK minimizedRMSD -1
REMARK  0 active torsions:
REMARK  status: ('A' for Active; 'I' for Inactive)
ROOT
ATOM      1  C4' PXY d   1       0.303  -2.290  -1.142  0.00  0.00     0.077 C 
ATOM      2  C1' PXY d   1      -0.224   2.556   1.964  0.00  0.00     0.077 C 
ATOM      3  C1  PXY d   1      -0.074   1.284   1.154  0.00  0.00    -0.082 A 
ATOM      4  C2  PXY d   1      -0.827   1.098   0.082  0.00  0.00     0.003 A 
ATOM      5  C3  PXY d   1      -0.727  -0.061  -0.644  0.00  0.00     0.003 A 
ATOM      6  C4  PXY d   1       0.192  -1.017  -0.300  0.00  0.00    -0.082 A 
ATOM      7  C5  PXY d   1       0.971  -0.830   0.786  0.00  0.00     0.003 A 
ATOM      8  C6  PXY d   1       0.825   0.336   1.533  0.00  0.00     0.003 A 
ENDROOT
TORSDOF 0
ENDMDL
