MODEL 1
REMARK minimizedAffinity -2.33297658
REMARK minimizedRMSD -1
REMARK  0 active torsions:
REMARK  status: ('A' for Active; 'I' for Inactive)
ROOT
ATOM      1  C4' PXY d   1       0.328  -0.961  -1.800  0.00  0.00     0.077 C 
ATOM      2  C1' PXY d   1      -1.406   3.097   1.934  0.00  0.00     0.077 C 
ATOM      3  C1  PXY d   1      -0.940   2.032   0.962  0.00  0.00    -0.082 A 
ATOM      4  C2  PXY d   1      -1.423   2.014  -0.270  0.00  0.00     0.003 A 
ATOM      5  C3  PXY d   1      -1.037   1.038  -1.153  0.00  0.00     0.003 A 
ATOM      6  C4  PXY d   1      -0.107   0.102  -0.787  0.00  0.00    -0.082 A 
ATOM      7  C5  PXY d   1       0.398   0.120   0.464  0.00  0.00     0.003 A 
ATOM      8  C6  PXY d   1      -0.038   1.094   1.358  0.00  0.00     0.003 A 
ENDROOT
TORSDOF 0
ENDMDL
