MODEL 1
REMARK minimizedAffinity -1.15853703
REMARK minimizedRMSD -1
REMARK  0 active torsions:
REMARK  status: ('A' for Active; 'I' for Inactive)
ROOT
ATOM      1  C4' PXY d   1       0.019  -0.472  -1.369  0.00  0.00     0.077 C 
ATOM      2  C1' PXY d   1       1.323  -5.998  -0.286  0.00  0.00     0.077 C 
ATOM      3  C1  PXY d   1       0.972  -4.553  -0.578  0.00  0.00    -0.082 A 
ATOM      4  C2  PXY d   1       1.883  -3.610  -0.403  0.00  0.00     0.003 A 
ATOM      5  C3  PXY d   1       1.573  -2.294  -0.632  0.00  0.00     0.003 A 
ATOM      6  C4  PXY d   1       0.333  -1.946  -1.096  0.00  0.00    -0.082 A 
ATOM      7  C5  PXY d   1      -0.600  -2.903  -1.287  0.00  0.00     0.003 A 
ATOM      8  C6  PXY d   1      -0.277  -4.228  -1.010  0.00  0.00     0.003 A 
ENDROOT
TORSDOF 0
ENDMDL
