MODEL 1
REMARK minimizedAffinity 4.5278306
REMARK minimizedRMSD -1
REMARK  0 active torsions:
REMARK  status: ('A' for Active; 'I' for Inactive)
ROOT
ATOM      1  C4' PXY d   1      -0.760  -3.376  -0.859  0.00  0.00     0.077 C 
ATOM      2  C1' PXY d   1      -0.034   2.093   0.867  0.00  0.00     0.077 C 
ATOM      3  C1  PXY d   1      -0.226   0.663   0.402  0.00  0.00    -0.082 A 
ATOM      4  C2  PXY d   1      -0.669  -0.248   1.253  0.00  0.00     0.003 A 
ATOM      5  C3  PXY d   1      -0.818  -1.552   0.858  0.00  0.00     0.003 A 
ATOM      6  C4  PXY d   1      -0.561  -1.918  -0.436  0.00  0.00    -0.082 A 
ATOM      7  C5  PXY d   1      -0.118  -0.992  -1.313  0.00  0.00     0.003 A 
ATOM      8  C6  PXY d   1       0.066   0.318  -0.881  0.00  0.00     0.003 A 
ENDROOT
TORSDOF 0
ENDMDL
