MODEL 1
REMARK minimizedAffinity -5.22128582
REMARK minimizedRMSD -1
REMARK  0 active torsions:
REMARK  status: ('A' for Active; 'I' for Inactive)
ROOT
ATOM      1  C4' PXY d   1       4.130  -1.472  -0.316  0.00  0.00     0.077 C 
ATOM      2  C1' PXY d   1      -0.944  -3.637  -2.042  0.00  0.00     0.077 C 
ATOM      3  C1  PXY d   1       0.384  -3.058  -1.595  0.00  0.00    -0.082 A 
ATOM      4  C2  PXY d   1       1.391  -3.870  -1.317  0.00  0.00     0.003 A 
ATOM      5  C3  PXY d   1       2.589  -3.365  -0.880  0.00  0.00     0.003 A 
ATOM      6  C4  PXY d   1       2.774  -2.012  -0.779  0.00  0.00    -0.082 A 
ATOM      7  C5  PXY d   1       1.755  -1.177  -1.072  0.00  0.00     0.003 A 
ATOM      8  C6  PXY d   1       0.534  -1.711  -1.474  0.00  0.00     0.003 A 
ENDROOT
TORSDOF 0
ENDMDL
