MODEL 1
REMARK minimizedAffinity 0.480144769
REMARK minimizedRMSD -1
REMARK  0 active torsions:
REMARK  status: ('A' for Active; 'I' for Inactive)
ROOT
ATOM      1  C4' PXY d   1       1.173  -0.729   2.189  0.00  0.00     0.077 C 
ATOM      2  C1' PXY d   1      -1.557   2.433  -1.806  0.00  0.00     0.077 C 
ATOM      3  C1  PXY d   1      -0.843   1.593  -0.766  0.00  0.00    -0.082 A 
ATOM      4  C2  PXY d   1      -0.801   2.005   0.491  0.00  0.00     0.003 A 
ATOM      5  C3  PXY d   1      -0.132   1.274   1.438  0.00  0.00     0.003 A 
ATOM      6  C4  PXY d   1       0.455   0.082   1.106  0.00  0.00    -0.082 A 
ATOM      7  C5  PXY d   1       0.407  -0.351  -0.171  0.00  0.00     0.003 A 
ATOM      8  C6  PXY d   1      -0.242   0.427  -1.126  0.00  0.00     0.003 A 
ENDROOT
TORSDOF 0
ENDMDL
