MODEL 1
REMARK minimizedAffinity -0.647476375
REMARK minimizedRMSD -1
REMARK  0 active torsions:
REMARK  status: ('A' for Active; 'I' for Inactive)
ROOT
ATOM      1  C4' PXY d   1      -0.912  -2.085  -1.068  0.00  0.00     0.077 C 
ATOM      2  C1' PXY d   1       0.022   2.823   1.840  0.00  0.00     0.077 C 
ATOM      3  C1  PXY d   1      -0.230   1.543   1.068  0.00  0.00    -0.082 A 
ATOM      4  C2  PXY d   1      -0.213   0.382   1.703  0.00  0.00     0.003 A 
ATOM      5  C3  PXY d   1      -0.407  -0.788   1.015  0.00  0.00     0.003 A 
ATOM      6  C4  PXY d   1      -0.673  -0.766  -0.328  0.00  0.00    -0.082 A 
ATOM      7  C5  PXY d   1      -0.702   0.415  -0.981  0.00  0.00     0.003 A 
ATOM      8  C6  PXY d   1      -0.462   1.588  -0.272  0.00  0.00     0.003 A 
ENDROOT
TORSDOF 0
ENDMDL
