MODEL 1
REMARK minimizedAffinity 2.41430521
REMARK minimizedRMSD -1
REMARK  0 active torsions:
REMARK  status: ('A' for Active; 'I' for Inactive)
ROOT
ATOM      1  C   UNL d   1      -1.630  -0.813   2.237  0.00  0.00     0.020 A 
ATOM      2  C1  UNL d   1      -1.810   0.038   1.147  0.00  0.00     0.020 A 
ATOM      3  C2  UNL d   1      -0.833   0.115   0.153  0.00  0.00     0.034 A 
ATOM      4  C3  UNL d   1       0.329  -0.661   0.246  0.00  0.00     0.017 A 
ATOM      5  C4  UNL d   1       0.508  -1.515   1.340  0.00  0.00     0.017 A 
ATOM      6  C5  UNL d   1      -0.474  -1.588   2.333  0.00  0.00     0.034 A 
ATOM      7 Cl   UNL d   1       1.914  -2.503   1.524  0.00  0.00    -0.070 Cl
ATOM      8 Cl1  UNL d   1       1.495  -0.516  -1.021  0.00  0.00    -0.070 Cl
ENDROOT
TORSDOF 0
ENDMDL
