MODEL 1
REMARK minimizedAffinity 9.65613651
REMARK minimizedRMSD -1
REMARK  0 active torsions:
REMARK  status: ('A' for Active; 'I' for Inactive)
ROOT
ATOM      1  C   UNL d   1      -2.533  -0.658  -0.481  0.00  0.00     0.020 A 
ATOM      2  C1  UNL d   1      -2.812  -0.273   0.830  0.00  0.00     0.020 A 
ATOM      3  C2  UNL d   1      -1.768  -0.082   1.738  0.00  0.00     0.034 A 
ATOM      4  C3  UNL d   1      -0.441  -0.274   1.336  0.00  0.00     0.017 A 
ATOM      5  C4  UNL d   1      -0.163  -0.660   0.019  0.00  0.00     0.017 A 
ATOM      6  C5  UNL d   1      -1.212  -0.850  -0.885  0.00  0.00     0.034 A 
ATOM      7 Cl   UNL d   1       1.449  -0.916  -0.550  0.00  0.00    -0.070 Cl
ATOM      8 Cl1  UNL d   1       0.800  -0.019   2.511  0.00  0.00    -0.070 Cl
ENDROOT
TORSDOF 0
ENDMDL
