MODEL 1
REMARK minimizedAffinity 4.24387407
REMARK minimizedRMSD -1
REMARK  0 active torsions:
REMARK  status: ('A' for Active; 'I' for Inactive)
ROOT
ATOM      1  C   UNL d   1      -2.467  -0.041   0.603  0.00  0.00     0.020 A 
ATOM      2  C1  UNL d   1      -1.968  -0.389  -0.651  0.00  0.00     0.020 A 
ATOM      3  C2  UNL d   1      -0.613  -0.691  -0.804  0.00  0.00     0.034 A 
ATOM      4  C3  UNL d   1       0.247  -0.646   0.299  0.00  0.00     0.017 A 
ATOM      5  C4  UNL d   1      -0.255  -0.297   1.558  0.00  0.00     0.017 A 
ATOM      6  C5  UNL d   1      -1.612   0.005   1.705  0.00  0.00     0.034 A 
ATOM      7 Cl   UNL d   1       0.745  -0.220   2.966  0.00  0.00    -0.070 Cl
ATOM      8 Cl1  UNL d   1       1.911  -1.032   0.037  0.00  0.00    -0.070 Cl
ENDROOT
TORSDOF 0
ENDMDL
