MODEL 1
REMARK minimizedAffinity 3.72826099
REMARK minimizedRMSD -1
REMARK  0 active torsions:
REMARK  status: ('A' for Active; 'I' for Inactive)
ROOT
ATOM      1  C   UNL d   1      -0.577  -0.824  -0.490  0.00  0.00     0.020 A 
ATOM      2  C1  UNL d   1      -1.236  -0.309   0.626  0.00  0.00     0.020 A 
ATOM      3  C2  UNL d   1      -0.558  -0.186   1.841  0.00  0.00     0.034 A 
ATOM      4  C3  UNL d   1       0.782  -0.577   1.943  0.00  0.00     0.017 A 
ATOM      5  C4  UNL d   1       1.442  -1.093   0.822  0.00  0.00     0.017 A 
ATOM      6  C5  UNL d   1       0.759  -1.214  -0.392  0.00  0.00     0.034 A 
ATOM      7 Cl   UNL d   1       3.094  -1.597   0.870  0.00  0.00    -0.070 Cl
ATOM      8 Cl1  UNL d   1       1.557  -0.396   3.476  0.00  0.00    -0.070 Cl
ENDROOT
TORSDOF 0
ENDMDL
