MODEL 1
REMARK minimizedAffinity -0.996290088
REMARK minimizedRMSD -1
REMARK  0 active torsions:
REMARK  status: ('A' for Active; 'I' for Inactive)
ROOT
ATOM      1  C   UNL d   1       5.937   5.585   2.596  0.00  0.00     0.020 A 
ATOM      2  C1  UNL d   1       5.970   4.290   2.080  0.00  0.00     0.020 A 
ATOM      3  C2  UNL d   1       4.920   3.407   2.342  0.00  0.00     0.034 A 
ATOM      4  C3  UNL d   1       3.832   3.819   3.121  0.00  0.00     0.017 A 
ATOM      5  C4  UNL d   1       3.799   5.119   3.638  0.00  0.00     0.017 A 
ATOM      6  C5  UNL d   1       4.854   5.998   3.373  0.00  0.00     0.034 A 
ATOM      7 Cl   UNL d   1       2.491   5.698   4.607  0.00  0.00    -0.070 Cl
ATOM      8 Cl1  UNL d   1       2.568   2.675   3.403  0.00  0.00    -0.070 Cl
ENDROOT
TORSDOF 0
ENDMDL
