MODEL 1
REMARK minimizedAffinity -1.11983955
REMARK minimizedRMSD -1
REMARK  0 active torsions:
REMARK  status: ('A' for Active; 'I' for Inactive)
ROOT
ATOM      1  C   UNL d   1       2.276   5.999   5.996  0.00  0.00     0.020 A 
ATOM      2  C1  UNL d   1       1.216   5.995   5.092  0.00  0.00     0.020 A 
ATOM      3  C2  UNL d   1       1.469   5.971   3.719  0.00  0.00     0.034 A 
ATOM      4  C3  UNL d   1       2.787   5.952   3.246  0.00  0.00     0.017 A 
ATOM      5  C4  UNL d   1       3.851   5.956   4.155  0.00  0.00     0.017 A 
ATOM      6  C5  UNL d   1       3.591   5.979   5.529  0.00  0.00     0.034 A 
ATOM      7 Cl   UNL d   1       5.503   5.932   3.648  0.00  0.00    -0.070 Cl
ATOM      8 Cl1  UNL d   1       3.026   5.922   1.535  0.00  0.00    -0.070 Cl
ENDROOT
TORSDOF 0
ENDMDL
