MODEL 1
REMARK minimizedAffinity 1.13739526
REMARK minimizedRMSD -1
REMARK  0 active torsions:
REMARK  status: ('A' for Active; 'I' for Inactive)
ROOT
ATOM      1  C   UNL d   1       1.828  -1.052  -0.369  0.00  0.00     0.020 A 
ATOM      2  C1  UNL d   1       2.222  -2.057   0.513  0.00  0.00     0.020 A 
ATOM      3  C2  UNL d   1       1.419  -2.377   1.610  0.00  0.00     0.034 A 
ATOM      4  C3  UNL d   1       0.218  -1.691   1.828  0.00  0.00     0.017 A 
ATOM      5  C4  UNL d   1      -0.176  -0.682   0.941  0.00  0.00     0.017 A 
ATOM      6  C5  UNL d   1       0.632  -0.366  -0.156  0.00  0.00     0.034 A 
ATOM      7 Cl   UNL d   1      -1.643   0.209   1.144  0.00  0.00    -0.070 Cl
ATOM      8 Cl1  UNL d   1      -0.725  -2.138   3.204  0.00  0.00    -0.070 Cl
ENDROOT
TORSDOF 0
ENDMDL
