MODEL 1
REMARK minimizedAffinity -0.527585685
REMARK minimizedRMSD -1
REMARK  0 active torsions:
REMARK  status: ('A' for Active; 'I' for Inactive)
ROOT
ATOM      1  C1  BNZ d   1       1.001   5.776  -1.501  0.00  0.00     0.000 A 
ATOM      2  C2  BNZ d   1       1.603   5.359  -0.344  0.00  0.00     0.000 A 
ATOM      3  C3  BNZ d   1       0.930   4.577   0.553  0.00  0.00     0.000 A 
ATOM      4  C4  BNZ d   1      -0.355   4.246   0.311  0.00  0.00     0.000 A 
ATOM      5  C5  BNZ d   1      -0.979   4.667  -0.846  0.00  0.00     0.000 A 
ATOM      6  C6  BNZ d   1      -0.286   5.422  -1.765  0.00  0.00     0.000 A 
ENDROOT
TORSDOF 0
ENDMDL
