MODEL 1
REMARK minimizedAffinity 6.61370564
REMARK minimizedRMSD -1
REMARK  0 active torsions:
REMARK  status: ('A' for Active; 'I' for Inactive)
ROOT
ATOM      1  C1  BNZ d   1       1.018  -5.933  -3.607  0.00  0.00     0.000 A 
ATOM      2  C2  BNZ d   1       0.618  -5.984  -2.299  0.00  0.00     0.000 A 
ATOM      3  C3  BNZ d   1       1.536  -5.993  -1.286  0.00  0.00     0.000 A 
ATOM      4  C4  BNZ d   1       2.852  -5.992  -1.584  0.00  0.00     0.000 A 
ATOM      5  C5  BNZ d   1       3.271  -5.950  -2.898  0.00  0.00     0.000 A 
ATOM      6  C6  BNZ d   1       2.344  -5.902  -3.914  0.00  0.00     0.000 A 
ENDROOT
TORSDOF 0
ENDMDL
