MODEL 1
REMARK minimizedAffinity 0.377136022
REMARK minimizedRMSD -1
REMARK  0 active torsions:
REMARK  status: ('A' for Active; 'I' for Inactive)
ROOT
ATOM      1  C1  BNZ d   1      -0.081   4.800  -0.791  0.00  0.00     0.000 A 
ATOM      2  C2  BNZ d   1      -0.141   3.636  -0.072  0.00  0.00     0.000 A 
ATOM      3  C3  BNZ d   1       0.775   3.371   0.907  0.00  0.00     0.000 A 
ATOM      4  C4  BNZ d   1       1.772   4.249   1.138  0.00  0.00     0.000 A 
ATOM      5  C5  BNZ d   1       1.852   5.422   0.415  0.00  0.00     0.000 A 
ATOM      6  C6  BNZ d   1       0.905   5.705  -0.543  0.00  0.00     0.000 A 
ENDROOT
TORSDOF 0
ENDMDL
