MODEL 1
REMARK minimizedAffinity 0.562933207
REMARK minimizedRMSD -1
REMARK  0 active torsions:
REMARK  status: ('A' for Active; 'I' for Inactive)
ROOT
ATOM      1  C1  BNZ d   1       5.798  -2.866  -1.375  0.00  0.00     0.000 A 
ATOM      2  C2  BNZ d   1       4.940  -1.807  -1.236  0.00  0.00     0.000 A 
ATOM      3  C3  BNZ d   1       3.907  -1.856  -0.342  0.00  0.00     0.000 A 
ATOM      4  C4  BNZ d   1       3.709  -2.977   0.381  0.00  0.00     0.000 A 
ATOM      5  C5  BNZ d   1       4.559  -4.056   0.245  0.00  0.00     0.000 A 
ATOM      6  C6  BNZ d   1       5.621  -3.989  -0.627  0.00  0.00     0.000 A 
ENDROOT
TORSDOF 0
ENDMDL
