MODEL 1
REMARK minimizedAffinity 3.16436124
REMARK minimizedRMSD -1
REMARK  0 active torsions:
REMARK  status: ('A' for Active; 'I' for Inactive)
ROOT
ATOM      1  C1  BNZ d   1      -1.145   6.000   0.779  0.00  0.00     0.000 A 
ATOM      2  C2  BNZ d   1      -0.572   4.970   1.477  0.00  0.00     0.000 A 
ATOM      3  C3  BNZ d   1       0.042   3.938   0.825  0.00  0.00     0.000 A 
ATOM      4  C4  BNZ d   1       0.048   3.916  -0.524  0.00  0.00     0.000 A 
ATOM      5  C5  BNZ d   1      -0.533   4.942  -1.242  0.00  0.00     0.000 A 
ATOM      6  C6  BNZ d   1      -1.116   5.999  -0.582  0.00  0.00     0.000 A 
ENDROOT
TORSDOF 0
ENDMDL
