MODEL 1
REMARK minimizedAffinity 2.88454342
REMARK minimizedRMSD -1
REMARK  0 active torsions:
REMARK  status: ('A' for Active; 'I' for Inactive)
ROOT
ATOM      1  C1  BNZ d   1       6.000  -2.254  -1.137  0.00  0.00     0.000 A 
ATOM      2  C2  BNZ d   1       5.077  -1.250  -1.013  0.00  0.00     0.000 A 
ATOM      3  C3  BNZ d   1       4.151  -1.270  -0.008  0.00  0.00     0.000 A 
ATOM      4  C4  BNZ d   1       4.123  -2.313   0.847  0.00  0.00     0.000 A 
ATOM      5  C5  BNZ d   1       5.040  -3.338   0.729  0.00  0.00     0.000 A 
ATOM      6  C6  BNZ d   1       5.995  -3.295  -0.260  0.00  0.00     0.000 A 
ENDROOT
TORSDOF 0
ENDMDL
