MODEL 1
REMARK minimizedAffinity 8.14743042
REMARK minimizedRMSD -1
REMARK  0 active torsions:
REMARK  status: ('A' for Active; 'I' for Inactive)
ROOT
ATOM      1  C1  BNZ d   1       0.677   2.531   1.489  0.00  0.00     0.000 A 
ATOM      2  C2  BNZ d   1       1.178   3.169   0.386  0.00  0.00     0.000 A 
ATOM      3  C3  BNZ d   1       0.782   4.439   0.072  0.00  0.00     0.000 A 
ATOM      4  C4  BNZ d   1      -0.142   5.054   0.838  0.00  0.00     0.000 A 
ATOM      5  C5  BNZ d   1      -0.663   4.421   1.949  0.00  0.00     0.000 A 
ATOM      6  C6  BNZ d   1      -0.233   3.157   2.284  0.00  0.00     0.000 A 
ENDROOT
TORSDOF 0
ENDMDL
