MODEL 1
REMARK minimizedAffinity 6.90143776
REMARK minimizedRMSD -1
REMARK  0 active torsions:
REMARK  status: ('A' for Active; 'I' for Inactive)
ROOT
ATOM      1  C1  BNZ d   1       4.679  -3.844  -2.776  0.00  0.00     0.000 A 
ATOM      2  C2  BNZ d   1       4.819  -3.895  -1.415  0.00  0.00     0.000 A 
ATOM      3  C3  BNZ d   1       5.462  -2.895  -0.740  0.00  0.00     0.000 A 
ATOM      4  C4  BNZ d   1       5.999  -1.868  -1.430  0.00  0.00     0.000 A 
ATOM      5  C5  BNZ d   1       5.875  -1.808  -2.803  0.00  0.00     0.000 A 
ATOM      6  C6  BNZ d   1       5.193  -2.796  -3.476  0.00  0.00     0.000 A 
ENDROOT
TORSDOF 0
ENDMDL
