MODEL 1
REMARK minimizedAffinity 6.83349991
REMARK minimizedRMSD -1
REMARK  0 active torsions:
REMARK  status: ('A' for Active; 'I' for Inactive)
ROOT
ATOM      1  C1  BNZ d   1       0.322   2.936   0.620  0.00  0.00     0.000 A 
ATOM      2  C2  BNZ d   1       0.490   3.819  -0.413  0.00  0.00     0.000 A 
ATOM      3  C3  BNZ d   1       0.010   5.096  -0.327  0.00  0.00     0.000 A 
ATOM      4  C4  BNZ d   1      -0.671   5.476   0.773  0.00  0.00     0.000 A 
ATOM      5  C5  BNZ d   1      -0.857   4.594   1.819  0.00  0.00     0.000 A 
ATOM      6  C6  BNZ d   1      -0.339   3.321   1.745  0.00  0.00     0.000 A 
ENDROOT
TORSDOF 0
ENDMDL
