MODEL 1
REMARK minimizedAffinity 3.6603179
REMARK minimizedRMSD -1
REMARK  0 active torsions:
REMARK  status: ('A' for Active; 'I' for Inactive)
ROOT
ATOM      1  C1  BNZ d   1       0.387   3.583   0.383  0.00  0.00     0.000 A 
ATOM      2  C2  BNZ d   1       0.409   3.780  -0.972  0.00  0.00     0.000 A 
ATOM      3  C3  BNZ d   1       0.082   4.994  -1.508  0.00  0.00     0.000 A 
ATOM      4  C4  BNZ d   1      -0.304   5.997  -0.693  0.00  0.00     0.000 A 
ATOM      5  C5  BNZ d   1      -0.341   5.811   0.675  0.00  0.00     0.000 A 
ATOM      6  C6  BNZ d   1       0.026   4.599   1.214  0.00  0.00     0.000 A 
ENDROOT
TORSDOF 0
ENDMDL
