MODEL 1
REMARK minimizedAffinity -1.35554171
REMARK minimizedRMSD -1
REMARK  0 active torsions:
REMARK  status: ('A' for Active; 'I' for Inactive)
ROOT
ATOM      1  C   UNL d   1       1.113  -0.992   0.195  0.00  0.00     0.023 A 
ATOM      2  C1  UNL d   1       2.194  -0.131   0.004  0.00  0.00     0.003 A 
ATOM      3  C2  UNL d   1       1.989   1.249  -0.047  0.00  0.00     0.048 A 
ATOM      4  C3  UNL d   1       0.700   1.762   0.094  0.00  0.00     0.023 A 
ATOM      5  C4  UNL d   1      -0.385   0.905   0.286  0.00  0.00     0.048 A 
ATOM      6  C5  UNL d   1      -0.175  -0.474   0.336  0.00  0.00     0.003 A 
ATOM      7  I   UNL d   1       0.392   3.816   0.019  0.00  0.00    -0.146 I 
ENDROOT
TORSDOF 0
ENDMDL
