MODEL 1
REMARK minimizedAffinity -1.08626211
REMARK minimizedRMSD -1
REMARK  0 active torsions:
REMARK  status: ('A' for Active; 'I' for Inactive)
ROOT
ATOM      1  C   UNL d   1       0.768  -2.405   0.875  0.00  0.00     0.023 A 
ATOM      2  C1  UNL d   1       2.126  -2.156   1.077  0.00  0.00     0.003 A 
ATOM      3  C2  UNL d   1       2.663  -0.908   0.757  0.00  0.00     0.048 A 
ATOM      4  C3  UNL d   1       1.837   0.087   0.235  0.00  0.00     0.023 A 
ATOM      5  C4  UNL d   1       0.478  -0.157   0.033  0.00  0.00     0.048 A 
ATOM      6  C5  UNL d   1      -0.055  -1.407   0.354  0.00  0.00     0.003 A 
ATOM      7  I   UNL d   1       2.634   1.946  -0.242  0.00  0.00    -0.146 I 
ENDROOT
TORSDOF 0
ENDMDL
