MODEL 1
REMARK minimizedAffinity -1.28540707
REMARK minimizedRMSD -1
REMARK  0 active torsions:
REMARK  status: ('A' for Active; 'I' for Inactive)
ROOT
ATOM      1  C   UNL d   1      -2.035   3.020  -2.997  0.00  0.00     0.023 A 
ATOM      2  C1  UNL d   1      -2.745   1.833  -2.818  0.00  0.00     0.003 A 
ATOM      3  C2  UNL d   1      -2.345   0.919  -1.841  0.00  0.00     0.048 A 
ATOM      4  C3  UNL d   1      -1.234   1.200  -1.046  0.00  0.00     0.023 A 
ATOM      5  C4  UNL d   1      -0.521   2.387  -1.221  0.00  0.00     0.048 A 
ATOM      6  C5  UNL d   1      -0.925   3.297  -2.199  0.00  0.00     0.003 A 
ATOM      7  I   UNL d   1      -0.636  -0.159   0.409  0.00  0.00    -0.146 I 
ENDROOT
TORSDOF 0
ENDMDL
