MODEL 1
REMARK minimizedAffinity 2.86334968
REMARK minimizedRMSD -1
REMARK  0 active torsions:
REMARK  status: ('A' for Active; 'I' for Inactive)
ROOT
ATOM      1  C   UNL d   1      -1.775  -1.598   2.035  0.00  0.00     0.023 A 
ATOM      2  C1  UNL d   1      -2.163  -0.267   2.192  0.00  0.00     0.003 A 
ATOM      3  C2  UNL d   1      -1.537   0.736   1.449  0.00  0.00     0.048 A 
ATOM      4  C3  UNL d   1      -0.525   0.401   0.550  0.00  0.00     0.023 A 
ATOM      5  C4  UNL d   1      -0.134  -0.929   0.389  0.00  0.00     0.048 A 
ATOM      6  C5  UNL d   1      -0.762  -1.928   1.134  0.00  0.00     0.003 A 
ATOM      7  I   UNL d   1       0.409   1.893  -0.557  0.00  0.00    -0.146 I 
ENDROOT
TORSDOF 0
ENDMDL
