MODEL 1
REMARK minimizedAffinity -3.68916345
REMARK minimizedRMSD -1
REMARK  0 active torsions:
REMARK  status: ('A' for Active; 'I' for Inactive)
ROOT
ATOM      1  C   UNL d   1      -1.349   3.021  -3.868  0.00  0.00     0.023 A 
ATOM      2  C1  UNL d   1      -0.191   3.178  -3.106  0.00  0.00     0.003 A 
ATOM      3  C2  UNL d   1      -0.076   2.540  -1.869  0.00  0.00     0.048 A 
ATOM      4  C3  UNL d   1      -1.122   1.746  -1.401  0.00  0.00     0.023 A 
ATOM      5  C4  UNL d   1      -2.282   1.585  -2.160  0.00  0.00     0.048 A 
ATOM      6  C5  UNL d   1      -2.393   2.226  -3.396  0.00  0.00     0.003 A 
ATOM      7  I   UNL d   1      -0.953   0.795   0.440  0.00  0.00    -0.146 I 
ENDROOT
TORSDOF 0
ENDMDL
