MODEL 1
REMARK minimizedAffinity -0.429254383
REMARK minimizedRMSD -1
REMARK  0 active torsions:
REMARK  status: ('A' for Active; 'I' for Inactive)
ROOT
ATOM      1  C   UNL d   1       2.369   4.493   0.746  0.00  0.00     0.023 A 
ATOM      2  C1  UNL d   1       2.948   3.363   0.169  0.00  0.00     0.003 A 
ATOM      3  C2  UNL d   1       2.142   2.315  -0.280  0.00  0.00     0.048 A 
ATOM      4  C3  UNL d   1       0.757   2.404  -0.150  0.00  0.00     0.023 A 
ATOM      5  C4  UNL d   1       0.172   3.533   0.427  0.00  0.00     0.048 A 
ATOM      6  C5  UNL d   1       0.982   4.578   0.875  0.00  0.00     0.003 A 
ATOM      7  I   UNL d   1      -0.446   0.846  -0.817  0.00  0.00    -0.146 I 
ENDROOT
TORSDOF 0
ENDMDL
