MODEL 1
REMARK minimizedAffinity 2.18436337
REMARK minimizedRMSD -1
REMARK  0 active torsions:
REMARK  status: ('A' for Active; 'I' for Inactive)
ROOT
ATOM      1  C   UNL d   1      -2.722   1.537  -4.078  0.00  0.00     0.023 A 
ATOM      2  C1  UNL d   1      -3.049   0.311  -3.499  0.00  0.00     0.003 A 
ATOM      3  C2  UNL d   1      -2.477  -0.061  -2.281  0.00  0.00     0.048 A 
ATOM      4  C3  UNL d   1      -1.580   0.798  -1.647  0.00  0.00     0.023 A 
ATOM      5  C4  UNL d   1      -1.250   2.026  -2.222  0.00  0.00     0.048 A 
ATOM      6  C5  UNL d   1      -1.824   2.393  -3.441  0.00  0.00     0.003 A 
ATOM      7  I   UNL d   1      -0.728   0.246   0.167  0.00  0.00    -0.146 I 
ENDROOT
TORSDOF 0
ENDMDL
