MODEL 1
REMARK minimizedAffinity -2.42446065
REMARK minimizedRMSD -1
REMARK  0 active torsions:
REMARK  status: ('A' for Active; 'I' for Inactive)
ROOT
ATOM      1  C   UNL d   1       2.493   3.159  -0.166  0.00  0.00     0.023 A 
ATOM      2  C1  UNL d   1       1.262   3.789   0.021  0.00  0.00     0.003 A 
ATOM      3  C2  UNL d   1       0.085   3.038   0.025  0.00  0.00     0.048 A 
ATOM      4  C3  UNL d   1       0.146   1.656  -0.157  0.00  0.00     0.023 A 
ATOM      5  C4  UNL d   1       1.375   1.022  -0.343  0.00  0.00     0.048 A 
ATOM      6  C5  UNL d   1       2.549   1.777  -0.348  0.00  0.00     0.003 A 
ATOM      7  I   UNL d   1      -1.604   0.536  -0.151  0.00  0.00    -0.146 I 
ENDROOT
TORSDOF 0
ENDMDL
