MODEL 1
REMARK minimizedAffinity -3.65126109
REMARK minimizedRMSD -1
REMARK  0 active torsions:
REMARK  status: ('A' for Active; 'I' for Inactive)
ROOT
ATOM      1  C   UNL d   1       0.738  -1.648   0.965  0.00  0.00     0.023 A 
ATOM      2  C1  UNL d   1      -0.192  -0.713   1.418  0.00  0.00     0.003 A 
ATOM      3  C2  UNL d   1      -0.960   0.010   0.502  0.00  0.00     0.048 A 
ATOM      4  C3  UNL d   1      -0.793  -0.208  -0.865  0.00  0.00     0.023 A 
ATOM      5  C4  UNL d   1       0.136  -1.144  -1.322  0.00  0.00     0.048 A 
ATOM      6  C5  UNL d   1       0.903  -1.863  -0.403  0.00  0.00     0.003 A 
ATOM      7  I   UNL d   1      -1.935   0.865  -2.229  0.00  0.00    -0.146 I 
ENDROOT
TORSDOF 0
ENDMDL
