MODEL 1
REMARK minimizedAffinity -2.25281811
REMARK minimizedRMSD -1
REMARK  0 active torsions:
REMARK  status: ('A' for Active; 'I' for Inactive)
ROOT
ATOM      1  C   UNL d   1      -1.968   1.473  -1.804  0.00  0.00     0.023 A 
ATOM      2  C1  UNL d   1      -1.552   2.719  -2.274  0.00  0.00     0.003 A 
ATOM      3  C2  UNL d   1      -0.477   3.372  -1.668  0.00  0.00     0.048 A 
ATOM      4  C3  UNL d   1       0.179   2.773  -0.593  0.00  0.00     0.023 A 
ATOM      5  C4  UNL d   1      -0.233   1.527  -0.120  0.00  0.00     0.048 A 
ATOM      6  C5  UNL d   1      -1.309   0.878  -0.728  0.00  0.00     0.003 A 
ATOM      7  I   UNL d   1       1.779   3.743   0.310  0.00  0.00    -0.146 I 
ENDROOT
TORSDOF 0
ENDMDL
