MODEL 1
REMARK minimizedAffinity -0.223922014
REMARK minimizedRMSD -1
REMARK  0 active torsions:
REMARK  status: ('A' for Active; 'I' for Inactive)
ROOT
ATOM      1  C   UNL d   1       2.339  -2.514   1.834  0.00  0.00     0.023 A 
ATOM      2  C1  UNL d   1       1.065  -2.889   1.406  0.00  0.00     0.003 A 
ATOM      3  C2  UNL d   1       0.288  -1.999   0.662  0.00  0.00     0.048 A 
ATOM      4  C3  UNL d   1       0.790  -0.737   0.348  0.00  0.00     0.023 A 
ATOM      5  C4  UNL d   1       2.064  -0.357   0.773  0.00  0.00     0.048 A 
ATOM      6  C5  UNL d   1       2.838  -1.250   1.518  0.00  0.00     0.003 A 
ATOM      7  I   UNL d   1      -0.366   0.589  -0.760  0.00  0.00    -0.146 I 
ENDROOT
TORSDOF 0
ENDMDL
