MODEL 1
REMARK minimizedAffinity -1.49125123
REMARK minimizedRMSD -1
REMARK  0 active torsions:
REMARK  status: ('A' for Active; 'I' for Inactive)
ROOT
ATOM      1  C   UNL d   1      -2.839   1.840  -3.237  0.00  0.00     0.023 A 
ATOM      2  C1  UNL d   1      -1.614   1.210  -3.459  0.00  0.00     0.003 A 
ATOM      3  C2  UNL d   1      -1.000   0.491  -2.431  0.00  0.00     0.048 A 
ATOM      4  C3  UNL d   1      -1.618   0.406  -1.183  0.00  0.00     0.023 A 
ATOM      5  C4  UNL d   1      -2.844   1.034  -0.957  0.00  0.00     0.048 A 
ATOM      6  C5  UNL d   1      -3.453   1.752  -1.988  0.00  0.00     0.003 A 
ATOM      7  I   UNL d   1      -0.707  -0.663   0.349  0.00  0.00    -0.146 I 
ENDROOT
TORSDOF 0
ENDMDL
