MODEL 1
REMARK minimizedAffinity -3.1196413
REMARK minimizedRMSD -1
REMARK  0 active torsions:
REMARK  status: ('A' for Active; 'I' for Inactive)
ROOT
ATOM      1  C   UNL d   1       3.092   3.332  -0.146  0.00  0.00     0.023 A 
ATOM      2  C1  UNL d   1       1.937   4.089   0.049  0.00  0.00     0.003 A 
ATOM      3  C2  UNL d   1       0.684   3.474   0.024  0.00  0.00     0.048 A 
ATOM      4  C3  UNL d   1       0.593   2.100  -0.197  0.00  0.00     0.023 A 
ATOM      5  C4  UNL d   1       1.746   1.337  -0.392  0.00  0.00     0.048 A 
ATOM      6  C5  UNL d   1       2.997   1.957  -0.367  0.00  0.00     0.003 A 
ATOM      7  I   UNL d   1      -1.271   1.181  -0.235  0.00  0.00    -0.146 I 
ENDROOT
TORSDOF 0
ENDMDL
