MODEL 1
REMARK minimizedAffinity 12.7538013
REMARK minimizedRMSD -1
REMARK  0 active torsions:
REMARK  status: ('A' for Active; 'I' for Inactive)
ROOT
ATOM      1  C2' OXE d   1       5.816  -0.382  -5.915  0.00  0.00     0.078 C 
ATOM      2  C1' OXE d   1       5.955  -3.185  -5.995  0.00  0.00     0.078 C 
ATOM      3  C1  OXE d   1       4.588  -2.549  -5.964  0.00  0.00    -0.078 A 
ATOM      4  C2  OXE d   1       4.529  -1.179  -5.877  0.00  0.00    -0.078 A 
ATOM      5  C3  OXE d   1       3.293  -0.539  -5.900  0.00  0.00     0.003 A 
ATOM      6  C4  OXE d   1       2.109  -1.283  -5.855  0.00  0.00    -0.002 A 
ATOM      7  C5  OXE d   1       2.146  -2.681  -5.902  0.00  0.00    -0.002 A 
ATOM      8  C6  OXE d   1       3.374  -3.327  -5.999  0.00  0.00     0.003 A 
ENDROOT
TORSDOF 0
ENDMDL
