MODEL 1
REMARK minimizedAffinity 12.8629217
REMARK minimizedRMSD -1
REMARK  0 active torsions:
REMARK  status: ('A' for Active; 'I' for Inactive)
ROOT
ATOM      1  C2' OXE d   1       0.547  -4.982  -3.585  0.00  0.00     0.078 C 
ATOM      2  C1' OXE d   1      -1.569  -3.661  -2.298  0.00  0.00     0.078 C 
ATOM      3  C1  OXE d   1      -0.181  -3.096  -2.130  0.00  0.00    -0.078 A 
ATOM      4  C2  OXE d   1       0.855  -3.775  -2.724  0.00  0.00    -0.078 A 
ATOM      5  C3  OXE d   1       2.148  -3.267  -2.646  0.00  0.00     0.003 A 
ATOM      6  C4  OXE d   1       2.426  -2.156  -1.840  0.00  0.00    -0.002 A 
ATOM      7  C5  OXE d   1       1.391  -1.472  -1.194  0.00  0.00    -0.002 A 
ATOM      8  C6  OXE d   1       0.079  -1.903  -1.362  0.00  0.00     0.003 A 
ENDROOT
TORSDOF 0
ENDMDL
