MODEL 1
REMARK minimizedAffinity 19.6226215
REMARK minimizedRMSD -1
REMARK  0 active torsions:
REMARK  status: ('A' for Active; 'I' for Inactive)
ROOT
ATOM      1  C2' OXE d   1       1.885   1.874   1.914  0.00  0.00     0.078 C 
ATOM      2  C1' OXE d   1      -0.799   2.550   2.383  0.00  0.00     0.078 C 
ATOM      3  C1  OXE d   1       0.092   2.333   3.581  0.00  0.00    -0.078 A 
ATOM      4  C2  OXE d   1       1.392   1.957   3.342  0.00  0.00    -0.078 A 
ATOM      5  C3  OXE d   1       2.270   1.798   4.410  0.00  0.00     0.003 A 
ATOM      6  C4  OXE d   1       1.804   1.868   5.728  0.00  0.00    -0.002 A 
ATOM      7  C5  OXE d   1       0.474   2.210   5.994  0.00  0.00    -0.002 A 
ATOM      8  C6  OXE d   1      -0.383   2.488   4.934  0.00  0.00     0.003 A 
ENDROOT
TORSDOF 0
ENDMDL
