MODEL 1
REMARK minimizedAffinity 11.0751801
REMARK minimizedRMSD -1
REMARK  0 active torsions:
REMARK  status: ('A' for Active; 'I' for Inactive)
ROOT
ATOM      1  C2' OXE d   1      -4.101  -1.492   5.981  0.00  0.00     0.078 C 
ATOM      2  C1' OXE d   1      -4.382  -1.376   3.190  0.00  0.00     0.078 C 
ATOM      3  C1  OXE d   1      -4.035  -0.100   3.916  0.00  0.00    -0.078 A 
ATOM      4  C2  OXE d   1      -3.945  -0.156   5.286  0.00  0.00    -0.078 A 
ATOM      5  C3  OXE d   1      -3.574   0.980   6.000  0.00  0.00     0.003 A 
ATOM      6  C4  OXE d   1      -3.441   2.213   5.351  0.00  0.00    -0.002 A 
ATOM      7  C5  OXE d   1      -3.568   2.301   3.960  0.00  0.00    -0.002 A 
ATOM      8  C6  OXE d   1      -3.822   1.148   3.225  0.00  0.00     0.003 A 
ENDROOT
TORSDOF 0
ENDMDL
