MODEL 1
REMARK minimizedAffinity 12.5578709
REMARK minimizedRMSD -1
REMARK  0 active torsions:
REMARK  status: ('A' for Active; 'I' for Inactive)
ROOT
ATOM      1  C2' OXE d   1       3.119  -3.185  -0.415  0.00  0.00     0.078 C 
ATOM      2  C1' OXE d   1       0.818  -2.830  -1.983  0.00  0.00     0.078 C 
ATOM      3  C1  OXE d   1       1.524  -1.596  -1.481  0.00  0.00    -0.078 A 
ATOM      4  C2  OXE d   1       2.622  -1.779  -0.675  0.00  0.00    -0.078 A 
ATOM      5  C3  OXE d   1       3.343  -0.675  -0.230  0.00  0.00     0.003 A 
ATOM      6  C4  OXE d   1       2.871   0.622  -0.467  0.00  0.00    -0.002 A 
ATOM      7  C5  OXE d   1       1.732   0.830  -1.252  0.00  0.00    -0.002 A 
ATOM      8  C6  OXE d   1       1.072  -0.264  -1.801  0.00  0.00     0.003 A 
ENDROOT
TORSDOF 0
ENDMDL
