MODEL 1
REMARK minimizedAffinity 4.09040403
REMARK minimizedRMSD -1
REMARK  0 active torsions:
REMARK  status: ('A' for Active; 'I' for Inactive)
ROOT
ATOM      1  C2' OXE d   1      -2.559  -2.568  -3.457  0.00  0.00     0.078 C 
ATOM      2  C1' OXE d   1      -0.945  -4.864  -3.402  0.00  0.00     0.078 C 
ATOM      3  C1  OXE d   1      -2.128  -4.858  -4.338  0.00  0.00    -0.078 A 
ATOM      4  C2  OXE d   1      -2.939  -3.748  -4.324  0.00  0.00    -0.078 A 
ATOM      5  C3  OXE d   1      -4.012  -3.668  -5.208  0.00  0.00     0.003 A 
ATOM      6  C4  OXE d   1      -4.362  -4.768  -6.000  0.00  0.00    -0.002 A 
ATOM      7  C5  OXE d   1      -3.572  -5.923  -6.000  0.00  0.00    -0.002 A 
ATOM      8  C6  OXE d   1      -2.430  -5.967  -5.208  0.00  0.00     0.003 A 
ENDROOT
TORSDOF 0
ENDMDL
