MODEL 1
REMARK minimizedAffinity 6.18909502
REMARK minimizedRMSD -1
REMARK  0 active torsions:
REMARK  status: ('A' for Active; 'I' for Inactive)
ROOT
ATOM      1  C2' OXE d   1      -3.318  -1.823  -4.453  0.00  0.00     0.078 C 
ATOM      2  C1' OXE d   1      -5.325  -3.034  -5.998  0.00  0.00     0.078 C 
ATOM      3  C1  OXE d   1      -4.128  -3.870  -5.619  0.00  0.00    -0.078 A 
ATOM      4  C2  OXE d   1      -3.129  -3.256  -4.903  0.00  0.00    -0.078 A 
ATOM      5  C3  OXE d   1      -2.028  -3.996  -4.480  0.00  0.00     0.003 A 
ATOM      6  C4  OXE d   1      -1.857  -5.318  -4.909  0.00  0.00    -0.002 A 
ATOM      7  C5  OXE d   1      -2.843  -5.950  -5.673  0.00  0.00    -0.002 A 
ATOM      8  C6  OXE d   1      -4.002  -5.255  -6.000  0.00  0.00     0.003 A 
ENDROOT
TORSDOF 0
ENDMDL
