MODEL 1
REMARK minimizedAffinity 2.67518091
REMARK minimizedRMSD -1
REMARK  0 active torsions:
REMARK  status: ('A' for Active; 'I' for Inactive)
ROOT
ATOM      1  C2' OXE d   1      -5.494  -2.753  -5.881  0.00  0.00     0.078 C 
ATOM      2  C1' OXE d   1      -5.999  -5.511  -6.000  0.00  0.00     0.078 C 
ATOM      3  C1  OXE d   1      -4.560  -5.061  -5.965  0.00  0.00    -0.078 A 
ATOM      4  C2  OXE d   1      -4.322  -3.708  -5.954  0.00  0.00    -0.078 A 
ATOM      5  C3  OXE d   1      -3.014  -3.239  -5.866  0.00  0.00     0.003 A 
ATOM      6  C4  OXE d   1      -1.935  -4.129  -5.944  0.00  0.00    -0.002 A 
ATOM      7  C5  OXE d   1      -2.156  -5.509  -5.996  0.00  0.00    -0.002 A 
ATOM      8  C6  OXE d   1      -3.460  -5.992  -5.964  0.00  0.00     0.003 A 
ENDROOT
TORSDOF 0
ENDMDL
