MODEL 1
REMARK minimizedAffinity 10.2666578
REMARK minimizedRMSD -1
REMARK  0 active torsions:
REMARK  status: ('A' for Active; 'I' for Inactive)
ROOT
ATOM      1  C2' OXE d   1       3.100   2.233  -1.646  0.00  0.00     0.078 C 
ATOM      2  C1' OXE d   1       5.472   1.367  -0.418  0.00  0.00     0.078 C 
ATOM      3  C1  OXE d   1       4.358   0.363  -0.584  0.00  0.00    -0.078 A 
ATOM      4  C2  OXE d   1       3.185   0.807  -1.144  0.00  0.00    -0.078 A 
ATOM      5  C3  OXE d   1       2.145  -0.091  -1.370  0.00  0.00     0.003 A 
ATOM      6  C4  OXE d   1       2.228  -1.405  -0.893  0.00  0.00    -0.002 A 
ATOM      7  C5  OXE d   1       3.400  -1.867  -0.285  0.00  0.00    -0.002 A 
ATOM      8  C6  OXE d   1       4.487  -1.010  -0.161  0.00  0.00     0.003 A 
ENDROOT
TORSDOF 0
ENDMDL
