MODEL 1
REMARK minimizedAffinity 4.19111967
REMARK minimizedRMSD -1
REMARK  0 active torsions:
REMARK  status: ('A' for Active; 'I' for Inactive)
ROOT
ATOM      1  C2' OXE d   1      -1.013  -4.828  -3.485  0.00  0.00     0.078 C 
ATOM      2  C1' OXE d   1      -2.630  -2.537  -3.619  0.00  0.00     0.078 C 
ATOM      3  C1  OXE d   1      -3.047  -3.741  -4.425  0.00  0.00    -0.078 A 
ATOM      4  C2  OXE d   1      -2.225  -4.841  -4.390  0.00  0.00    -0.078 A 
ATOM      5  C3  OXE d   1      -2.593  -5.998  -5.072  0.00  0.00     0.003 A 
ATOM      6  C4  OXE d   1      -3.710  -5.999  -5.915  0.00  0.00    -0.002 A 
ATOM      7  C5  OXE d   1      -4.539  -4.875  -5.996  0.00  0.00    -0.002 A 
ATOM      8  C6  OXE d   1      -4.246  -3.755  -5.227  0.00  0.00     0.003 A 
ENDROOT
TORSDOF 0
ENDMDL
