MODEL 1
REMARK minimizedAffinity 10.1016741
REMARK minimizedRMSD -1
REMARK  0 active torsions:
REMARK  status: ('A' for Active; 'I' for Inactive)
ROOT
ATOM      1  C2' OXE d   1      -1.193  -3.774  -3.243  0.00  0.00     0.078 C 
ATOM      2  C1' OXE d   1      -1.983  -5.999  -4.761  0.00  0.00     0.078 C 
ATOM      3  C1  OXE d   1      -2.736  -4.708  -4.961  0.00  0.00    -0.078 A 
ATOM      4  C2  OXE d   1      -2.373  -3.637  -4.180  0.00  0.00    -0.078 A 
ATOM      5  C3  OXE d   1      -2.999  -2.407  -4.363  0.00  0.00     0.003 A 
ATOM      6  C4  OXE d   1      -4.097  -2.291  -5.224  0.00  0.00    -0.002 A 
ATOM      7  C5  OXE d   1      -4.508  -3.380  -6.000  0.00  0.00    -0.002 A 
ATOM      8  C6  OXE d   1      -3.813  -4.581  -5.912  0.00  0.00     0.003 A 
ENDROOT
TORSDOF 0
ENDMDL
