MODEL 1
REMARK minimizedAffinity -3.32162213
REMARK minimizedRMSD -1
REMARK  0 active torsions:
REMARK  status: ('A' for Active; 'I' for Inactive)
ROOT
ATOM      1  C2' OXE d   1      -1.874  -2.403  -3.760  0.00  0.00     0.078 C 
ATOM      2  C1' OXE d   1      -0.553  -4.877  -3.658  0.00  0.00     0.078 C 
ATOM      3  C1  OXE d   1      -1.798  -4.779  -4.504  0.00  0.00    -0.078 A 
ATOM      4  C2  OXE d   1      -2.464  -3.577  -4.510  0.00  0.00    -0.078 A 
ATOM      5  C3  OXE d   1      -3.587  -3.416  -5.317  0.00  0.00     0.003 A 
ATOM      6  C4  OXE d   1      -4.132  -4.510  -6.000  0.00  0.00    -0.002 A 
ATOM      7  C5  OXE d   1      -3.491  -5.754  -5.975  0.00  0.00    -0.002 A 
ATOM      8  C6  OXE d   1      -2.302  -5.893  -5.267  0.00  0.00     0.003 A 
ENDROOT
TORSDOF 0
ENDMDL
