MODEL 1
REMARK minimizedAffinity 1.36421299
REMARK minimizedRMSD -1
REMARK  0 active torsions:
REMARK  status: ('A' for Active; 'I' for Inactive)
ROOT
ATOM      1  C2' OXE d   1      -4.272  -3.399  -6.000  0.00  0.00     0.078 C 
ATOM      2  C1' OXE d   1      -3.168  -5.980  -5.999  0.00  0.00     0.078 C 
ATOM      3  C1  OXE d   1      -2.713  -5.020  -4.929  0.00  0.00    -0.078 A 
ATOM      4  C2  OXE d   1      -3.224  -3.745  -4.965  0.00  0.00    -0.078 A 
ATOM      5  C3  OXE d   1      -2.879  -2.836  -3.968  0.00  0.00     0.003 A 
ATOM      6  C4  OXE d   1      -1.901  -3.160  -3.020  0.00  0.00    -0.002 A 
ATOM      7  C5  OXE d   1      -1.339  -4.441  -2.990  0.00  0.00    -0.002 A 
ATOM      8  C6  OXE d   1      -1.764  -5.394  -3.909  0.00  0.00     0.003 A 
ENDROOT
TORSDOF 0
ENDMDL
