MODEL 1
REMARK minimizedAffinity -2.06982136
REMARK minimizedRMSD -1
REMARK  0 active torsions:
REMARK  status: ('A' for Active; 'I' for Inactive)
ROOT
ATOM      1  C2' OXE d   1      -0.748  -3.400  -2.990  0.00  0.00     0.078 C 
ATOM      2  C1' OXE d   1      -0.707  -5.990  -4.073  0.00  0.00     0.078 C 
ATOM      3  C1  OXE d   1      -1.751  -5.030  -4.585  0.00  0.00    -0.078 A 
ATOM      4  C2  OXE d   1      -1.794  -3.780  -4.016  0.00  0.00    -0.078 A 
ATOM      5  C3  OXE d   1      -2.702  -2.837  -4.490  0.00  0.00     0.003 A 
ATOM      6  C4  OXE d   1      -3.673  -3.199  -5.432  0.00  0.00    -0.002 A 
ATOM      7  C5  OXE d   1      -3.672  -4.480  -5.996  0.00  0.00    -0.002 A 
ATOM      8  C6  OXE d   1      -2.693  -5.391  -5.615  0.00  0.00     0.003 A 
ENDROOT
TORSDOF 0
ENDMDL
