MODEL 1
REMARK minimizedAffinity 0.527338684
REMARK minimizedRMSD -1
REMARK  0 active torsions:
REMARK  status: ('A' for Active; 'I' for Inactive)
ROOT
ATOM      1  C2' OXE d   1      -4.485  -3.124  -5.990  0.00  0.00     0.078 C 
ATOM      2  C1' OXE d   1      -4.063  -5.900  -5.999  0.00  0.00     0.078 C 
ATOM      3  C1  OXE d   1      -2.964  -5.023  -5.454  0.00  0.00    -0.078 A 
ATOM      4  C2  OXE d   1      -3.160  -3.663  -5.496  0.00  0.00    -0.078 A 
ATOM      5  C3  OXE d   1      -2.201  -2.812  -4.956  0.00  0.00     0.003 A 
ATOM      6  C4  OXE d   1      -0.973  -3.318  -4.510  0.00  0.00    -0.002 A 
ATOM      7  C5  OXE d   1      -0.738  -4.696  -4.495  0.00  0.00    -0.002 A 
ATOM      8  C6  OXE d   1      -1.737  -5.564  -4.923  0.00  0.00     0.003 A 
ENDROOT
TORSDOF 0
ENDMDL
