MODEL 1
REMARK minimizedAffinity 7.40229654
REMARK minimizedRMSD -1
REMARK  0 active torsions:
REMARK  status: ('A' for Active; 'I' for Inactive)
ROOT
ATOM      1  C2' OXE d   1      -1.055  -5.110  -3.746  0.00  0.00     0.078 C 
ATOM      2  C1' OXE d   1      -2.483  -5.999  -5.993  0.00  0.00     0.078 C 
ATOM      3  C1  OXE d   1      -2.842  -4.651  -5.420  0.00  0.00    -0.078 A 
ATOM      4  C2  OXE d   1      -2.170  -4.244  -4.292  0.00  0.00    -0.078 A 
ATOM      5  C3  OXE d   1      -2.424  -2.986  -3.755  0.00  0.00     0.003 A 
ATOM      6  C4  OXE d   1      -3.464  -2.196  -4.260  0.00  0.00    -0.002 A 
ATOM      7  C5  OXE d   1      -4.188  -2.609  -5.383  0.00  0.00    -0.002 A 
ATOM      8  C6  OXE d   1      -3.862  -3.812  -6.000  0.00  0.00     0.003 A 
ENDROOT
TORSDOF 0
ENDMDL
