MODEL 1
REMARK minimizedAffinity 5.79844141
REMARK minimizedRMSD -1
REMARK  0 active torsions:
REMARK  status: ('A' for Active; 'I' for Inactive)
ROOT
ATOM      1  C2' OXE d   1      -1.176  -5.269  -3.525  0.00  0.00     0.078 C 
ATOM      2  C1' OXE d   1      -2.314  -6.000  -5.985  0.00  0.00     0.078 C 
ATOM      3  C1  OXE d   1      -2.759  -4.700  -5.362  0.00  0.00    -0.078 A 
ATOM      4  C2  OXE d   1      -2.231  -4.373  -4.136  0.00  0.00    -0.078 A 
ATOM      5  C3  OXE d   1      -2.566  -3.159  -3.543  0.00  0.00     0.003 A 
ATOM      6  C4  OXE d   1      -3.551  -2.341  -4.111  0.00  0.00    -0.002 A 
ATOM      7  C5  OXE d   1      -4.130  -2.675  -5.340  0.00  0.00    -0.002 A 
ATOM      8  C6  OXE d   1      -3.714  -3.827  -5.998  0.00  0.00     0.003 A 
ENDROOT
TORSDOF 0
ENDMDL
