MODEL 1
REMARK minimizedAffinity 4.55077934
REMARK minimizedRMSD -1
REMARK  0 active torsions:
REMARK  status: ('A' for Active; 'I' for Inactive)
ROOT
ATOM      1  C2' OXE d   1      -4.175  -3.187  -5.995  0.00  0.00     0.078 C 
ATOM      2  C1' OXE d   1      -4.161  -5.994  -5.995  0.00  0.00     0.078 C 
ATOM      3  C1  OXE d   1      -3.188  -5.286  -5.086  0.00  0.00    -0.078 A 
ATOM      4  C2  OXE d   1      -3.170  -3.913  -5.127  0.00  0.00    -0.078 A 
ATOM      5  C3  OXE d   1      -2.330  -3.209  -4.268  0.00  0.00     0.003 A 
ATOM      6  C4  OXE d   1      -1.397  -3.888  -3.476  0.00  0.00    -0.002 A 
ATOM      7  C5  OXE d   1      -1.372  -5.286  -3.449  0.00  0.00    -0.002 A 
ATOM      8  C6  OXE d   1      -2.288  -5.999  -4.214  0.00  0.00     0.003 A 
ENDROOT
TORSDOF 0
ENDMDL
