MODEL 1
REMARK minimizedAffinity -1.71920168
REMARK minimizedRMSD -1
REMARK  1 active torsions:
REMARK  status: ('A' for Active; 'I' for Inactive)
REMARK    1  A    between atoms: C1_2  and  C2_3 
ROOT
ATOM      1  C2  UNL d   1      -5.383   4.735  -4.746  0.00  0.00    -0.081 A 
ATOM      2  C3  UNL d   1      -5.733   5.309  -3.518  0.00  0.00     0.006 A 
ATOM      3  C4  UNL d   1      -5.946   4.505  -2.395  0.00  0.00     0.002 A 
ATOM      4  C5  UNL d   1      -5.803   3.116  -2.480  0.00  0.00    -0.080 A 
ATOM      5  C6  UNL d   1      -5.998   2.244  -1.275  0.00  0.00     0.076 C 
ATOM      6  C7  UNL d   1      -5.470   2.541  -3.711  0.00  0.00     0.002 A 
ATOM      7  C8  UNL d   1      -5.259   3.344  -4.834  0.00  0.00     0.006 A 
ENDROOT
BRANCH   1   8
ATOM      8  C1  UNL d   1      -5.090   5.604  -5.942  0.00  0.00     0.054 C 
ATOM      9  C   UNL d   1      -3.622   6.000  -5.993  0.00  0.00     0.018 C 
ENDBRANCH   1   8
TORSDOF 1
ENDMDL
