MODEL 1
REMARK minimizedAffinity 0.692201376
REMARK minimizedRMSD -1
REMARK  1 active torsions:
REMARK  status: ('A' for Active; 'I' for Inactive)
REMARK    1  A    between atoms: C1_2  and  C2_3 
ROOT
ATOM      1  C2  UNL d   1      -4.419   5.298  -4.504  0.00  0.00    -0.081 A 
ATOM      2  C3  UNL d   1      -3.765   4.410  -3.640  0.00  0.00     0.006 A 
ATOM      3  C4  UNL d   1      -4.228   4.221  -2.336  0.00  0.00     0.002 A 
ATOM      4  C5  UNL d   1      -5.356   4.910  -1.876  0.00  0.00    -0.080 A 
ATOM      5  C6  UNL d   1      -5.881   4.693  -0.488  0.00  0.00     0.076 C 
ATOM      6  C7  UNL d   1      -5.998   5.810  -2.733  0.00  0.00     0.002 A 
ATOM      7  C8  UNL d   1      -5.536   6.000  -4.037  0.00  0.00     0.006 A 
ENDROOT
BRANCH   1   8
ATOM      8  C1  UNL d   1      -3.961   5.456  -5.931  0.00  0.00     0.054 C 
ATOM      9  C   UNL d   1      -2.541   5.999  -6.000  0.00  0.00     0.018 C 
ENDBRANCH   1   8
TORSDOF 1
ENDMDL
