MODEL 1
REMARK minimizedAffinity -2.78646469
REMARK minimizedRMSD -1
REMARK  1 active torsions:
REMARK  status: ('A' for Active; 'I' for Inactive)
REMARK    1  A    between atoms: C1_2  and  C2_3 
ROOT
ATOM      1  C2  UNL d   1      -4.956   4.003  -4.692  0.00  0.00    -0.081 A 
ATOM      2  C3  UNL d   1      -4.618   5.341  -4.454  0.00  0.00     0.006 A 
ATOM      3  C4  UNL d   1      -4.964   5.955  -3.248  0.00  0.00     0.002 A 
ATOM      4  C5  UNL d   1      -5.646   5.240  -2.257  0.00  0.00    -0.080 A 
ATOM      5  C6  UNL d   1      -5.997   5.879  -0.946  0.00  0.00     0.076 C 
ATOM      6  C7  UNL d   1      -6.000   3.909  -2.502  0.00  0.00     0.002 A 
ATOM      7  C8  UNL d   1      -5.655   3.295  -3.708  0.00  0.00     0.006 A 
ENDROOT
BRANCH   1   8
ATOM      8  C1  UNL d   1      -4.528   3.319  -5.965  0.00  0.00     0.054 C 
ATOM      9  C   UNL d   1      -3.067   2.896  -5.901  0.00  0.00     0.018 C 
ENDBRANCH   1   8
TORSDOF 1
ENDMDL
