MODEL 1
REMARK minimizedAffinity 16.522377
REMARK minimizedRMSD -1
REMARK  1 active torsions:
REMARK  status: ('A' for Active; 'I' for Inactive)
REMARK    1  A    between atoms: C1_2  and  C2_3 
ROOT
ATOM      1  C2  UNL d   1       1.698   2.384  -4.145  0.00  0.00    -0.081 A 
ATOM      2  C3  UNL d   1       2.395   2.611  -2.953  0.00  0.00     0.006 A 
ATOM      3  C4  UNL d   1       2.840   1.538  -2.177  0.00  0.00     0.002 A 
ATOM      4  C5  UNL d   1       2.602   0.221  -2.585  0.00  0.00    -0.080 A 
ATOM      5  C6  UNL d   1       3.101  -0.940  -1.777  0.00  0.00     0.076 C 
ATOM      6  C7  UNL d   1       1.890  -0.006  -3.768  0.00  0.00     0.002 A 
ATOM      7  C8  UNL d   1       1.444   1.067  -4.543  0.00  0.00     0.006 A 
ENDROOT
BRANCH   1   8
ATOM      8  C1  UNL d   1       1.273   3.539  -5.016  0.00  0.00     0.054 C 
ATOM      9  C   UNL d   1      -0.242   3.602  -5.152  0.00  0.00     0.018 C 
ENDBRANCH   1   8
TORSDOF 1
ENDMDL
