MODEL 1
REMARK minimizedAffinity 14.1324186
REMARK minimizedRMSD -1
REMARK  1 active torsions:
REMARK  status: ('A' for Active; 'I' for Inactive)
REMARK    1  A    between atoms: C1_2  and  C2_3 
ROOT
ATOM      1  C2  UNL d   1      -2.592  -5.232  -2.538  0.00  0.00    -0.081 A 
ATOM      2  C3  UNL d   1      -2.867  -5.637  -1.226  0.00  0.00     0.006 A 
ATOM      3  C4  UNL d   1      -3.961  -5.110  -0.536  0.00  0.00     0.002 A 
ATOM      4  C5  UNL d   1      -4.804  -4.176  -1.149  0.00  0.00    -0.080 A 
ATOM      5  C6  UNL d   1      -6.000  -3.625  -0.430  0.00  0.00     0.076 C 
ATOM      6  C7  UNL d   1      -4.519  -3.758  -2.453  0.00  0.00     0.002 A 
ATOM      7  C8  UNL d   1      -3.425  -4.284  -3.143  0.00  0.00     0.006 A 
ENDROOT
BRANCH   1   8
ATOM      8  C1  UNL d   1      -1.451  -5.846  -3.307  0.00  0.00     0.054 C 
ATOM      9  C   UNL d   1      -1.796  -5.999  -4.781  0.00  0.00     0.018 C 
ENDBRANCH   1   8
TORSDOF 1
ENDMDL
