MODEL 1
REMARK minimizedAffinity 1.34846592
REMARK minimizedRMSD -1
REMARK  1 active torsions:
REMARK  status: ('A' for Active; 'I' for Inactive)
REMARK    1  A    between atoms: C1_2  and  C2_3 
ROOT
ATOM      1  C2  UNL d   1      -2.675  -2.739  -0.618  0.00  0.00    -0.081 A 
ATOM      2  C3  UNL d   1      -3.224  -1.978   0.421  0.00  0.00     0.006 A 
ATOM      3  C4  UNL d   1      -2.420  -1.113   1.166  0.00  0.00     0.002 A 
ATOM      4  C5  UNL d   1      -1.056  -0.988   0.880  0.00  0.00    -0.080 A 
ATOM      5  C6  UNL d   1      -0.188  -0.039   1.653  0.00  0.00     0.076 C 
ATOM      6  C7  UNL d   1      -0.504  -1.761  -0.146  0.00  0.00     0.002 A 
ATOM      7  C8  UNL d   1      -1.307  -2.627  -0.891  0.00  0.00     0.006 A 
ENDROOT
BRANCH   1   8
ATOM      8  C1  UNL d   1      -3.552  -3.625  -1.465  0.00  0.00     0.054 C 
ATOM      9  C   UNL d   1      -4.417  -4.534  -0.604  0.00  0.00     0.018 C 
ENDBRANCH   1   8
TORSDOF 1
ENDMDL
