MODEL 1
REMARK minimizedAffinity -2.42723823
REMARK minimizedRMSD -1
REMARK  1 active torsions:
REMARK  status: ('A' for Active; 'I' for Inactive)
REMARK    1  A    between atoms: C1_2  and  C2_3 
ROOT
ATOM      1  C2  UNL d   1      -5.938   3.817  -1.121  0.00  0.00    -0.081 A 
ATOM      2  C3  UNL d   1      -5.874   2.602  -1.814  0.00  0.00     0.006 A 
ATOM      3  C4  UNL d   1      -5.878   1.390  -1.120  0.00  0.00     0.002 A 
ATOM      4  C5  UNL d   1      -5.953   1.372   0.277  0.00  0.00    -0.080 A 
ATOM      5  C6  UNL d   1      -5.989   0.077   1.032  0.00  0.00     0.076 C 
ATOM      6  C7  UNL d   1      -6.000   2.586   0.970  0.00  0.00     0.002 A 
ATOM      7  C8  UNL d   1      -5.995   3.799   0.277  0.00  0.00     0.006 A 
ENDROOT
BRANCH   1   8
ATOM      8  C1  UNL d   1      -6.000   5.124  -1.870  0.00  0.00     0.054 C 
ATOM      9  C   UNL d   1      -5.909   4.906  -3.373  0.00  0.00     0.018 C 
ENDBRANCH   1   8
TORSDOF 1
ENDMDL
