MODEL 1
REMARK minimizedAffinity 14.2946272
REMARK minimizedRMSD -1
REMARK  1 active torsions:
REMARK  status: ('A' for Active; 'I' for Inactive)
REMARK    1  A    between atoms: C1_2  and  C2_3 
ROOT
ATOM      1  C2  UNL d   1       1.137   2.973  -4.914  0.00  0.00    -0.081 A 
ATOM      2  C3  UNL d   1       1.515   4.095  -5.661  0.00  0.00     0.006 A 
ATOM      3  C4  UNL d   1       0.574   5.071  -5.999  0.00  0.00     0.002 A 
ATOM      4  C5  UNL d   1      -0.757   4.945  -5.590  0.00  0.00    -0.080 A 
ATOM      5  C6  UNL d   1      -1.771   6.000  -5.921  0.00  0.00     0.076 C 
ATOM      6  C7  UNL d   1      -1.139   3.815  -4.859  0.00  0.00     0.002 A 
ATOM      7  C8  UNL d   1      -0.199   2.839  -4.521  0.00  0.00     0.006 A 
ENDROOT
BRANCH   1   8
ATOM      8  C1  UNL d   1       2.162   1.952  -4.492  0.00  0.00     0.054 C 
ATOM      9  C   UNL d   1       1.792   1.313  -3.161  0.00  0.00     0.018 C 
ENDBRANCH   1   8
TORSDOF 1
ENDMDL
