MODEL 1
REMARK minimizedAffinity 2.14509106
REMARK minimizedRMSD -1
REMARK  1 active torsions:
REMARK  status: ('A' for Active; 'I' for Inactive)
REMARK    1  A    between atoms: C1_2  and  C2_3 
ROOT
ATOM      1  C2  UNL d   1      -5.934   3.686  -0.950  0.00  0.00    -0.081 A 
ATOM      2  C3  UNL d   1      -6.000   5.085  -0.964  0.00  0.00     0.006 A 
ATOM      3  C4  UNL d   1      -5.999   5.782  -2.174  0.00  0.00     0.002 A 
ATOM      4  C5  UNL d   1      -5.941   5.092  -3.390  0.00  0.00    -0.080 A 
ATOM      5  C6  UNL d   1      -5.971   5.827  -4.697  0.00  0.00     0.076 C 
ATOM      6  C7  UNL d   1      -5.858   3.696  -3.376  0.00  0.00     0.002 A 
ATOM      7  C8  UNL d   1      -5.858   2.998  -2.166  0.00  0.00     0.006 A 
ENDROOT
BRANCH   1   8
ATOM      8  C1  UNL d   1      -6.000   2.928   0.352  0.00  0.00     0.054 C 
ATOM      9  C   UNL d   1      -5.337   1.564   0.232  0.00  0.00     0.018 C 
ENDBRANCH   1   8
TORSDOF 1
ENDMDL
