MODEL 1
REMARK minimizedAffinity 8.97820282
REMARK minimizedRMSD -1
REMARK  1 active torsions:
REMARK  status: ('A' for Active; 'I' for Inactive)
REMARK    1  A    between atoms: C1_2  and  C2_3 
ROOT
ATOM      1  C2  UNL d   1       0.864  -0.711  -0.161  0.00  0.00    -0.081 A 
ATOM      2  C3  UNL d   1       0.670  -0.738   1.226  0.00  0.00     0.006 A 
ATOM      3  C4  UNL d   1      -0.620  -0.788   1.759  0.00  0.00     0.002 A 
ATOM      4  C5  UNL d   1      -1.736  -0.819   0.916  0.00  0.00    -0.080 A 
ATOM      5  C6  UNL d   1      -3.125  -0.904   1.475  0.00  0.00     0.076 C 
ATOM      6  C7  UNL d   1      -1.543  -0.774  -0.469  0.00  0.00     0.002 A 
ATOM      7  C8  UNL d   1      -0.253  -0.724  -1.003  0.00  0.00     0.006 A 
ENDROOT
BRANCH   1   8
ATOM      8  C1  UNL d   1       2.256  -0.723  -0.740  0.00  0.00     0.054 C 
ATOM      9  C   UNL d   1       2.669  -2.126  -1.159  0.00  0.00     0.018 C 
ENDBRANCH   1   8
TORSDOF 1
ENDMDL
