MODEL 1
REMARK minimizedAffinity 2.95223331
REMARK minimizedRMSD -1
REMARK  1 active torsions:
REMARK  status: ('A' for Active; 'I' for Inactive)
REMARK    1  A    between atoms: C1_2  and  C2_3 
ROOT
ATOM      1  C2  UNL d   1      -3.785   4.619  -5.873  0.00  0.00    -0.081 A 
ATOM      2  C3  UNL d   1      -3.183   5.880  -5.965  0.00  0.00     0.006 A 
ATOM      3  C4  UNL d   1      -1.791   6.000  -5.993  0.00  0.00     0.002 A 
ATOM      4  C5  UNL d   1      -0.980   4.862  -5.937  0.00  0.00    -0.080 A 
ATOM      5  C6  UNL d   1       0.515   4.974  -5.997  0.00  0.00     0.076 C 
ATOM      6  C7  UNL d   1      -1.581   3.603  -5.827  0.00  0.00     0.002 A 
ATOM      7  C8  UNL d   1      -2.972   3.483  -5.798  0.00  0.00     0.006 A 
ENDROOT
BRANCH   1   8
ATOM      8  C1  UNL d   1      -5.286   4.483  -5.908  0.00  0.00     0.054 C 
ATOM      9  C   UNL d   1      -5.731   3.132  -5.364  0.00  0.00     0.018 C 
ENDBRANCH   1   8
TORSDOF 1
ENDMDL
