MODEL 1
REMARK minimizedAffinity 12.0698862
REMARK minimizedRMSD -1
REMARK  0 active torsions:
REMARK  status: ('A' for Active; 'I' for Inactive)
ROOT
ATOM      1  C   UNL d   1       1.422   1.157   1.891  0.00  0.00    -0.002 A 
ATOM      2  C1  UNL d   1       2.465   2.066   1.995  0.00  0.00     0.010 A 
ATOM      3  C2  UNL d   1       3.378   2.223   0.950  0.00  0.00     0.041 A 
ATOM      4  C3  UNL d   1       3.221   1.445  -0.214  0.00  0.00    -0.075 A 
ATOM      5  S   UNL d   1       4.217   1.468  -1.621  0.00  0.00     0.015 SA
ATOM      6  C4  UNL d   1       3.279   0.274  -2.395  0.00  0.00     0.022 A 
ATOM      7  C5  UNL d   1       2.229  -0.144  -1.613  0.00  0.00     0.026 A 
ATOM      8  C6  UNL d   1       2.177   0.524  -0.343  0.00  0.00    -0.082 A 
ATOM      9  C7  UNL d   1       1.269   0.388   0.734  0.00  0.00     0.045 A 
ENDROOT
TORSDOF 0
ENDMDL
