MODEL 1
REMARK minimizedAffinity 10.2291689
REMARK minimizedRMSD -1
REMARK  0 active torsions:
REMARK  status: ('A' for Active; 'I' for Inactive)
ROOT
ATOM      1  C   UNL d   1       0.131   2.707   3.947  0.00  0.00    -0.002 A 
ATOM      2  C1  UNL d   1      -1.017   2.980   3.217  0.00  0.00     0.010 A 
ATOM      3  C2  UNL d   1      -1.089   2.660   1.860  0.00  0.00     0.041 A 
ATOM      4  C3  UNL d   1       0.023   2.052   1.244  0.00  0.00    -0.075 A 
ATOM      5  S   UNL d   1       0.162   1.570  -0.406  0.00  0.00     0.015 SA
ATOM      6  C4  UNL d   1       1.748   0.989  -0.180  0.00  0.00     0.022 A 
ATOM      7  C5  UNL d   1       2.177   1.151   1.116  0.00  0.00     0.026 A 
ATOM      8  C6  UNL d   1       1.190   1.766   1.958  0.00  0.00    -0.082 A 
ATOM      9  C7  UNL d   1       1.232   2.104   3.332  0.00  0.00     0.045 A 
ENDROOT
TORSDOF 0
ENDMDL
