MODEL 1
REMARK minimizedAffinity 4.38834572
REMARK minimizedRMSD -1
REMARK  0 active torsions:
REMARK  status: ('A' for Active; 'I' for Inactive)
ROOT
ATOM      1  C   UNL d   1       0.485   1.519   1.871  0.00  0.00    -0.002 A 
ATOM      2  C1  UNL d   1       1.209   0.942   0.838  0.00  0.00     0.010 A 
ATOM      3  C2  UNL d   1       2.535   1.313   0.606  0.00  0.00     0.041 A 
ATOM      4  C3  UNL d   1       3.127   2.282   1.439  0.00  0.00    -0.075 A 
ATOM      5  S   UNL d   1       4.738   2.890   1.343  0.00  0.00     0.015 SA
ATOM      6  C4  UNL d   1       4.503   3.931   2.673  0.00  0.00     0.022 A 
ATOM      7  C5  UNL d   1       3.233   3.829   3.189  0.00  0.00     0.026 A 
ATOM      8  C6  UNL d   1       2.419   2.877   2.487  0.00  0.00    -0.082 A 
ATOM      9  C7  UNL d   1       1.076   2.480   2.696  0.00  0.00     0.045 A 
ENDROOT
TORSDOF 0
ENDMDL
