MODEL 1
REMARK minimizedAffinity 13.3779039
REMARK minimizedRMSD -1
REMARK  0 active torsions:
REMARK  status: ('A' for Active; 'I' for Inactive)
ROOT
ATOM      1  C   UNL d   1      -5.998   2.661   0.525  0.00  0.00    -0.002 A 
ATOM      2  C1  UNL d   1      -5.207   3.764   0.814  0.00  0.00     0.010 A 
ATOM      3  C2  UNL d   1      -3.899   3.599   1.275  0.00  0.00     0.041 A 
ATOM      4  C3  UNL d   1      -3.395   2.294   1.439  0.00  0.00    -0.075 A 
ATOM      5  S   UNL d   1      -1.823   1.849   1.990  0.00  0.00     0.015 SA
ATOM      6  C4  UNL d   1      -2.164   0.185   1.853  0.00  0.00     0.022 A 
ATOM      7  C5  UNL d   1      -3.442  -0.044   1.400  0.00  0.00     0.026 A 
ATOM      8  C6  UNL d   1      -4.172   1.168   1.154  0.00  0.00    -0.082 A 
ATOM      9  C7  UNL d   1      -5.494   1.368   0.689  0.00  0.00     0.045 A 
ENDROOT
TORSDOF 0
ENDMDL
