MODEL 1
REMARK minimizedAffinity -5.39309216
REMARK minimizedRMSD -1
REMARK  1 active torsions:
REMARK  status: ('A' for Active; 'I' for Inactive)
REMARK    1  A    between atoms: C1_2  and  C2_3 
ROOT
ATOM      1  C2  UNL d   1      -0.434   0.659   0.294  0.00  0.00    -0.077 A 
ATOM      2  C3  UNL d   1       0.682   1.114  -0.421  0.00  0.00     0.002 A 
ATOM      3  C4  UNL d   1       0.920   2.482  -0.564  0.00  0.00     0.002 A 
ATOM      4  C5  UNL d   1       0.049   3.406   0.009  0.00  0.00    -0.004 A 
ATOM      5  C6  UNL d   1      -1.065   2.964   0.721  0.00  0.00     0.002 A 
ATOM      6  C7  UNL d   1      -1.305   1.597   0.864  0.00  0.00     0.002 A 
ENDROOT
BRANCH   1   7
ATOM      7  C1  UNL d   1      -0.666  -0.816   0.491  0.00  0.00     0.055 C 
ATOM      8  C   UNL d   1       0.604  -1.615   0.233  0.00  0.00     0.019 C 
ENDBRANCH   1   7
TORSDOF 1
ENDMDL
