MODEL 1
REMARK minimizedAffinity -5.14549065
REMARK minimizedRMSD -1
REMARK  1 active torsions:
REMARK  status: ('A' for Active; 'I' for Inactive)
REMARK    1  A    between atoms: C1_2  and  C2_3 
ROOT
ATOM      1  C2  UNL d   1       1.030   0.746   0.698  0.00  0.00    -0.077 A 
ATOM      2  C3  UNL d   1       0.217   1.883   0.590  0.00  0.00     0.002 A 
ATOM      3  C4  UNL d   1       0.781   3.133   0.326  0.00  0.00     0.002 A 
ATOM      4  C5  UNL d   1       2.160   3.256   0.163  0.00  0.00    -0.004 A 
ATOM      5  C6  UNL d   1       2.977   2.132   0.271  0.00  0.00     0.002 A 
ATOM      6  C7  UNL d   1       2.415   0.882   0.537  0.00  0.00     0.002 A 
ENDROOT
BRANCH   1   7
ATOM      7  C1  UNL d   1       0.418  -0.610   0.934  0.00  0.00     0.055 C 
ATOM      8  C   UNL d   1      -0.149  -1.193  -0.352  0.00  0.00     0.019 C 
ENDBRANCH   1   7
TORSDOF 1
ENDMDL
