MODEL 1
REMARK minimizedAffinity -4.65464544
REMARK minimizedRMSD -1
REMARK  1 active torsions:
REMARK  status: ('A' for Active; 'I' for Inactive)
REMARK    1  A    between atoms: C1_2  and  C2_3 
ROOT
ATOM      1  C2  UNL d   1       0.208   0.379   0.230  0.00  0.00    -0.077 A 
ATOM      2  C3  UNL d   1      -0.869   1.167   0.658  0.00  0.00     0.002 A 
ATOM      3  C4  UNL d   1      -0.871   2.545   0.432  0.00  0.00     0.002 A 
ATOM      4  C5  UNL d   1       0.200   3.145  -0.227  0.00  0.00    -0.004 A 
ATOM      5  C6  UNL d   1       1.277   2.370  -0.655  0.00  0.00     0.002 A 
ATOM      6  C7  UNL d   1       1.281   0.993  -0.428  0.00  0.00     0.002 A 
ENDROOT
BRANCH   1   7
ATOM      7  C1  UNL d   1       0.189  -1.114   0.430  0.00  0.00     0.055 C 
ATOM      8  C   UNL d   1      -0.218  -1.838  -0.845  0.00  0.00     0.019 C 
ENDBRANCH   1   7
TORSDOF 1
ENDMDL
