MODEL 1
REMARK minimizedAffinity -3.25520134
REMARK minimizedRMSD -1
REMARK  1 active torsions:
REMARK  status: ('A' for Active; 'I' for Inactive)
REMARK    1  A    between atoms: C1_2  and  C2_3 
ROOT
ATOM      1  C2  UNL d   1       0.004   0.369   0.372  0.00  0.00    -0.077 A 
ATOM      2  C3  UNL d   1      -1.036   0.494   1.304  0.00  0.00     0.002 A 
ATOM      3  C4  UNL d   1      -1.604   1.742   1.566  0.00  0.00     0.002 A 
ATOM      4  C5  UNL d   1      -1.142   2.874   0.897  0.00  0.00    -0.004 A 
ATOM      5  C6  UNL d   1      -0.107   2.761  -0.030  0.00  0.00     0.002 A 
ATOM      6  C7  UNL d   1       0.463   1.514  -0.292  0.00  0.00     0.002 A 
ENDROOT
BRANCH   1   7
ATOM      7  C1  UNL d   1       0.584  -0.983   0.052  0.00  0.00     0.055 C 
ATOM      8  C   UNL d   1      -0.446  -1.884  -0.615  0.00  0.00     0.019 C 
ENDBRANCH   1   7
TORSDOF 1
ENDMDL
