MODEL 1
REMARK minimizedAffinity -3.8890624
REMARK minimizedRMSD -1
REMARK  1 active torsions:
REMARK  status: ('A' for Active; 'I' for Inactive)
REMARK    1  A    between atoms: C1_2  and  C2_3 
ROOT
ATOM      1  C2  UNL d   1      -0.053   0.256   0.029  0.00  0.00    -0.077 A 
ATOM      2  C3  UNL d   1       0.365   0.689  -1.237  0.00  0.00     0.002 A 
ATOM      3  C4  UNL d   1       0.496   2.051  -1.511  0.00  0.00     0.002 A 
ATOM      4  C5  UNL d   1       0.214   2.992  -0.523  0.00  0.00    -0.004 A 
ATOM      5  C6  UNL d   1      -0.205   2.572   0.739  0.00  0.00     0.002 A 
ATOM      6  C7  UNL d   1      -0.337   1.211   1.014  0.00  0.00     0.002 A 
ENDROOT
BRANCH   1   7
ATOM      7  C1  UNL d   1      -0.147  -1.214   0.341  0.00  0.00     0.055 C 
ATOM      8  C   UNL d   1      -0.236  -2.046  -0.931  0.00  0.00     0.019 C 
ENDBRANCH   1   7
TORSDOF 1
ENDMDL
