MODEL 1
REMARK minimizedAffinity -4.73585653
REMARK minimizedRMSD -1
REMARK  1 active torsions:
REMARK  status: ('A' for Active; 'I' for Inactive)
REMARK    1  A    between atoms: C1_2  and  C2_3 
ROOT
ATOM      1  C2  UNL d   1      -0.257   0.237  -0.010  0.00  0.00    -0.077 A 
ATOM      2  C3  UNL d   1      -1.139   0.949   0.815  0.00  0.00     0.002 A 
ATOM      3  C4  UNL d   1      -1.034   2.337   0.930  0.00  0.00     0.002 A 
ATOM      4  C5  UNL d   1      -0.052   3.024   0.219  0.00  0.00    -0.004 A 
ATOM      5  C6  UNL d   1       0.831   2.324  -0.603  0.00  0.00     0.002 A 
ATOM      6  C7  UNL d   1       0.728   0.937  -0.718  0.00  0.00     0.002 A 
ENDROOT
BRANCH   1   7
ATOM      7  C1  UNL d   1      -0.401  -1.254  -0.174  0.00  0.00     0.055 C 
ATOM      8  C   UNL d   1       0.474  -1.773  -1.306  0.00  0.00     0.019 C 
ENDBRANCH   1   7
TORSDOF 1
ENDMDL
