MODEL 1
REMARK minimizedAffinity -3.80427551
REMARK minimizedRMSD -1
REMARK  1 active torsions:
REMARK  status: ('A' for Active; 'I' for Inactive)
REMARK    1  A    between atoms: C1_2  and  C2_3 
ROOT
ATOM      1  C2  UNL d   1       0.158  -0.995  -0.044  0.00  0.00    -0.077 A 
ATOM      2  C3  UNL d   1       1.369  -0.931   0.660  0.00  0.00     0.002 A 
ATOM      3  C4  UNL d   1       2.198   0.186   0.539  0.00  0.00     0.002 A 
ATOM      4  C5  UNL d   1       1.823   1.249  -0.281  0.00  0.00    -0.004 A 
ATOM      5  C6  UNL d   1       0.622   1.194  -0.986  0.00  0.00     0.002 A 
ATOM      6  C7  UNL d   1      -0.207   0.077  -0.868  0.00  0.00     0.002 A 
ENDROOT
BRANCH   1   7
ATOM      7  C1  UNL d   1      -0.760  -2.177   0.123  0.00  0.00     0.055 C 
ATOM      8  C   UNL d   1      -0.908  -2.951  -1.179  0.00  0.00     0.019 C 
ENDBRANCH   1   7
TORSDOF 1
ENDMDL
