MODEL 1
REMARK minimizedAffinity -5.51362562
REMARK minimizedRMSD -1
REMARK  1 active torsions:
REMARK  status: ('A' for Active; 'I' for Inactive)
REMARK    1  A    between atoms: C1_2  and  C2_3 
ROOT
ATOM      1  C2  UNL d   1      -0.119   0.004  -0.161  0.00  0.00    -0.077 A 
ATOM      2  C3  UNL d   1       1.026   0.617  -0.691  0.00  0.00     0.002 A 
ATOM      3  C4  UNL d   1       1.125   2.009  -0.737  0.00  0.00     0.002 A 
ATOM      4  C5  UNL d   1       0.086   2.799  -0.251  0.00  0.00    -0.004 A 
ATOM      5  C6  UNL d   1      -1.057   2.200   0.276  0.00  0.00     0.002 A 
ATOM      6  C7  UNL d   1      -1.159   0.809   0.322  0.00  0.00     0.002 A 
ENDROOT
BRANCH   1   7
ATOM      7  C1  UNL d   1      -0.207  -1.496  -0.066  0.00  0.00     0.055 C 
ATOM      8  C   UNL d   1      -0.408  -2.127  -1.436  0.00  0.00     0.019 C 
ENDBRANCH   1   7
TORSDOF 1
ENDMDL
