MODEL 1
REMARK minimizedAffinity -3.59852195
REMARK minimizedRMSD -1
REMARK  2 active torsions:
REMARK  status: ('A' for Active; 'I' for Inactive)
REMARK    1  A    between atoms: C1_2  and  C2_3 
REMARK    2  A    between atoms: C2_3  and  C3_4 
ROOT
ATOM      1  C3  UNL d   1      -0.197   0.030   0.424  0.00  0.00    -0.075 A 
ATOM      2  C4  UNL d   1       0.443   1.049   1.144  0.00  0.00     0.002 A 
ATOM      3  C5  UNL d   1       1.670   0.814   1.765  0.00  0.00     0.002 A 
ATOM      4  C6  UNL d   1       2.266  -0.443   1.683  0.00  0.00    -0.004 A 
ATOM      5  C7  UNL d   1       1.631  -1.467   0.985  0.00  0.00     0.002 A 
ATOM      6  C8  UNL d   1       0.405  -1.233   0.359  0.00  0.00     0.002 A 
ENDROOT
BRANCH   1   7
ATOM      7  C2  UNL d   1      -1.511   0.287  -0.275  0.00  0.00     0.056 C 
BRANCH   7   8
ATOM      8  C1  UNL d   1      -1.513  -0.096  -1.759  0.00  0.00     0.007 C 
ATOM      9  C   UNL d   1      -2.802   0.284  -2.475  0.00  0.00     0.009 C 
ENDBRANCH   7   8
ENDBRANCH   1   7
TORSDOF 2
ENDMDL
