MODEL 1
REMARK minimizedAffinity -0.494739562
REMARK minimizedRMSD -1
REMARK  2 active torsions:
REMARK  status: ('A' for Active; 'I' for Inactive)
REMARK    1  A    between atoms: C1_2  and  C2_3 
REMARK    2  A    between atoms: C2_3  and  C3_4 
ROOT
ATOM      1  C3  UNL d   1       2.140  -0.509   3.140  0.00  0.00    -0.075 A 
ATOM      2  C4  UNL d   1       2.212   0.476   4.135  0.00  0.00     0.002 A 
ATOM      3  C5  UNL d   1       2.452   1.808   3.797  0.00  0.00     0.002 A 
ATOM      4  C6  UNL d   1       2.634   2.170   2.464  0.00  0.00    -0.004 A 
ATOM      5  C7  UNL d   1       2.582   1.197   1.469  0.00  0.00     0.002 A 
ATOM      6  C8  UNL d   1       2.337  -0.136   1.804  0.00  0.00     0.002 A 
ENDROOT
BRANCH   1   7
ATOM      7  C2  UNL d   1       1.850  -1.948   3.496  0.00  0.00     0.056 C 
BRANCH   7   8
ATOM      8  C1  UNL d   1       3.050  -2.699   4.083  0.00  0.00     0.007 C 
ATOM      9  C   UNL d   1       2.706  -4.104   4.557  0.00  0.00     0.009 C 
ENDBRANCH   7   8
ENDBRANCH   1   7
TORSDOF 2
ENDMDL
