MODEL 1
REMARK minimizedAffinity 6.92500925
REMARK minimizedRMSD -1
REMARK  2 active torsions:
REMARK  status: ('A' for Active; 'I' for Inactive)
REMARK    1  A    between atoms: C1_2  and  C2_3 
REMARK    2  A    between atoms: C2_3  and  C3_4 
ROOT
ATOM      1  C3  UNL d   1       1.750  -0.120   2.043  0.00  0.00    -0.075 A 
ATOM      2  C4  UNL d   1       2.004  -0.966   3.133  0.00  0.00     0.002 A 
ATOM      3  C5  UNL d   1       1.297  -2.160   3.283  0.00  0.00     0.002 A 
ATOM      4  C6  UNL d   1       0.322  -2.517   2.354  0.00  0.00    -0.004 A 
ATOM      5  C7  UNL d   1       0.049  -1.676   1.277  0.00  0.00     0.002 A 
ATOM      6  C8  UNL d   1       0.758  -0.484   1.122  0.00  0.00     0.002 A 
ENDROOT
BRANCH   1   7
ATOM      7  C2  UNL d   1       2.532   1.158   1.859  0.00  0.00     0.056 C 
BRANCH   7   8
ATOM      8  C1  UNL d   1       2.306   2.193   2.966  0.00  0.00     0.007 C 
ATOM      9  C   UNL d   1       3.543   3.026   3.271  0.00  0.00     0.009 C 
ENDBRANCH   7   8
ENDBRANCH   1   7
TORSDOF 2
ENDMDL
