MODEL 1
REMARK minimizedAffinity 6.43992233
REMARK minimizedRMSD -1
REMARK  2 active torsions:
REMARK  status: ('A' for Active; 'I' for Inactive)
REMARK    1  A    between atoms: C1_2  and  C2_3 
REMARK    2  A    between atoms: C2_3  and  C3_4 
ROOT
ATOM      1  C3  UNL d   1       1.894  -1.956   3.235  0.00  0.00    -0.075 A 
ATOM      2  C4  UNL d   1       2.511  -0.761   2.837  0.00  0.00     0.002 A 
ATOM      3  C5  UNL d   1       2.151  -0.143   1.639  0.00  0.00     0.002 A 
ATOM      4  C6  UNL d   1       1.180  -0.716   0.820  0.00  0.00    -0.004 A 
ATOM      5  C7  UNL d   1       0.573  -1.912   1.198  0.00  0.00     0.002 A 
ATOM      6  C8  UNL d   1       0.928  -2.530   2.398  0.00  0.00     0.002 A 
ENDROOT
BRANCH   1   7
ATOM      7  C2  UNL d   1       2.258  -2.614   4.544  0.00  0.00     0.056 C 
BRANCH   7   8
ATOM      8  C1  UNL d   1       3.267  -3.759   4.408  0.00  0.00     0.007 C 
ATOM      9  C   UNL d   1       4.714  -3.284   4.389  0.00  0.00     0.009 C 
ENDBRANCH   7   8
ENDBRANCH   1   7
TORSDOF 2
ENDMDL
