MODEL 1
REMARK minimizedAffinity 11.9486389
REMARK minimizedRMSD -1
REMARK  2 active torsions:
REMARK  status: ('A' for Active; 'I' for Inactive)
REMARK    1  A    between atoms: C1_2  and  C2_3 
REMARK    2  A    between atoms: C2_3  and  C3_4 
ROOT
ATOM      1  C3  UNL d   1      -0.301  -2.831  -1.218  0.00  0.00    -0.075 A 
ATOM      2  C4  UNL d   1       0.471  -3.924  -0.799  0.00  0.00     0.002 A 
ATOM      3  C5  UNL d   1       1.654  -4.251  -1.462  0.00  0.00     0.002 A 
ATOM      4  C6  UNL d   1       2.075  -3.498  -2.555  0.00  0.00    -0.004 A 
ATOM      5  C7  UNL d   1       1.308  -2.419  -2.990  0.00  0.00     0.002 A 
ATOM      6  C8  UNL d   1       0.126  -2.087  -2.327  0.00  0.00     0.002 A 
ENDROOT
BRANCH   1   7
ATOM      7  C2  UNL d   1      -1.568  -2.454  -0.488  0.00  0.00     0.056 C 
BRANCH   7   8
ATOM      8  C1  UNL d   1      -1.398  -1.292   0.496  0.00  0.00     0.007 C 
ATOM      9  C   UNL d   1       0.037  -1.115   0.975  0.00  0.00     0.009 C 
ENDBRANCH   7   8
ENDBRANCH   1   7
TORSDOF 2
ENDMDL
