MODEL 1
REMARK minimizedAffinity -2.87756968
REMARK minimizedRMSD -1
REMARK  0 active torsions:
REMARK  status: ('A' for Active; 'I' for Inactive)
ROOT
ATOM      1  C   UNL d   1       0.766   5.818   6.000  0.00  0.00     0.172 C 
ATOM      2  N   UNL d   1       1.888   5.046   5.520  0.00  0.00    -0.070 N 
ATOM      3  C1  UNL d   1       2.271   3.818   5.991  0.00  0.00    -0.004 A 
ATOM      4  C2  UNL d   1       3.380   3.420   5.276  0.00  0.00    -0.047 A 
ATOM      5  C3  UNL d   1       3.673   4.443   4.344  0.00  0.00    -0.047 A 
ATOM      6  C4  UNL d   1       2.734   5.438   4.517  0.00  0.00    -0.004 A 
ENDROOT
TORSDOF 0
ENDMDL
