MODEL 1
REMARK minimizedAffinity 9.15202332
REMARK minimizedRMSD -1
REMARK  0 active torsions:
REMARK  status: ('A' for Active; 'I' for Inactive)
ROOT
ATOM      1  C   UNL d   1       2.999  -0.036  -0.947  0.00  0.00     0.172 C 
ATOM      2  N   UNL d   1       3.563  -0.934   0.034  0.00  0.00    -0.070 N 
ATOM      3  C1  UNL d   1       3.132  -2.208   0.290  0.00  0.00    -0.004 A 
ATOM      4  C2  UNL d   1       3.926  -2.729   1.289  0.00  0.00    -0.047 A 
ATOM      5  C3  UNL d   1       4.866  -1.733   1.646  0.00  0.00    -0.047 A 
ATOM      6  C4  UNL d   1       4.618  -0.632   0.853  0.00  0.00    -0.004 A 
ENDROOT
TORSDOF 0
ENDMDL
