MODEL 1
REMARK minimizedAffinity 6.39712858
REMARK minimizedRMSD -1
REMARK  0 active torsions:
REMARK  status: ('A' for Active; 'I' for Inactive)
ROOT
ATOM      1  C   UNL d   1       3.193   1.570   1.728  0.00  0.00     0.172 C 
ATOM      2  N   UNL d   1       3.014   0.676   0.608  0.00  0.00    -0.070 N 
ATOM      3  C1  UNL d   1       2.459   1.009  -0.598  0.00  0.00    -0.004 A 
ATOM      4  C2  UNL d   1       2.469  -0.118  -1.393  0.00  0.00    -0.047 A 
ATOM      5  C3  UNL d   1       3.049  -1.164  -0.637  0.00  0.00    -0.047 A 
ATOM      6  C4  UNL d   1       3.377  -0.645   0.598  0.00  0.00    -0.004 A 
ENDROOT
TORSDOF 0
ENDMDL
