MODEL 1
REMARK minimizedAffinity 1.8730458
REMARK minimizedRMSD -1
REMARK  0 active torsions:
REMARK  status: ('A' for Active; 'I' for Inactive)
ROOT
ATOM      1  C   UNL d   1      -0.936   1.563  -1.125  0.00  0.00     0.172 C 
ATOM      2  N   UNL d   1      -2.247   1.219  -0.628  0.00  0.00    -0.070 N 
ATOM      3  C1  UNL d   1      -2.875   1.806   0.438  0.00  0.00    -0.004 A 
ATOM      4  C2  UNL d   1      -4.104   1.200   0.590  0.00  0.00    -0.047 A 
ATOM      5  C3  UNL d   1      -4.217   0.214  -0.419  0.00  0.00    -0.047 A 
ATOM      6  C4  UNL d   1      -3.054   0.247  -1.159  0.00  0.00    -0.004 A 
ENDROOT
TORSDOF 0
ENDMDL
