MODEL 1
REMARK minimizedAffinity 0.510567367
REMARK minimizedRMSD -1
REMARK  0 active torsions:
REMARK  status: ('A' for Active; 'I' for Inactive)
ROOT
ATOM      1  C   UNL d   1       3.194   5.027   3.396  0.00  0.00     0.172 C 
ATOM      2  N   UNL d   1       2.963   3.824   4.161  0.00  0.00    -0.070 N 
ATOM      3  C1  UNL d   1       2.930   3.741   5.528  0.00  0.00    -0.004 A 
ATOM      4  C2  UNL d   1       2.683   2.428   5.865  0.00  0.00    -0.047 A 
ATOM      5  C3  UNL d   1       2.564   1.696   4.659  0.00  0.00    -0.047 A 
ATOM      6  C4  UNL d   1       2.741   2.585   3.620  0.00  0.00    -0.004 A 
ENDROOT
TORSDOF 0
ENDMDL
