MODEL 1
REMARK minimizedAffinity 5.35507059
REMARK minimizedRMSD -1
REMARK  0 active torsions:
REMARK  status: ('A' for Active; 'I' for Inactive)
ROOT
ATOM      1  C   UNL d   1       2.430  -3.148  -1.225  0.00  0.00     0.172 C 
ATOM      2  N   UNL d   1       3.047  -1.849  -1.089  0.00  0.00    -0.070 N 
ATOM      3  C1  UNL d   1       2.954  -0.823  -1.990  0.00  0.00    -0.004 A 
ATOM      4  C2  UNL d   1       3.679   0.240  -1.496  0.00  0.00    -0.047 A 
ATOM      5  C3  UNL d   1       4.227  -0.162  -0.255  0.00  0.00    -0.047 A 
ATOM      6  C4  UNL d   1       3.820  -1.460  -0.027  0.00  0.00    -0.004 A 
ENDROOT
TORSDOF 0
ENDMDL
