MODEL 1
REMARK minimizedAffinity 4.5856657
REMARK minimizedRMSD -1
REMARK  0 active torsions:
REMARK  status: ('A' for Active; 'I' for Inactive)
ROOT
ATOM      1  C   UNL d   1      -3.434   2.131  -5.878  0.00  0.00     0.172 C 
ATOM      2  N   UNL d   1      -3.830   1.136  -4.910  0.00  0.00    -0.070 N 
ATOM      3  C1  UNL d   1      -2.980   0.407  -4.121  0.00  0.00    -0.004 A 
ATOM      4  C2  UNL d   1      -3.745  -0.430  -3.338  0.00  0.00    -0.047 A 
ATOM      5  C3  UNL d   1      -5.102  -0.196  -3.667  0.00  0.00    -0.047 A 
ATOM      6  C4  UNL d   1      -5.125   0.778  -4.644  0.00  0.00    -0.004 A 
ENDROOT
TORSDOF 0
ENDMDL
