MODEL 1
REMARK minimizedAffinity 2.70195007
REMARK minimizedRMSD -1
REMARK  0 active torsions:
REMARK  status: ('A' for Active; 'I' for Inactive)
ROOT
ATOM      1  C   UNL d   1      -1.492   0.971  -0.348  0.00  0.00     0.172 C 
ATOM      2  N   UNL d   1      -2.843   0.989   0.162  0.00  0.00    -0.070 N 
ATOM      3  C1  UNL d   1      -3.925   0.387  -0.423  0.00  0.00    -0.004 A 
ATOM      4  C2  UNL d   1      -5.025   0.636   0.368  0.00  0.00    -0.047 A 
ATOM      5  C3  UNL d   1      -4.590   1.415   1.467  0.00  0.00    -0.047 A 
ATOM      6  C4  UNL d   1      -3.235   1.619   1.314  0.00  0.00    -0.004 A 
ENDROOT
TORSDOF 0
ENDMDL
