MODEL 1
REMARK minimizedAffinity -1.12151122
REMARK minimizedRMSD -1
REMARK  0 active torsions:
REMARK  status: ('A' for Active; 'I' for Inactive)
ROOT
ATOM      1  C   UNL d   1      -3.930   2.032   1.762  0.00  0.00     0.172 C 
ATOM      2  N   UNL d   1      -2.881   2.495   2.639  0.00  0.00    -0.070 N 
ATOM      3  C1  UNL d   1      -1.543   2.504   2.348  0.00  0.00    -0.004 A 
ATOM      4  C2  UNL d   1      -0.876   3.019   3.439  0.00  0.00    -0.047 A 
ATOM      5  C3  UNL d   1      -1.847   3.329   4.420  0.00  0.00    -0.047 A 
ATOM      6  C4  UNL d   1      -3.080   2.995   3.899  0.00  0.00    -0.004 A 
ENDROOT
TORSDOF 0
ENDMDL
