MODEL 1
REMARK minimizedAffinity -5.10358095
REMARK minimizedRMSD -1
REMARK  2 active torsions:
REMARK  status: ('A' for Active; 'I' for Inactive)
REMARK    1  A    between atoms: C2'_3  and  C1'_4 
REMARK    2  A    between atoms: C1'_4  and  C1_5 
ROOT
ATOM      1  C1  I4B d   1      -0.599   0.125   0.025  0.00  0.00    -0.075 A 
ATOM      2  C2  I4B d   1      -1.161  -0.833   0.832  0.00  0.00     0.003 A 
ATOM      3  C3  I4B d   1      -0.405  -1.961   1.232  0.00  0.00     0.002 A 
ATOM      4  C4  I4B d   1       0.883  -2.117   0.764  0.00  0.00    -0.004 A 
ATOM      5  C5  I4B d   1       1.460  -1.134  -0.035  0.00  0.00     0.002 A 
ATOM      6  C6  I4B d   1       0.718   0.000  -0.397  0.00  0.00     0.003 A 
ENDROOT
BRANCH   1   7
ATOM      7  C1' I4B d   1      -1.436   1.287  -0.405  0.00  0.00     0.060 C 
BRANCH   7   8
ATOM      8  C2' I4B d   1      -1.621   1.199  -1.907  0.00  0.00    -0.013 C 
ATOM      9  C4' I4B d   1      -3.028   0.796  -2.260  0.00  0.00     0.013 C 
ATOM     10  C3' I4B d   1      -1.276   2.534  -2.495  0.00  0.00     0.013 C 
ENDBRANCH   7   8
ENDBRANCH   1   7
TORSDOF 2
ENDMDL
