MODEL 1
REMARK minimizedAffinity -5.10480356
REMARK minimizedRMSD -1
REMARK  2 active torsions:
REMARK  status: ('A' for Active; 'I' for Inactive)
REMARK    1  A    between atoms: C2'_3  and  C1'_4 
REMARK    2  A    between atoms: C1'_4  and  C1_5 
ROOT
ATOM      1  C1  I4B d   1       1.160  -1.142   0.727  0.00  0.00    -0.075 A 
ATOM      2  C2  I4B d   1       0.069  -1.338   1.538  0.00  0.00     0.003 A 
ATOM      3  C3  I4B d   1      -1.059  -0.489   1.432  0.00  0.00     0.002 A 
ATOM      4  C4  I4B d   1      -1.034   0.568   0.545  0.00  0.00    -0.004 A 
ATOM      5  C5  I4B d   1       0.063   0.751  -0.292  0.00  0.00     0.002 A 
ATOM      6  C6  I4B d   1       1.162  -0.116  -0.209  0.00  0.00     0.003 A 
ENDROOT
BRANCH   1   7
ATOM      7  C1' I4B d   1       2.347  -2.037   0.888  0.00  0.00     0.060 C 
BRANCH   7   8
ATOM      8  C2' I4B d   1       2.519  -2.323   2.366  0.00  0.00    -0.013 C 
ATOM      9  C4' I4B d   1       2.603  -3.804   2.629  0.00  0.00     0.013 C 
ATOM     10  C3' I4B d   1       3.759  -1.620   2.833  0.00  0.00     0.013 C 
ENDBRANCH   7   8
ENDBRANCH   1   7
TORSDOF 2
ENDMDL
