MODEL 1
REMARK minimizedAffinity -5.74715757
REMARK minimizedRMSD -1
REMARK  2 active torsions:
REMARK  status: ('A' for Active; 'I' for Inactive)
REMARK    1  A    between atoms: C2'_3  and  C1'_4 
REMARK    2  A    between atoms: C1'_4  and  C1_5 
ROOT
ATOM      1  C1  I4B d   1       0.255  -1.330   0.780  0.00  0.00    -0.075 A 
ATOM      2  C2  I4B d   1       1.265  -2.256   0.860  0.00  0.00     0.003 A 
ATOM      3  C3  I4B d   1       1.400  -3.065   2.014  0.00  0.00     0.002 A 
ATOM      4  C4  I4B d   1       0.539  -2.881   3.077  0.00  0.00    -0.004 A 
ATOM      5  C5  I4B d   1      -0.498  -1.958   2.985  0.00  0.00     0.002 A 
ATOM      6  C6  I4B d   1      -0.649  -1.186   1.824  0.00  0.00     0.003 A 
ENDROOT
BRANCH   1   7
ATOM      7  C1' I4B d   1       0.162  -0.469  -0.440  0.00  0.00     0.060 C 
BRANCH   7   8
ATOM      8  C2' I4B d   1       0.988   0.777  -0.196  0.00  0.00    -0.013 C 
ATOM      9  C4' I4B d   1       2.167   0.842  -1.132  0.00  0.00     0.013 C 
ATOM     10  C3' I4B d   1       0.093   1.968  -0.370  0.00  0.00     0.013 C 
ENDBRANCH   7   8
ENDBRANCH   1   7
TORSDOF 2
ENDMDL
