MODEL 1
REMARK minimizedAffinity -5.95573187
REMARK minimizedRMSD -1
REMARK  2 active torsions:
REMARK  status: ('A' for Active; 'I' for Inactive)
REMARK    1  A    between atoms: C2'_3  and  C1'_4 
REMARK    2  A    between atoms: C1'_4  and  C1_5 
ROOT
ATOM      1  C1  I4B d   1       0.011  -0.086   0.157  0.00  0.00    -0.075 A 
ATOM      2  C2  I4B d   1      -0.585  -1.146   0.793  0.00  0.00     0.003 A 
ATOM      3  C3  I4B d   1       0.128  -2.355   0.985  0.00  0.00     0.002 A 
ATOM      4  C4  I4B d   1       1.408  -2.476   0.484  0.00  0.00    -0.004 A 
ATOM      5  C5  I4B d   1       2.018  -1.392  -0.141  0.00  0.00     0.002 A 
ATOM      6  C6  I4B d   1       1.320  -0.185  -0.295  0.00  0.00     0.003 A 
ENDROOT
BRANCH   1   7
ATOM      7  C1' I4B d   1      -0.782   1.164  -0.058  0.00  0.00     0.060 C 
BRANCH   7   8
ATOM      8  C2' I4B d   1      -1.153   1.235  -1.526  0.00  0.00    -0.013 C 
ATOM      9  C4' I4B d   1      -2.630   1.018  -1.726  0.00  0.00     0.013 C 
ATOM     10  C3' I4B d   1      -0.727   2.575  -2.046  0.00  0.00     0.013 C 
ENDBRANCH   7   8
ENDBRANCH   1   7
TORSDOF 2
ENDMDL
