MODEL 1
REMARK minimizedAffinity -5.72048426
REMARK minimizedRMSD -1
REMARK  2 active torsions:
REMARK  status: ('A' for Active; 'I' for Inactive)
REMARK    1  A    between atoms: C2'_3  and  C1'_4 
REMARK    2  A    between atoms: C1'_4  and  C1_5 
ROOT
ATOM      1  C1  I4B d   1       0.382  -1.428   0.584  0.00  0.00    -0.075 A 
ATOM      2  C2  I4B d   1       1.712  -1.767   0.560  0.00  0.00     0.003 A 
ATOM      3  C3  I4B d   1       2.665  -0.876   0.008  0.00  0.00     0.002 A 
ATOM      4  C4  I4B d   1       2.241   0.312  -0.550  0.00  0.00    -0.004 A 
ATOM      5  C5  I4B d   1       0.895   0.665  -0.504  0.00  0.00     0.002 A 
ATOM      6  C6  I4B d   1      -0.039  -0.205   0.078  0.00  0.00     0.003 A 
ENDROOT
BRANCH   1   7
ATOM      7  C1' I4B d   1      -0.601  -2.406   1.145  0.00  0.00     0.060 C 
BRANCH   7   8
ATOM      8  C2' I4B d   1      -0.780  -2.097   2.617  0.00  0.00    -0.013 C 
ATOM      9  C4' I4B d   1       0.446  -1.432   3.187  0.00  0.00     0.013 C 
ATOM     10  C3' I4B d   1      -1.988  -1.221   2.763  0.00  0.00     0.013 C 
ENDBRANCH   7   8
ENDBRANCH   1   7
TORSDOF 2
ENDMDL
