MODEL 1
REMARK minimizedAffinity -2.87648582
REMARK minimizedRMSD -1
REMARK  2 active torsions:
REMARK  status: ('A' for Active; 'I' for Inactive)
REMARK    1  A    between atoms: C2'_3  and  C1'_4 
REMARK    2  A    between atoms: C1'_4  and  C1_5 
ROOT
ATOM      1  C1  I4B d   1      -1.359   2.125  -1.465  0.00  0.00    -0.075 A 
ATOM      2  C2  I4B d   1      -0.636   2.990  -2.248  0.00  0.00     0.003 A 
ATOM      3  C3  I4B d   1      -1.109   3.354  -3.533  0.00  0.00     0.002 A 
ATOM      4  C4  I4B d   1      -2.276   2.794  -4.011  0.00  0.00    -0.004 A 
ATOM      5  C5  I4B d   1      -3.020   1.935  -3.206  0.00  0.00     0.002 A 
ATOM      6  C6  I4B d   1      -2.565   1.608  -1.921  0.00  0.00     0.003 A 
ENDROOT
BRANCH   1   7
ATOM      7  C1' I4B d   1      -0.814   1.736  -0.128  0.00  0.00     0.060 C 
BRANCH   7   8
ATOM      8  C2' I4B d   1       0.131   0.569  -0.330  0.00  0.00    -0.013 C 
ATOM      9  C4' I4B d   1       1.560   0.974  -0.083  0.00  0.00     0.013 C 
ATOM     10  C3' I4B d   1      -0.288  -0.532   0.599  0.00  0.00     0.013 C 
ENDBRANCH   7   8
ENDBRANCH   1   7
TORSDOF 2
ENDMDL
