MODEL 1
REMARK minimizedAffinity -3.83117628
REMARK minimizedRMSD -1
REMARK  2 active torsions:
REMARK  status: ('A' for Active; 'I' for Inactive)
REMARK    1  A    between atoms: C2'_3  and  C1'_4 
REMARK    2  A    between atoms: C1'_4  and  C1_5 
ROOT
ATOM      1  C1  I4B d   1      -0.039   0.133  -0.544  0.00  0.00    -0.075 A 
ATOM      2  C2  I4B d   1       1.220   0.488  -0.128  0.00  0.00     0.003 A 
ATOM      3  C3  I4B d   1       2.231  -0.495   0.002  0.00  0.00     0.002 A 
ATOM      4  C4  I4B d   1       1.929  -1.818  -0.245  0.00  0.00    -0.004 A 
ATOM      5  C5  I4B d   1       0.659  -2.173  -0.690  0.00  0.00     0.002 A 
ATOM      6  C6  I4B d   1      -0.328  -1.190  -0.852  0.00  0.00     0.003 A 
ENDROOT
BRANCH   1   7
ATOM      7  C1' I4B d   1      -1.092   1.191  -0.639  0.00  0.00     0.060 C 
BRANCH   7   8
ATOM      8  C2' I4B d   1      -1.318   1.495  -2.106  0.00  0.00    -0.013 C 
ATOM      9  C4' I4B d   1      -2.762   1.301  -2.486  0.00  0.00     0.013 C 
ATOM     10  C3' I4B d   1      -0.876   2.905  -2.359  0.00  0.00     0.013 C 
ENDBRANCH   7   8
ENDBRANCH   1   7
TORSDOF 2
ENDMDL
