MODEL 1
REMARK minimizedAffinity -2.87782955
REMARK minimizedRMSD -1
REMARK  2 active torsions:
REMARK  status: ('A' for Active; 'I' for Inactive)
REMARK    1  A    between atoms: C2'_3  and  C1'_4 
REMARK    2  A    between atoms: C1'_4  and  C1_5 
ROOT
ATOM      1  C1  I4B d   1      -0.631  -0.387  -2.086  0.00  0.00    -0.075 A 
ATOM      2  C2  I4B d   1      -0.322   0.539  -3.052  0.00  0.00     0.003 A 
ATOM      3  C3  I4B d   1      -1.333   1.368  -3.594  0.00  0.00     0.002 A 
ATOM      4  C4  I4B d   1      -2.640   1.205  -3.180  0.00  0.00    -0.004 A 
ATOM      5  C5  I4B d   1      -2.947   0.283  -2.184  0.00  0.00     0.002 A 
ATOM      6  C6  I4B d   1      -1.935  -0.510  -1.625  0.00  0.00     0.003 A 
ENDROOT
BRANCH   1   7
ATOM      7  C1' I4B d   1       0.456  -1.269  -1.559  0.00  0.00     0.060 C 
BRANCH   7   8
ATOM      8  C2' I4B d   1       0.778  -0.821  -0.148  0.00  0.00    -0.013 C 
ATOM      9  C4' I4B d   1       1.467  -1.914   0.627  0.00  0.00     0.013 C 
ATOM     10  C3' I4B d   1       1.638   0.405  -0.236  0.00  0.00     0.013 C 
ENDBRANCH   7   8
ENDBRANCH   1   7
TORSDOF 2
ENDMDL
