MODEL 1
REMARK minimizedAffinity -4.95819616
REMARK minimizedRMSD -1
REMARK  2 active torsions:
REMARK  status: ('A' for Active; 'I' for Inactive)
REMARK    1  A    between atoms: C2'_3  and  C1'_4 
REMARK    2  A    between atoms: C1'_4  and  C1_5 
ROOT
ATOM      1  C1  I4B d   1      -0.784   1.236  -0.696  0.00  0.00    -0.075 A 
ATOM      2  C2  I4B d   1      -0.557   2.454  -1.286  0.00  0.00     0.003 A 
ATOM      3  C3  I4B d   1      -1.336   2.865  -2.395  0.00  0.00     0.002 A 
ATOM      4  C4  I4B d   1      -2.289   2.010  -2.910  0.00  0.00    -0.004 A 
ATOM      5  C5  I4B d   1      -2.533   0.785  -2.296  0.00  0.00     0.002 A 
ATOM      6  C6  I4B d   1      -1.784   0.400  -1.175  0.00  0.00     0.003 A 
ENDROOT
BRANCH   1   7
ATOM      7  C1' I4B d   1       0.079   0.819   0.453  0.00  0.00     0.060 C 
BRANCH   7   8
ATOM      8  C2' I4B d   1       0.654  -0.546   0.135  0.00  0.00    -0.013 C 
ATOM      9  C4' I4B d   1       1.709  -0.457  -0.936  0.00  0.00     0.013 C 
ATOM     10  C3' I4B d   1       1.215  -1.118   1.402  0.00  0.00     0.013 C 
ENDBRANCH   7   8
ENDBRANCH   1   7
TORSDOF 2
ENDMDL
