MODEL 1
REMARK minimizedAffinity -0.872010231
REMARK minimizedRMSD -1
REMARK  2 active torsions:
REMARK  status: ('A' for Active; 'I' for Inactive)
REMARK    1  A    between atoms: C2'_3  and  C1'_4 
REMARK    2  A    between atoms: C1'_4  and  C1_5 
ROOT
ATOM      1  C1  I4B d   1      -0.333   0.282   0.097  0.00  0.00    -0.075 A 
ATOM      2  C2  I4B d   1       0.829  -0.181  -0.468  0.00  0.00     0.003 A 
ATOM      3  C3  I4B d   1       1.536  -1.252   0.131  0.00  0.00     0.002 A 
ATOM      4  C4  I4B d   1       1.075  -1.792   1.315  0.00  0.00    -0.004 A 
ATOM      5  C5  I4B d   1      -0.115  -1.336   1.874  0.00  0.00     0.002 A 
ATOM      6  C6  I4B d   1      -0.831  -0.301   1.255  0.00  0.00     0.003 A 
ENDROOT
BRANCH   1   7
ATOM      7  C1' I4B d   1      -1.037   1.435  -0.545  0.00  0.00     0.060 C 
BRANCH   7   8
ATOM      8  C2' I4B d   1      -1.664   0.941  -1.833  0.00  0.00    -0.013 C 
ATOM      9  C4' I4B d   1      -3.101   0.542  -1.622  0.00  0.00     0.013 C 
ATOM     10  C3' I4B d   1      -1.550   2.035  -2.853  0.00  0.00     0.013 C 
ENDBRANCH   7   8
ENDBRANCH   1   7
TORSDOF 2
ENDMDL
