MODEL 1
REMARK minimizedAffinity -3.95057082
REMARK minimizedRMSD -1
REMARK  2 active torsions:
REMARK  status: ('A' for Active; 'I' for Inactive)
REMARK    1  A    between atoms: C2'_3  and  C1'_4 
REMARK    2  A    between atoms: C1'_4  and  C1_5 
ROOT
ATOM      1  C1  I4B d   1       0.157  -0.897   0.702  0.00  0.00    -0.075 A 
ATOM      2  C2  I4B d   1      -0.870  -0.788   1.606  0.00  0.00     0.003 A 
ATOM      3  C3  I4B d   1      -0.791  -1.444   2.858  0.00  0.00     0.002 A 
ATOM      4  C4  I4B d   1       0.304  -2.235   3.143  0.00  0.00    -0.004 A 
ATOM      5  C5  I4B d   1       1.354  -2.327   2.234  0.00  0.00     0.002 A 
ATOM      6  C6  I4B d   1       1.287  -1.644   1.011  0.00  0.00     0.003 A 
ENDROOT
BRANCH   1   7
ATOM      7  C1' I4B d   1       0.026  -0.218  -0.624  0.00  0.00     0.060 C 
BRANCH   7   8
ATOM      8  C2' I4B d   1       0.155   1.275  -0.398  0.00  0.00    -0.013 C 
ATOM      9  C4' I4B d   1       1.570   1.740  -0.621  0.00  0.00     0.013 C 
ATOM     10  C3' I4B d   1      -0.795   1.968  -1.329  0.00  0.00     0.013 C 
ENDBRANCH   7   8
ENDBRANCH   1   7
TORSDOF 2
ENDMDL
