MODEL 1
REMARK minimizedAffinity -3.4014926
REMARK minimizedRMSD -1
REMARK  2 active torsions:
REMARK  status: ('A' for Active; 'I' for Inactive)
REMARK    1  A    between atoms: C2'_3  and  C1'_4 
REMARK    2  A    between atoms: C1'_4  and  C1_5 
ROOT
ATOM      1  C1  I4B d   1      -0.454   0.526  -0.736  0.00  0.00    -0.075 A 
ATOM      2  C2  I4B d   1      -1.019   1.777  -0.715  0.00  0.00     0.003 A 
ATOM      3  C3  I4B d   1      -1.616   2.309  -1.883  0.00  0.00     0.002 A 
ATOM      4  C4  I4B d   1      -1.581   1.582  -3.056  0.00  0.00    -0.004 A 
ATOM      5  C5  I4B d   1      -1.027   0.305  -3.069  0.00  0.00     0.002 A 
ATOM      6  C6  I4B d   1      -0.471  -0.232  -1.899  0.00  0.00     0.003 A 
ENDROOT
BRANCH   1   7
ATOM      7  C1' I4B d   1       0.197   0.009   0.508  0.00  0.00     0.060 C 
BRANCH   7   8
ATOM      8  C2' I4B d   1       1.480  -0.691   0.107  0.00  0.00    -0.013 C 
ATOM      9  C4' I4B d   1       2.526   0.298  -0.334  0.00  0.00     0.013 C 
ATOM     10  C3' I4B d   1       1.955  -1.495   1.280  0.00  0.00     0.013 C 
ENDBRANCH   7   8
ENDBRANCH   1   7
TORSDOF 2
ENDMDL
