MODEL 1
REMARK minimizedAffinity 1.22257876
REMARK minimizedRMSD -1
REMARK  1 active torsions:
REMARK  status: ('A' for Active; 'I' for Inactive)
REMARK    1  A    between atoms: C1_2  and  C2_3 
ROOT
ATOM      1  C2  UNL d   1      -1.261   0.271  -1.413  0.00  0.00    -0.076 A 
ATOM      2  C3  UNL d   1      -1.086   0.462  -2.794  0.00  0.00     0.004 A 
ATOM      3  C4  UNL d   1      -2.104   0.158  -3.696  0.00  0.00    -0.003 A 
ATOM      4  C5  UNL d   1      -3.316  -0.341  -3.230  0.00  0.00     0.000 A 
ATOM      5  C6  UNL d   1      -3.513  -0.521  -1.861  0.00  0.00     0.000 A 
ATOM      6  C7  UNL d   1      -2.502  -0.204  -0.938  0.00  0.00    -0.073 A 
ATOM      7  C8  UNL d   1      -2.768  -0.422   0.526  0.00  0.00     0.078 C 
ENDROOT
BRANCH   1   8
ATOM      8  C1  UNL d   1      -0.111   0.593  -0.485  0.00  0.00     0.053 C 
ATOM      9  C   UNL d   1       0.776  -0.613  -0.216  0.00  0.00     0.018 C 
ENDBRANCH   1   8
TORSDOF 1
ENDMDL
