MODEL 1
REMARK minimizedAffinity 0.0681823641
REMARK minimizedRMSD -1
REMARK  1 active torsions:
REMARK  status: ('A' for Active; 'I' for Inactive)
REMARK    1  A    between atoms: C1_2  and  C2_3 
ROOT
ATOM      1  C2  UNL d   1      -1.410   0.745  -0.761  0.00  0.00    -0.076 A 
ATOM      2  C3  UNL d   1      -2.133   1.396  -1.776  0.00  0.00     0.004 A 
ATOM      3  C4  UNL d   1      -2.616   0.691  -2.878  0.00  0.00    -0.003 A 
ATOM      4  C5  UNL d   1      -2.384  -0.676  -2.982  0.00  0.00     0.000 A 
ATOM      5  C6  UNL d   1      -1.684  -1.341  -1.976  0.00  0.00     0.000 A 
ATOM      6  C7  UNL d   1      -1.205  -0.648  -0.850  0.00  0.00    -0.073 A 
ATOM      7  C8  UNL d   1      -0.451  -1.414   0.202  0.00  0.00     0.078 C 
ENDROOT
BRANCH   1   8
ATOM      8  C1  UNL d   1      -0.888   1.566   0.396  0.00  0.00     0.053 C 
ATOM      9  C   UNL d   1       0.587   1.906   0.251  0.00  0.00     0.018 C 
ENDBRANCH   1   8
TORSDOF 1
ENDMDL
