MODEL 1
REMARK minimizedAffinity -2.35309434
REMARK minimizedRMSD -1
REMARK  1 active torsions:
REMARK  status: ('A' for Active; 'I' for Inactive)
REMARK    1  A    between atoms: C1_2  and  C2_3 
ROOT
ATOM      1  C2  UNL d   1       0.144   0.301   0.401  0.00  0.00    -0.076 A 
ATOM      2  C3  UNL d   1       0.608   1.572   0.019  0.00  0.00     0.004 A 
ATOM      3  C4  UNL d   1       1.918   1.967   0.283  0.00  0.00    -0.003 A 
ATOM      4  C5  UNL d   1       2.786   1.097   0.934  0.00  0.00     0.000 A 
ATOM      5  C6  UNL d   1       2.348  -0.174   1.305  0.00  0.00     0.000 A 
ATOM      6  C7  UNL d   1       1.035  -0.594   1.032  0.00  0.00    -0.073 A 
ATOM      7  C8  UNL d   1       0.614  -1.973   1.460  0.00  0.00     0.078 C 
ENDROOT
BRANCH   1   8
ATOM      8  C1  UNL d   1      -1.296  -0.062   0.112  0.00  0.00     0.053 C 
ATOM      9  C   UNL d   1      -1.600  -0.097  -1.378  0.00  0.00     0.018 C 
ENDBRANCH   1   8
TORSDOF 1
ENDMDL
