MODEL 1
REMARK minimizedAffinity -5.53241873
REMARK minimizedRMSD -1
REMARK  1 active torsions:
REMARK  status: ('A' for Active; 'I' for Inactive)
REMARK    1  A    between atoms: C1_2  and  C2_3 
ROOT
ATOM      1  C2  UNL d   1       0.601  -0.266   0.488  0.00  0.00    -0.076 A 
ATOM      2  C3  UNL d   1       0.340  -1.548   1.004  0.00  0.00     0.004 A 
ATOM      3  C4  UNL d   1       1.242  -2.172   1.863  0.00  0.00    -0.003 A 
ATOM      4  C5  UNL d   1       2.420  -1.525   2.222  0.00  0.00     0.000 A 
ATOM      5  C6  UNL d   1       2.686  -0.246   1.734  0.00  0.00     0.000 A 
ATOM      6  C7  UNL d   1       1.780   0.404   0.879  0.00  0.00    -0.073 A 
ATOM      7  C8  UNL d   1       2.121   1.781   0.378  0.00  0.00     0.078 C 
ENDROOT
BRANCH   1   8
ATOM      8  C1  UNL d   1      -0.401   0.350  -0.462  0.00  0.00     0.053 C 
ATOM      9  C   UNL d   1      -1.758  -0.336  -0.403  0.00  0.00     0.018 C 
ENDBRANCH   1   8
TORSDOF 1
ENDMDL
