MODEL 1
REMARK minimizedAffinity -3.28642464
REMARK minimizedRMSD -1
REMARK  1 active torsions:
REMARK  status: ('A' for Active; 'I' for Inactive)
REMARK    1  A    between atoms: C1_2  and  C2_3 
ROOT
ATOM      1  C2  UNL d   1       0.200   0.420   0.326  0.00  0.00    -0.076 A 
ATOM      2  C3  UNL d   1       0.702  -0.780   0.858  0.00  0.00     0.004 A 
ATOM      3  C4  UNL d   1       1.973  -0.836   1.429  0.00  0.00    -0.003 A 
ATOM      4  C5  UNL d   1       2.762   0.308   1.476  0.00  0.00     0.000 A 
ATOM      5  C6  UNL d   1       2.272   1.512   0.968  0.00  0.00     0.000 A 
ATOM      6  C7  UNL d   1       0.987   1.588   0.405  0.00  0.00    -0.073 A 
ATOM      7  C8  UNL d   1       0.512   2.910  -0.133  0.00  0.00     0.078 C 
ENDROOT
BRANCH   1   8
ATOM      8  C1  UNL d   1      -1.175   0.413  -0.305  0.00  0.00     0.053 C 
ATOM      9  C   UNL d   1      -2.144  -0.509   0.420  0.00  0.00     0.018 C 
ENDBRANCH   1   8
TORSDOF 1
ENDMDL
