MODEL 1
REMARK minimizedAffinity -2.32155228
REMARK minimizedRMSD -1
REMARK  1 active torsions:
REMARK  status: ('A' for Active; 'I' for Inactive)
REMARK    1  A    between atoms: C1_2  and  C2_3 
ROOT
ATOM      1  C2  UNL d   1       1.451   1.095   1.054  0.00  0.00    -0.076 A 
ATOM      2  C3  UNL d   1       0.180   1.589   0.714  0.00  0.00     0.004 A 
ATOM      3  C4  UNL d   1      -0.676   0.859  -0.109  0.00  0.00    -0.003 A 
ATOM      4  C5  UNL d   1      -0.275  -0.377  -0.604  0.00  0.00     0.000 A 
ATOM      5  C6  UNL d   1       0.976  -0.890  -0.262  0.00  0.00     0.000 A 
ATOM      6  C7  UNL d   1       1.844  -0.174   0.580  0.00  0.00    -0.073 A 
ATOM      7  C8  UNL d   1       3.184  -0.772   0.911  0.00  0.00     0.078 C 
ENDROOT
BRANCH   1   8
ATOM      8  C1  UNL d   1       2.347   1.944   1.928  0.00  0.00     0.053 C 
ATOM      9  C   UNL d   1       1.920   1.929   3.388  0.00  0.00     0.018 C 
ENDBRANCH   1   8
TORSDOF 1
ENDMDL
