MODEL 1
REMARK minimizedAffinity 5.27911282
REMARK minimizedRMSD -1
REMARK  1 active torsions:
REMARK  status: ('A' for Active; 'I' for Inactive)
REMARK    1  A    between atoms: C1_2  and  C2_3 
ROOT
ATOM      1  C2  UNL d   1       1.351   0.690   1.743  0.00  0.00    -0.076 A 
ATOM      2  C3  UNL d   1       2.494   1.433   2.087  0.00  0.00     0.004 A 
ATOM      3  C4  UNL d   1       2.837   2.588   1.384  0.00  0.00    -0.003 A 
ATOM      4  C5  UNL d   1       2.043   3.018   0.327  0.00  0.00     0.000 A 
ATOM      5  C6  UNL d   1       0.896   2.303  -0.017  0.00  0.00     0.000 A 
ATOM      6  C7  UNL d   1       0.527   1.146   0.692  0.00  0.00    -0.073 A 
ATOM      7  C8  UNL d   1      -0.717   0.410   0.274  0.00  0.00     0.078 C 
ENDROOT
BRANCH   1   8
ATOM      8  C1  UNL d   1       1.044  -0.568   2.522  0.00  0.00     0.053 C 
ATOM      9  C   UNL d   1       1.625  -0.539   3.928  0.00  0.00     0.018 C 
ENDBRANCH   1   8
TORSDOF 1
ENDMDL
