MODEL 1
REMARK minimizedAffinity 13.2258625
REMARK minimizedRMSD -1
REMARK  1 active torsions:
REMARK  status: ('A' for Active; 'I' for Inactive)
REMARK    1  A    between atoms: N_2  and  C1_3 
ROOT
ATOM      1  C1  UNL d   1       4.233  -4.837  -3.025  0.00  0.00     0.143 A 
ATOM      2  C2  UNL d   1       4.523  -5.999  -2.302  0.00  0.00    -0.057 A 
ATOM      3  C3  UNL d   1       5.031  -5.936  -0.999  0.00  0.00     0.033 A 
ATOM      4  C4  UNL d   1       5.287  -4.705  -0.405  0.00  0.00    -0.042 A 
ATOM      5  C5  UNL d   1       5.030  -3.537  -1.114  0.00  0.00     0.033 A 
ATOM      6  C6  UNL d   1       4.516  -3.607  -2.412  0.00  0.00    -0.057 A 
ENDROOT
BRANCH   1   7
ATOM      7  N   UNL d   1       3.819  -4.834  -4.359  0.00  0.00    -0.732 N 
ATOM      8  C   UNL d   1       4.476  -5.675  -5.337  0.00  0.00     0.284 C 
ATOM      9  H3  UNL d   1       2.806  -4.802  -4.452  0.00  0.00     0.395 HD
ENDBRANCH   1   7
TORSDOF 1
ENDMDL
