MODEL 1
REMARK minimizedAffinity 1.0375737
REMARK minimizedRMSD -1
REMARK  1 active torsions:
REMARK  status: ('A' for Active; 'I' for Inactive)
REMARK    1  A    between atoms: N_2  and  C1_3 
ROOT
ATOM      1  C1  UNL d   1       1.206   3.203   1.371  0.00  0.00     0.143 A 
ATOM      2  C2  UNL d   1      -0.061   3.109   0.784  0.00  0.00    -0.057 A 
ATOM      3  C3  UNL d   1      -0.340   3.725  -0.442  0.00  0.00     0.033 A 
ATOM      4  C4  UNL d   1       0.638   4.471  -1.091  0.00  0.00    -0.042 A 
ATOM      5  C5  UNL d   1       1.896   4.598  -0.514  0.00  0.00     0.033 A 
ATOM      6  C6  UNL d   1       2.171   3.976   0.707  0.00  0.00    -0.057 A 
ENDROOT
BRANCH   1   7
ATOM      7  N   UNL d   1       1.517   2.696   2.635  0.00  0.00    -0.732 N 
ATOM      8  C   UNL d   1       2.763   3.045   3.283  0.00  0.00     0.284 C 
ATOM      9  H3  UNL d   1       0.712   2.687   3.258  0.00  0.00     0.395 HD
ENDBRANCH   1   7
TORSDOF 1
ENDMDL
