MODEL 1
REMARK minimizedAffinity 5.23451471
REMARK minimizedRMSD -1
REMARK  1 active torsions:
REMARK  status: ('A' for Active; 'I' for Inactive)
REMARK    1  A    between atoms: N_2  and  C1_3 
ROOT
ATOM      1  C1  UNL d   1      -3.526  -2.266   5.298  0.00  0.00     0.143 A 
ATOM      2  C2  UNL d   1      -3.614  -1.460   4.158  0.00  0.00    -0.057 A 
ATOM      3  C3  UNL d   1      -4.834  -0.905   3.753  0.00  0.00     0.033 A 
ATOM      4  C4  UNL d   1      -5.998  -1.171   4.468  0.00  0.00    -0.042 A 
ATOM      5  C5  UNL d   1      -5.939  -1.990   5.590  0.00  0.00     0.033 A 
ATOM      6  C6  UNL d   1      -4.716  -2.536   5.993  0.00  0.00    -0.057 A 
ENDROOT
BRANCH   1   7
ATOM      7  N   UNL d   1      -2.362  -2.926   5.696  0.00  0.00    -0.732 N 
ATOM      8  C   UNL d   1      -1.077  -2.263   5.626  0.00  0.00     0.284 C 
ATOM      9  H3  UNL d   1      -2.498  -3.480   6.538  0.00  0.00     0.395 HD
ENDBRANCH   1   7
TORSDOF 1
ENDMDL
