MODEL 1
REMARK minimizedAffinity 4.27937937
REMARK minimizedRMSD -1
REMARK  1 active torsions:
REMARK  status: ('A' for Active; 'I' for Inactive)
REMARK    1  A    between atoms: N_2  and  C1_3 
ROOT
ATOM      1  C1  UNL d   1      -2.731  -4.939  -5.323  0.00  0.00     0.143 A 
ATOM      2  C2  UNL d   1      -2.906  -3.718  -4.663  0.00  0.00    -0.057 A 
ATOM      3  C3  UNL d   1      -1.916  -2.729  -4.691  0.00  0.00     0.033 A 
ATOM      4  C4  UNL d   1      -0.716  -2.957  -5.357  0.00  0.00    -0.042 A 
ATOM      5  C5  UNL d   1      -0.510  -4.173  -5.999  0.00  0.00     0.033 A 
ATOM      6  C6  UNL d   1      -1.506  -5.154  -5.973  0.00  0.00    -0.057 A 
ENDROOT
BRANCH   1   7
ATOM      7  N   UNL d   1      -3.638  -6.000  -5.250  0.00  0.00    -0.732 N 
ATOM      8  C   UNL d   1      -4.875  -5.964  -6.000  0.00  0.00     0.284 C 
ATOM      9  H3  UNL d   1      -3.176  -6.907  -5.253  0.00  0.00     0.395 HD
ENDBRANCH   1   7
TORSDOF 1
ENDMDL
