MODEL 1
REMARK minimizedAffinity 1.38606095
REMARK minimizedRMSD -1
REMARK  1 active torsions:
REMARK  status: ('A' for Active; 'I' for Inactive)
REMARK    1  A    between atoms: N_2  and  C1_3 
ROOT
ATOM      1  C1  UNL d   1      -5.350   5.212  -3.550  0.00  0.00     0.143 A 
ATOM      2  C2  UNL d   1      -6.000   4.276  -2.738  0.00  0.00    -0.057 A 
ATOM      3  C3  UNL d   1      -5.283   3.453  -1.861  0.00  0.00     0.033 A 
ATOM      4  C4  UNL d   1      -3.895   3.532  -1.803  0.00  0.00    -0.042 A 
ATOM      5  C5  UNL d   1      -3.226   4.438  -2.619  0.00  0.00     0.033 A 
ATOM      6  C6  UNL d   1      -3.949   5.261  -3.487  0.00  0.00    -0.057 A 
ENDROOT
BRANCH   1   7
ATOM      7  N   UNL d   1      -5.999   5.990  -4.513  0.00  0.00    -0.732 N 
ATOM      8  C   UNL d   1      -5.981   5.602  -5.907  0.00  0.00     0.284 C 
ATOM      9  H3  UNL d   1      -6.898   6.338  -4.190  0.00  0.00     0.395 HD
ENDBRANCH   1   7
TORSDOF 1
ENDMDL
