MODEL 1
REMARK minimizedAffinity 1.82660139
REMARK minimizedRMSD -1
REMARK  1 active torsions:
REMARK  status: ('A' for Active; 'I' for Inactive)
REMARK    1  A    between atoms: N_2  and  C1_3 
ROOT
ATOM      1  C1  UNL d   1      -5.052   2.125  -3.525  0.00  0.00     0.143 A 
ATOM      2  C2  UNL d   1      -6.000   1.097  -3.569  0.00  0.00    -0.057 A 
ATOM      3  C3  UNL d   1      -5.998   0.151  -4.601  0.00  0.00     0.033 A 
ATOM      4  C4  UNL d   1      -5.062   0.234  -5.627  0.00  0.00    -0.042 A 
ATOM      5  C5  UNL d   1      -4.126   1.262  -5.617  0.00  0.00     0.033 A 
ATOM      6  C6  UNL d   1      -4.129   2.199  -4.580  0.00  0.00    -0.057 A 
ENDROOT
BRANCH   1   7
ATOM      7  N   UNL d   1      -5.062   3.153  -2.579  0.00  0.00    -0.732 N 
ATOM      8  C   UNL d   1      -6.000   3.131  -1.477  0.00  0.00     0.284 C 
ATOM      9  H3  UNL d   1      -4.125   3.453  -2.321  0.00  0.00     0.395 HD
ENDBRANCH   1   7
TORSDOF 1
ENDMDL
