MODEL 1
REMARK minimizedAffinity -0.891977608
REMARK minimizedRMSD -1
REMARK  0 active torsions:
REMARK  status: ('A' for Active; 'I' for Inactive)
ROOT
ATOM      1  C1  DEN d   1      -1.412   1.964   0.135  0.00  0.00     0.130 A 
ATOM      2  C2  DEN d   1      -1.951   1.991   1.491  0.00  0.00    -0.031 A 
ATOM      3  C3  DEN d   1      -1.463   0.792   2.201  0.00  0.00     0.027 A 
ATOM      4  C4  DEN d   1       0.072  -1.092   1.337  0.00  0.00     0.027 A 
ATOM      5  C5  DEN d   1       0.774  -1.558   0.247  0.00  0.00    -0.003 A 
ATOM      6  C6  DEN d   1       0.768  -0.905  -0.957  0.00  0.00     0.001 A 
ATOM      7  C7  DEN d   1       0.083   0.274  -1.087  0.00  0.00     0.017 A 
ATOM      8  C8  DEN d   1      -0.632   0.746   0.005  0.00  0.00    -0.094 A 
ATOM      9  C9  DEN d   1      -0.604   0.078   1.218  0.00  0.00    -0.072 A 
ENDROOT
TORSDOF 0
ENDMDL
