MODEL 1
REMARK minimizedAffinity -6.76281357
REMARK minimizedRMSD -1
REMARK  0 active torsions:
REMARK  status: ('A' for Active; 'I' for Inactive)
ROOT
ATOM      1  C1  DEN d   1       0.417   0.547  -1.179  0.00  0.00     0.130 A 
ATOM      2  C2  DEN d   1       0.358  -0.605  -0.283  0.00  0.00    -0.031 A 
ATOM      3  C3  DEN d   1      -0.482  -0.239   0.876  0.00  0.00     0.027 A 
ATOM      4  C4  DEN d   1      -1.692   1.986   1.365  0.00  0.00     0.027 A 
ATOM      5  C5  DEN d   1      -1.927   3.261   0.901  0.00  0.00    -0.003 A 
ATOM      6  C6  DEN d   1      -1.373   3.729  -0.261  0.00  0.00     0.001 A 
ATOM      7  C7  DEN d   1      -0.594   2.900  -1.024  0.00  0.00     0.017 A 
ATOM      8  C8  DEN d   1      -0.346   1.615  -0.559  0.00  0.00    -0.094 A 
ATOM      9  C9  DEN d   1      -0.925   1.157   0.613  0.00  0.00    -0.072 A 
ENDROOT
TORSDOF 0
ENDMDL
