MODEL 1
REMARK minimizedAffinity -4.32835579
REMARK minimizedRMSD -1
REMARK  0 active torsions:
REMARK  status: ('A' for Active; 'I' for Inactive)
ROOT
ATOM      1  C1  DEN d   1      -1.506   2.113  -0.222  0.00  0.00     0.130 A 
ATOM      2  C2  DEN d   1      -1.531   2.345   1.219  0.00  0.00    -0.031 A 
ATOM      3  C3  DEN d   1      -0.730   1.287   1.867  0.00  0.00     0.027 A 
ATOM      4  C4  DEN d   1       0.545  -0.675   0.782  0.00  0.00     0.027 A 
ATOM      5  C5  DEN d   1       0.850  -1.293  -0.410  0.00  0.00    -0.003 A 
ATOM      6  C6  DEN d   1       0.368  -0.843  -1.611  0.00  0.00     0.001 A 
ATOM      7  C7  DEN d   1      -0.410   0.284  -1.650  0.00  0.00     0.017 A 
ATOM      8  C8  DEN d   1      -0.728   0.908  -0.451  0.00  0.00    -0.094 A 
ATOM      9  C9  DEN d   1      -0.221   0.445   0.751  0.00  0.00    -0.072 A 
ENDROOT
TORSDOF 0
ENDMDL
