MODEL 1
REMARK minimizedAffinity -3.88311148
REMARK minimizedRMSD -1
REMARK  0 active torsions:
REMARK  status: ('A' for Active; 'I' for Inactive)
ROOT
ATOM      1  C1  DEN d   1      -1.414   2.187   0.264  0.00  0.00     0.130 A 
ATOM      2  C2  DEN d   1      -2.084   2.055   1.554  0.00  0.00    -0.031 A 
ATOM      3  C3  DEN d   1      -1.621   0.802   2.184  0.00  0.00     0.027 A 
ATOM      4  C4  DEN d   1       0.064  -0.935   1.292  0.00  0.00     0.027 A 
ATOM      5  C5  DEN d   1       0.886  -1.263   0.237  0.00  0.00    -0.003 A 
ATOM      6  C6  DEN d   1       0.973  -0.487  -0.889  0.00  0.00     0.001 A 
ATOM      7  C7  DEN d   1       0.259   0.679  -0.966  0.00  0.00     0.017 A 
ATOM      8  C8  DEN d   1      -0.578   1.012   0.090  0.00  0.00    -0.094 A 
ATOM      9  C9  DEN d   1      -0.643   0.221   1.225  0.00  0.00    -0.072 A 
ENDROOT
TORSDOF 0
ENDMDL
