MODEL 1
REMARK minimizedAffinity -5.97183084
REMARK minimizedRMSD -1
REMARK  0 active torsions:
REMARK  status: ('A' for Active; 'I' for Inactive)
ROOT
ATOM      1  C1  DEN d   1      -1.236   2.003  -0.164  0.00  0.00     0.130 A 
ATOM      2  C2  DEN d   1      -1.798   2.295   1.151  0.00  0.00    -0.031 A 
ATOM      3  C3  DEN d   1      -1.335   1.251   2.087  0.00  0.00     0.027 A 
ATOM      4  C4  DEN d   1       0.193  -0.776   1.630  0.00  0.00     0.027 A 
ATOM      5  C5  DEN d   1       0.908  -1.448   0.663  0.00  0.00    -0.003 A 
ATOM      6  C6  DEN d   1       0.930  -1.039  -0.644  0.00  0.00     0.001 A 
ATOM      7  C7  DEN d   1       0.261   0.099  -1.011  0.00  0.00     0.017 A 
ATOM      8  C8  DEN d   1      -0.468   0.777  -0.043  0.00  0.00    -0.094 A 
ATOM      9  C9  DEN d   1      -0.468   0.355   1.276  0.00  0.00    -0.072 A 
ENDROOT
TORSDOF 0
ENDMDL
