MODEL 1
REMARK minimizedAffinity -0.0127036367
REMARK minimizedRMSD -1
REMARK  0 active torsions:
REMARK  status: ('A' for Active; 'I' for Inactive)
ROOT
ATOM      1  C1  DEN d   1      -1.043  -0.157   1.573  0.00  0.00     0.130 A 
ATOM      2  C2  DEN d   1      -1.731   1.103   1.843  0.00  0.00    -0.031 A 
ATOM      3  C3  DEN d   1      -1.436   2.030   0.732  0.00  0.00     0.027 A 
ATOM      4  C4  DEN d   1       0.005   1.638  -1.370  0.00  0.00     0.027 A 
ATOM      5  C5  DEN d   1       0.801   0.729  -2.033  0.00  0.00    -0.003 A 
ATOM      6  C6  DEN d   1       1.063  -0.516  -1.527  0.00  0.00     0.001 A 
ATOM      7  C7  DEN d   1       0.488  -0.904  -0.346  0.00  0.00     0.017 A 
ATOM      8  C8  DEN d   1      -0.310   0.009   0.331  0.00  0.00    -0.094 A 
ATOM      9  C9  DEN d   1      -0.572   1.260  -0.202  0.00  0.00    -0.072 A 
ENDROOT
TORSDOF 0
ENDMDL
