MODEL 1
REMARK minimizedAffinity -1.14537203
REMARK minimizedRMSD -1
REMARK  0 active torsions:
REMARK  status: ('A' for Active; 'I' for Inactive)
ROOT
ATOM      1  C1  DEN d   1       1.500   1.102  -1.827  0.00  0.00     0.130 A 
ATOM      2  C2  DEN d   1       1.881  -0.308  -1.847  0.00  0.00    -0.031 A 
ATOM      3  C3  DEN d   1       1.198  -0.981  -0.724  0.00  0.00     0.027 A 
ATOM      4  C4  DEN d   1      -0.408   0.015   1.031  0.00  0.00     0.027 A 
ATOM      5  C5  DEN d   1      -1.022   1.170   1.463  0.00  0.00    -0.003 A 
ATOM      6  C6  DEN d   1      -0.814   2.379   0.854  0.00  0.00     0.001 A 
ATOM      7  C7  DEN d   1      -0.006   2.454  -0.249  0.00  0.00     0.017 A 
ATOM      8  C8  DEN d   1       0.623   1.295  -0.686  0.00  0.00    -0.094 A 
ATOM      9  C9  DEN d   1       0.391   0.080  -0.064  0.00  0.00    -0.072 A 
ENDROOT
TORSDOF 0
ENDMDL
