MODEL 1
REMARK minimizedAffinity -5.78334999
REMARK minimizedRMSD -1
REMARK  0 active torsions:
REMARK  status: ('A' for Active; 'I' for Inactive)
ROOT
ATOM      1  C1  DEN d   1      -1.626   2.133   1.567  0.00  0.00     0.130 A 
ATOM      2  C2  DEN d   1      -1.698   3.481   1.011  0.00  0.00    -0.031 A 
ATOM      3  C3  DEN d   1      -0.827   3.531  -0.181  0.00  0.00     0.027 A 
ATOM      4  C4  DEN d   1       0.613   1.658  -1.216  0.00  0.00     0.027 A 
ATOM      5  C5  DEN d   1       1.007   0.345  -1.090  0.00  0.00    -0.003 A 
ATOM      6  C6  DEN d   1       0.580  -0.449  -0.058  0.00  0.00     0.001 A 
ATOM      7  C7  DEN d   1      -0.302   0.051   0.864  0.00  0.00     0.017 A 
ATOM      8  C8  DEN d   1      -0.697   1.377   0.747  0.00  0.00    -0.094 A 
ATOM      9  C9  DEN d   1      -0.264   2.160  -0.311  0.00  0.00    -0.072 A 
ENDROOT
TORSDOF 0
ENDMDL
