MODEL 1
REMARK minimizedAffinity -6.41796494
REMARK minimizedRMSD -1
REMARK  0 active torsions:
REMARK  status: ('A' for Active; 'I' for Inactive)
ROOT
ATOM      1  C1  DEN d   1       0.254  -0.591   1.213  0.00  0.00     0.130 A 
ATOM      2  C2  DEN d   1       1.131  -0.777   0.060  0.00  0.00    -0.031 A 
ATOM      3  C3  DEN d   1       1.013   0.416  -0.801  0.00  0.00     0.027 A 
ATOM      4  C4  DEN d   1      -0.432   2.526  -0.461  0.00  0.00     0.027 A 
ATOM      5  C5  DEN d   1      -1.351   3.136   0.364  0.00  0.00    -0.003 A 
ATOM      6  C6  DEN d   1      -1.821   2.537   1.502  0.00  0.00     0.001 A 
ATOM      7  C7  DEN d   1      -1.339   1.309   1.872  0.00  0.00     0.017 A 
ATOM      8  C8  DEN d   1      -0.418   0.684   1.041  0.00  0.00    -0.094 A 
ATOM      9  C9  DEN d   1       0.054   1.311  -0.099  0.00  0.00    -0.072 A 
ENDROOT
TORSDOF 0
ENDMDL
