MODEL 1
REMARK minimizedAffinity -4.44599867
REMARK minimizedRMSD -1
REMARK  0 active torsions:
REMARK  status: ('A' for Active; 'I' for Inactive)
ROOT
ATOM      1  C1  DEN d   1       0.554   3.079  -0.841  0.00  0.00     0.130 A 
ATOM      2  C2  DEN d   1      -0.096   4.138  -0.072  0.00  0.00    -0.031 A 
ATOM      3  C3  DEN d   1      -0.739   3.518   1.104  0.00  0.00     0.027 A 
ATOM      4  C4  DEN d   1      -0.787   1.038   1.809  0.00  0.00     0.027 A 
ATOM      5  C5  DEN d   1      -0.385  -0.234   1.467  0.00  0.00    -0.003 A 
ATOM      6  C6  DEN d   1       0.323  -0.494   0.323  0.00  0.00     0.001 A 
ATOM      7  C7  DEN d   1       0.690   0.541  -0.497  0.00  0.00     0.017 A 
ATOM      8  C8  DEN d   1       0.282   1.825  -0.162  0.00  0.00    -0.094 A 
ATOM      9  C9  DEN d   1      -0.422   2.068   1.004  0.00  0.00    -0.072 A 
ENDROOT
TORSDOF 0
ENDMDL
