MODEL 1
REMARK minimizedAffinity -5.40791512
REMARK minimizedRMSD -1
REMARK  0 active torsions:
REMARK  status: ('A' for Active; 'I' for Inactive)
ROOT
ATOM      1  C1  DEN d   1       0.135  -0.599   0.271  0.00  0.00     0.130 A 
ATOM      2  C2  DEN d   1       1.133  -0.551  -0.794  0.00  0.00    -0.031 A 
ATOM      3  C3  DEN d   1       1.133   0.813  -1.359  0.00  0.00     0.027 A 
ATOM      4  C4  DEN d   1      -0.305   2.847  -0.689  0.00  0.00     0.027 A 
ATOM      5  C5  DEN d   1      -1.301   3.289   0.153  0.00  0.00    -0.003 A 
ATOM      6  C6  DEN d   1      -1.907   2.464   1.064  0.00  0.00     0.001 A 
ATOM      7  C7  DEN d   1      -1.491   1.164   1.184  0.00  0.00     0.017 A 
ATOM      8  C8  DEN d   1      -0.492   0.709   0.333  0.00  0.00    -0.094 A 
ATOM      9  C9  DEN d   1       0.116   1.562  -0.573  0.00  0.00    -0.072 A 
ENDROOT
TORSDOF 0
ENDMDL
