MODEL 1
REMARK minimizedAffinity -4.63968229
REMARK minimizedRMSD -1
REMARK  0 active torsions:
REMARK  status: ('A' for Active; 'I' for Inactive)
ROOT
ATOM      1  C1  DEN d   1      -1.487   2.975   0.603  0.00  0.00     0.130 A 
ATOM      2  C2  DEN d   1      -0.798   3.417  -0.606  0.00  0.00    -0.031 A 
ATOM      3  C3  DEN d   1       0.111   2.335  -1.035  0.00  0.00     0.027 A 
ATOM      4  C4  DEN d   1       0.513   0.029   0.048  0.00  0.00     0.027 A 
ATOM      5  C5  DEN d   1       0.167  -0.795   1.096  0.00  0.00    -0.003 A 
ATOM      6  C6  DEN d   1      -0.722  -0.410   2.065  0.00  0.00     0.001 A 
ATOM      7  C7  DEN d   1      -1.330   0.815   1.980  0.00  0.00     0.017 A 
ATOM      8  C8  DEN d   1      -0.981   1.654   0.930  0.00  0.00    -0.094 A 
ATOM      9  C9  DEN d   1      -0.089   1.241  -0.046  0.00  0.00    -0.072 A 
ENDROOT
TORSDOF 0
ENDMDL
