MODEL 1
REMARK minimizedAffinity 14.4990664
REMARK minimizedRMSD -1
REMARK  2 active torsions:
REMARK  status: ('A' for Active; 'I' for Inactive)
REMARK    1  A    between atoms: C1_2  and  C2_3 
REMARK    2  A    between atoms: C2_3  and  C3_4 
ROOT
ATOM      1  C3  UNL d   1      -0.121   4.122  -3.007  0.00  0.00    -0.075 A 
ATOM      2  C4  UNL d   1       1.098   3.953  -2.334  0.00  0.00     0.002 A 
ATOM      3  C5  UNL d   1       1.130   3.394  -1.056  0.00  0.00     0.002 A 
ATOM      4  C6  UNL d   1      -0.054   3.007  -0.432  0.00  0.00    -0.004 A 
ATOM      5  C7  UNL d   1      -1.272   3.186  -1.085  0.00  0.00     0.002 A 
ATOM      6  C8  UNL d   1      -1.306   3.741  -2.365  0.00  0.00     0.002 A 
ENDROOT
BRANCH   1   7
ATOM      7  C2  UNL d   1      -0.159   4.700  -4.402  0.00  0.00     0.056 C 
BRANCH   7   8
ATOM      8  C1  UNL d   1       0.668   5.979  -4.571  0.00  0.00     0.007 C 
ATOM      9  C   UNL d   1       1.485   6.000  -5.856  0.00  0.00     0.009 C 
ENDBRANCH   7   8
ENDBRANCH   1   7
TORSDOF 2
ENDMDL
