MODEL 1
REMARK minimizedAffinity 15.3026514
REMARK minimizedRMSD -1
REMARK  2 active torsions:
REMARK  status: ('A' for Active; 'I' for Inactive)
REMARK    1  A    between atoms: C1_2  and  C2_3 
REMARK    2  A    between atoms: C2_3  and  C3_4 
ROOT
ATOM      1  C3  UNL d   1      -0.800   3.023  -1.824  0.00  0.00    -0.075 A 
ATOM      2  C4  UNL d   1       0.501   3.405  -1.467  0.00  0.00     0.002 A 
ATOM      3  C5  UNL d   1       1.050   2.998  -0.250  0.00  0.00     0.002 A 
ATOM      4  C6  UNL d   1       0.304   2.214   0.627  0.00  0.00    -0.004 A 
ATOM      5  C7  UNL d   1      -0.996   1.843   0.289  0.00  0.00     0.002 A 
ATOM      6  C8  UNL d   1      -1.546   2.245  -0.929  0.00  0.00     0.002 A 
ENDROOT
BRANCH   1   7
ATOM      7  C2  UNL d   1      -1.390   3.436  -3.152  0.00  0.00     0.056 C 
BRANCH   7   8
ATOM      8  C1  UNL d   1      -2.257   2.359  -3.811  0.00  0.00     0.007 C 
ATOM      9  C   UNL d   1      -3.740   2.708  -3.825  0.00  0.00     0.009 C 
ENDBRANCH   7   8
ENDBRANCH   1   7
TORSDOF 2
ENDMDL
