MODEL 1
REMARK minimizedAffinity 19.2652836
REMARK minimizedRMSD -1
REMARK  2 active torsions:
REMARK  status: ('A' for Active; 'I' for Inactive)
REMARK    1  A    between atoms: C1_2  and  C2_3 
REMARK    2  A    between atoms: C2_3  and  C3_4 
ROOT
ATOM      1  C3  UNL d   1       0.985  -3.421   2.079  0.00  0.00    -0.075 A 
ATOM      2  C4  UNL d   1       1.811  -2.313   2.318  0.00  0.00     0.002 A 
ATOM      3  C5  UNL d   1       2.411  -1.635   1.256  0.00  0.00     0.002 A 
ATOM      4  C6  UNL d   1       2.202  -2.061  -0.054  0.00  0.00    -0.004 A 
ATOM      5  C7  UNL d   1       1.396  -3.170  -0.301  0.00  0.00     0.002 A 
ATOM      6  C8  UNL d   1       0.791  -3.848   0.759  0.00  0.00     0.002 A 
ENDROOT
BRANCH   1   7
ATOM      7  C2  UNL d   1       0.310  -4.141   3.222  0.00  0.00     0.056 C 
BRANCH   7   8
ATOM      8  C1  UNL d   1      -0.165  -3.216   4.348  0.00  0.00     0.007 C 
ATOM      9  C   UNL d   1      -1.679  -3.201   4.514  0.00  0.00     0.009 C 
ENDBRANCH   7   8
ENDBRANCH   1   7
TORSDOF 2
ENDMDL
