MODEL 1
REMARK minimizedAffinity 11.2627087
REMARK minimizedRMSD -1
REMARK  2 active torsions:
REMARK  status: ('A' for Active; 'I' for Inactive)
REMARK    1  A    between atoms: C1_2  and  C2_3 
REMARK    2  A    between atoms: C2_3  and  C3_4 
ROOT
ATOM      1  C3  UNL d   1      -0.466   3.336  -3.084  0.00  0.00    -0.075 A 
ATOM      2  C4  UNL d   1       0.410   3.415  -1.991  0.00  0.00     0.002 A 
ATOM      3  C5  UNL d   1       0.047   2.883  -0.753  0.00  0.00     0.002 A 
ATOM      4  C6  UNL d   1      -1.196   2.277  -0.590  0.00  0.00    -0.004 A 
ATOM      5  C7  UNL d   1      -2.081   2.208  -1.664  0.00  0.00     0.002 A 
ATOM      6  C8  UNL d   1      -1.719   2.735  -2.905  0.00  0.00     0.002 A 
ENDROOT
BRANCH   1   7
ATOM      7  C2  UNL d   1      -0.068   3.884  -4.434  0.00  0.00     0.056 C 
BRANCH   7   8
ATOM      8  C1  UNL d   1      -0.104   5.413  -4.522  0.00  0.00     0.007 C 
ATOM      9  C   UNL d   1       1.039   5.994  -5.345  0.00  0.00     0.009 C 
ENDBRANCH   7   8
ENDBRANCH   1   7
TORSDOF 2
ENDMDL
