MODEL 1
REMARK minimizedAffinity 16.9627666
REMARK minimizedRMSD -1
REMARK  2 active torsions:
REMARK  status: ('A' for Active; 'I' for Inactive)
REMARK    1  A    between atoms: C1_2  and  C2_3 
REMARK    2  A    between atoms: C2_3  and  C3_4 
ROOT
ATOM      1  C3  UNL d   1      -3.434   4.818  -0.403  0.00  0.00    -0.075 A 
ATOM      2  C4  UNL d   1      -4.322   4.904  -1.485  0.00  0.00     0.002 A 
ATOM      3  C5  UNL d   1      -5.576   5.495  -1.327  0.00  0.00     0.002 A 
ATOM      4  C6  UNL d   1      -5.961   5.997  -0.086  0.00  0.00    -0.004 A 
ATOM      5  C7  UNL d   1      -5.093   5.902   1.000  0.00  0.00     0.002 A 
ATOM      6  C8  UNL d   1      -3.836   5.315   0.843  0.00  0.00     0.002 A 
ENDROOT
BRANCH   1   7
ATOM      7  C2  UNL d   1      -2.064   4.206  -0.575  0.00  0.00     0.056 C 
BRANCH   7   8
ATOM      8  C1  UNL d   1      -1.933   2.795   0.008  0.00  0.00     0.007 C 
ATOM      9  C   UNL d   1      -0.514   2.454   0.442  0.00  0.00     0.009 C 
ENDBRANCH   7   8
ENDBRANCH   1   7
TORSDOF 2
ENDMDL
