MODEL 1
REMARK minimizedAffinity 13.0186558
REMARK minimizedRMSD -1
REMARK  2 active torsions:
REMARK  status: ('A' for Active; 'I' for Inactive)
REMARK    1  A    between atoms: C1_2  and  C2_3 
REMARK    2  A    between atoms: C2_3  and  C3_4 
ROOT
ATOM      1  C3  UNL d   1      -4.209   5.477  -1.148  0.00  0.00    -0.075 A 
ATOM      2  C4  UNL d   1      -5.552   5.780  -0.879  0.00  0.00     0.002 A 
ATOM      3  C5  UNL d   1      -5.989   5.959   0.434  0.00  0.00     0.002 A 
ATOM      4  C6  UNL d   1      -5.094   5.826   1.493  0.00  0.00    -0.004 A 
ATOM      5  C7  UNL d   1      -3.761   5.509   1.239  0.00  0.00     0.002 A 
ATOM      6  C8  UNL d   1      -3.320   5.334  -0.074  0.00  0.00     0.002 A 
ENDROOT
BRANCH   1   7
ATOM      7  C2  UNL d   1      -3.723   5.312  -2.568  0.00  0.00     0.056 C 
BRANCH   7   8
ATOM      8  C1  UNL d   1      -3.469   3.857  -2.975  0.00  0.00     0.007 C 
ATOM      9  C   UNL d   1      -1.990   3.495  -3.018  0.00  0.00     0.009 C 
ENDBRANCH   7   8
ENDBRANCH   1   7
TORSDOF 2
ENDMDL
