MODEL 1
REMARK minimizedAffinity 6.7444973
REMARK minimizedRMSD -1
REMARK  2 active torsions:
REMARK  status: ('A' for Active; 'I' for Inactive)
REMARK    1  A    between atoms: C1_2  and  C2_3 
REMARK    2  A    between atoms: C2_3  and  C3_4 
ROOT
ATOM      1  C3  UNL d   1      -3.625  -2.893   5.372  0.00  0.00    -0.075 A 
ATOM      2  C4  UNL d   1      -3.523  -3.710   4.236  0.00  0.00     0.002 A 
ATOM      3  C5  UNL d   1      -4.648  -4.361   3.729  0.00  0.00     0.002 A 
ATOM      4  C6  UNL d   1      -5.883  -4.213   4.354  0.00  0.00    -0.004 A 
ATOM      5  C7  UNL d   1      -5.993  -3.417   5.493  0.00  0.00     0.002 A 
ATOM      6  C8  UNL d   1      -4.870  -2.761   6.000  0.00  0.00     0.002 A 
ENDROOT
BRANCH   1   7
ATOM      7  C2  UNL d   1      -2.417  -2.162   5.908  0.00  0.00     0.056 C 
BRANCH   7   8
ATOM      8  C1  UNL d   1      -1.079  -2.732   5.428  0.00  0.00     0.007 C 
ATOM      9  C   UNL d   1      -0.773  -4.110   6.000  0.00  0.00     0.009 C 
ENDBRANCH   7   8
ENDBRANCH   1   7
TORSDOF 2
ENDMDL
