MODEL 1
REMARK minimizedAffinity 18.7693958
REMARK minimizedRMSD -1
REMARK  2 active torsions:
REMARK  status: ('A' for Active; 'I' for Inactive)
REMARK    1  A    between atoms: C1_2  and  C2_3 
REMARK    2  A    between atoms: C2_3  and  C3_4 
ROOT
ATOM      1  C3  UNL d   1       2.027  -3.907  -4.702  0.00  0.00    -0.075 A 
ATOM      2  C4  UNL d   1       2.286  -3.404  -3.418  0.00  0.00     0.002 A 
ATOM      3  C5  UNL d   1       2.058  -4.192  -2.290  0.00  0.00     0.002 A 
ATOM      4  C6  UNL d   1       1.559  -5.485  -2.428  0.00  0.00    -0.004 A 
ATOM      5  C7  UNL d   1       1.282  -5.989  -3.698  0.00  0.00     0.002 A 
ATOM      6  C8  UNL d   1       1.514  -5.204  -4.829  0.00  0.00     0.002 A 
ENDROOT
BRANCH   1   7
ATOM      7  C2  UNL d   1       2.300  -3.070  -5.928  0.00  0.00     0.056 C 
BRANCH   7   8
ATOM      8  C1  UNL d   1       3.722  -2.501  -5.992  0.00  0.00     0.007 C 
ATOM      9  C   UNL d   1       4.799  -3.577  -5.998  0.00  0.00     0.009 C 
ENDBRANCH   7   8
ENDBRANCH   1   7
TORSDOF 2
ENDMDL
