MODEL 1
REMARK minimizedAffinity 16.6355152
REMARK minimizedRMSD -1
REMARK  2 active torsions:
REMARK  status: ('A' for Active; 'I' for Inactive)
REMARK    1  A    between atoms: C1_2  and  C2_3 
REMARK    2  A    between atoms: C2_3  and  C3_4 
ROOT
ATOM      1  C3  UNL d   1      -5.059   5.749   0.653  0.00  0.00    -0.075 A 
ATOM      2  C4  UNL d   1      -3.697   5.430   0.554  0.00  0.00     0.002 A 
ATOM      3  C5  UNL d   1      -3.100   5.255  -0.695  0.00  0.00     0.002 A 
ATOM      4  C6  UNL d   1      -3.857   5.386  -1.857  0.00  0.00    -0.004 A 
ATOM      5  C7  UNL d   1      -5.215   5.687  -1.769  0.00  0.00     0.002 A 
ATOM      6  C8  UNL d   1      -5.814   5.867  -0.521  0.00  0.00     0.002 A 
ENDROOT
BRANCH   1   7
ATOM      7  C2  UNL d   1      -5.705   5.969   2.001  0.00  0.00     0.056 C 
BRANCH   7   8
ATOM      8  C1  UNL d   1      -4.719   5.956   3.174  0.00  0.00     0.007 C 
ATOM      9  C   UNL d   1      -5.404   5.998   4.534  0.00  0.00     0.009 C 
ENDBRANCH   7   8
ENDBRANCH   1   7
TORSDOF 2
ENDMDL
