MODEL 1
REMARK minimizedAffinity 12.4145288
REMARK minimizedRMSD -1
REMARK  2 active torsions:
REMARK  status: ('A' for Active; 'I' for Inactive)
REMARK    1  A    between atoms: C1_2  and  C2_3 
REMARK    2  A    between atoms: C2_3  and  C3_4 
ROOT
ATOM      1  C3  UNL d   1       1.462  -4.186  -4.500  0.00  0.00    -0.075 A 
ATOM      2  C4  UNL d   1       1.925  -3.334  -3.486  0.00  0.00     0.002 A 
ATOM      3  C5  UNL d   1       2.115  -3.814  -2.190  0.00  0.00     0.002 A 
ATOM      4  C6  UNL d   1       1.834  -5.144  -1.888  0.00  0.00    -0.004 A 
ATOM      5  C7  UNL d   1       1.358  -5.995  -2.883  0.00  0.00     0.002 A 
ATOM      6  C8  UNL d   1       1.172  -5.520  -4.182  0.00  0.00     0.002 A 
ENDROOT
BRANCH   1   7
ATOM      7  C2  UNL d   1       1.283  -3.681  -5.912  0.00  0.00     0.056 C 
BRANCH   7   8
ATOM      8  C1  UNL d   1       0.785  -2.235  -5.998  0.00  0.00     0.007 C 
ATOM      9  C   UNL d   1       1.911  -1.210  -5.987  0.00  0.00     0.009 C 
ENDBRANCH   7   8
ENDBRANCH   1   7
TORSDOF 2
ENDMDL
