MODEL 1
REMARK minimizedAffinity 6.10681534
REMARK minimizedRMSD -1
REMARK  2 active torsions:
REMARK  status: ('A' for Active; 'I' for Inactive)
REMARK    1  A    between atoms: C1_2  and  C2_3 
REMARK    2  A    between atoms: C2_3  and  C3_4 
ROOT
ATOM      1  C3  UNL d   1       2.256  -3.573  -3.778  0.00  0.00    -0.075 A 
ATOM      2  C4  UNL d   1       3.645  -3.458  -3.934  0.00  0.00     0.002 A 
ATOM      3  C5  UNL d   1       4.181  -2.789  -5.034  0.00  0.00     0.002 A 
ATOM      4  C6  UNL d   1       3.339  -2.236  -5.996  0.00  0.00    -0.004 A 
ATOM      5  C7  UNL d   1       1.958  -2.358  -5.860  0.00  0.00     0.002 A 
ATOM      6  C8  UNL d   1       1.418  -3.023  -4.758  0.00  0.00     0.002 A 
ENDROOT
BRANCH   1   7
ATOM      7  C2  UNL d   1       1.668  -4.270  -2.574  0.00  0.00     0.056 C 
BRANCH   7   8
ATOM      8  C1  UNL d   1       1.084  -3.317  -1.525  0.00  0.00     0.007 C 
ATOM      9  C   UNL d   1       2.145  -2.671  -0.644  0.00  0.00     0.009 C 
ENDBRANCH   7   8
ENDBRANCH   1   7
TORSDOF 2
ENDMDL
