MODEL 1
REMARK minimizedAffinity 17.1684189
REMARK minimizedRMSD -1
REMARK  2 active torsions:
REMARK  status: ('A' for Active; 'I' for Inactive)
REMARK    1  A    between atoms: C1_2  and  C2_3 
REMARK    2  A    between atoms: C2_3  and  C3_4 
ROOT
ATOM      1  C3  UNL d   1      -5.221   5.742   1.604  0.00  0.00    -0.075 A 
ATOM      2  C4  UNL d   1      -5.833   5.967   0.363  0.00  0.00     0.002 A 
ATOM      3  C5  UNL d   1      -5.125   5.769  -0.823  0.00  0.00     0.002 A 
ATOM      4  C6  UNL d   1      -3.795   5.355  -0.783  0.00  0.00    -0.004 A 
ATOM      5  C7  UNL d   1      -3.172   5.145   0.445  0.00  0.00     0.002 A 
ATOM      6  C8  UNL d   1      -3.879   5.338   1.633  0.00  0.00     0.002 A 
ENDROOT
BRANCH   1   7
ATOM      7  C2  UNL d   1      -5.991   5.926   2.890  0.00  0.00     0.056 C 
BRANCH   7   8
ATOM      8  C1  UNL d   1      -5.182   5.609   4.152  0.00  0.00     0.007 C 
ATOM      9  C   UNL d   1      -3.710   5.978   4.030  0.00  0.00     0.009 C 
ENDBRANCH   7   8
ENDBRANCH   1   7
TORSDOF 2
ENDMDL
