MODEL 1
REMARK minimizedAffinity 14.3775835
REMARK minimizedRMSD -1
REMARK  2 active torsions:
REMARK  status: ('A' for Active; 'I' for Inactive)
REMARK    1  A    between atoms: C1_2  and  C2_3 
REMARK    2  A    between atoms: C2_3  and  C3_4 
ROOT
ATOM      1  C3  UNL d   1      -3.366   3.571   0.706  0.00  0.00    -0.075 A 
ATOM      2  C4  UNL d   1      -2.852   4.792   0.247  0.00  0.00     0.002 A 
ATOM      3  C5  UNL d   1      -3.453   5.996   0.614  0.00  0.00     0.002 A 
ATOM      4  C6  UNL d   1      -4.580   5.995   1.433  0.00  0.00    -0.004 A 
ATOM      5  C7  UNL d   1      -5.109   4.786   1.881  0.00  0.00     0.002 A 
ATOM      6  C8  UNL d   1      -4.507   3.580   1.519  0.00  0.00     0.002 A 
ENDROOT
BRANCH   1   7
ATOM      7  C2  UNL d   1      -2.702   2.266   0.337  0.00  0.00     0.056 C 
BRANCH   7   8
ATOM      8  C1  UNL d   1      -1.199   2.385   0.066  0.00  0.00     0.007 C 
ATOM      9  C   UNL d   1      -0.345   1.619   1.067  0.00  0.00     0.009 C 
ENDBRANCH   7   8
ENDBRANCH   1   7
TORSDOF 2
ENDMDL
