MODEL 1
REMARK minimizedAffinity 15.6591053
REMARK minimizedRMSD -1
REMARK  2 active torsions:
REMARK  status: ('A' for Active; 'I' for Inactive)
REMARK    1  A    between atoms: C1_2  and  C2_3 
REMARK    2  A    between atoms: C2_3  and  C3_4 
ROOT
ATOM      1  C3  UNL d   1       0.154   2.638  -0.198  0.00  0.00    -0.075 A 
ATOM      2  C4  UNL d   1      -1.218   2.457  -0.424  0.00  0.00     0.002 A 
ATOM      3  C5  UNL d   1      -1.774   2.749  -1.670  0.00  0.00     0.002 A 
ATOM      4  C6  UNL d   1      -0.970   3.234  -2.699  0.00  0.00    -0.004 A 
ATOM      5  C7  UNL d   1       0.391   3.433  -2.480  0.00  0.00     0.002 A 
ATOM      6  C8  UNL d   1       0.951   3.138  -1.236  0.00  0.00     0.002 A 
ENDROOT
BRANCH   1   7
ATOM      7  C2  UNL d   1       0.768   2.296   1.139  0.00  0.00     0.056 C 
BRANCH   7   8
ATOM      8  C1  UNL d   1       0.090   1.123   1.855  0.00  0.00     0.007 C 
ATOM      9  C   UNL d   1       1.053  -0.001   2.213  0.00  0.00     0.009 C 
ENDBRANCH   7   8
ENDBRANCH   1   7
TORSDOF 2
ENDMDL
