MODEL 1
REMARK minimizedAffinity 15.3081198
REMARK minimizedRMSD -1
REMARK  2 active torsions:
REMARK  status: ('A' for Active; 'I' for Inactive)
REMARK    1  A    between atoms: C1_2  and  C2_3 
REMARK    2  A    between atoms: C2_3  and  C3_4 
ROOT
ATOM      1  C3  UNL d   1      -5.197   5.941  -0.177  0.00  0.00    -0.075 A 
ATOM      2  C4  UNL d   1      -3.802   5.959  -0.030  0.00  0.00     0.002 A 
ATOM      3  C5  UNL d   1      -3.224   5.982   1.240  0.00  0.00     0.002 A 
ATOM      4  C6  UNL d   1      -4.030   5.997   2.376  0.00  0.00    -0.004 A 
ATOM      5  C7  UNL d   1      -5.417   5.996   2.241  0.00  0.00     0.002 A 
ATOM      6  C8  UNL d   1      -5.998   5.969   0.973  0.00  0.00     0.002 A 
ENDROOT
BRANCH   1   7
ATOM      7  C2  UNL d   1      -5.829   5.887  -1.547  0.00  0.00     0.056 C 
BRANCH   7   8
ATOM      8  C1  UNL d   1      -4.834   5.626  -2.683  0.00  0.00     0.007 C 
ATOM      9  C   UNL d   1      -5.096   4.319  -3.420  0.00  0.00     0.009 C 
ENDBRANCH   7   8
ENDBRANCH   1   7
TORSDOF 2
ENDMDL
