MODEL 1
REMARK minimizedAffinity 6.37391567
REMARK minimizedRMSD -1
REMARK  2 active torsions:
REMARK  status: ('A' for Active; 'I' for Inactive)
REMARK    1  A    between atoms: C1_2  and  C2_3 
REMARK    2  A    between atoms: C2_3  and  C3_4 
ROOT
ATOM      1  C3  UNL d   1      -0.237   3.032  -0.431  0.00  0.00    -0.075 A 
ATOM      2  C4  UNL d   1       0.352   4.290  -0.234  0.00  0.00     0.002 A 
ATOM      3  C5  UNL d   1       0.197   5.301  -1.183  0.00  0.00     0.002 A 
ATOM      4  C6  UNL d   1      -0.538   5.066  -2.342  0.00  0.00    -0.004 A 
ATOM      5  C7  UNL d   1      -1.114   3.815  -2.556  0.00  0.00     0.002 A 
ATOM      6  C8  UNL d   1      -0.964   2.803  -1.606  0.00  0.00     0.002 A 
ENDROOT
BRANCH   1   7
ATOM      7  C2  UNL d   1      -0.097   1.943   0.606  0.00  0.00     0.056 C 
BRANCH   7   8
ATOM      8  C1  UNL d   1      -1.385   1.654   1.385  0.00  0.00     0.007 C 
ATOM      9  C   UNL d   1      -1.132   1.059   2.763  0.00  0.00     0.009 C 
ENDBRANCH   7   8
ENDBRANCH   1   7
TORSDOF 2
ENDMDL
