MODEL 1
REMARK minimizedAffinity 11.2175751
REMARK minimizedRMSD -1
REMARK  0 active torsions:
REMARK  status: ('A' for Active; 'I' for Inactive)
ROOT
ATOM      1  C   UNL d   1       3.538   1.405   3.684  0.00  0.00     0.078 C 
ATOM      2  C1  UNL d   1       2.229   0.721   3.421  0.00  0.00    -0.077 A 
ATOM      3  C2  UNL d   1       1.138   0.898   4.280  0.00  0.00    -0.001 A 
ATOM      4  C3  UNL d   1      -0.071   0.247   4.028  0.00  0.00     0.003 A 
ATOM      5  C4  UNL d   1      -0.200  -0.585   2.918  0.00  0.00    -0.005 A 
ATOM      6  C5  UNL d   1       0.881  -0.769   2.059  0.00  0.00     0.003 A 
ATOM      7  C6  UNL d   1       2.091  -0.119   2.309  0.00  0.00    -0.001 A 
ENDROOT
TORSDOF 0
ENDMDL
