MODEL 1
REMARK minimizedAffinity 2.59771919
REMARK minimizedRMSD -1
REMARK  0 active torsions:
REMARK  status: ('A' for Active; 'I' for Inactive)
ROOT
ATOM      1  C   UNL d   1       4.158   5.637   1.120  0.00  0.00     0.078 C 
ATOM      2  C1  UNL d   1       4.146   4.390   1.952  0.00  0.00    -0.077 A 
ATOM      3  C2  UNL d   1       4.174   4.456   3.351  0.00  0.00    -0.001 A 
ATOM      4  C3  UNL d   1       4.172   3.286   4.113  0.00  0.00     0.003 A 
ATOM      5  C4  UNL d   1       4.144   2.042   3.485  0.00  0.00    -0.005 A 
ATOM      6  C5  UNL d   1       4.118   1.967   2.094  0.00  0.00     0.003 A 
ATOM      7  C6  UNL d   1       4.120   3.135   1.331  0.00  0.00    -0.001 A 
ENDROOT
TORSDOF 0
ENDMDL
