MODEL 1
REMARK minimizedAffinity 9.00085068
REMARK minimizedRMSD -1
REMARK  0 active torsions:
REMARK  status: ('A' for Active; 'I' for Inactive)
ROOT
ATOM      1  C   UNL d   1       4.319   1.180   3.886  0.00  0.00     0.078 C 
ATOM      2  C1  UNL d   1       4.274   2.474   3.130  0.00  0.00    -0.077 A 
ATOM      3  C2  UNL d   1       4.153   2.490   1.735  0.00  0.00    -0.001 A 
ATOM      4  C3  UNL d   1       4.123   3.702   1.043  0.00  0.00     0.003 A 
ATOM      5  C4  UNL d   1       4.214   4.907   1.737  0.00  0.00    -0.005 A 
ATOM      6  C5  UNL d   1       4.336   4.901   3.125  0.00  0.00     0.003 A 
ATOM      7  C6  UNL d   1       4.367   3.690   3.819  0.00  0.00    -0.001 A 
ENDROOT
TORSDOF 0
ENDMDL
