MODEL 1
REMARK minimizedAffinity 5.7896781
REMARK minimizedRMSD -1
REMARK  0 active torsions:
REMARK  status: ('A' for Active; 'I' for Inactive)
ROOT
ATOM      1  C   UNL d   1      -1.199  -4.176  -6.000  0.00  0.00     0.078 C 
ATOM      2  C1  UNL d   1      -0.954  -2.860  -5.323  0.00  0.00    -0.077 A 
ATOM      3  C2  UNL d   1      -1.599  -2.534  -4.124  0.00  0.00    -0.001 A 
ATOM      4  C3  UNL d   1      -1.369  -1.302  -3.510  0.00  0.00     0.003 A 
ATOM      5  C4  UNL d   1      -0.494  -0.384  -4.089  0.00  0.00    -0.005 A 
ATOM      6  C5  UNL d   1       0.151  -0.699  -5.284  0.00  0.00     0.003 A 
ATOM      7  C6  UNL d   1      -0.078  -1.931  -5.899  0.00  0.00    -0.001 A 
ENDROOT
TORSDOF 0
ENDMDL
