MODEL 1
REMARK minimizedAffinity 12.1515636
REMARK minimizedRMSD -1
REMARK  0 active torsions:
REMARK  status: ('A' for Active; 'I' for Inactive)
ROOT
ATOM      1  C   UNL d   1       1.626  -2.759   4.274  0.00  0.00     0.078 C 
ATOM      2  C1  UNL d   1       1.021  -1.624   3.504  0.00  0.00    -0.077 A 
ATOM      3  C2  UNL d   1       1.375  -0.297   3.777  0.00  0.00    -0.001 A 
ATOM      4  C3  UNL d   1       0.797   0.751   3.058  0.00  0.00     0.003 A 
ATOM      5  C4  UNL d   1      -0.141   0.482   2.063  0.00  0.00    -0.005 A 
ATOM      6  C5  UNL d   1      -0.502  -0.835   1.786  0.00  0.00     0.003 A 
ATOM      7  C6  UNL d   1       0.076  -1.883   2.503  0.00  0.00    -0.001 A 
ENDROOT
TORSDOF 0
ENDMDL
