MODEL 1
REMARK minimizedAffinity 6.07866049
REMARK minimizedRMSD -1
REMARK  0 active torsions:
REMARK  status: ('A' for Active; 'I' for Inactive)
ROOT
ATOM      1  C   UNL d   1       1.502  -2.936   4.602  0.00  0.00     0.078 C 
ATOM      2  C1  UNL d   1       0.944  -1.875   3.700  0.00  0.00    -0.077 A 
ATOM      3  C2  UNL d   1      -0.391  -1.916   3.280  0.00  0.00    -0.001 A 
ATOM      4  C3  UNL d   1      -0.895  -0.927   2.433  0.00  0.00     0.003 A 
ATOM      5  C4  UNL d   1      -0.070   0.109   1.998  0.00  0.00    -0.005 A 
ATOM      6  C5  UNL d   1       1.261   0.156   2.410  0.00  0.00     0.003 A 
ATOM      7  C6  UNL d   1       1.766  -0.832   3.257  0.00  0.00    -0.001 A 
ENDROOT
TORSDOF 0
ENDMDL
