MODEL 1
REMARK minimizedAffinity -0.32284987
REMARK minimizedRMSD -1
REMARK  0 active torsions:
REMARK  status: ('A' for Active; 'I' for Inactive)
ROOT
ATOM      1  O1  BZF d   1      -0.583   0.809  -1.439  0.00  0.00    -0.204 OA
ATOM      2  C2  BZF d   1       0.273   0.339  -2.415  0.00  0.00     0.174 A 
ATOM      3  C3  BZF d   1       0.875  -0.800  -2.016  0.00  0.00    -0.012 A 
ATOM      4  C3A BZF d   1       0.293  -1.107  -0.745  0.00  0.00    -0.107 A 
ATOM      5  C4  BZF d   1       0.468  -2.127   0.146  0.00  0.00     0.055 A 
ATOM      6  C5  BZF d   1      -0.202  -2.094   1.328  0.00  0.00    -0.016 A 
ATOM      7  C6  BZF d   1      -1.050  -1.056   1.653  0.00  0.00     0.022 A 
ATOM      8  C7  BZF d   1      -1.261  -0.025   0.798  0.00  0.00     0.029 A 
ATOM      9  C7A BZF d   1      -0.610  -0.072  -0.410  0.00  0.00     0.058 A 
ENDROOT
TORSDOF 0
ENDMDL
