MODEL 1
REMARK minimizedAffinity -0.484713703
REMARK minimizedRMSD -1
REMARK  0 active torsions:
REMARK  status: ('A' for Active; 'I' for Inactive)
ROOT
ATOM      1  O1  BZF d   1      -0.501   0.639   1.261  0.00  0.00    -0.204 OA
ATOM      2  C2  BZF d   1       0.086   1.636   0.507  0.00  0.00     0.174 A 
ATOM      3  C3  BZF d   1       0.411   1.181  -0.720  0.00  0.00    -0.012 A 
ATOM      4  C3A BZF d   1      -0.083  -0.161  -0.766  0.00  0.00    -0.107 A 
ATOM      5  C4  BZF d   1      -0.079  -1.131  -1.728  0.00  0.00     0.055 A 
ATOM      6  C5  BZF d   1      -0.579  -2.359  -1.430  0.00  0.00    -0.016 A 
ATOM      7  C6  BZF d   1      -1.084  -2.653  -0.180  0.00  0.00     0.022 A 
ATOM      8  C7  BZF d   1      -1.114  -1.723   0.805  0.00  0.00     0.029 A 
ATOM      9  C7A BZF d   1      -0.640  -0.471   0.497  0.00  0.00     0.058 A 
ENDROOT
TORSDOF 0
ENDMDL
