MODEL 1
REMARK minimizedAffinity -0.706848562
REMARK minimizedRMSD -1
REMARK  0 active torsions:
REMARK  status: ('A' for Active; 'I' for Inactive)
ROOT
ATOM      1  O1  BZF d   1       0.999  -0.414   0.277  0.00  0.00    -0.204 OA
ATOM      2  C2  BZF d   1      -0.354  -0.682   0.200  0.00  0.00     0.174 A 
ATOM      3  C3  BZF d   1      -1.069   0.461   0.197  0.00  0.00    -0.012 A 
ATOM      4  C3A BZF d   1      -0.097   1.512   0.183  0.00  0.00    -0.107 A 
ATOM      5  C4  BZF d   1      -0.188   2.874   0.159  0.00  0.00     0.055 A 
ATOM      6  C5  BZF d   1       0.950   3.614   0.226  0.00  0.00    -0.016 A 
ATOM      7  C6  BZF d   1       2.194   3.024   0.322  0.00  0.00     0.022 A 
ATOM      8  C7  BZF d   1       2.335   1.677   0.344  0.00  0.00     0.029 A 
ATOM      9  C7A BZF d   1       1.188   0.927   0.244  0.00  0.00     0.058 A 
ENDROOT
TORSDOF 0
ENDMDL
