MODEL 1
REMARK minimizedAffinity -4.18911457
REMARK minimizedRMSD -1
REMARK  0 active torsions:
REMARK  status: ('A' for Active; 'I' for Inactive)
ROOT
ATOM      1  O1  BZF d   1       0.257  -1.193  -1.427  0.00  0.00    -0.204 OA
ATOM      2  C2  BZF d   1       0.298   0.119  -1.857  0.00  0.00     0.174 A 
ATOM      3  C3  BZF d   1      -0.213   0.946  -0.922  0.00  0.00    -0.012 A 
ATOM      4  C3A BZF d   1      -0.512   0.107   0.198  0.00  0.00    -0.107 A 
ATOM      5  C4  BZF d   1      -1.026   0.348   1.440  0.00  0.00     0.055 A 
ATOM      6  C5  BZF d   1      -1.262  -0.700   2.272  0.00  0.00    -0.016 A 
ATOM      7  C6  BZF d   1      -1.000  -2.001   1.894  0.00  0.00     0.022 A 
ATOM      8  C7  BZF d   1      -0.484  -2.289   0.674  0.00  0.00     0.029 A 
ATOM      9  C7A BZF d   1      -0.214  -1.229  -0.157  0.00  0.00     0.058 A 
ENDROOT
TORSDOF 0
ENDMDL
