MODEL 1
REMARK minimizedAffinity -2.23819876
REMARK minimizedRMSD -1
REMARK  0 active torsions:
REMARK  status: ('A' for Active; 'I' for Inactive)
ROOT
ATOM      1  O1  BZF d   1      -0.333  -0.879  -1.646  0.00  0.00    -0.204 OA
ATOM      2  C2  BZF d   1      -0.073   0.475  -1.722  0.00  0.00     0.174 A 
ATOM      3  C3  BZF d   1      -0.208   1.057  -0.513  0.00  0.00    -0.012 A 
ATOM      4  C3A BZF d   1      -0.487  -0.015   0.392  0.00  0.00    -0.107 A 
ATOM      5  C4  BZF d   1      -0.706  -0.075   1.738  0.00  0.00     0.055 A 
ATOM      6  C5  BZF d   1      -1.023  -1.269   2.304  0.00  0.00    -0.016 A 
ATOM      7  C6  BZF d   1      -1.134  -2.421   1.553  0.00  0.00     0.022 A 
ATOM      8  C7  BZF d   1      -0.920  -2.413   0.215  0.00  0.00     0.029 A 
ATOM      9  C7A BZF d   1      -0.568  -1.214  -0.354  0.00  0.00     0.058 A 
ENDROOT
TORSDOF 0
ENDMDL
