MODEL 1
REMARK minimizedAffinity 0.991857469
REMARK minimizedRMSD -1
REMARK  0 active torsions:
REMARK  status: ('A' for Active; 'I' for Inactive)
ROOT
ATOM      1  O1  BZF d   1      -1.646  -2.322   1.422  0.00  0.00    -0.204 OA
ATOM      2  C2  BZF d   1      -1.206  -3.135   0.396  0.00  0.00     0.174 A 
ATOM      3  C3  BZF d   1      -0.516  -2.421  -0.517  0.00  0.00    -0.012 A 
ATOM      4  C3A BZF d   1      -0.447  -1.095   0.015  0.00  0.00    -0.107 A 
ATOM      5  C4  BZF d   1       0.124   0.065  -0.425  0.00  0.00     0.055 A 
ATOM      6  C5  BZF d   1      -0.053   1.203   0.296  0.00  0.00    -0.016 A 
ATOM      7  C6  BZF d   1      -0.798   1.219   1.457  0.00  0.00     0.022 A 
ATOM      8  C7  BZF d   1      -1.379   0.092   1.936  0.00  0.00     0.029 A 
ATOM      9  C7A BZF d   1      -1.175  -1.067   1.227  0.00  0.00     0.058 A 
ENDROOT
TORSDOF 0
ENDMDL
