MODEL 1
REMARK minimizedAffinity 2.4537394
REMARK minimizedRMSD -1
REMARK  0 active torsions:
REMARK  status: ('A' for Active; 'I' for Inactive)
ROOT
ATOM      1  O1  BZF d   1       0.642   0.671  -2.201  0.00  0.00    -0.204 OA
ATOM      2  C2  BZF d   1       0.978  -0.391  -3.018  0.00  0.00     0.174 A 
ATOM      3  C3  BZF d   1       0.575  -1.558  -2.476  0.00  0.00    -0.012 A 
ATOM      4  C3A BZF d   1      -0.133  -1.196  -1.287  0.00  0.00    -0.107 A 
ATOM      5  C4  BZF d   1      -0.784  -1.916  -0.325  0.00  0.00     0.055 A 
ATOM      6  C5  BZF d   1      -1.309  -1.264   0.746  0.00  0.00    -0.016 A 
ATOM      7  C6  BZF d   1      -1.197   0.104   0.889  0.00  0.00     0.022 A 
ATOM      8  C7  BZF d   1      -0.566   0.860  -0.041  0.00  0.00     0.029 A 
ATOM      9  C7A BZF d   1      -0.063   0.209  -1.140  0.00  0.00     0.058 A 
ENDROOT
TORSDOF 0
ENDMDL
