MODEL 1
REMARK minimizedAffinity -2.07968783
REMARK minimizedRMSD -1
REMARK  0 active torsions:
REMARK  status: ('A' for Active; 'I' for Inactive)
ROOT
ATOM      1  O1  BZF d   1       0.546   0.811  -2.511  0.00  0.00    -0.204 OA
ATOM      2  C2  BZF d   1       0.751  -0.232  -3.393  0.00  0.00     0.174 A 
ATOM      3  C3  BZF d   1       0.502  -1.417  -2.798  0.00  0.00    -0.012 A 
ATOM      4  C3A BZF d   1       0.029  -1.089  -1.488  0.00  0.00    -0.107 A 
ATOM      5  C4  BZF d   1      -0.395  -1.838  -0.428  0.00  0.00     0.055 A 
ATOM      6  C5  BZF d   1      -0.721  -1.213   0.734  0.00  0.00    -0.016 A 
ATOM      7  C6  BZF d   1      -0.630   0.157   0.872  0.00  0.00     0.022 A 
ATOM      8  C7  BZF d   1      -0.219   0.942  -0.153  0.00  0.00     0.029 A 
ATOM      9  C7A BZF d   1       0.080   0.317  -1.339  0.00  0.00     0.058 A 
ENDROOT
TORSDOF 0
ENDMDL
