MODEL 1
REMARK minimizedAffinity -4.44946146
REMARK minimizedRMSD -1
REMARK  0 active torsions:
REMARK  status: ('A' for Active; 'I' for Inactive)
ROOT
ATOM      1  O1  BZF d   1      -0.248  -3.568   0.137  0.00  0.00    -0.204 OA
ATOM      2  C2  BZF d   1       0.311  -3.791  -1.107  0.00  0.00     0.174 A 
ATOM      3  C3  BZF d   1       0.408  -2.639  -1.801  0.00  0.00    -0.012 A 
ATOM      4  C3A BZF d   1      -0.037  -1.619  -0.903  0.00  0.00    -0.107 A 
ATOM      5  C4  BZF d   1      -0.158  -0.263  -1.007  0.00  0.00     0.055 A 
ATOM      6  C5  BZF d   1      -0.695   0.435   0.028  0.00  0.00    -0.016 A 
ATOM      7  C6  BZF d   1      -1.126  -0.192   1.179  0.00  0.00     0.022 A 
ATOM      8  C7  BZF d   1      -1.023  -1.535   1.331  0.00  0.00     0.029 A 
ATOM      9  C7A BZF d   1      -0.450  -2.238   0.300  0.00  0.00     0.058 A 
ENDROOT
TORSDOF 0
ENDMDL
