MODEL 1
REMARK minimizedAffinity -1.35578704
REMARK minimizedRMSD -1
REMARK  0 active torsions:
REMARK  status: ('A' for Active; 'I' for Inactive)
ROOT
ATOM      1  O1  BZF d   1      -1.280  -0.577   1.766  0.00  0.00    -0.204 OA
ATOM      2  C2  BZF d   1      -1.216  -1.956   1.800  0.00  0.00     0.174 A 
ATOM      3  C3  BZF d   1      -0.771  -2.443   0.623  0.00  0.00    -0.012 A 
ATOM      4  C3A BZF d   1      -0.455  -1.292  -0.165  0.00  0.00    -0.107 A 
ATOM      5  C4  BZF d   1       0.045  -1.125  -1.425  0.00  0.00     0.055 A 
ATOM      6  C5  BZF d   1       0.167   0.132  -1.926  0.00  0.00    -0.016 A 
ATOM      7  C6  BZF d   1      -0.206   1.243  -1.198  0.00  0.00     0.022 A 
ATOM      8  C7  BZF d   1      -0.703   1.128   0.058  0.00  0.00     0.029 A 
ATOM      9  C7A BZF d   1      -0.796  -0.139   0.579  0.00  0.00     0.058 A 
ENDROOT
TORSDOF 0
ENDMDL
