MODEL 1
REMARK minimizedAffinity -5.23012447
REMARK minimizedRMSD -1
REMARK  0 active torsions:
REMARK  status: ('A' for Active; 'I' for Inactive)
ROOT
ATOM      1  O1  BZF d   1       0.141  -2.102  -0.314  0.00  0.00    -0.204 OA
ATOM      2  C2  BZF d   1      -0.679  -2.184   0.795  0.00  0.00     0.174 A 
ATOM      3  C3  BZF d   1      -0.982  -0.954   1.258  0.00  0.00    -0.012 A 
ATOM      4  C3A BZF d   1      -0.384  -0.044   0.329  0.00  0.00    -0.107 A 
ATOM      5  C4  BZF d   1      -0.348   1.318   0.241  0.00  0.00     0.055 A 
ATOM      6  C5  BZF d   1       0.383   1.896  -0.748  0.00  0.00    -0.016 A 
ATOM      7  C6  BZF d   1       1.094   1.144  -1.660  0.00  0.00     0.022 A 
ATOM      8  C7  BZF d   1       1.085  -0.211  -1.615  0.00  0.00     0.029 A 
ATOM      9  C7A BZF d   1       0.320  -0.798  -0.637  0.00  0.00     0.058 A 
ENDROOT
TORSDOF 0
ENDMDL
