MODEL 1
REMARK minimizedAffinity -1.76070118
REMARK minimizedRMSD -1
REMARK  0 active torsions:
REMARK  status: ('A' for Active; 'I' for Inactive)
ROOT
ATOM      1  O1  BZF d   1      -0.011   1.643   0.350  0.00  0.00    -0.204 OA
ATOM      2  C2  BZF d   1      -0.434   1.456   1.652  0.00  0.00     0.174 A 
ATOM      3  C3  BZF d   1      -0.698   0.155   1.887  0.00  0.00    -0.012 A 
ATOM      4  C3A BZF d   1      -0.334  -0.527   0.683  0.00  0.00    -0.107 A 
ATOM      5  C4  BZF d   1      -0.352  -1.839   0.305  0.00  0.00     0.055 A 
ATOM      6  C5  BZF d   1      -0.000  -2.164  -0.967  0.00  0.00    -0.016 A 
ATOM      7  C6  BZF d   1       0.368  -1.205  -1.886  0.00  0.00     0.022 A 
ATOM      8  C7  BZF d   1       0.406   0.109  -1.556  0.00  0.00     0.029 A 
ATOM      9  C7A BZF d   1       0.083   0.438  -0.263  0.00  0.00     0.058 A 
ENDROOT
TORSDOF 0
ENDMDL
