MODEL 1
REMARK minimizedAffinity -2.63156772
REMARK minimizedRMSD -1
REMARK  0 active torsions:
REMARK  status: ('A' for Active; 'I' for Inactive)
ROOT
ATOM      1  O1  BZF d   1      -0.549  -2.711  -0.518  0.00  0.00    -0.204 OA
ATOM      2  C2  BZF d   1      -1.041  -2.598   0.768  0.00  0.00     0.174 A 
ATOM      3  C3  BZF d   1      -1.014  -1.314   1.179  0.00  0.00    -0.012 A 
ATOM      4  C3A BZF d   1      -0.558  -0.566   0.048  0.00  0.00    -0.107 A 
ATOM      5  C4  BZF d   1      -0.338   0.764  -0.172  0.00  0.00     0.055 A 
ATOM      6  C5  BZF d   1       0.178   1.159  -1.365  0.00  0.00    -0.016 A 
ATOM      7  C6  BZF d   1       0.492   0.253  -2.357  0.00  0.00     0.022 A 
ATOM      8  C7  BZF d   1       0.287  -1.076  -2.187  0.00  0.00     0.029 A 
ATOM      9  C7A BZF d   1      -0.266  -1.476  -0.995  0.00  0.00     0.058 A 
ENDROOT
TORSDOF 0
ENDMDL
