MODEL 1
REMARK minimizedAffinity -3.38624716
REMARK minimizedRMSD -1
REMARK  0 active torsions:
REMARK  status: ('A' for Active; 'I' for Inactive)
ROOT
ATOM      1  O1  BZF d   1      -0.075   3.468   0.440  0.00  0.00    -0.204 OA
ATOM      2  C2  BZF d   1       1.018   3.990   1.105  0.00  0.00     0.174 A 
ATOM      3  C3  BZF d   1       2.130   3.278   0.830  0.00  0.00    -0.012 A 
ATOM      4  C3A BZF d   1       1.723   2.303  -0.135  0.00  0.00    -0.107 A 
ATOM      5  C4  BZF d   1       2.383   1.314  -0.807  0.00  0.00     0.055 A 
ATOM      6  C5  BZF d   1       1.680   0.489  -1.626  0.00  0.00    -0.016 A 
ATOM      7  C6  BZF d   1       0.317   0.620  -1.792  0.00  0.00     0.022 A 
ATOM      8  C7  BZF d   1      -0.381   1.589  -1.151  0.00  0.00     0.029 A 
ATOM      9  C7A BZF d   1       0.332   2.445  -0.348  0.00  0.00     0.058 A 
ENDROOT
TORSDOF 0
ENDMDL
