MODEL 1
REMARK minimizedAffinity 1.65634263
REMARK minimizedRMSD -1
REMARK  0 active torsions:
REMARK  status: ('A' for Active; 'I' for Inactive)
ROOT
ATOM      1  O1  BZF d   1       2.068   2.402   0.027  0.00  0.00    -0.204 OA
ATOM      2  C2  BZF d   1       1.869   3.480   0.868  0.00  0.00     0.174 A 
ATOM      3  C3  BZF d   1       0.773   3.294   1.632  0.00  0.00    -0.012 A 
ATOM      4  C3A BZF d   1       0.308   1.980   1.309  0.00  0.00    -0.107 A 
ATOM      5  C4  BZF d   1      -0.736   1.218   1.752  0.00  0.00     0.055 A 
ATOM      6  C5  BZF d   1      -0.958   0.005   1.180  0.00  0.00    -0.016 A 
ATOM      7  C6  BZF d   1      -0.159  -0.474   0.163  0.00  0.00     0.022 A 
ATOM      8  C7  BZF d   1       0.891   0.242  -0.306  0.00  0.00     0.029 A 
ATOM      9  C7A BZF d   1       1.137   1.454   0.292  0.00  0.00     0.058 A 
ENDROOT
TORSDOF 0
ENDMDL
