MODEL 1
REMARK minimizedAffinity 2.60540557
REMARK minimizedRMSD -1
REMARK  0 active torsions:
REMARK  status: ('A' for Active; 'I' for Inactive)
ROOT
ATOM      1  O1  BZF d   1      -0.017   2.197  -0.909  0.00  0.00    -0.204 OA
ATOM      2  C2  BZF d   1      -0.446   2.211   0.404  0.00  0.00     0.174 A 
ATOM      3  C3  BZF d   1      -0.619   0.955   0.865  0.00  0.00    -0.012 A 
ATOM      4  C3A BZF d   1      -0.188   0.102  -0.200  0.00  0.00    -0.107 A 
ATOM      5  C4  BZF d   1      -0.105  -1.254  -0.341  0.00  0.00     0.055 A 
ATOM      6  C5  BZF d   1       0.289  -1.771  -1.534  0.00  0.00    -0.016 A 
ATOM      7  C6  BZF d   1       0.602  -0.963  -2.608  0.00  0.00     0.022 A 
ATOM      8  C7  BZF d   1       0.539   0.387  -2.514  0.00  0.00     0.029 A 
ATOM      9  C7A BZF d   1       0.173   0.914  -1.300  0.00  0.00     0.058 A 
ENDROOT
TORSDOF 0
ENDMDL
