MODEL 1
REMARK minimizedAffinity -2.96968293
REMARK minimizedRMSD -1
REMARK  0 active torsions:
REMARK  status: ('A' for Active; 'I' for Inactive)
ROOT
ATOM      1  O1  BZF d   1      -0.203   1.339  -1.724  0.00  0.00    -0.204 OA
ATOM      2  C2  BZF d   1      -0.000   2.344  -0.798  0.00  0.00     0.174 A 
ATOM      3  C3  BZF d   1       0.093   1.835   0.448  0.00  0.00    -0.012 A 
ATOM      4  C3A BZF d   1       0.031   0.415   0.280  0.00  0.00    -0.107 A 
ATOM      5  C4  BZF d   1       0.087  -0.636   1.149  0.00  0.00     0.055 A 
ATOM      6  C5  BZF d   1      -0.077  -1.898   0.672  0.00  0.00    -0.016 A 
ATOM      7  C6  BZF d   1      -0.305  -2.144  -0.666  0.00  0.00     0.022 A 
ATOM      8  C7  BZF d   1      -0.364  -1.133  -1.568  0.00  0.00     0.029 A 
ATOM      9  C7A BZF d   1      -0.166   0.140  -1.093  0.00  0.00     0.058 A 
ENDROOT
TORSDOF 0
ENDMDL
