MODEL 1
REMARK minimizedAffinity -3.18378115
REMARK minimizedRMSD -1
REMARK  1 active torsions:
REMARK  status: ('A' for Active; 'I' for Inactive)
REMARK    1  A    between atoms: C1_2  and  C2_3 
ROOT
ATOM      1  C2  UNL d   1      -0.338  -0.575   0.340  0.00  0.00    -0.073 A 
ATOM      2  C3  UNL d   1      -0.459  -0.794  -1.037  0.00  0.00    -0.002 A 
ATOM      3  C4  UNL d   1      -0.023   0.171  -1.945  0.00  0.00     0.004 A 
ATOM      4  C5  UNL d   1       0.544   1.361  -1.487  0.00  0.00    -0.004 A 
ATOM      5  C6  UNL d   1       0.684   1.593  -0.115  0.00  0.00    -0.075 A 
ATOM      6  C7  UNL d   1       1.289   2.868   0.394  0.00  0.00     0.076 C 
ATOM      7  C8  UNL d   1       0.241   0.620   0.791  0.00  0.00     0.001 A 
ENDROOT
BRANCH   1   8
ATOM      8  C1  UNL d   1      -0.802  -1.618   1.325  0.00  0.00     0.053 C 
ATOM      9  C   UNL d   1      -1.110  -2.944   0.648  0.00  0.00     0.018 C 
ENDBRANCH   1   8
TORSDOF 1
ENDMDL
