MODEL 1
REMARK minimizedAffinity -1.93819714
REMARK minimizedRMSD -1
REMARK  1 active torsions:
REMARK  status: ('A' for Active; 'I' for Inactive)
REMARK    1  A    between atoms: C1_2  and  C2_3 
ROOT
ATOM      1  C2  UNL d   1       0.400   0.735  -0.280  0.00  0.00    -0.073 A 
ATOM      2  C3  UNL d   1       0.234   0.978  -1.648  0.00  0.00    -0.002 A 
ATOM      3  C4  UNL d   1       0.273  -0.076  -2.561  0.00  0.00     0.004 A 
ATOM      4  C5  UNL d   1       0.471  -1.383  -2.117  0.00  0.00    -0.004 A 
ATOM      5  C6  UNL d   1       0.627  -1.648  -0.753  0.00  0.00    -0.075 A 
ATOM      6  C7  UNL d   1       0.843  -3.048  -0.259  0.00  0.00     0.076 C 
ATOM      7  C8  UNL d   1       0.589  -0.584   0.158  0.00  0.00     0.001 A 
ENDROOT
BRANCH   1   8
ATOM      8  C1  UNL d   1       0.352   1.869   0.711  0.00  0.00     0.053 C 
ATOM      9  C   UNL d   1       1.658   2.647   0.751  0.00  0.00     0.018 C 
ENDBRANCH   1   8
TORSDOF 1
ENDMDL
