MODEL 1
REMARK minimizedAffinity -4.05341291
REMARK minimizedRMSD -1
REMARK  1 active torsions:
REMARK  status: ('A' for Active; 'I' for Inactive)
REMARK    1  A    between atoms: C1_2  and  C2_3 
ROOT
ATOM      1  C2  UNL d   1      -0.161   0.083   0.214  0.00  0.00    -0.073 A 
ATOM      2  C3  UNL d   1      -0.976   0.177   1.348  0.00  0.00    -0.002 A 
ATOM      3  C4  UNL d   1      -1.359  -0.974   2.037  0.00  0.00     0.004 A 
ATOM      4  C5  UNL d   1      -0.926  -2.228   1.606  0.00  0.00    -0.004 A 
ATOM      5  C6  UNL d   1      -0.101  -2.341   0.482  0.00  0.00    -0.075 A 
ATOM      6  C7  UNL d   1       0.371  -3.682   0.003  0.00  0.00     0.076 C 
ATOM      7  C8  UNL d   1       0.277  -1.181  -0.207  0.00  0.00     0.001 A 
ENDROOT
BRANCH   1   8
ATOM      8  C1  UNL d   1       0.260   1.324  -0.531  0.00  0.00     0.053 C 
ATOM      9  C   UNL d   1       1.103   2.249   0.333  0.00  0.00     0.018 C 
ENDBRANCH   1   8
TORSDOF 1
ENDMDL
