MODEL 1
REMARK minimizedAffinity -2.51652551
REMARK minimizedRMSD -1
REMARK  1 active torsions:
REMARK  status: ('A' for Active; 'I' for Inactive)
REMARK    1  A    between atoms: C1_2  and  C2_3 
ROOT
ATOM      1  C2  UNL d   1      -0.672  -3.075  -0.395  0.00  0.00    -0.073 A 
ATOM      2  C3  UNL d   1       0.639  -3.047  -0.884  0.00  0.00    -0.002 A 
ATOM      3  C4  UNL d   1       1.474  -1.965  -0.599  0.00  0.00     0.004 A 
ATOM      4  C5  UNL d   1       1.010  -0.907   0.181  0.00  0.00    -0.004 A 
ATOM      5  C6  UNL d   1      -0.293  -0.922   0.689  0.00  0.00    -0.075 A 
ATOM      6  C7  UNL d   1      -0.808   0.210   1.528  0.00  0.00     0.076 C 
ATOM      7  C8  UNL d   1      -1.127  -2.010   0.397  0.00  0.00     0.001 A 
ENDROOT
BRANCH   1   8
ATOM      8  C1  UNL d   1      -1.576  -4.243  -0.694  0.00  0.00     0.053 C 
ATOM      9  C   UNL d   1      -3.038  -3.831  -0.761  0.00  0.00     0.018 C 
ENDBRANCH   1   8
TORSDOF 1
ENDMDL
