MODEL 1
REMARK minimizedAffinity -2.36213207
REMARK minimizedRMSD -1
REMARK  1 active torsions:
REMARK  status: ('A' for Active; 'I' for Inactive)
REMARK    1  A    between atoms: C1_2  and  C2_3 
ROOT
ATOM      1  C2  UNL d   1       0.371   0.289   0.376  0.00  0.00    -0.073 A 
ATOM      2  C3  UNL d   1      -0.333   0.407   1.580  0.00  0.00    -0.002 A 
ATOM      3  C4  UNL d   1      -0.915  -0.716   2.170  0.00  0.00     0.004 A 
ATOM      4  C5  UNL d   1      -0.792  -1.968   1.567  0.00  0.00    -0.004 A 
ATOM      5  C6  UNL d   1      -0.082  -2.108   0.370  0.00  0.00    -0.075 A 
ATOM      6  C7  UNL d   1       0.057  -3.448  -0.292  0.00  0.00     0.076 C 
ATOM      7  C8  UNL d   1       0.496  -0.975  -0.217  0.00  0.00     0.001 A 
ENDROOT
BRANCH   1   8
ATOM      8  C1  UNL d   1       1.006   1.498  -0.261  0.00  0.00     0.053 C 
ATOM      9  C   UNL d   1       0.537   2.794   0.382  0.00  0.00     0.018 C 
ENDBRANCH   1   8
TORSDOF 1
ENDMDL
