MODEL 1
REMARK minimizedAffinity -1.87910306
REMARK minimizedRMSD -1
REMARK  1 active torsions:
REMARK  status: ('A' for Active; 'I' for Inactive)
REMARK    1  A    between atoms: C1_2  and  C2_3 
ROOT
ATOM      1  C2  UNL d   1      -1.406  -2.052   0.681  0.00  0.00    -0.073 A 
ATOM      2  C3  UNL d   1      -0.376  -2.838   0.154  0.00  0.00    -0.002 A 
ATOM      3  C4  UNL d   1       0.874  -2.277  -0.112  0.00  0.00     0.004 A 
ATOM      4  C5  UNL d   1       1.108  -0.927   0.153  0.00  0.00    -0.004 A 
ATOM      5  C6  UNL d   1       0.094  -0.128   0.691  0.00  0.00    -0.075 A 
ATOM      6  C7  UNL d   1       0.329   1.325   0.980  0.00  0.00     0.076 C 
ATOM      7  C8  UNL d   1      -1.159  -0.699   0.953  0.00  0.00     0.001 A 
ENDROOT
BRANCH   1   8
ATOM      8  C1  UNL d   1      -2.755  -2.656   0.976  0.00  0.00     0.053 C 
ATOM      9  C   UNL d   1      -3.624  -2.745  -0.269  0.00  0.00     0.018 C 
ENDBRANCH   1   8
TORSDOF 1
ENDMDL
