MODEL 1
REMARK minimizedAffinity -3.87207961
REMARK minimizedRMSD -1
REMARK  1 active torsions:
REMARK  status: ('A' for Active; 'I' for Inactive)
REMARK    1  A    between atoms: C1_2  and  C2_3 
ROOT
ATOM      1  C2  UNL d   1      -0.334  -0.071  -1.021  0.00  0.00    -0.073 A 
ATOM      2  C3  UNL d   1      -0.687   0.637   0.134  0.00  0.00    -0.002 A 
ATOM      3  C4  UNL d   1      -0.703  -0.002   1.375  0.00  0.00     0.004 A 
ATOM      4  C5  UNL d   1      -0.361  -1.351   1.474  0.00  0.00    -0.004 A 
ATOM      5  C6  UNL d   1       0.006  -2.071   0.333  0.00  0.00    -0.075 A 
ATOM      6  C7  UNL d   1       0.374  -3.523   0.423  0.00  0.00     0.076 C 
ATOM      7  C8  UNL d   1       0.017  -1.423  -0.909  0.00  0.00     0.001 A 
ENDROOT
BRANCH   1   8
ATOM      8  C1  UNL d   1      -0.309   0.617  -2.362  0.00  0.00     0.053 C 
ATOM      9  C   UNL d   1       0.289  -0.267  -3.444  0.00  0.00     0.018 C 
ENDBRANCH   1   8
TORSDOF 1
ENDMDL
