MODEL 1
REMARK minimizedAffinity -3.64296579
REMARK minimizedRMSD -1
REMARK  1 active torsions:
REMARK  status: ('A' for Active; 'I' for Inactive)
REMARK    1  A    between atoms: C1_2  and  C2_3 
ROOT
ATOM      1  C2  UNL d   1      -0.357  -0.685   0.686  0.00  0.00    -0.073 A 
ATOM      2  C3  UNL d   1       0.663  -1.569   0.317  0.00  0.00    -0.002 A 
ATOM      3  C4  UNL d   1       0.372  -2.905   0.040  0.00  0.00     0.004 A 
ATOM      4  C5  UNL d   1      -0.941  -3.369   0.120  0.00  0.00    -0.004 A 
ATOM      5  C6  UNL d   1      -1.976  -2.498   0.475  0.00  0.00    -0.075 A 
ATOM      6  C7  UNL d   1      -3.393  -2.982   0.568  0.00  0.00     0.076 C 
ATOM      7  C8  UNL d   1      -1.675  -1.159   0.755  0.00  0.00     0.001 A 
ENDROOT
BRANCH   1   8
ATOM      8  C1  UNL d   1      -0.049   0.760   0.981  0.00  0.00     0.053 C 
ATOM      9  C   UNL d   1       0.303   1.536  -0.279  0.00  0.00     0.018 C 
ENDBRANCH   1   8
TORSDOF 1
ENDMDL
