MODEL 1
REMARK minimizedAffinity -3.56069732
REMARK minimizedRMSD -1
REMARK  1 active torsions:
REMARK  status: ('A' for Active; 'I' for Inactive)
REMARK    1  A    between atoms: C1_2  and  C2_3 
ROOT
ATOM      1  C2  UNL d   1      -0.089  -0.756  -0.338  0.00  0.00    -0.073 A 
ATOM      2  C3  UNL d   1       0.413  -0.454  -1.609  0.00  0.00    -0.002 A 
ATOM      3  C4  UNL d   1       0.580  -1.463  -2.558  0.00  0.00     0.004 A 
ATOM      4  C5  UNL d   1       0.241  -2.780  -2.250  0.00  0.00    -0.004 A 
ATOM      5  C6  UNL d   1      -0.273  -3.100  -0.990  0.00  0.00    -0.075 A 
ATOM      6  C7  UNL d   1      -0.640  -4.513  -0.642  0.00  0.00     0.076 C 
ATOM      7  C8  UNL d   1      -0.436  -2.082  -0.040  0.00  0.00     0.001 A 
ENDROOT
BRANCH   1   8
ATOM      8  C1  UNL d   1      -0.278   0.331   0.689  0.00  0.00     0.053 C 
ATOM      9  C   UNL d   1      -0.058   1.715   0.100  0.00  0.00     0.018 C 
ENDBRANCH   1   8
TORSDOF 1
ENDMDL
