MODEL 1
REMARK minimizedAffinity 1.69516516
REMARK minimizedRMSD -1
REMARK  0 active torsions:
REMARK  status: ('A' for Active; 'I' for Inactive)
ROOT
ATOM      1  C   UNL d   1      -4.679  -2.460  -4.247  0.00  0.00     0.124 A 
ATOM      2  C1  UNL d   1      -4.902  -3.750  -3.786  0.00  0.00     0.062 A 
ATOM      3  C2  UNL d   1      -3.989  -4.762  -4.069  0.00  0.00     0.162 A 
ATOM      4  C3  UNL d   1      -2.844  -4.488  -4.816  0.00  0.00    -0.034 A 
ATOM      5  C4  UNL d   1      -2.627  -3.189  -5.278  0.00  0.00     0.162 A 
ATOM      6  C5  UNL d   1      -3.542  -2.181  -4.992  0.00  0.00     0.062 A 
ATOM      7  F   UNL d   1      -3.325  -0.935  -5.439  0.00  0.00    -0.097 F 
ATOM      8  F1  UNL d   1      -1.536  -2.891  -5.999  0.00  0.00    -0.096 F 
ATOM      9  I   UNL d   1      -1.476  -5.999  -5.241  0.00  0.00    -0.060 I 
ATOM     10  F2  UNL d   1      -4.230  -6.000  -3.610  0.00  0.00    -0.096 F 
ATOM     11  F3  UNL d   1      -6.000  -4.023  -3.067  0.00  0.00    -0.097 F 
ATOM     12  F4  UNL d   1      -5.559  -1.489  -3.975  0.00  0.00    -0.092 F 
ENDROOT
TORSDOF 0
ENDMDL
