MODEL 1
REMARK minimizedAffinity 6.87227726
REMARK minimizedRMSD -1
REMARK  0 active torsions:
REMARK  status: ('A' for Active; 'I' for Inactive)
ROOT
ATOM      1  C   UNL d   1      -4.342  -2.142  -2.934  0.00  0.00     0.124 A 
ATOM      2  C1  UNL d   1      -3.503  -3.223  -2.697  0.00  0.00     0.062 A 
ATOM      3  C2  UNL d   1      -3.495  -4.307  -3.570  0.00  0.00     0.162 A 
ATOM      4  C3  UNL d   1      -4.328  -4.316  -4.688  0.00  0.00    -0.034 A 
ATOM      5  C4  UNL d   1      -5.169  -3.226  -4.920  0.00  0.00     0.162 A 
ATOM      6  C5  UNL d   1      -5.174  -2.145  -4.045  0.00  0.00     0.062 A 
ATOM      7  F   UNL d   1      -5.985  -1.102  -4.275  0.00  0.00    -0.097 F 
ATOM      8  F1  UNL d   1      -5.983  -3.203  -5.986  0.00  0.00    -0.096 F 
ATOM      9  I   UNL d   1      -4.319  -5.936  -5.996  0.00  0.00    -0.060 I 
ATOM     10  F2  UNL d   1      -2.675  -5.337  -3.316  0.00  0.00    -0.096 F 
ATOM     11  F3  UNL d   1      -2.699  -3.223  -1.624  0.00  0.00    -0.097 F 
ATOM     12  F4  UNL d   1      -4.348  -1.101  -2.092  0.00  0.00    -0.092 F 
ENDROOT
TORSDOF 0
ENDMDL
