MODEL 1
REMARK minimizedAffinity 11.6214771
REMARK minimizedRMSD -1
REMARK  0 active torsions:
REMARK  status: ('A' for Active; 'I' for Inactive)
ROOT
ATOM      1  C   UNL d   1      -2.306   3.537  -3.160  0.00  0.00     0.124 A 
ATOM      2  C1  UNL d   1      -1.104   2.889  -3.411  0.00  0.00     0.062 A 
ATOM      3  C2  UNL d   1      -0.458   2.193  -2.394  0.00  0.00     0.162 A 
ATOM      4  C3  UNL d   1      -1.012   2.141  -1.115  0.00  0.00    -0.034 A 
ATOM      5  C4  UNL d   1      -2.220   2.796  -0.869  0.00  0.00     0.162 A 
ATOM      6  C5  UNL d   1      -2.862   3.490  -1.890  0.00  0.00     0.062 A 
ATOM      7  F   UNL d   1      -4.023   4.115  -1.645  0.00  0.00    -0.097 F 
ATOM      8  F1  UNL d   1      -2.781   2.765   0.349  0.00  0.00    -0.096 F 
ATOM      9  I   UNL d   1      -0.049   1.101   0.409  0.00  0.00    -0.060 I 
ATOM     10  F2  UNL d   1       0.702   1.576  -2.666  0.00  0.00    -0.096 F 
ATOM     11  F3  UNL d   1      -0.564   2.934  -4.638  0.00  0.00    -0.097 F 
ATOM     12  F4  UNL d   1      -2.925   4.206  -4.141  0.00  0.00    -0.092 F 
ENDROOT
TORSDOF 0
ENDMDL
