MODEL 1
REMARK minimizedAffinity 3.68524313
REMARK minimizedRMSD -1
REMARK  0 active torsions:
REMARK  status: ('A' for Active; 'I' for Inactive)
ROOT
ATOM      1  C   UNL d   1      -4.788  -2.417  -3.947  0.00  0.00     0.124 A 
ATOM      2  C1  UNL d   1      -3.716  -1.961  -4.701  0.00  0.00     0.062 A 
ATOM      3  C2  UNL d   1      -2.819  -2.866  -5.262  0.00  0.00     0.162 A 
ATOM      4  C3  UNL d   1      -2.991  -4.237  -5.071  0.00  0.00    -0.034 A 
ATOM      5  C4  UNL d   1      -4.071  -4.688  -4.310  0.00  0.00     0.162 A 
ATOM      6  C5  UNL d   1      -4.965  -3.780  -3.752  0.00  0.00     0.062 A 
ATOM      7  F   UNL d   1      -6.000  -4.222  -3.024  0.00  0.00    -0.097 F 
ATOM      8  F1  UNL d   1      -4.266  -5.999  -4.107  0.00  0.00    -0.096 F 
ATOM      9  I   UNL d   1      -1.652  -5.593  -5.908  0.00  0.00    -0.060 I 
ATOM     10  F2  UNL d   1      -1.792  -2.397  -5.986  0.00  0.00    -0.096 F 
ATOM     11  F3  UNL d   1      -3.543  -0.645  -4.890  0.00  0.00    -0.097 F 
ATOM     12  F4  UNL d   1      -5.649  -1.544  -3.408  0.00  0.00    -0.092 F 
ENDROOT
TORSDOF 0
ENDMDL
