MODEL 1
REMARK minimizedAffinity 8.72919083
REMARK minimizedRMSD -1
REMARK  0 active torsions:
REMARK  status: ('A' for Active; 'I' for Inactive)
ROOT
ATOM      1  C   UNL d   1      -2.372  -3.562  -3.358  0.00  0.00     0.124 A 
ATOM      2  C1  UNL d   1      -2.100  -4.525  -4.321  0.00  0.00     0.062 A 
ATOM      3  C2  UNL d   1      -3.135  -5.071  -5.075  0.00  0.00     0.162 A 
ATOM      4  C3  UNL d   1      -4.450  -4.655  -4.872  0.00  0.00    -0.034 A 
ATOM      5  C4  UNL d   1      -4.715  -3.687  -3.901  0.00  0.00     0.162 A 
ATOM      6  C5  UNL d   1      -3.678  -3.144  -3.149  0.00  0.00     0.062 A 
ATOM      7  F   UNL d   1      -3.942  -2.214  -2.220  0.00  0.00    -0.097 F 
ATOM      8  F1  UNL d   1      -5.969  -3.264  -3.679  0.00  0.00    -0.096 F 
ATOM      9  I   UNL d   1      -5.999  -5.469  -5.998  0.00  0.00    -0.060 I 
ATOM     10  F2  UNL d   1      -2.843  -5.999  -5.999  0.00  0.00    -0.096 F 
ATOM     11  F3  UNL d   1      -0.839  -4.931  -4.524  0.00  0.00    -0.097 F 
ATOM     12  F4  UNL d   1      -1.375  -3.039  -2.633  0.00  0.00    -0.092 F 
ENDROOT
TORSDOF 0
ENDMDL
