MODEL 1
REMARK minimizedAffinity 17.936409
REMARK minimizedRMSD -1
REMARK  0 active torsions:
REMARK  status: ('A' for Active; 'I' for Inactive)
ROOT
ATOM      1  C   UNL d   1       4.797  -0.741   1.510  0.00  0.00     0.124 A 
ATOM      2  C1  UNL d   1       4.222   0.515   1.643  0.00  0.00     0.062 A 
ATOM      3  C2  UNL d   1       2.973   0.776   1.087  0.00  0.00     0.162 A 
ATOM      4  C3  UNL d   1       2.289  -0.223   0.395  0.00  0.00    -0.034 A 
ATOM      5  C4  UNL d   1       2.874  -1.484   0.265  0.00  0.00     0.162 A 
ATOM      6  C5  UNL d   1       4.122  -1.739   0.822  0.00  0.00     0.062 A 
ATOM      7  F   UNL d   1       4.676  -2.954   0.692  0.00  0.00    -0.097 F 
ATOM      8  F1  UNL d   1       2.243  -2.467  -0.395  0.00  0.00    -0.096 F 
ATOM      9  I   UNL d   1       0.420   0.162  -0.437  0.00  0.00    -0.060 I 
ATOM     10  F2  UNL d   1       2.442   1.999   1.231  0.00  0.00    -0.096 F 
ATOM     11  F3  UNL d   1       4.873   1.482   2.307  0.00  0.00    -0.097 F 
ATOM     12  F4  UNL d   1       6.000  -0.988   2.045  0.00  0.00    -0.092 F 
ENDROOT
TORSDOF 0
ENDMDL
