MODEL 1
REMARK minimizedAffinity 1.77805197
REMARK minimizedRMSD -1
REMARK  0 active torsions:
REMARK  status: ('A' for Active; 'I' for Inactive)
ROOT
ATOM      1  C   UNL d   1      -4.543  -2.377  -4.335  0.00  0.00     0.124 A 
ATOM      2  C1  UNL d   1      -3.356  -2.045  -4.974  0.00  0.00     0.062 A 
ATOM      3  C2  UNL d   1      -2.478  -3.044  -5.384  0.00  0.00     0.162 A 
ATOM      4  C3  UNL d   1      -2.783  -4.386  -5.156  0.00  0.00    -0.034 A 
ATOM      5  C4  UNL d   1      -3.978  -4.712  -4.511  0.00  0.00     0.162 A 
ATOM      6  C5  UNL d   1      -4.852  -3.710  -4.104  0.00  0.00     0.062 A 
ATOM      7  F   UNL d   1      -5.998  -4.033  -3.486  0.00  0.00    -0.097 F 
ATOM      8  F1  UNL d   1      -4.302  -5.993  -4.276  0.00  0.00    -0.096 F 
ATOM      9  I   UNL d   1      -1.472  -5.883  -5.766  0.00  0.00    -0.060 I 
ATOM     10  F2  UNL d   1      -1.339  -2.694  -5.999  0.00  0.00    -0.096 F 
ATOM     11  F3  UNL d   1      -3.055  -0.758  -5.198  0.00  0.00    -0.097 F 
ATOM     12  F4  UNL d   1      -5.386  -1.414  -3.941  0.00  0.00    -0.092 F 
ENDROOT
TORSDOF 0
ENDMDL
