MODEL 1
REMARK minimizedAffinity 9.90715694
REMARK minimizedRMSD -1
REMARK  0 active torsions:
REMARK  status: ('A' for Active; 'I' for Inactive)
ROOT
ATOM      1  C   UNL d   1      -2.344  -3.011  -3.790  0.00  0.00     0.124 A 
ATOM      2  C1  UNL d   1      -3.646  -2.549  -3.663  0.00  0.00     0.062 A 
ATOM      3  C2  UNL d   1      -4.691  -3.219  -4.293  0.00  0.00     0.162 A 
ATOM      4  C3  UNL d   1      -4.438  -4.358  -5.056  0.00  0.00    -0.034 A 
ATOM      5  C4  UNL d   1      -3.125  -4.816  -5.181  0.00  0.00     0.162 A 
ATOM      6  C5  UNL d   1      -2.084  -4.143  -4.549  0.00  0.00     0.062 A 
ATOM      7  F   UNL d   1      -0.826  -4.591  -4.673  0.00  0.00    -0.097 F 
ATOM      8  F1  UNL d   1      -2.846  -5.909  -5.907  0.00  0.00    -0.096 F 
ATOM      9  I   UNL d   1      -5.998  -5.363  -6.000  0.00  0.00    -0.060 I 
ATOM     10  F2  UNL d   1      -5.940  -2.750  -4.152  0.00  0.00    -0.096 F 
ATOM     11  F3  UNL d   1      -3.899  -1.454  -2.931  0.00  0.00    -0.097 F 
ATOM     12  F4  UNL d   1      -1.340  -2.364  -3.184  0.00  0.00    -0.092 F 
ENDROOT
TORSDOF 0
ENDMDL
