MODEL 1
REMARK minimizedAffinity 10.0652142
REMARK minimizedRMSD -1
REMARK  0 active torsions:
REMARK  status: ('A' for Active; 'I' for Inactive)
ROOT
ATOM      1  C   UNL d   1      -4.494  -1.670  -2.991  0.00  0.00     0.124 A 
ATOM      2  C1  UNL d   1      -5.248  -1.766  -4.152  0.00  0.00     0.062 A 
ATOM      3  C2  UNL d   1      -5.262  -2.952  -4.882  0.00  0.00     0.162 A 
ATOM      4  C3  UNL d   1      -4.520  -4.052  -4.451  0.00  0.00    -0.034 A 
ATOM      5  C4  UNL d   1      -3.764  -3.947  -3.282  0.00  0.00     0.162 A 
ATOM      6  C5  UNL d   1      -3.753  -2.760  -2.557  0.00  0.00     0.062 A 
ATOM      7  F   UNL d   1      -3.024  -2.668  -1.435  0.00  0.00    -0.097 F 
ATOM      8  F1  UNL d   1      -3.039  -4.985  -2.840  0.00  0.00    -0.096 F 
ATOM      9  I   UNL d   1      -4.539  -5.826  -5.538  0.00  0.00    -0.060 I 
ATOM     10  F2  UNL d   1      -6.000  -3.017  -6.000  0.00  0.00    -0.096 F 
ATOM     11  F3  UNL d   1      -5.965  -0.714  -4.574  0.00  0.00    -0.097 F 
ATOM     12  F4  UNL d   1      -4.482  -0.528  -2.292  0.00  0.00    -0.092 F 
ENDROOT
TORSDOF 0
ENDMDL
