MODEL 1
REMARK minimizedAffinity 8.08884811
REMARK minimizedRMSD -1
REMARK  0 active torsions:
REMARK  status: ('A' for Active; 'I' for Inactive)
ROOT
ATOM      1  C   UNL d   1      -2.087  -3.365  -3.648  0.00  0.00     0.124 A 
ATOM      2  C1  UNL d   1      -1.963  -4.450  -4.504  0.00  0.00     0.062 A 
ATOM      3  C2  UNL d   1      -3.077  -4.943  -5.176  0.00  0.00     0.162 A 
ATOM      4  C3  UNL d   1      -4.327  -4.350  -4.995  0.00  0.00    -0.034 A 
ATOM      5  C4  UNL d   1      -4.444  -3.259  -4.132  0.00  0.00     0.162 A 
ATOM      6  C5  UNL d   1      -3.327  -2.770  -3.463  0.00  0.00     0.062 A 
ATOM      7  F   UNL d   1      -3.449  -1.722  -2.636  0.00  0.00    -0.097 F 
ATOM      8  F1  UNL d   1      -5.631  -2.665  -3.935  0.00  0.00    -0.096 F 
ATOM      9  I   UNL d   1      -5.996  -5.083  -5.999  0.00  0.00    -0.060 I 
ATOM     10  F2  UNL d   1      -2.928  -5.993  -5.997  0.00  0.00    -0.096 F 
ATOM     11  F3  UNL d   1      -0.765  -5.026  -4.684  0.00  0.00    -0.097 F 
ATOM     12  F4  UNL d   1      -1.013  -2.893  -3.001  0.00  0.00    -0.092 F 
ENDROOT
TORSDOF 0
ENDMDL
