MODEL 1
REMARK minimizedAffinity 7.77747154
REMARK minimizedRMSD -1
REMARK  0 active torsions:
REMARK  status: ('A' for Active; 'I' for Inactive)
ROOT
ATOM      1  C   UNL d   1      -3.820  -4.941  -5.172  0.00  0.00     0.124 A 
ATOM      2  C1  UNL d   1      -4.918  -4.695  -4.359  0.00  0.00     0.062 A 
ATOM      3  C2  UNL d   1      -4.922  -3.598  -3.502  0.00  0.00     0.162 A 
ATOM      4  C3  UNL d   1      -3.825  -2.738  -3.454  0.00  0.00    -0.034 A 
ATOM      5  C4  UNL d   1      -2.724  -2.993  -4.274  0.00  0.00     0.162 A 
ATOM      6  C5  UNL d   1      -2.725  -4.090  -5.129  0.00  0.00     0.062 A 
ATOM      7  F   UNL d   1      -1.663  -4.326  -5.913  0.00  0.00    -0.097 F 
ATOM      8  F1  UNL d   1      -1.653  -2.187  -4.252  0.00  0.00    -0.096 F 
ATOM      9  I   UNL d   1      -3.828  -1.098  -2.173  0.00  0.00    -0.060 I 
ATOM     10  F2  UNL d   1      -5.997  -3.385  -2.728  0.00  0.00    -0.096 F 
ATOM     11  F3  UNL d   1      -5.977  -5.516  -4.399  0.00  0.00    -0.097 F 
ATOM     12  F4  UNL d   1      -3.819  -5.997  -5.995  0.00  0.00    -0.092 F 
ENDROOT
TORSDOF 0
ENDMDL
