MODEL 1
REMARK minimizedAffinity 4.9388423
REMARK minimizedRMSD -1
REMARK  0 active torsions:
REMARK  status: ('A' for Active; 'I' for Inactive)
ROOT
ATOM      1  C   UNL d   1      -4.961  -3.969  -5.038  0.00  0.00     0.124 A 
ATOM      2  C1  UNL d   1      -5.229  -2.607  -5.038  0.00  0.00     0.062 A 
ATOM      3  C2  UNL d   1      -4.702  -1.790  -4.041  0.00  0.00     0.162 A 
ATOM      4  C3  UNL d   1      -3.900  -2.333  -3.037  0.00  0.00    -0.034 A 
ATOM      5  C4  UNL d   1      -3.635  -3.704  -3.044  0.00  0.00     0.162 A 
ATOM      6  C5  UNL d   1      -4.164  -4.516  -4.042  0.00  0.00     0.062 A 
ATOM      7  F   UNL d   1      -3.904  -5.831  -4.041  0.00  0.00    -0.097 F 
ATOM      8  F1  UNL d   1      -2.868  -4.258  -2.094  0.00  0.00    -0.096 F 
ATOM      9  I   UNL d   1      -3.110  -1.115  -1.546  0.00  0.00    -0.060 I 
ATOM     10  F2  UNL d   1      -4.978  -0.478  -4.065  0.00  0.00    -0.096 F 
ATOM     11  F3  UNL d   1      -5.999  -2.076  -5.998  0.00  0.00    -0.097 F 
ATOM     12  F4  UNL d   1      -5.470  -4.753  -5.998  0.00  0.00    -0.092 F 
ENDROOT
TORSDOF 0
ENDMDL
