MODEL 1
REMARK minimizedAffinity 14.6342373
REMARK minimizedRMSD -1
REMARK  0 active torsions:
REMARK  status: ('A' for Active; 'I' for Inactive)
ROOT
ATOM      1  C   UNL d   1      -4.958  -2.728  -4.253  0.00  0.00     0.124 A 
ATOM      2  C1  UNL d   1      -4.981  -3.811  -5.121  0.00  0.00     0.062 A 
ATOM      3  C2  UNL d   1      -3.950  -4.746  -5.101  0.00  0.00     0.162 A 
ATOM      4  C3  UNL d   1      -2.887  -4.603  -4.209  0.00  0.00    -0.034 A 
ATOM      5  C4  UNL d   1      -2.871  -3.511  -3.340  0.00  0.00     0.162 A 
ATOM      6  C5  UNL d   1      -3.903  -2.579  -3.364  0.00  0.00     0.062 A 
ATOM      7  F   UNL d   1      -3.879  -1.533  -2.524  0.00  0.00    -0.097 F 
ATOM      8  F1  UNL d   1      -1.864  -3.343  -2.469  0.00  0.00    -0.096 F 
ATOM      9  I   UNL d   1      -1.344  -5.999  -4.176  0.00  0.00    -0.060 I 
ATOM     10  F2  UNL d   1      -3.998  -5.783  -5.951  0.00  0.00    -0.096 F 
ATOM     11  F3  UNL d   1      -5.998  -3.957  -5.982  0.00  0.00    -0.097 F 
ATOM     12  F4  UNL d   1      -5.951  -1.829  -4.275  0.00  0.00    -0.092 F 
ENDROOT
TORSDOF 0
ENDMDL
