MODEL 1
REMARK minimizedAffinity 6.05337477
REMARK minimizedRMSD -1
REMARK  0 active torsions:
REMARK  status: ('A' for Active; 'I' for Inactive)
ROOT
ATOM      1  C   UNL d   1      -3.919  -2.372  -3.074  0.00  0.00     0.124 A 
ATOM      2  C1  UNL d   1      -4.767  -2.110  -4.141  0.00  0.00     0.062 A 
ATOM      3  C2  UNL d   1      -5.180  -3.144  -4.977  0.00  0.00     0.162 A 
ATOM      4  C3  UNL d   1      -4.745  -4.450  -4.749  0.00  0.00    -0.034 A 
ATOM      5  C4  UNL d   1      -3.891  -4.705  -3.674  0.00  0.00     0.162 A 
ATOM      6  C5  UNL d   1      -3.482  -3.669  -2.842  0.00  0.00     0.062 A 
ATOM      7  F   UNL d   1      -2.662  -3.923  -1.811  0.00  0.00    -0.097 F 
ATOM      8  F1  UNL d   1      -3.455  -5.949  -3.426  0.00  0.00    -0.096 F 
ATOM      9  I   UNL d   1      -5.360  -5.998  -5.997  0.00  0.00    -0.060 I 
ATOM     10  F2  UNL d   1      -6.000  -2.862  -6.000  0.00  0.00    -0.096 F 
ATOM     11  F3  UNL d   1      -5.190  -0.858  -4.368  0.00  0.00    -0.097 F 
ATOM     12  F4  UNL d   1      -3.522  -1.376  -2.271  0.00  0.00    -0.092 F 
ENDROOT
TORSDOF 0
ENDMDL
