MODEL 1
REMARK minimizedAffinity 7.54290771
REMARK minimizedRMSD -1
REMARK  0 active torsions:
REMARK  status: ('A' for Active; 'I' for Inactive)
ROOT
ATOM      1  C   UNL d   1      -2.249  -2.386  -5.703  0.00  0.00     0.124 A 
ATOM      2  C1  UNL d   1      -1.840  -3.707  -5.825  0.00  0.00     0.062 A 
ATOM      3  C2  UNL d   1      -2.780  -4.732  -5.851  0.00  0.00     0.162 A 
ATOM      4  C3  UNL d   1      -4.141  -4.441  -5.755  0.00  0.00    -0.034 A 
ATOM      5  C4  UNL d   1      -4.546  -3.111  -5.631  0.00  0.00     0.162 A 
ATOM      6  C5  UNL d   1      -3.602  -2.090  -5.606  0.00  0.00     0.062 A 
ATOM      7  F   UNL d   1      -3.999  -0.815  -5.487  0.00  0.00    -0.097 F 
ATOM      8  F1  UNL d   1      -5.846  -2.796  -5.536  0.00  0.00    -0.096 F 
ATOM      9  I   UNL d   1      -5.551  -5.972  -5.793  0.00  0.00    -0.060 I 
ATOM     10  F2  UNL d   1      -2.356  -5.999  -5.970  0.00  0.00    -0.096 F 
ATOM     11  F3  UNL d   1      -0.534  -3.996  -5.918  0.00  0.00    -0.097 F 
ATOM     12  F4  UNL d   1      -1.342  -1.402  -5.677  0.00  0.00    -0.092 F 
ENDROOT
TORSDOF 0
ENDMDL
