MODEL 1
REMARK minimizedAffinity 3.95321441
REMARK minimizedRMSD -1
REMARK  0 active torsions:
REMARK  status: ('A' for Active; 'I' for Inactive)
ROOT
ATOM      1  C   UNL d   1      -2.394  -3.308  -3.545  0.00  0.00     0.124 A 
ATOM      2  C1  UNL d   1      -1.959  -4.276  -4.440  0.00  0.00     0.062 A 
ATOM      3  C2  UNL d   1      -2.883  -5.046  -5.141  0.00  0.00     0.162 A 
ATOM      4  C3  UNL d   1      -4.251  -4.850  -4.950  0.00  0.00    -0.034 A 
ATOM      5  C4  UNL d   1      -4.680  -3.875  -4.047  0.00  0.00     0.162 A 
ATOM      6  C5  UNL d   1      -3.753  -3.108  -3.350  0.00  0.00     0.062 A 
ATOM      7  F   UNL d   1      -4.174  -2.174  -2.485  0.00  0.00    -0.097 F 
ATOM      8  F1  UNL d   1      -5.988  -3.661  -3.840  0.00  0.00    -0.096 F 
ATOM      9  I   UNL d   1      -5.636  -6.000  -5.996  0.00  0.00    -0.060 I 
ATOM     10  F2  UNL d   1      -2.435  -5.974  -5.999  0.00  0.00    -0.096 F 
ATOM     11  F3  UNL d   1      -0.647  -4.471  -4.630  0.00  0.00    -0.097 F 
ATOM     12  F4  UNL d   1      -1.502  -2.569  -2.871  0.00  0.00    -0.092 F 
ENDROOT
TORSDOF 0
ENDMDL
