MODEL 1
REMARK minimizedAffinity 5.8372407
REMARK minimizedRMSD -1
REMARK  0 active torsions:
REMARK  status: ('A' for Active; 'I' for Inactive)
ROOT
ATOM      1  C   UNL d   1      -2.336  -3.501  -3.380  0.00  0.00     0.124 A 
ATOM      2  C1  UNL d   1      -2.087  -4.500  -4.312  0.00  0.00     0.062 A 
ATOM      3  C2  UNL d   1      -3.132  -5.034  -5.061  0.00  0.00     0.162 A 
ATOM      4  C3  UNL d   1      -4.435  -4.570  -4.882  0.00  0.00    -0.034 A 
ATOM      5  C4  UNL d   1      -4.678  -3.567  -3.942  0.00  0.00     0.162 A 
ATOM      6  C5  UNL d   1      -3.630  -3.036  -3.196  0.00  0.00     0.062 A 
ATOM      7  F   UNL d   1      -3.872  -2.072  -2.296  0.00  0.00    -0.097 F 
ATOM      8  F1  UNL d   1      -5.919  -3.098  -3.745  0.00  0.00    -0.096 F 
ATOM      9  I   UNL d   1      -6.000  -5.366  -6.000  0.00  0.00    -0.060 I 
ATOM     10  F2  UNL d   1      -2.863  -5.997  -5.954  0.00  0.00    -0.096 F 
ATOM     11  F3  UNL d   1      -0.838  -4.952  -4.491  0.00  0.00    -0.097 F 
ATOM     12  F4  UNL d   1      -1.329  -2.990  -2.660  0.00  0.00    -0.092 F 
ENDROOT
TORSDOF 0
ENDMDL
