MODEL 1
REMARK minimizedAffinity 17.8444996
REMARK minimizedRMSD -1
REMARK  0 active torsions:
REMARK  status: ('A' for Active; 'I' for Inactive)
ROOT
ATOM      1  C   UNL d   1      -1.169  -1.930   1.182  0.00  0.00     0.124 A 
ATOM      2  C1  UNL d   1      -0.059  -1.106   1.310  0.00  0.00     0.062 A 
ATOM      3  C2  UNL d   1      -0.009   0.111   0.636  0.00  0.00     0.162 A 
ATOM      4  C3  UNL d   1      -1.074   0.513  -0.171  0.00  0.00    -0.034 A 
ATOM      5  C4  UNL d   1      -2.186  -0.321  -0.295  0.00  0.00     0.162 A 
ATOM      6  C5  UNL d   1      -2.231  -1.537   0.381  0.00  0.00     0.062 A 
ATOM      7  F   UNL d   1      -3.304  -2.331   0.256  0.00  0.00    -0.097 F 
ATOM      8  F1  UNL d   1      -3.227   0.034  -1.062  0.00  0.00    -0.096 F 
ATOM      9  I   UNL d   1      -1.003   2.332  -1.180  0.00  0.00    -0.060 I 
ATOM     10  F2  UNL d   1       1.076   0.887   0.778  0.00  0.00    -0.096 F 
ATOM     11  F3  UNL d   1       0.969  -1.484   2.083  0.00  0.00    -0.097 F 
ATOM     12  F4  UNL d   1      -1.214  -3.100   1.831  0.00  0.00    -0.092 F 
ENDROOT
TORSDOF 0
ENDMDL
