MODEL 1
REMARK minimizedAffinity 10.4388409
REMARK minimizedRMSD -1
REMARK  0 active torsions:
REMARK  status: ('A' for Active; 'I' for Inactive)
ROOT
ATOM      1  C   UNL d   1       1.031  -1.676   2.148  0.00  0.00     0.124 A 
ATOM      2  C1  UNL d   1       0.746  -2.132   3.427  0.00  0.00     0.062 A 
ATOM      3  C2  UNL d   1      -0.482  -1.845   4.016  0.00  0.00     0.162 A 
ATOM      4  C3  UNL d   1      -1.436  -1.099   3.325  0.00  0.00    -0.034 A 
ATOM      5  C4  UNL d   1      -1.143  -0.643   2.038  0.00  0.00     0.162 A 
ATOM      6  C5  UNL d   1       0.086  -0.932   1.455  0.00  0.00     0.062 A 
ATOM      7  F   UNL d   1       0.360  -0.491   0.218  0.00  0.00    -0.097 F 
ATOM      8  F1  UNL d   1      -2.037   0.077   1.346  0.00  0.00    -0.096 F 
ATOM      9  I   UNL d   1      -3.274  -0.668   4.201  0.00  0.00    -0.060 I 
ATOM     10  F2  UNL d   1      -0.730  -2.299   5.254  0.00  0.00    -0.096 F 
ATOM     11  F3  UNL d   1       1.657  -2.851   4.100  0.00  0.00    -0.097 F 
ATOM     12  F4  UNL d   1       2.214  -1.953   1.584  0.00  0.00    -0.092 F 
ENDROOT
TORSDOF 0
ENDMDL
