MODEL 1
REMARK minimizedAffinity 10.2749243
REMARK minimizedRMSD -1
REMARK  0 active torsions:
REMARK  status: ('A' for Active; 'I' for Inactive)
ROOT
ATOM      1  C4' PXY d   1      -3.940  -3.133   3.007  0.00  0.00     0.077 C 
ATOM      2  C1' PXY d   1       0.316   0.259   1.059  0.00  0.00     0.077 C 
ATOM      3  C1  PXY d   1      -0.797  -0.640   1.561  0.00  0.00    -0.082 A 
ATOM      4  C2  PXY d   1      -1.852  -0.105   2.154  0.00  0.00     0.003 A 
ATOM      5  C3  PXY d   1      -2.853  -0.906   2.643  0.00  0.00     0.003 A 
ATOM      6  C4  PXY d   1      -2.798  -2.263   2.476  0.00  0.00    -0.082 A 
ATOM      7  C5  PXY d   1      -1.729  -2.816   1.862  0.00  0.00     0.003 A 
ATOM      8  C6  PXY d   1      -0.705  -1.989   1.410  0.00  0.00     0.003 A 
ENDROOT
TORSDOF 0
ENDMDL
