MODEL 1
REMARK minimizedAffinity 11.0091982
REMARK minimizedRMSD -1
REMARK  0 active torsions:
REMARK  status: ('A' for Active; 'I' for Inactive)
ROOT
ATOM      1  C4' PXY d   1       0.098   0.060   1.077  0.00  0.00     0.077 C 
ATOM      2  C1' PXY d   1      -4.423  -3.322   2.320  0.00  0.00     0.077 C 
ATOM      3  C1  PXY d   1      -3.245  -2.425   1.995  0.00  0.00    -0.082 A 
ATOM      4  C2  PXY d   1      -2.243  -2.896   1.270  0.00  0.00     0.003 A 
ATOM      5  C3  PXY d   1      -1.156  -2.108   0.995  0.00  0.00     0.003 A 
ATOM      6  C4  PXY d   1      -1.117  -0.807   1.421  0.00  0.00    -0.082 A 
ATOM      7  C5  PXY d   1      -2.139  -0.316   2.153  0.00  0.00     0.003 A 
ATOM      8  C6  PXY d   1      -3.215  -1.145   2.456  0.00  0.00     0.003 A 
ENDROOT
TORSDOF 0
ENDMDL
