MODEL 1
REMARK minimizedAffinity 12.1003056
REMARK minimizedRMSD -1
REMARK  0 active torsions:
REMARK  status: ('A' for Active; 'I' for Inactive)
ROOT
ATOM      1  C4' PXY d   1       5.328   5.164  -1.663  0.00  0.00     0.077 C 
ATOM      2  C1' PXY d   1       0.264   4.400  -4.345  0.00  0.00     0.077 C 
ATOM      3  C1  PXY d   1       1.591   4.613  -3.643  0.00  0.00    -0.082 A 
ATOM      4  C2  PXY d   1       2.486   3.639  -3.626  0.00  0.00     0.003 A 
ATOM      5  C3  PXY d   1       3.678   3.803  -2.969  0.00  0.00     0.003 A 
ATOM      6  C4  PXY d   1       3.979   4.996  -2.368  0.00  0.00    -0.082 A 
ATOM      7  C5  PXY d   1       3.075   5.999  -2.390  0.00  0.00     0.003 A 
ATOM      8  C6  PXY d   1       1.854   5.797  -3.028  0.00  0.00     0.003 A 
ENDROOT
TORSDOF 0
ENDMDL
