MODEL 1
REMARK minimizedAffinity 9.55625153
REMARK minimizedRMSD -1
REMARK  0 active torsions:
REMARK  status: ('A' for Active; 'I' for Inactive)
ROOT
ATOM      1  C4' PXY d   1       4.803   3.028  -5.934  0.00  0.00     0.077 C 
ATOM      2  C1' PXY d   1       5.450   5.991  -1.013  0.00  0.00     0.077 C 
ATOM      3  C1  PXY d   1       5.276   5.204  -2.297  0.00  0.00    -0.082 A 
ATOM      4  C2  PXY d   1       6.000   5.517  -3.359  0.00  0.00     0.003 A 
ATOM      5  C3  PXY d   1       5.832   4.836  -4.538  0.00  0.00     0.003 A 
ATOM      6  C4  PXY d   1       4.953   3.790  -4.614  0.00  0.00    -0.082 A 
ATOM      7  C5  PXY d   1       4.218   3.457  -3.531  0.00  0.00     0.003 A 
ATOM      8  C6  PXY d   1       4.374   4.188  -2.356  0.00  0.00     0.003 A 
ENDROOT
TORSDOF 0
ENDMDL
