MODEL 1
REMARK minimizedAffinity 13.1637545
REMARK minimizedRMSD -1
REMARK  0 active torsions:
REMARK  status: ('A' for Active; 'I' for Inactive)
ROOT
ATOM      1  C4' PXY d   1      -2.783   0.880   5.120  0.00  0.00     0.077 C 
ATOM      2  C1' PXY d   1      -1.052  -1.251   0.033  0.00  0.00     0.077 C 
ATOM      3  C1  PXY d   1      -1.514  -0.684   1.361  0.00  0.00    -0.082 A 
ATOM      4  C2  PXY d   1      -0.726  -0.774   2.421  0.00  0.00     0.003 A 
ATOM      5  C3  PXY d   1      -1.142  -0.295   3.636  0.00  0.00     0.003 A 
ATOM      6  C4  PXY d   1      -2.354   0.330   3.757  0.00  0.00    -0.082 A 
ATOM      7  C5  PXY d   1      -3.159   0.435   2.679  0.00  0.00     0.003 A 
ATOM      8  C6  PXY d   1      -2.736  -0.095   1.463  0.00  0.00     0.003 A 
ENDROOT
TORSDOF 0
ENDMDL
