MODEL 1
REMARK minimizedAffinity 12.8015528
REMARK minimizedRMSD -1
REMARK  0 active torsions:
REMARK  status: ('A' for Active; 'I' for Inactive)
ROOT
ATOM      1  C4' PXY d   1      -0.591  -3.105  -0.012  0.00  0.00     0.077 C 
ATOM      2  C1' PXY d   1      -2.637   0.602   3.923  0.00  0.00     0.077 C 
ATOM      3  C1  PXY d   1      -2.092  -0.362   2.887  0.00  0.00    -0.082 A 
ATOM      4  C2  PXY d   1      -2.871  -1.317   2.408  0.00  0.00     0.003 A 
ATOM      5  C3  PXY d   1      -2.384  -2.217   1.495  0.00  0.00     0.003 A 
ATOM      6  C4  PXY d   1      -1.102  -2.105   1.028  0.00  0.00    -0.082 A 
ATOM      7  C5  PXY d   1      -0.304  -1.126   1.504  0.00  0.00     0.003 A 
ATOM      8  C6  PXY d   1      -0.804  -0.248   2.461  0.00  0.00     0.003 A 
ENDROOT
TORSDOF 0
ENDMDL
