MODEL 1
REMARK minimizedAffinity 12.1712685
REMARK minimizedRMSD -1
REMARK  0 active torsions:
REMARK  status: ('A' for Active; 'I' for Inactive)
ROOT
ATOM      1  C4' PXY d   1      -2.461   1.168   3.603  0.00  0.00     0.077 C 
ATOM      2  C1' PXY d   1      -1.395  -3.477   0.332  0.00  0.00     0.077 C 
ATOM      3  C1  PXY d   1      -1.662  -2.258   1.193  0.00  0.00    -0.082 A 
ATOM      4  C2  PXY d   1      -2.870  -2.066   1.698  0.00  0.00     0.003 A 
ATOM      5  C3  PXY d   1      -3.137  -0.952   2.452  0.00  0.00     0.003 A 
ATOM      6  C4  PXY d   1      -2.144  -0.053   2.736  0.00  0.00    -0.082 A 
ATOM      7  C5  PXY d   1      -0.906  -0.248   2.234  0.00  0.00     0.003 A 
ATOM      8  C6  PXY d   1      -0.666  -1.364   1.436  0.00  0.00     0.003 A 
ENDROOT
TORSDOF 0
ENDMDL
