MODEL 1
REMARK minimizedAffinity 3.97573638
REMARK minimizedRMSD -1
REMARK  0 active torsions:
REMARK  status: ('A' for Active; 'I' for Inactive)
ROOT
ATOM      1  C4' PXY d   1       5.027   2.987   1.952  0.00  0.00     0.077 C 
ATOM      2  C1' PXY d   1       1.054   1.384  -1.930  0.00  0.00     0.077 C 
ATOM      3  C1  PXY d   1       2.087   1.813  -0.907  0.00  0.00    -0.082 A 
ATOM      4  C2  PXY d   1       3.374   1.650  -1.169  0.00  0.00     0.003 A 
ATOM      5  C3  PXY d   1       4.321   2.003  -0.241  0.00  0.00     0.003 A 
ATOM      6  C4  PXY d   1       3.949   2.577   0.944  0.00  0.00    -0.082 A 
ATOM      7  C5  PXY d   1       2.638   2.757   1.215  0.00  0.00     0.003 A 
ATOM      8  C6  PXY d   1       1.691   2.354   0.277  0.00  0.00     0.003 A 
ENDROOT
TORSDOF 0
ENDMDL
