MODEL 1
REMARK minimizedAffinity 10.4086018
REMARK minimizedRMSD -1
REMARK  0 active torsions:
REMARK  status: ('A' for Active; 'I' for Inactive)
ROOT
ATOM      1  C4' PXY d   1       6.000   3.298   0.376  0.00  0.00     0.077 C 
ATOM      2  C1' PXY d   1       1.896  -0.642   1.399  0.00  0.00     0.077 C 
ATOM      3  C1  PXY d   1       2.973   0.386   1.119  0.00  0.00    -0.082 A 
ATOM      4  C2  PXY d   1       3.650   0.916   2.125  0.00  0.00     0.003 A 
ATOM      5  C3  PXY d   1       4.606   1.871   1.892  0.00  0.00     0.003 A 
ATOM      6  C4  PXY d   1       4.909   2.249   0.611  0.00  0.00    -0.082 A 
ATOM      7  C5  PXY d   1       4.231   1.705  -0.421  0.00  0.00     0.003 A 
ATOM      8  C6  PXY d   1       3.236   0.768  -0.161  0.00  0.00     0.003 A 
ENDROOT
TORSDOF 0
ENDMDL
