MODEL 1
REMARK minimizedAffinity 12.1278963
REMARK minimizedRMSD -1
REMARK  0 active torsions:
REMARK  status: ('A' for Active; 'I' for Inactive)
ROOT
ATOM      1  C4' PXY d   1       3.026  -0.058   1.660  0.00  0.00     0.077 C 
ATOM      2  C1' PXY d   1       2.640   2.761  -3.372  0.00  0.00     0.077 C 
ATOM      3  C1  PXY d   1       2.739   2.033  -2.046  0.00  0.00    -0.082 A 
ATOM      4  C2  PXY d   1       3.382   0.878  -1.980  0.00  0.00     0.003 A 
ATOM      5  C3  PXY d   1       3.455   0.191  -0.796  0.00  0.00     0.003 A 
ATOM      6  C4  PXY d   1       2.908   0.716   0.345  0.00  0.00    -0.082 A 
ATOM      7  C5  PXY d   1       2.259   1.899   0.288  0.00  0.00     0.003 A 
ATOM      8  C6  PXY d   1       2.162   2.561  -0.933  0.00  0.00     0.003 A 
ENDROOT
TORSDOF 0
ENDMDL
