MODEL 1
REMARK minimizedAffinity 9.91512108
REMARK minimizedRMSD -1
REMARK  0 active torsions:
REMARK  status: ('A' for Active; 'I' for Inactive)
ROOT
ATOM      1  C4' PXY d   1      -4.175   2.769   4.847  0.00  0.00     0.077 C 
ATOM      2  C1' PXY d   1      -1.388  -1.211   1.715  0.00  0.00     0.077 C 
ATOM      3  C1  PXY d   1      -2.118  -0.175   2.547  0.00  0.00    -0.082 A 
ATOM      4  C2  PXY d   1      -2.898   0.711   1.950  0.00  0.00     0.003 A 
ATOM      5  C3  PXY d   1      -3.541   1.675   2.684  0.00  0.00     0.003 A 
ATOM      6  C4  PXY d   1      -3.426   1.699   4.048  0.00  0.00    -0.082 A 
ATOM      7  C5  PXY d   1      -2.640   0.791   4.665  0.00  0.00     0.003 A 
ATOM      8  C6  PXY d   1      -1.964  -0.153   3.899  0.00  0.00     0.003 A 
ENDROOT
TORSDOF 0
ENDMDL
