MODEL 1
REMARK minimizedAffinity 9.47974682
REMARK minimizedRMSD -1
REMARK  0 active torsions:
REMARK  status: ('A' for Active; 'I' for Inactive)
ROOT
ATOM      1  C4' PXY d   1      -1.152  -5.995  -6.000  0.00  0.00     0.077 C 
ATOM      2  C1' PXY d   1      -1.196  -3.815  -0.646  0.00  0.00     0.077 C 
ATOM      3  C1  PXY d   1      -1.180  -4.375  -2.054  0.00  0.00    -0.082 A 
ATOM      4  C2  PXY d   1      -1.984  -5.378  -2.369  0.00  0.00     0.003 A 
ATOM      5  C3  PXY d   1      -1.959  -5.918  -3.629  0.00  0.00     0.003 A 
ATOM      6  C4  PXY d   1      -1.141  -5.391  -4.592  0.00  0.00    -0.082 A 
ATOM      7  C5  PXY d   1      -0.325  -4.361  -4.282  0.00  0.00     0.003 A 
ATOM      8  C6  PXY d   1      -0.336  -3.855  -2.986  0.00  0.00     0.003 A 
ENDROOT
TORSDOF 0
ENDMDL
