MODEL 1
REMARK minimizedAffinity 10.3634109
REMARK minimizedRMSD -1
REMARK  0 active torsions:
REMARK  status: ('A' for Active; 'I' for Inactive)
ROOT
ATOM      1  C4' PXY d   1      -3.635   0.329   1.320  0.00  0.00     0.077 C 
ATOM      2  C1' PXY d   1       1.267  -2.263   2.956  0.00  0.00     0.077 C 
ATOM      3  C1  PXY d   1      -0.021  -1.579   2.539  0.00  0.00    -0.082 A 
ATOM      4  C2  PXY d   1      -0.655  -1.986   1.452  0.00  0.00     0.003 A 
ATOM      5  C3  PXY d   1      -1.804  -1.359   1.043  0.00  0.00     0.003 A 
ATOM      6  C4  PXY d   1      -2.337  -0.338   1.783  0.00  0.00    -0.082 A 
ATOM      7  C5  PXY d   1      -1.701   0.076   2.900  0.00  0.00     0.003 A 
ATOM      8  C6  PXY d   1      -0.515  -0.547   3.275  0.00  0.00     0.003 A 
ENDROOT
TORSDOF 0
ENDMDL
