MODEL 1
REMARK minimizedAffinity 19.1631184
REMARK minimizedRMSD -1
REMARK  0 active torsions:
REMARK  status: ('A' for Active; 'I' for Inactive)
ROOT
ATOM      1  C4' PXY d   1       3.417   0.759  -0.339  0.00  0.00     0.077 C 
ATOM      2  C1' PXY d   1      -1.115  -1.690   2.284  0.00  0.00     0.077 C 
ATOM      3  C1  PXY d   1       0.082  -1.052   1.606  0.00  0.00    -0.082 A 
ATOM      4  C2  PXY d   1      -0.101  -0.042   0.771  0.00  0.00     0.003 A 
ATOM      5  C3  PXY d   1       0.966   0.525   0.124  0.00  0.00     0.003 A 
ATOM      6  C4  PXY d   1       2.240   0.090   0.376  0.00  0.00    -0.082 A 
ATOM      7  C5  PXY d   1       2.436  -0.932   1.235  0.00  0.00     0.003 A 
ATOM      8  C6  PXY d   1       1.335  -1.522   1.849  0.00  0.00     0.003 A 
ENDROOT
TORSDOF 0
ENDMDL
