MODEL 1
REMARK minimizedAffinity 4.96260309
REMARK minimizedRMSD -1
REMARK  0 active torsions:
REMARK  status: ('A' for Active; 'I' for Inactive)
ROOT
ATOM      1  C4' PXY d   1      -5.995   1.882   3.086  0.00  0.00     0.077 C 
ATOM      2  C1' PXY d   1      -5.984   0.100  -2.412  0.00  0.00     0.077 C 
ATOM      3  C1  PXY d   1      -5.992   0.556  -0.967  0.00  0.00    -0.082 A 
ATOM      4  C2  PXY d   1      -6.000   1.849  -0.689  0.00  0.00     0.003 A 
ATOM      5  C3  PXY d   1      -5.975   2.279   0.613  0.00  0.00     0.003 A 
ATOM      6  C4  PXY d   1      -5.996   1.376   1.641  0.00  0.00    -0.082 A 
ATOM      7  C5  PXY d   1      -5.999   0.054   1.366  0.00  0.00     0.003 A 
ATOM      8  C6  PXY d   1      -5.983  -0.362   0.038  0.00  0.00     0.003 A 
ENDROOT
TORSDOF 0
ENDMDL
