MODEL 1
REMARK minimizedAffinity 3.84168196
REMARK minimizedRMSD -1
REMARK  0 active torsions:
REMARK  status: ('A' for Active; 'I' for Inactive)
ROOT
ATOM      1  C4' PXY d   1       5.263  -3.994  -0.345  0.00  0.00     0.077 C 
ATOM      2  C1' PXY d   1      -0.163  -2.435   0.896  0.00  0.00     0.077 C 
ATOM      3  C1  PXY d   1       1.262  -2.832   0.566  0.00  0.00    -0.082 A 
ATOM      4  C2  PXY d   1       1.555  -4.105   0.356  0.00  0.00     0.003 A 
ATOM      5  C3  PXY d   1       2.844  -4.485   0.088  0.00  0.00     0.003 A 
ATOM      6  C4  PXY d   1       3.835  -3.547  -0.018  0.00  0.00    -0.082 A 
ATOM      7  C5  PXY d   1       3.543  -2.245   0.184  0.00  0.00     0.003 A 
ATOM      8  C6  PXY d   1       2.235  -1.884   0.496  0.00  0.00     0.003 A 
ENDROOT
TORSDOF 0
ENDMDL
