MODEL 1
REMARK minimizedAffinity 2.83735871
REMARK minimizedRMSD -1
REMARK  0 active torsions:
REMARK  status: ('A' for Active; 'I' for Inactive)
ROOT
ATOM      1  C4' PXY d   1       3.931  -4.653  -0.200  0.00  0.00     0.077 C 
ATOM      2  C1' PXY d   1       0.276  -1.019   2.417  0.00  0.00     0.077 C 
ATOM      3  C1  PXY d   1       1.227  -1.982   1.734  0.00  0.00    -0.082 A 
ATOM      4  C2  PXY d   1       2.493  -1.640   1.563  0.00  0.00     0.003 A 
ATOM      5  C3  PXY d   1       3.359  -2.485   0.919  0.00  0.00     0.003 A 
ATOM      6  C4  PXY d   1       2.937  -3.716   0.493  0.00  0.00    -0.082 A 
ATOM      7  C5  PXY d   1       1.649  -4.077   0.673  0.00  0.00     0.003 A 
ATOM      8  C6  PXY d   1       0.776  -3.188   1.292  0.00  0.00     0.003 A 
ENDROOT
TORSDOF 0
ENDMDL
