MODEL 1
REMARK minimizedAffinity 5.43211842
REMARK minimizedRMSD -1
REMARK  0 active torsions:
REMARK  status: ('A' for Active; 'I' for Inactive)
ROOT
ATOM      1  C4' PXY d   1      -3.671  -1.912  -0.061  0.00  0.00     0.077 C 
ATOM      2  C1' PXY d   1      -5.999  -6.000   3.298  0.00  0.00     0.077 C 
ATOM      3  C1  PXY d   1      -5.393  -4.919   2.426  0.00  0.00    -0.082 A 
ATOM      4  C2  PXY d   1      -5.230  -5.137   1.131  0.00  0.00     0.003 A 
ATOM      5  C3  PXY d   1      -4.653  -4.183   0.333  0.00  0.00     0.003 A 
ATOM      6  C4  PXY d   1      -4.288  -2.971   0.857  0.00  0.00    -0.082 A 
ATOM      7  C5  PXY d   1      -4.461  -2.736   2.175  0.00  0.00     0.003 A 
ATOM      8  C6  PXY d   1      -5.010  -3.734   2.975  0.00  0.00     0.003 A 
ENDROOT
TORSDOF 0
ENDMDL
