MODEL 1
REMARK minimizedAffinity 2.80763221
REMARK minimizedRMSD -1
REMARK  0 active torsions:
REMARK  status: ('A' for Active; 'I' for Inactive)
ROOT
ATOM      1  C4' PXY d   1       5.995  -6.000   0.467  0.00  0.00     0.077 C 
ATOM      2  C1' PXY d   1       0.969  -3.155   0.225  0.00  0.00     0.077 C 
ATOM      3  C1  PXY d   1       2.293  -3.891   0.281  0.00  0.00    -0.082 A 
ATOM      4  C2  PXY d   1       2.305  -5.201   0.470  0.00  0.00     0.003 A 
ATOM      5  C3  PXY d   1       3.494  -5.878   0.555  0.00  0.00     0.003 A 
ATOM      6  C4  PXY d   1       4.682  -5.216   0.394  0.00  0.00    -0.082 A 
ATOM      7  C5  PXY d   1       4.677  -3.882   0.191  0.00  0.00     0.003 A 
ATOM      8  C6  PXY d   1       3.461  -3.206   0.148  0.00  0.00     0.003 A 
ENDROOT
TORSDOF 0
ENDMDL
