MODEL 1
REMARK minimizedAffinity -0.616849124
REMARK minimizedRMSD -1
REMARK  0 active torsions:
REMARK  status: ('A' for Active; 'I' for Inactive)
ROOT
ATOM      1  C4' PXY d   1      -5.992  -5.998   5.998  0.00  0.00     0.077 C 
ATOM      2  C1' PXY d   1      -4.099  -2.585   1.735  0.00  0.00     0.077 C 
ATOM      3  C1  PXY d   1      -4.592  -3.471   2.862  0.00  0.00    -0.082 A 
ATOM      4  C2  PXY d   1      -4.724  -4.772   2.661  0.00  0.00     0.003 A 
ATOM      5  C3  PXY d   1      -5.198  -5.584   3.659  0.00  0.00     0.003 A 
ATOM      6  C4  PXY d   1      -5.490  -5.067   4.892  0.00  0.00    -0.082 A 
ATOM      7  C5  PXY d   1      -5.348  -3.742   5.109  0.00  0.00     0.003 A 
ATOM      8  C6  PXY d   1      -4.904  -2.929   4.070  0.00  0.00     0.003 A 
ENDROOT
TORSDOF 0
ENDMDL
