MODEL 1
REMARK minimizedAffinity 19.3329868
REMARK minimizedRMSD -1
REMARK  0 active torsions:
REMARK  status: ('A' for Active; 'I' for Inactive)
ROOT
ATOM      1  C   UNL d   1      -0.160  -3.100  -2.909  0.00  0.00     0.124 A 
ATOM      2  C1  UNL d   1       0.386  -2.620  -1.727  0.00  0.00     0.062 A 
ATOM      3  C2  UNL d   1      -0.439  -2.303  -0.652  0.00  0.00     0.162 A 
ATOM      4  C3  UNL d   1      -1.821  -2.466  -0.754  0.00  0.00    -0.034 A 
ATOM      5  C4  UNL d   1      -2.363  -2.948  -1.947  0.00  0.00     0.162 A 
ATOM      6  C5  UNL d   1      -1.534  -3.264  -3.018  0.00  0.00     0.062 A 
ATOM      7  F   UNL d   1      -2.063  -3.727  -4.159  0.00  0.00    -0.097 F 
ATOM      8  F1  UNL d   1      -3.687  -3.116  -2.079  0.00  0.00    -0.096 F 
ATOM      9  I   UNL d   1      -3.059  -1.993   0.851  0.00  0.00    -0.060 I 
ATOM     10  F2  UNL d   1       0.116  -1.841   0.478  0.00  0.00    -0.096 F 
ATOM     11  F3  UNL d   1       1.713  -2.460  -1.619  0.00  0.00    -0.097 F 
ATOM     12  F4  UNL d   1       0.637  -3.403  -3.942  0.00  0.00    -0.092 F 
ENDROOT
TORSDOF 0
ENDMDL
