MODEL 1
REMARK minimizedAffinity 11.8330383
REMARK minimizedRMSD -1
REMARK  0 active torsions:
REMARK  status: ('A' for Active; 'I' for Inactive)
ROOT
ATOM      1  C   UNL d   1      -1.284  -1.096   5.940  0.00  0.00     0.124 A 
ATOM      2  C1  UNL d   1      -1.652   0.242   5.954  0.00  0.00     0.062 A 
ATOM      3  C2  UNL d   1      -2.998   0.598   5.971  0.00  0.00     0.162 A 
ATOM      4  C3  UNL d   1      -3.986  -0.386   5.974  0.00  0.00    -0.034 A 
ATOM      5  C4  UNL d   1      -3.608  -1.730   5.958  0.00  0.00     0.162 A 
ATOM      6  C5  UNL d   1      -2.262  -2.081   5.942  0.00  0.00     0.062 A 
ATOM      7  F   UNL d   1      -1.908  -3.374   5.927  0.00  0.00    -0.097 F 
ATOM      8  F1  UNL d   1      -4.532  -2.702   5.961  0.00  0.00    -0.096 F 
ATOM      9  I   UNL d   1      -5.999   0.141   5.999  0.00  0.00    -0.060 I 
ATOM     10  F2  UNL d   1      -3.324   1.899   5.985  0.00  0.00    -0.096 F 
ATOM     11  F3  UNL d   1      -0.709   1.196   5.952  0.00  0.00    -0.097 F 
ATOM     12  F4  UNL d   1       0.012  -1.435   5.923  0.00  0.00    -0.092 F 
ENDROOT
TORSDOF 0
ENDMDL
