MODEL 1
REMARK minimizedAffinity 19.1985893
REMARK minimizedRMSD -1
REMARK  0 active torsions:
REMARK  status: ('A' for Active; 'I' for Inactive)
ROOT
ATOM      1  C   UNL d   1      -0.920  -2.450  -2.872  0.00  0.00     0.124 A 
ATOM      2  C1  UNL d   1       0.225  -2.257  -2.112  0.00  0.00     0.062 A 
ATOM      3  C2  UNL d   1       0.155  -2.276  -0.722  0.00  0.00     0.162 A 
ATOM      4  C3  UNL d   1      -1.066  -2.489  -0.082  0.00  0.00    -0.034 A 
ATOM      5  C4  UNL d   1      -2.214  -2.681  -0.853  0.00  0.00     0.162 A 
ATOM      6  C5  UNL d   1      -2.138  -2.661  -2.242  0.00  0.00     0.062 A 
ATOM      7  F   UNL d   1      -3.246  -2.848  -2.974  0.00  0.00    -0.097 F 
ATOM      8  F1  UNL d   1      -3.404  -2.889  -0.270  0.00  0.00    -0.096 F 
ATOM      9  I   UNL d   1      -1.175  -2.518   1.996  0.00  0.00    -0.060 I 
ATOM     10  F2  UNL d   1       1.278  -2.087  -0.013  0.00  0.00    -0.096 F 
ATOM     11  F3  UNL d   1       1.403  -2.051  -2.718  0.00  0.00    -0.097 F 
ATOM     12  F4  UNL d   1      -0.850  -2.430  -4.209  0.00  0.00    -0.092 F 
ENDROOT
TORSDOF 0
ENDMDL
