MODEL 1
REMARK minimizedAffinity 17.2333221
REMARK minimizedRMSD -1
REMARK  0 active torsions:
REMARK  status: ('A' for Active; 'I' for Inactive)
ROOT
ATOM      1  C   UNL d   1      -2.393   2.248   0.614  0.00  0.00     0.124 A 
ATOM      2  C1  UNL d   1      -1.930   3.549   0.749  0.00  0.00     0.062 A 
ATOM      3  C2  UNL d   1      -2.804   4.622   0.601  0.00  0.00     0.162 A 
ATOM      4  C3  UNL d   1      -4.151   4.398   0.315  0.00  0.00    -0.034 A 
ATOM      5  C4  UNL d   1      -4.609   3.087   0.180  0.00  0.00     0.162 A 
ATOM      6  C5  UNL d   1      -3.732   2.018   0.329  0.00  0.00     0.062 A 
ATOM      7  F   UNL d   1      -4.181   0.761   0.198  0.00  0.00    -0.097 F 
ATOM      8  F1  UNL d   1      -5.898   2.836  -0.095  0.00  0.00    -0.096 F 
ATOM      9  I   UNL d   1      -5.462   6.000   0.092  0.00  0.00    -0.060 I 
ATOM     10  F2  UNL d   1      -2.330   5.869   0.737  0.00  0.00    -0.096 F 
ATOM     11  F3  UNL d   1      -0.637   3.774   1.024  0.00  0.00    -0.097 F 
ATOM     12  F4  UNL d   1      -1.550   1.217   0.757  0.00  0.00    -0.092 F 
ENDROOT
TORSDOF 0
ENDMDL
