MODEL 1
REMARK minimizedAffinity 14.32022
REMARK minimizedRMSD -1
REMARK  0 active torsions:
REMARK  status: ('A' for Active; 'I' for Inactive)
ROOT
ATOM      1  C   UNL d   1      -1.614  -2.415   0.063  0.00  0.00     0.124 A 
ATOM      2  C1  UNL d   1      -0.299  -2.330  -0.374  0.00  0.00     0.062 A 
ATOM      3  C2  UNL d   1      -0.001  -2.466  -1.727  0.00  0.00     0.162 A 
ATOM      4  C3  UNL d   1      -1.021  -2.686  -2.654  0.00  0.00    -0.034 A 
ATOM      5  C4  UNL d   1      -2.340  -2.771  -2.206  0.00  0.00     0.162 A 
ATOM      6  C5  UNL d   1      -2.633  -2.635  -0.853  0.00  0.00     0.062 A 
ATOM      7  F   UNL d   1      -3.904  -2.718  -0.433  0.00  0.00    -0.097 F 
ATOM      8  F1  UNL d   1      -3.345  -2.983  -3.070  0.00  0.00    -0.096 F 
ATOM      9  I   UNL d   1      -0.580  -2.889  -4.677  0.00  0.00    -0.060 I 
ATOM     10  F2  UNL d   1       1.278  -2.379  -2.122  0.00  0.00    -0.096 F 
ATOM     11  F3  UNL d   1       0.687  -2.119   0.509  0.00  0.00    -0.097 F 
ATOM     12  F4  UNL d   1      -1.898  -2.286   1.365  0.00  0.00    -0.092 F 
ENDROOT
TORSDOF 0
ENDMDL
