MODEL 1
REMARK minimizedAffinity 15.19347
REMARK minimizedRMSD -1
REMARK  0 active torsions:
REMARK  status: ('A' for Active; 'I' for Inactive)
ROOT
ATOM      1  C   UNL d   1      -1.573  -3.011  -3.751  0.00  0.00     0.124 A 
ATOM      2  C1  UNL d   1      -0.523  -2.483  -3.012  0.00  0.00     0.062 A 
ATOM      3  C2  UNL d   1       0.786  -2.875  -3.276  0.00  0.00     0.162 A 
ATOM      4  C3  UNL d   1       1.053  -3.801  -4.285  0.00  0.00    -0.034 A 
ATOM      5  C4  UNL d   1      -0.008  -4.328  -5.023  0.00  0.00     0.162 A 
ATOM      6  C5  UNL d   1      -1.314  -3.933  -4.755  0.00  0.00     0.062 A 
ATOM      7  F   UNL d   1      -2.327  -4.444  -5.470  0.00  0.00    -0.097 F 
ATOM      8  F1  UNL d   1       0.214  -5.221  -6.000  0.00  0.00    -0.096 F 
ATOM      9  I   UNL d   1       3.009  -4.391  -4.682  0.00  0.00    -0.060 I 
ATOM     10  F2  UNL d   1       1.781  -2.348  -2.546  0.00  0.00    -0.096 F 
ATOM     11  F3  UNL d   1      -0.770  -1.592  -2.040  0.00  0.00    -0.097 F 
ATOM     12  F4  UNL d   1      -2.831  -2.632  -3.494  0.00  0.00    -0.092 F 
ENDROOT
TORSDOF 0
ENDMDL
