MODEL 1
REMARK minimizedAffinity 23.5048542
REMARK minimizedRMSD -1
REMARK  0 active torsions:
REMARK  status: ('A' for Active; 'I' for Inactive)
ROOT
ATOM      1  C   UNL d   1       0.924  -2.695  -2.999  0.00  0.00     0.124 A 
ATOM      2  C1  UNL d   1       2.279  -2.543  -2.740  0.00  0.00     0.062 A 
ATOM      3  C2  UNL d   1       2.714  -2.218  -1.459  0.00  0.00     0.162 A 
ATOM      4  C3  UNL d   1       1.794  -2.045  -0.425  0.00  0.00    -0.034 A 
ATOM      5  C4  UNL d   1       0.432  -2.199  -0.694  0.00  0.00     0.162 A 
ATOM      6  C5  UNL d   1       0.002  -2.524  -1.976  0.00  0.00     0.062 A 
ATOM      7  F   UNL d   1      -1.307  -2.671  -2.225  0.00  0.00    -0.097 F 
ATOM      8  F1  UNL d   1      -0.480  -2.040   0.276  0.00  0.00    -0.096 F 
ATOM      9  I   UNL d   1       2.441  -1.560   1.492  0.00  0.00    -0.060 I 
ATOM     10  F2  UNL d   1       4.030  -2.077  -1.237  0.00  0.00    -0.096 F 
ATOM     11  F3  UNL d   1       3.172  -2.707  -3.727  0.00  0.00    -0.097 F 
ATOM     12  F4  UNL d   1       0.508  -3.007  -4.234  0.00  0.00    -0.092 F 
ENDROOT
TORSDOF 0
ENDMDL
