MODEL 1
REMARK minimizedAffinity 10.1450987
REMARK minimizedRMSD -1
REMARK  0 active torsions:
REMARK  status: ('A' for Active; 'I' for Inactive)
ROOT
ATOM      1  C   UNL d   1      -1.263  -2.702  -2.784  0.00  0.00     0.124 A 
ATOM      2  C1  UNL d   1      -2.499  -2.562  -2.167  0.00  0.00     0.062 A 
ATOM      3  C2  UNL d   1      -2.580  -2.438  -0.784  0.00  0.00     0.162 A 
ATOM      4  C3  UNL d   1      -1.422  -2.451  -0.006  0.00  0.00    -0.034 A 
ATOM      5  C4  UNL d   1      -0.183  -2.593  -0.634  0.00  0.00     0.162 A 
ATOM      6  C5  UNL d   1      -0.107  -2.717  -2.017  0.00  0.00     0.062 A 
ATOM      7  F   UNL d   1       1.088  -2.851  -2.612  0.00  0.00    -0.097 F 
ATOM      8  F1  UNL d   1       0.950  -2.610   0.083  0.00  0.00    -0.096 F 
ATOM      9  I   UNL d   1      -1.540  -2.266   2.063  0.00  0.00    -0.060 I 
ATOM     10  F2  UNL d   1      -3.788  -2.305  -0.214  0.00  0.00    -0.096 F 
ATOM     11  F3  UNL d   1      -3.618  -2.548  -2.906  0.00  0.00    -0.097 F 
ATOM     12  F4  UNL d   1      -1.188  -2.822  -4.116  0.00  0.00    -0.092 F 
ENDROOT
TORSDOF 0
ENDMDL
