MODEL 1
REMARK minimizedAffinity 20.2078018
REMARK minimizedRMSD -1
REMARK  0 active torsions:
REMARK  status: ('A' for Active; 'I' for Inactive)
ROOT
ATOM      1  C   UNL d   1       0.840  -2.363  -1.455  0.00  0.00     0.124 A 
ATOM      2  C1  UNL d   1      -0.457  -2.369  -1.951  0.00  0.00     0.062 A 
ATOM      3  C2  UNL d   1      -0.708  -2.808  -3.247  0.00  0.00     0.162 A 
ATOM      4  C3  UNL d   1       0.339  -3.245  -4.058  0.00  0.00    -0.034 A 
ATOM      5  C4  UNL d   1       1.641  -3.235  -3.553  0.00  0.00     0.162 A 
ATOM      6  C5  UNL d   1       1.887  -2.795  -2.257  0.00  0.00     0.062 A 
ATOM      7  F   UNL d   1       3.140  -2.790  -1.780  0.00  0.00    -0.097 F 
ATOM      8  F1  UNL d   1       2.671  -3.648  -4.306  0.00  0.00    -0.096 F 
ATOM      9  I   UNL d   1      -0.033  -3.902  -5.998  0.00  0.00    -0.060 I 
ATOM     10  F2  UNL d   1      -1.971  -2.804  -3.700  0.00  0.00    -0.096 F 
ATOM     11  F3  UNL d   1      -1.470  -1.951  -1.179  0.00  0.00    -0.097 F 
ATOM     12  F4  UNL d   1       1.079  -1.939  -0.208  0.00  0.00    -0.092 F 
ENDROOT
TORSDOF 0
ENDMDL
