MODEL 1
REMARK minimizedAffinity 22.6361904
REMARK minimizedRMSD -1
REMARK  0 active torsions:
REMARK  status: ('A' for Active; 'I' for Inactive)
ROOT
ATOM      1  C   UNL d   1      -1.149  -2.482  -2.760  0.00  0.00     0.124 A 
ATOM      2  C1  UNL d   1      -1.012  -3.201  -3.939  0.00  0.00     0.062 A 
ATOM      3  C2  UNL d   1       0.245  -3.629  -4.356  0.00  0.00     0.162 A 
ATOM      4  C3  UNL d   1       1.376  -3.340  -3.593  0.00  0.00    -0.034 A 
ATOM      5  C4  UNL d   1       1.231  -2.616  -2.408  0.00  0.00     0.162 A 
ATOM      6  C5  UNL d   1      -0.028  -2.190  -1.995  0.00  0.00     0.062 A 
ATOM      7  F   UNL d   1      -0.158  -1.496  -0.856  0.00  0.00    -0.097 F 
ATOM      8  F1  UNL d   1       2.297  -2.321  -1.649  0.00  0.00    -0.096 F 
ATOM      9  I   UNL d   1       3.257  -3.978  -4.213  0.00  0.00    -0.060 I 
ATOM     10  F2  UNL d   1       0.347  -4.321  -5.500  0.00  0.00    -0.096 F 
ATOM     11  F3  UNL d   1      -2.093  -3.483  -4.680  0.00  0.00    -0.097 F 
ATOM     12  F4  UNL d   1      -2.359  -2.070  -2.361  0.00  0.00    -0.092 F 
ENDROOT
TORSDOF 0
ENDMDL
