MODEL 1
REMARK minimizedAffinity 12.2509794
REMARK minimizedRMSD -1
REMARK  0 active torsions:
REMARK  status: ('A' for Active; 'I' for Inactive)
ROOT
ATOM      1  C   UNL d   1      -0.207  -2.386  -1.431  0.00  0.00     0.124 A 
ATOM      2  C1  UNL d   1      -0.361  -2.018  -2.760  0.00  0.00     0.062 A 
ATOM      3  C2  UNL d   1      -0.422  -2.991  -3.753  0.00  0.00     0.162 A 
ATOM      4  C3  UNL d   1      -0.329  -4.342  -3.422  0.00  0.00    -0.034 A 
ATOM      5  C4  UNL d   1      -0.173  -4.705  -2.083  0.00  0.00     0.162 A 
ATOM      6  C5  UNL d   1      -0.113  -3.729  -1.093  0.00  0.00     0.062 A 
ATOM      7  F   UNL d   1       0.036  -4.087   0.190  0.00  0.00    -0.097 F 
ATOM      8  F1  UNL d   1      -0.081  -5.996  -1.728  0.00  0.00    -0.096 F 
ATOM      9  I   UNL d   1      -0.419  -5.800  -4.904  0.00  0.00    -0.060 I 
ATOM     10  F2  UNL d   1      -0.571  -2.606  -5.030  0.00  0.00    -0.096 F 
ATOM     11  F3  UNL d   1      -0.451  -0.721  -3.089  0.00  0.00    -0.097 F 
ATOM     12  F4  UNL d   1      -0.148  -1.448  -0.477  0.00  0.00    -0.092 F 
ENDROOT
TORSDOF 0
ENDMDL
