MODEL 1
REMARK minimizedAffinity 19.5518074
REMARK minimizedRMSD -1
REMARK  0 active torsions:
REMARK  status: ('A' for Active; 'I' for Inactive)
ROOT
ATOM      1  C   UNL d   1      -1.298  -2.872  -2.844  0.00  0.00     0.124 A 
ATOM      2  C1  UNL d   1      -0.186  -2.285  -2.257  0.00  0.00     0.062 A 
ATOM      3  C2  UNL d   1       1.095  -2.651  -2.662  0.00  0.00     0.162 A 
ATOM      4  C3  UNL d   1       1.270  -3.609  -3.660  0.00  0.00    -0.034 A 
ATOM      5  C4  UNL d   1       0.147  -4.196  -4.246  0.00  0.00     0.162 A 
ATOM      6  C5  UNL d   1      -1.131  -3.826  -3.838  0.00  0.00     0.062 A 
ATOM      7  F   UNL d   1      -2.204  -4.395  -4.406  0.00  0.00    -0.097 F 
ATOM      8  F1  UNL d   1       0.279  -5.120  -5.208  0.00  0.00    -0.096 F 
ATOM      9  I   UNL d   1       3.183  -4.159  -4.268  0.00  0.00    -0.060 I 
ATOM     10  F2  UNL d   1       2.151  -2.067  -2.077  0.00  0.00    -0.096 F 
ATOM     11  F3  UNL d   1      -0.345  -1.363  -1.297  0.00  0.00    -0.097 F 
ATOM     12  F4  UNL d   1      -2.529  -2.518  -2.453  0.00  0.00    -0.092 F 
ENDROOT
TORSDOF 0
ENDMDL
