MODEL 1
REMARK minimizedAffinity 21.0859413
REMARK minimizedRMSD -1
REMARK  0 active torsions:
REMARK  status: ('A' for Active; 'I' for Inactive)
ROOT
ATOM      1  C   UNL d   1      -1.827  -2.466  -0.366  0.00  0.00     0.124 A 
ATOM      2  C1  UNL d   1      -2.910  -2.634  -1.218  0.00  0.00     0.062 A 
ATOM      3  C2  UNL d   1      -2.704  -2.915  -2.565  0.00  0.00     0.162 A 
ATOM      4  C3  UNL d   1      -1.409  -3.031  -3.070  0.00  0.00    -0.034 A 
ATOM      5  C4  UNL d   1      -0.325  -2.860  -2.208  0.00  0.00     0.162 A 
ATOM      6  C5  UNL d   1      -0.536  -2.579  -0.862  0.00  0.00     0.062 A 
ATOM      7  F   UNL d   1       0.512  -2.416  -0.041  0.00  0.00    -0.097 F 
ATOM      8  F1  UNL d   1       0.934  -2.964  -2.660  0.00  0.00    -0.096 F 
ATOM      9  I   UNL d   1      -1.097  -3.452  -5.085  0.00  0.00    -0.060 I 
ATOM     10  F2  UNL d   1      -3.770  -3.073  -3.365  0.00  0.00    -0.096 F 
ATOM     11  F3  UNL d   1      -4.159  -2.525  -0.742  0.00  0.00    -0.097 F 
ATOM     12  F4  UNL d   1      -2.028  -2.194   0.929  0.00  0.00    -0.092 F 
ENDROOT
TORSDOF 0
ENDMDL
