MODEL 1
REMARK minimizedAffinity 13.3071165
REMARK minimizedRMSD -1
REMARK  0 active torsions:
REMARK  status: ('A' for Active; 'I' for Inactive)
ROOT
ATOM      1  C   UNL d   1      -0.994  -2.130  -1.744  0.00  0.00     0.124 A 
ATOM      2  C1  UNL d   1      -1.741  -2.268  -2.906  0.00  0.00     0.062 A 
ATOM      3  C2  UNL d   1      -1.125  -2.664  -4.090  0.00  0.00     0.162 A 
ATOM      4  C3  UNL d   1       0.244  -2.927  -4.118  0.00  0.00    -0.034 A 
ATOM      5  C4  UNL d   1       0.988  -2.785  -2.945  0.00  0.00     0.162 A 
ATOM      6  C5  UNL d   1       0.369  -2.388  -1.765  0.00  0.00     0.062 A 
ATOM      7  F   UNL d   1       1.091  -2.255  -0.643  0.00  0.00    -0.097 F 
ATOM      8  F1  UNL d   1       2.307  -3.029  -2.937  0.00  0.00    -0.096 F 
ATOM      9  I   UNL d   1       1.168  -3.520  -5.886  0.00  0.00    -0.060 I 
ATOM     10  F2  UNL d   1      -1.871  -2.790  -5.198  0.00  0.00    -0.096 F 
ATOM     11  F3  UNL d   1      -3.058  -2.018  -2.889  0.00  0.00    -0.097 F 
ATOM     12  F4  UNL d   1      -1.589  -1.747  -0.607  0.00  0.00    -0.092 F 
ENDROOT
TORSDOF 0
ENDMDL
