MODEL 1
REMARK minimizedAffinity 24.0673103
REMARK minimizedRMSD -1
REMARK  0 active torsions:
REMARK  status: ('A' for Active; 'I' for Inactive)
ROOT
ATOM      1  C   UNL d   1      -0.194  -2.551  -3.263  0.00  0.00     0.124 A 
ATOM      2  C1  UNL d   1      -1.562  -2.482  -3.483  0.00  0.00     0.062 A 
ATOM      3  C2  UNL d   1      -2.430  -2.236  -2.424  0.00  0.00     0.162 A 
ATOM      4  C3  UNL d   1      -1.933  -2.056  -1.133  0.00  0.00    -0.034 A 
ATOM      5  C4  UNL d   1      -0.555  -2.128  -0.919  0.00  0.00     0.162 A 
ATOM      6  C5  UNL d   1       0.309  -2.374  -1.981  0.00  0.00     0.062 A 
ATOM      7  F   UNL d   1       1.631  -2.441  -1.766  0.00  0.00    -0.097 F 
ATOM      8  F1  UNL d   1      -0.043  -1.960   0.309  0.00  0.00    -0.096 F 
ATOM      9  I   UNL d   1      -3.227  -1.688   0.454  0.00  0.00    -0.060 I 
ATOM     10  F2  UNL d   1      -3.748  -2.174  -2.666  0.00  0.00    -0.096 F 
ATOM     11  F3  UNL d   1      -2.050  -2.654  -4.720  0.00  0.00    -0.097 F 
ATOM     12  F4  UNL d   1       0.639  -2.790  -4.284  0.00  0.00    -0.092 F 
ENDROOT
TORSDOF 0
ENDMDL
