MODEL 1
REMARK minimizedAffinity 24.018528
REMARK minimizedRMSD -1
REMARK  0 active torsions:
REMARK  status: ('A' for Active; 'I' for Inactive)
ROOT
ATOM      1  C   UNL d   1      -2.997   2.423   0.207  0.00  0.00     0.124 A 
ATOM      2  C1  UNL d   1      -3.249   3.788   0.230  0.00  0.00     0.062 A 
ATOM      3  C2  UNL d   1      -2.240   4.680   0.582  0.00  0.00     0.162 A 
ATOM      4  C3  UNL d   1      -0.969   4.210   0.913  0.00  0.00    -0.034 A 
ATOM      5  C4  UNL d   1      -0.724   2.836   0.889  0.00  0.00     0.162 A 
ATOM      6  C5  UNL d   1      -1.735   1.949   0.537  0.00  0.00     0.062 A 
ATOM      7  F   UNL d   1      -1.490   0.630   0.515  0.00  0.00    -0.097 F 
ATOM      8  F1  UNL d   1       0.487   2.351   1.202  0.00  0.00    -0.096 F 
ATOM      9  I   UNL d   1       0.542   5.541   1.441  0.00  0.00    -0.060 I 
ATOM     10  F2  UNL d   1      -2.512   5.993   0.595  0.00  0.00    -0.096 F 
ATOM     11  F3  UNL d   1      -4.467   4.249  -0.087  0.00  0.00    -0.097 F 
ATOM     12  F4  UNL d   1      -3.969   1.567  -0.131  0.00  0.00    -0.092 F 
ENDROOT
TORSDOF 0
ENDMDL
