MODEL 1
REMARK minimizedAffinity 11.0688515
REMARK minimizedRMSD -1
REMARK  0 active torsions:
REMARK  status: ('A' for Active; 'I' for Inactive)
ROOT
ATOM      1  C   UNL d   1      -0.625  -2.675  -3.057  0.00  0.00     0.124 A 
ATOM      2  C1  UNL d   1      -1.991  -2.917  -3.098  0.00  0.00     0.062 A 
ATOM      3  C2  UNL d   1      -2.777  -2.686  -1.973  0.00  0.00     0.162 A 
ATOM      4  C3  UNL d   1      -2.199  -2.209  -0.797  0.00  0.00    -0.034 A 
ATOM      5  C4  UNL d   1      -0.825  -1.969  -0.762  0.00  0.00     0.162 A 
ATOM      6  C5  UNL d   1      -0.043  -2.201  -1.889  0.00  0.00     0.062 A 
ATOM      7  F   UNL d   1       1.277  -1.966  -1.847  0.00  0.00    -0.097 F 
ATOM      8  F1  UNL d   1      -0.237  -1.510   0.352  0.00  0.00    -0.096 F 
ATOM      9  I   UNL d   1      -3.372  -1.862   0.888  0.00  0.00    -0.060 I 
ATOM     10  F2  UNL d   1      -4.094  -2.929  -2.042  0.00  0.00    -0.096 F 
ATOM     11  F3  UNL d   1      -2.555  -3.376  -4.225  0.00  0.00    -0.097 F 
ATOM     12  F4  UNL d   1       0.130  -2.899  -4.140  0.00  0.00    -0.092 F 
ENDROOT
TORSDOF 0
ENDMDL
