MODEL 1
REMARK minimizedAffinity 32.9357681
REMARK minimizedRMSD -1
REMARK  0 active torsions:
REMARK  status: ('A' for Active; 'I' for Inactive)
ROOT
ATOM      1  C   UNL d   1      -1.804  -1.853  -0.062  0.00  0.00     0.124 A 
ATOM      2  C1  UNL d   1      -0.505  -2.017  -0.523  0.00  0.00     0.062 A 
ATOM      3  C2  UNL d   1      -0.272  -2.381  -1.846  0.00  0.00     0.162 A 
ATOM      4  C3  UNL d   1      -1.341  -2.583  -2.719  0.00  0.00    -0.034 A 
ATOM      5  C4  UNL d   1      -2.645  -2.418  -2.248  0.00  0.00     0.162 A 
ATOM      6  C5  UNL d   1      -2.872  -2.054  -0.925  0.00  0.00     0.062 A 
ATOM      7  F   UNL d   1      -4.128  -1.896  -0.481  0.00  0.00    -0.097 F 
ATOM      8  F1  UNL d   1      -3.696  -2.604  -3.060  0.00  0.00    -0.096 F 
ATOM      9  I   UNL d   1      -0.998  -3.128  -4.698  0.00  0.00    -0.060 I 
ATOM     10  F2  UNL d   1       0.993  -2.532  -2.264  0.00  0.00    -0.096 F 
ATOM     11  F3  UNL d   1       0.529  -1.824   0.308  0.00  0.00    -0.097 F 
ATOM     12  F4  UNL d   1      -2.025  -1.504   1.211  0.00  0.00    -0.092 F 
ENDROOT
TORSDOF 0
ENDMDL
