MODEL 1
REMARK minimizedAffinity 3.6413188
REMARK minimizedRMSD -1
REMARK  1 active torsions:
REMARK  status: ('A' for Active; 'I' for Inactive)
REMARK    1  A    between atoms: C1_2  and  C2_3 
ROOT
ATOM      1  C2  UNL d   1       0.053   1.136   1.268  0.00  0.00    -0.073 A 
ATOM      2  C3  UNL d   1       0.649  -0.062   1.675  0.00  0.00    -0.002 A 
ATOM      3  C4  UNL d   1       0.599  -1.189   0.855  0.00  0.00     0.004 A 
ATOM      4  C5  UNL d   1      -0.041  -1.129  -0.383  0.00  0.00    -0.004 A 
ATOM      5  C6  UNL d   1      -0.633   0.063  -0.813  0.00  0.00    -0.075 A 
ATOM      6  C7  UNL d   1      -1.327   0.144  -2.141  0.00  0.00     0.076 C 
ATOM      7  C8  UNL d   1      -0.581   1.190   0.018  0.00  0.00     0.001 A 
ENDROOT
BRANCH   1   8
ATOM      8  C1  UNL d   1       0.110   2.358   2.148  0.00  0.00     0.053 C 
ATOM      9  C   UNL d   1       1.148   3.359   1.666  0.00  0.00     0.018 C 
ENDBRANCH   1   8
TORSDOF 1
ENDMDL
