MODEL 1
REMARK minimizedAffinity 5.38497829
REMARK minimizedRMSD -1
REMARK  1 active torsions:
REMARK  status: ('A' for Active; 'I' for Inactive)
REMARK    1  A    between atoms: C1_2  and  C2_3 
ROOT
ATOM      1  C2  UNL d   1      -0.269   0.285   0.727  0.00  0.00    -0.073 A 
ATOM      2  C3  UNL d   1       0.397  -0.941   0.841  0.00  0.00    -0.002 A 
ATOM      3  C4  UNL d   1       1.458  -1.086   1.735  0.00  0.00     0.004 A 
ATOM      4  C5  UNL d   1       1.859  -0.012   2.529  0.00  0.00    -0.004 A 
ATOM      5  C6  UNL d   1       1.199   1.218   2.438  0.00  0.00    -0.075 A 
ATOM      6  C7  UNL d   1       1.620   2.384   3.283  0.00  0.00     0.076 C 
ATOM      7  C8  UNL d   1       0.136   1.356   1.536  0.00  0.00     0.001 A 
ENDROOT
BRANCH   1   8
ATOM      8  C1  UNL d   1      -1.420   0.445  -0.233  0.00  0.00     0.053 C 
ATOM      9  C   UNL d   1      -1.050   1.311  -1.426  0.00  0.00     0.018 C 
ENDBRANCH   1   8
TORSDOF 1
ENDMDL
