MODEL 1
REMARK minimizedAffinity -2.26969266
REMARK minimizedRMSD -1
REMARK  1 active torsions:
REMARK  status: ('A' for Active; 'I' for Inactive)
REMARK    1  A    between atoms: C1_2  and  C2_3 
ROOT
ATOM      1  C2  UNL d   1      -5.489  -1.025   3.221  0.00  0.00    -0.073 A 
ATOM      2  C3  UNL d   1      -5.757  -1.812   2.095  0.00  0.00    -0.002 A 
ATOM      3  C4  UNL d   1      -5.998  -3.180   2.233  0.00  0.00     0.004 A 
ATOM      4  C5  UNL d   1      -5.983  -3.772   3.496  0.00  0.00    -0.004 A 
ATOM      5  C6  UNL d   1      -5.729  -2.999   4.634  0.00  0.00    -0.075 A 
ATOM      6  C7  UNL d   1      -5.707  -3.621   6.000  0.00  0.00     0.076 C 
ATOM      7  C8  UNL d   1      -5.485  -1.627   4.487  0.00  0.00     0.001 A 
ENDROOT
BRANCH   1   8
ATOM      8  C1  UNL d   1      -5.234   0.453   3.077  0.00  0.00     0.053 C 
ATOM      9  C   UNL d   1      -4.429   0.774   1.828  0.00  0.00     0.018 C 
ENDBRANCH   1   8
TORSDOF 1
ENDMDL
