MODEL 1
REMARK minimizedAffinity 1.51278925
REMARK minimizedRMSD -1
REMARK  1 active torsions:
REMARK  status: ('A' for Active; 'I' for Inactive)
REMARK    1  A    between atoms: C1_2  and  C2_3 
ROOT
ATOM      1  C2  UNL d   1      -0.335   1.244   0.496  0.00  0.00    -0.073 A 
ATOM      2  C3  UNL d   1      -0.050  -0.122   0.397  0.00  0.00    -0.002 A 
ATOM      3  C4  UNL d   1       0.918  -0.701   1.219  0.00  0.00     0.004 A 
ATOM      4  C5  UNL d   1       1.604   0.077   2.151  0.00  0.00    -0.004 A 
ATOM      5  C6  UNL d   1       1.325   1.441   2.273  0.00  0.00    -0.075 A 
ATOM      6  C7  UNL d   1       2.055   2.293   3.270  0.00  0.00     0.076 C 
ATOM      7  C8  UNL d   1       0.353   2.016   1.443  0.00  0.00     0.001 A 
ENDROOT
BRANCH   1   8
ATOM      8  C1  UNL d   1      -1.384   1.873  -0.385  0.00  0.00     0.053 C 
ATOM      9  C   UNL d   1      -2.793   1.550   0.087  0.00  0.00     0.018 C 
ENDBRANCH   1   8
TORSDOF 1
ENDMDL
