MODEL 1
REMARK minimizedAffinity -0.718429923
REMARK minimizedRMSD -1
REMARK  1 active torsions:
REMARK  status: ('A' for Active; 'I' for Inactive)
REMARK    1  A    between atoms: C1_2  and  C2_3 
ROOT
ATOM      1  C2  UNL d   1       0.309   0.621  -0.079  0.00  0.00    -0.073 A 
ATOM      2  C3  UNL d   1       0.128   0.377   1.287  0.00  0.00    -0.002 A 
ATOM      3  C4  UNL d   1       0.077   1.437   2.192  0.00  0.00     0.004 A 
ATOM      4  C5  UNL d   1       0.198   2.752   1.741  0.00  0.00    -0.004 A 
ATOM      5  C6  UNL d   1       0.367   3.017   0.379  0.00  0.00    -0.075 A 
ATOM      6  C7  UNL d   1       0.501   4.425  -0.122  0.00  0.00     0.076 C 
ATOM      7  C8  UNL d   1       0.421   1.947  -0.524  0.00  0.00     0.001 A 
ENDROOT
BRANCH   1   8
ATOM      8  C1  UNL d   1       0.359  -0.520  -1.061  0.00  0.00     0.053 C 
ATOM      9  C   UNL d   1      -0.640  -0.343  -2.193  0.00  0.00     0.018 C 
ENDBRANCH   1   8
TORSDOF 1
ENDMDL
