MODEL 1
REMARK minimizedAffinity -2.58698988
REMARK minimizedRMSD -1
REMARK  1 active torsions:
REMARK  status: ('A' for Active; 'I' for Inactive)
REMARK    1  A    between atoms: C1_2  and  C2_3 
ROOT
ATOM      1  C2  UNL d   1       0.381   2.682   0.688  0.00  0.00    -0.073 A 
ATOM      2  C3  UNL d   1       0.214   2.639   2.077  0.00  0.00    -0.002 A 
ATOM      3  C4  UNL d   1       0.419   1.448   2.776  0.00  0.00     0.004 A 
ATOM      4  C5  UNL d   1       0.799   0.292   2.095  0.00  0.00    -0.004 A 
ATOM      5  C6  UNL d   1       0.982   0.317   0.709  0.00  0.00    -0.075 A 
ATOM      6  C7  UNL d   1       1.388  -0.919  -0.039  0.00  0.00     0.076 C 
ATOM      7  C8  UNL d   1       0.772   1.516   0.014  0.00  0.00     0.001 A 
ENDROOT
BRANCH   1   8
ATOM      8  C1  UNL d   1       0.167   3.966  -0.069  0.00  0.00     0.053 C 
ATOM      9  C   UNL d   1       1.476   4.690  -0.345  0.00  0.00     0.018 C 
ENDBRANCH   1   8
TORSDOF 1
ENDMDL
