MODEL 1
REMARK minimizedAffinity -1.6320858
REMARK minimizedRMSD -1
REMARK  0 active torsions:
REMARK  status: ('A' for Active; 'I' for Inactive)
ROOT
ATOM      1  C   UNL d   1       4.983  -0.867   2.833  0.00  0.00     0.020 A 
ATOM      2  C1  UNL d   1       4.541  -1.192   4.115  0.00  0.00     0.020 A 
ATOM      3  C2  UNL d   1       3.177  -1.362   4.361  0.00  0.00     0.034 A 
ATOM      4  C3  UNL d   1       2.250  -1.208   3.323  0.00  0.00     0.017 A 
ATOM      5  C4  UNL d   1       2.695  -0.883   2.037  0.00  0.00     0.017 A 
ATOM      6  C5  UNL d   1       4.062  -0.713   1.796  0.00  0.00     0.034 A 
ATOM      7 Cl   UNL d   1       1.612  -0.677   0.706  0.00  0.00    -0.070 Cl
ATOM      8 Cl1  UNL d   1       0.579  -1.435   3.699  0.00  0.00    -0.070 Cl
ENDROOT
TORSDOF 0
ENDMDL
