MODEL 1
REMARK minimizedAffinity 2.24478674
REMARK minimizedRMSD -1
REMARK  0 active torsions:
REMARK  status: ('A' for Active; 'I' for Inactive)
ROOT
ATOM      1  C   UNL d   1      -3.959   0.515  -0.470  0.00  0.00     0.020 A 
ATOM      2  C1  UNL d   1      -4.024   0.865  -1.818  0.00  0.00     0.020 A 
ATOM      3  C2  UNL d   1      -2.850   1.105  -2.535  0.00  0.00     0.034 A 
ATOM      4  C3  UNL d   1      -1.605   0.995  -1.904  0.00  0.00     0.017 A 
ATOM      5  C4  UNL d   1      -1.541   0.644  -0.551  0.00  0.00     0.017 A 
ATOM      6  C5  UNL d   1      -2.719   0.405   0.162  0.00  0.00     0.034 A 
ATOM      7 Cl   UNL d   1      -0.042   0.489   0.296  0.00  0.00    -0.070 Cl
ATOM      8 Cl1  UNL d   1      -0.194   1.306  -2.852  0.00  0.00    -0.070 Cl
ENDROOT
TORSDOF 0
ENDMDL
