MODEL 1
REMARK minimizedAffinity 1.01410675
REMARK minimizedRMSD -1
REMARK  0 active torsions:
REMARK  status: ('A' for Active; 'I' for Inactive)
ROOT
ATOM      1  C   UNL d   1       1.505  -1.655   2.815  0.00  0.00     0.020 A 
ATOM      2  C1  UNL d   1       2.592  -2.226   2.154  0.00  0.00     0.020 A 
ATOM      3  C2  UNL d   1       3.049  -1.673   0.955  0.00  0.00     0.034 A 
ATOM      4  C3  UNL d   1       2.418  -0.547   0.414  0.00  0.00     0.017 A 
ATOM      5  C4  UNL d   1       1.327   0.025   1.079  0.00  0.00     0.017 A 
ATOM      6  C5  UNL d   1       0.874  -0.533   2.278  0.00  0.00     0.034 A 
ATOM      7 Cl   UNL d   1       0.497   1.415   0.473  0.00  0.00    -0.070 Cl
ATOM      8 Cl1  UNL d   1       3.036   0.085  -1.071  0.00  0.00    -0.070 Cl
ENDROOT
TORSDOF 0
ENDMDL
