MODEL 1
REMARK minimizedAffinity -2.17595267
REMARK minimizedRMSD -1
REMARK  0 active torsions:
REMARK  status: ('A' for Active; 'I' for Inactive)
ROOT
ATOM      1  C   UNL d   1      -3.773  -6.000  -4.790  0.00  0.00     0.020 A 
ATOM      2  C1  UNL d   1      -3.734  -5.782  -3.413  0.00  0.00     0.020 A 
ATOM      3  C2  UNL d   1      -2.527  -5.450  -2.793  0.00  0.00     0.034 A 
ATOM      4  C3  UNL d   1      -1.355  -5.335  -3.550  0.00  0.00     0.017 A 
ATOM      5  C4  UNL d   1      -1.396  -5.554  -4.932  0.00  0.00     0.017 A 
ATOM      6  C5  UNL d   1      -2.607  -5.886  -5.547  0.00  0.00     0.034 A 
ATOM      7 Cl   UNL d   1       0.008  -5.430  -5.932  0.00  0.00    -0.070 Cl
ATOM      8 Cl1  UNL d   1       0.101  -4.920  -2.718  0.00  0.00    -0.070 Cl
ENDROOT
TORSDOF 0
ENDMDL
