MODEL 1
REMARK minimizedAffinity -0.1845631
REMARK minimizedRMSD -1
REMARK  0 active torsions:
REMARK  status: ('A' for Active; 'I' for Inactive)
ROOT
ATOM      1  C   UNL d   1       3.549  -1.326   2.789  0.00  0.00     0.020 A 
ATOM      2  C1  UNL d   1       2.277  -1.405   3.354  0.00  0.00     0.020 A 
ATOM      3  C2  UNL d   1       1.161  -0.994   2.622  0.00  0.00     0.034 A 
ATOM      4  C3  UNL d   1       1.315  -0.503   1.320  0.00  0.00     0.017 A 
ATOM      5  C4  UNL d   1       2.593  -0.425   0.754  0.00  0.00     0.017 A 
ATOM      6  C5  UNL d   1       3.707  -0.837   1.492  0.00  0.00     0.034 A 
ATOM      7 Cl   UNL d   1       2.863   0.170  -0.846  0.00  0.00    -0.070 Cl
ATOM      8 Cl1  UNL d   1      -0.108  -0.013   0.472  0.00  0.00    -0.070 Cl
ENDROOT
TORSDOF 0
ENDMDL
