MODEL 1
REMARK minimizedAffinity 5.49108171
REMARK minimizedRMSD -1
REMARK  0 active torsions:
REMARK  status: ('A' for Active; 'I' for Inactive)
ROOT
ATOM      1  C   UNL d   1      -0.162   0.376   0.365  0.00  0.00     0.020 A 
ATOM      2  C1  UNL d   1      -0.087  -0.430   1.500  0.00  0.00     0.020 A 
ATOM      3  C2  UNL d   1       1.148  -0.925   1.925  0.00  0.00     0.034 A 
ATOM      4  C3  UNL d   1       2.313  -0.614   1.214  0.00  0.00     0.017 A 
ATOM      5  C4  UNL d   1       2.237   0.196   0.075  0.00  0.00     0.017 A 
ATOM      6  C5  UNL d   1       0.998   0.689  -0.345  0.00  0.00     0.034 A 
ATOM      7 Cl   UNL d   1       3.631   0.624  -0.853  0.00  0.00    -0.070 Cl
ATOM      8 Cl1  UNL d   1       3.806  -1.260   1.797  0.00  0.00    -0.070 Cl
ENDROOT
TORSDOF 0
ENDMDL
