MODEL 1
REMARK minimizedAffinity 3.9510994
REMARK minimizedRMSD -1
REMARK  0 active torsions:
REMARK  status: ('A' for Active; 'I' for Inactive)
ROOT
ATOM      1  C   UNL d   1       2.764  -5.213  -4.866  0.00  0.00     0.020 A 
ATOM      2  C1  UNL d   1       2.127  -5.717  -6.000  0.00  0.00     0.020 A 
ATOM      3  C2  UNL d   1       0.750  -5.952  -5.979  0.00  0.00     0.034 A 
ATOM      4  C3  UNL d   1       0.007  -5.685  -4.824  0.00  0.00     0.017 A 
ATOM      5  C4  UNL d   1       0.648  -5.179  -3.687  0.00  0.00     0.017 A 
ATOM      6  C5  UNL d   1       2.027  -4.945  -3.713  0.00  0.00     0.034 A 
ATOM      7 Cl   UNL d   1      -0.201  -4.824  -2.224  0.00  0.00    -0.070 Cl
ATOM      8 Cl1  UNL d   1      -1.691  -5.999  -4.870  0.00  0.00    -0.070 Cl
ENDROOT
TORSDOF 0
ENDMDL
