MODEL 1
REMARK minimizedAffinity 5.99438334
REMARK minimizedRMSD -1
REMARK  0 active torsions:
REMARK  status: ('A' for Active; 'I' for Inactive)
ROOT
ATOM      1  C   UNL d   1      -3.616  -0.184  -0.768  0.00  0.00     0.020 A 
ATOM      2  C1  UNL d   1      -4.186   0.614  -1.759  0.00  0.00     0.020 A 
ATOM      3  C2  UNL d   1      -3.373   1.234  -2.710  0.00  0.00     0.034 A 
ATOM      4  C3  UNL d   1      -1.985   1.056  -2.672  0.00  0.00     0.017 A 
ATOM      5  C4  UNL d   1      -1.414   0.255  -1.677  0.00  0.00     0.017 A 
ATOM      6  C5  UNL d   1      -2.233  -0.364  -0.728  0.00  0.00     0.034 A 
ATOM      7 Cl   UNL d   1       0.290  -0.012  -1.566  0.00  0.00    -0.070 Cl
ATOM      8 Cl1  UNL d   1      -1.040   1.853  -3.880  0.00  0.00    -0.070 Cl
ENDROOT
TORSDOF 0
ENDMDL
