MODEL 1
REMARK minimizedAffinity 4.57068443
REMARK minimizedRMSD -1
REMARK  0 active torsions:
REMARK  status: ('A' for Active; 'I' for Inactive)
ROOT
ATOM      1  C   UNL d   1       1.799  -5.702  -5.425  0.00  0.00     0.020 A 
ATOM      2  C1  UNL d   1       0.563  -5.995  -5.999  0.00  0.00     0.020 A 
ATOM      3  C2  UNL d   1      -0.608  -5.834  -5.256  0.00  0.00     0.034 A 
ATOM      4  C3  UNL d   1      -0.546  -5.379  -3.934  0.00  0.00     0.017 A 
ATOM      5  C4  UNL d   1       0.695  -5.085  -3.358  0.00  0.00     0.017 A 
ATOM      6  C5  UNL d   1       1.865  -5.248  -4.107  0.00  0.00     0.034 A 
ATOM      7 Cl   UNL d   1       0.851  -4.519  -1.733  0.00  0.00    -0.070 Cl
ATOM      8 Cl1  UNL d   1      -2.035  -5.203  -3.074  0.00  0.00    -0.070 Cl
ENDROOT
TORSDOF 0
ENDMDL
