MODEL 1
REMARK minimizedAffinity 10.5881195
REMARK minimizedRMSD -1
REMARK  0 active torsions:
REMARK  status: ('A' for Active; 'I' for Inactive)
ROOT
ATOM      1  C   UNL d   1       0.890   3.622   0.033  0.00  0.00     0.020 A 
ATOM      2  C1  UNL d   1       2.161   3.276  -0.424  0.00  0.00     0.020 A 
ATOM      3  C2  UNL d   1       2.506   1.931  -0.575  0.00  0.00     0.034 A 
ATOM      4  C3  UNL d   1       1.579   0.928  -0.269  0.00  0.00     0.017 A 
ATOM      5  C4  UNL d   1       0.304   1.277   0.190  0.00  0.00     0.017 A 
ATOM      6  C5  UNL d   1      -0.036   2.625   0.339  0.00  0.00     0.034 A 
ATOM      7 Cl   UNL d   1      -0.894   0.096   0.588  0.00  0.00    -0.070 Cl
ATOM      8 Cl1  UNL d   1       2.073  -0.714  -0.480  0.00  0.00    -0.070 Cl
ENDROOT
TORSDOF 0
ENDMDL
