MODEL 1
REMARK minimizedAffinity 11.6983528
REMARK minimizedRMSD -1
REMARK  0 active torsions:
REMARK  status: ('A' for Active; 'I' for Inactive)
ROOT
ATOM      1  C   UNL d   1       2.718  -1.428   2.647  0.00  0.00     0.020 A 
ATOM      2  C1  UNL d   1       3.562  -1.561   1.545  0.00  0.00     0.020 A 
ATOM      3  C2  UNL d   1       3.103  -1.225   0.270  0.00  0.00     0.034 A 
ATOM      4  C3  UNL d   1       1.797  -0.756   0.093  0.00  0.00     0.017 A 
ATOM      5  C4  UNL d   1       0.950  -0.624   1.199  0.00  0.00     0.017 A 
ATOM      6  C5  UNL d   1       1.414  -0.961   2.474  0.00  0.00     0.034 A 
ATOM      7 Cl   UNL d   1      -0.675  -0.051   1.059  0.00  0.00    -0.070 Cl
ATOM      8 Cl1  UNL d   1       1.296  -0.360  -1.513  0.00  0.00    -0.070 Cl
ENDROOT
TORSDOF 0
ENDMDL
