MODEL 1
REMARK minimizedAffinity 6.49065256
REMARK minimizedRMSD -1
REMARK  0 active torsions:
REMARK  status: ('A' for Active; 'I' for Inactive)
ROOT
ATOM      1  C   UNL d   1      -4.354  -0.794  -0.320  0.00  0.00     0.020 A 
ATOM      2  C1  UNL d   1      -3.662   0.369   0.018  0.00  0.00     0.020 A 
ATOM      3  C2  UNL d   1      -2.305   0.304   0.340  0.00  0.00     0.034 A 
ATOM      4  C3  UNL d   1      -1.635  -0.925   0.326  0.00  0.00     0.017 A 
ATOM      5  C4  UNL d   1      -2.331  -2.091  -0.014  0.00  0.00     0.017 A 
ATOM      6  C5  UNL d   1      -3.690  -2.021  -0.336  0.00  0.00     0.034 A 
ATOM      7 Cl   UNL d   1      -1.573  -3.643  -0.054  0.00  0.00    -0.070 Cl
ATOM      8 Cl1  UNL d   1       0.043  -0.930   0.735  0.00  0.00    -0.070 Cl
ENDROOT
TORSDOF 0
ENDMDL
