MODEL 1
REMARK minimizedAffinity 6.75503063
REMARK minimizedRMSD -1
REMARK  0 active torsions:
REMARK  status: ('A' for Active; 'I' for Inactive)
ROOT
ATOM      1  C   UNL d   1       2.980  -5.084  -4.898  0.00  0.00     0.020 A 
ATOM      2  C1  UNL d   1       2.400  -5.721  -5.994  0.00  0.00     0.020 A 
ATOM      3  C2  UNL d   1       1.030  -5.992  -6.000  0.00  0.00     0.034 A 
ATOM      4  C3  UNL d   1       0.235  -5.626  -4.907  0.00  0.00     0.017 A 
ATOM      5  C4  UNL d   1       0.818  -4.986  -3.807  0.00  0.00     0.017 A 
ATOM      6  C5  UNL d   1       2.191  -4.718  -3.807  0.00  0.00     0.034 A 
ATOM      7 Cl   UNL d   1      -0.097  -4.504  -2.423  0.00  0.00    -0.070 Cl
ATOM      8 Cl1  UNL d   1      -1.452  -5.991  -4.982  0.00  0.00    -0.070 Cl
ENDROOT
TORSDOF 0
ENDMDL
