MODEL 1
REMARK minimizedAffinity 6.19208717
REMARK minimizedRMSD -1
REMARK  0 active torsions:
REMARK  status: ('A' for Active; 'I' for Inactive)
ROOT
ATOM      1  C   UNL d   1      -1.378  -6.000  -6.000  0.00  0.00     0.020 A 
ATOM      2  C1  UNL d   1      -2.083  -5.258  -5.053  0.00  0.00     0.020 A 
ATOM      3  C2  UNL d   1      -1.393  -4.500  -4.105  0.00  0.00     0.034 A 
ATOM      4  C3  UNL d   1       0.007  -4.482  -4.102  0.00  0.00     0.017 A 
ATOM      5  C4  UNL d   1       0.714  -5.227  -5.053  0.00  0.00     0.017 A 
ATOM      6  C5  UNL d   1       0.017  -5.984  -6.000  0.00  0.00     0.034 A 
ATOM      7 Cl   UNL d   1       2.441  -5.254  -5.112  0.00  0.00    -0.070 Cl
ATOM      8 Cl1  UNL d   1       0.795  -3.521  -2.901  0.00  0.00    -0.070 Cl
ENDROOT
TORSDOF 0
ENDMDL
