MODEL 1
REMARK minimizedAffinity 7.77471542
REMARK minimizedRMSD -1
REMARK  0 active torsions:
REMARK  status: ('A' for Active; 'I' for Inactive)
ROOT
ATOM      1  C   UNL d   1       5.640  -0.430   2.243  0.00  0.00     0.020 A 
ATOM      2  C1  UNL d   1       5.290  -0.746   3.555  0.00  0.00     0.020 A 
ATOM      3  C2  UNL d   1       3.971  -1.086   3.863  0.00  0.00     0.034 A 
ATOM      4  C3  UNL d   1       2.997  -1.109   2.858  0.00  0.00     0.017 A 
ATOM      5  C4  UNL d   1       3.350  -0.791   1.541  0.00  0.00     0.017 A 
ATOM      6  C5  UNL d   1       4.672  -0.452   1.238  0.00  0.00     0.034 A 
ATOM      7 Cl   UNL d   1       2.204  -0.798   0.247  0.00  0.00    -0.070 Cl
ATOM      8 Cl1  UNL d   1       1.386  -1.538   3.310  0.00  0.00    -0.070 Cl
ENDROOT
TORSDOF 0
ENDMDL
