MODEL 1
REMARK minimizedAffinity -1.36922967
REMARK minimizedRMSD -1
REMARK  0 active torsions:
REMARK  status: ('A' for Active; 'I' for Inactive)
ROOT
ATOM      1  C   UNL d   1       0.541  -5.990  -5.153  0.00  0.00     0.020 A 
ATOM      2  C1  UNL d   1      -0.609  -5.990  -5.942  0.00  0.00     0.020 A 
ATOM      3  C2  UNL d   1      -1.869  -5.993  -5.340  0.00  0.00     0.034 A 
ATOM      4  C3  UNL d   1      -1.983  -5.996  -3.945  0.00  0.00     0.017 A 
ATOM      5  C4  UNL d   1      -0.828  -5.996  -3.154  0.00  0.00     0.017 A 
ATOM      6  C5  UNL d   1       0.431  -5.993  -3.762  0.00  0.00     0.034 A 
ATOM      7 Cl   UNL d   1      -0.889  -5.999  -1.426  0.00  0.00    -0.070 Cl
ATOM      8 Cl1  UNL d   1      -3.573  -5.999  -3.269  0.00  0.00    -0.070 Cl
ENDROOT
TORSDOF 0
ENDMDL
