MODEL 1
REMARK minimizedAffinity -2.75603962
REMARK minimizedRMSD -1
REMARK  0 active torsions:
REMARK  status: ('A' for Active; 'I' for Inactive)
ROOT
ATOM      1  C   UNL d   1      -4.685  -5.952   1.523  0.00  0.00     0.020 A 
ATOM      2  C1  UNL d   1      -3.360  -5.809   1.930  0.00  0.00     0.020 A 
ATOM      3  C2  UNL d   1      -2.343  -5.713   0.977  0.00  0.00     0.034 A 
ATOM      4  C3  UNL d   1      -2.651  -5.761  -0.387  0.00  0.00     0.017 A 
ATOM      5  C4  UNL d   1      -3.982  -5.905  -0.795  0.00  0.00     0.017 A 
ATOM      6  C5  UNL d   1      -4.996  -6.000   0.163  0.00  0.00     0.034 A 
ATOM      7 Cl   UNL d   1      -4.439  -5.971  -2.460  0.00  0.00    -0.070 Cl
ATOM      8 Cl1  UNL d   1      -1.343  -5.637  -1.510  0.00  0.00    -0.070 Cl
ENDROOT
TORSDOF 0
ENDMDL
