MODEL 1
REMARK minimizedAffinity 2.12568831
REMARK minimizedRMSD -1
REMARK  0 active torsions:
REMARK  status: ('A' for Active; 'I' for Inactive)
ROOT
ATOM      1  C   UNL d   1       3.287  -5.474  -4.888  0.00  0.00     0.020 A 
ATOM      2  C1  UNL d   1       2.602  -5.964  -5.999  0.00  0.00     0.020 A 
ATOM      3  C2  UNL d   1       1.206  -5.997  -6.000  0.00  0.00     0.034 A 
ATOM      4  C3  UNL d   1       0.491  -5.539  -4.887  0.00  0.00     0.017 A 
ATOM      5  C4  UNL d   1       1.179  -5.047  -3.773  0.00  0.00     0.017 A 
ATOM      6  C5  UNL d   1       2.577  -5.016  -3.777  0.00  0.00     0.034 A 
ATOM      7 Cl   UNL d   1       0.366  -4.464  -2.363  0.00  0.00    -0.070 Cl
ATOM      8 Cl1  UNL d   1      -1.234  -5.608  -4.957  0.00  0.00    -0.070 Cl
ENDROOT
TORSDOF 0
ENDMDL
