MODEL 1
REMARK minimizedAffinity 16.8867111
REMARK minimizedRMSD -1
REMARK  1 active torsions:
REMARK  status: ('A' for Active; 'I' for Inactive)
REMARK    1  A    between atoms: C1_2  and  C2_3 
ROOT
ATOM      1  C2  UNL d   1       0.138  -1.578  -1.721  0.00  0.00    -0.081 A 
ATOM      2  C3  UNL d   1       0.754  -0.678  -2.600  0.00  0.00     0.006 A 
ATOM      3  C4  UNL d   1       1.780   0.158  -2.154  0.00  0.00     0.002 A 
ATOM      4  C5  UNL d   1       2.212   0.104  -0.825  0.00  0.00    -0.080 A 
ATOM      5  C6  UNL d   1       3.333   0.975  -0.340  0.00  0.00     0.076 C 
ATOM      6  C7  UNL d   1       1.585  -0.783   0.058  0.00  0.00     0.002 A 
ATOM      7  C8  UNL d   1       0.559  -1.619  -0.388  0.00  0.00     0.006 A 
ENDROOT
BRANCH   1   8
ATOM      8  C1  UNL d   1      -0.924  -2.527  -2.215  0.00  0.00     0.054 C 
ATOM      9  C   UNL d   1      -2.214  -1.789  -2.546  0.00  0.00     0.018 C 
ENDBRANCH   1   8
TORSDOF 1
ENDMDL
