MODEL 1
REMARK minimizedAffinity 11.6549129
REMARK minimizedRMSD -1
REMARK  1 active torsions:
REMARK  status: ('A' for Active; 'I' for Inactive)
REMARK    1  A    between atoms: C1_2  and  C2_3 
ROOT
ATOM      1  C2  UNL d   1       1.858   0.768   4.127  0.00  0.00    -0.081 A 
ATOM      2  C3  UNL d   1       2.298   0.704   5.455  0.00  0.00     0.006 A 
ATOM      3  C4  UNL d   1       3.060   1.740   6.000  0.00  0.00     0.002 A 
ATOM      4  C5  UNL d   1       3.389   2.860   5.229  0.00  0.00    -0.080 A 
ATOM      5  C6  UNL d   1       4.181   3.993   5.810  0.00  0.00     0.076 C 
ATOM      6  C7  UNL d   1       2.965   2.916   3.897  0.00  0.00     0.002 A 
ATOM      7  C8  UNL d   1       2.204   1.880   3.351  0.00  0.00     0.006 A 
ENDROOT
BRANCH   1   8
ATOM      8  C1  UNL d   1       0.982  -0.318   3.557  0.00  0.00     0.054 C 
ATOM      9  C   UNL d   1       0.135  -0.971   4.640  0.00  0.00     0.018 C 
ENDBRANCH   1   8
TORSDOF 1
ENDMDL
