MODEL 1
REMARK minimizedAffinity 2.91099119
REMARK minimizedRMSD -1
REMARK  1 active torsions:
REMARK  status: ('A' for Active; 'I' for Inactive)
REMARK    1  A    between atoms: C1_2  and  C2_3 
ROOT
ATOM      1  C2  UNL d   1       0.565  -1.812  -1.683  0.00  0.00    -0.081 A 
ATOM      2  C3  UNL d   1       0.799  -0.708  -2.511  0.00  0.00     0.006 A 
ATOM      3  C4  UNL d   1       1.841   0.180  -2.230  0.00  0.00     0.002 A 
ATOM      4  C5  UNL d   1       2.670  -0.027  -1.123  0.00  0.00    -0.080 A 
ATOM      5  C6  UNL d   1       3.811   0.901  -0.827  0.00  0.00     0.076 C 
ATOM      6  C7  UNL d   1       2.425  -1.120  -0.285  0.00  0.00     0.002 A 
ATOM      7  C8  UNL d   1       1.383  -2.007  -0.565  0.00  0.00     0.006 A 
ENDROOT
BRANCH   1   8
ATOM      8  C1  UNL d   1      -0.517  -2.806  -2.019  0.00  0.00     0.054 C 
ATOM      9  C   UNL d   1      -1.860  -2.118  -2.214  0.00  0.00     0.018 C 
ENDBRANCH   1   8
TORSDOF 1
ENDMDL
