MODEL 1
REMARK minimizedAffinity 3.33874774
REMARK minimizedRMSD -1
REMARK  1 active torsions:
REMARK  status: ('A' for Active; 'I' for Inactive)
REMARK    1  A    between atoms: C1_2  and  C2_3 
ROOT
ATOM      1  C2  UNL d   1       2.448   1.549   1.837  0.00  0.00    -0.081 A 
ATOM      2  C3  UNL d   1       2.899   2.816   2.225  0.00  0.00     0.006 A 
ATOM      3  C4  UNL d   1       2.872   3.197   3.569  0.00  0.00     0.002 A 
ATOM      4  C5  UNL d   1       2.401   2.315   4.547  0.00  0.00    -0.080 A 
ATOM      5  C6  UNL d   1       2.395   2.700   5.996  0.00  0.00     0.076 C 
ATOM      6  C7  UNL d   1       1.934   1.055   4.158  0.00  0.00     0.002 A 
ATOM      7  C8  UNL d   1       1.961   0.674   2.814  0.00  0.00     0.006 A 
ENDROOT
BRANCH   1   8
ATOM      8  C1  UNL d   1       2.537   1.111   0.397  0.00  0.00     0.054 C 
ATOM      9  C   UNL d   1       3.947   1.285  -0.148  0.00  0.00     0.018 C 
ENDBRANCH   1   8
TORSDOF 1
ENDMDL
