MODEL 1
REMARK minimizedAffinity 8.46163845
REMARK minimizedRMSD -1
REMARK  1 active torsions:
REMARK  status: ('A' for Active; 'I' for Inactive)
REMARK    1  A    between atoms: C1_2  and  C2_3 
ROOT
ATOM      1  C2  UNL d   1       3.292   1.139   0.905  0.00  0.00    -0.081 A 
ATOM      2  C3  UNL d   1       2.463   1.763   1.846  0.00  0.00     0.006 A 
ATOM      3  C4  UNL d   1       2.756   3.049   2.306  0.00  0.00     0.002 A 
ATOM      4  C5  UNL d   1       3.878   3.735   1.829  0.00  0.00    -0.080 A 
ATOM      5  C6  UNL d   1       4.188   5.127   2.293  0.00  0.00     0.076 C 
ATOM      6  C7  UNL d   1       4.716   3.105   0.903  0.00  0.00     0.002 A 
ATOM      7  C8  UNL d   1       4.423   1.819   0.442  0.00  0.00     0.006 A 
ENDROOT
BRANCH   1   8
ATOM      8  C1  UNL d   1       2.942  -0.221   0.358  0.00  0.00     0.054 C 
ATOM      9  C   UNL d   1       2.204  -0.111  -0.968  0.00  0.00     0.018 C 
ENDBRANCH   1   8
TORSDOF 1
ENDMDL
