MODEL 1
REMARK minimizedAffinity 14.3766518
REMARK minimizedRMSD -1
REMARK  1 active torsions:
REMARK  status: ('A' for Active; 'I' for Inactive)
REMARK    1  A    between atoms: C1_2  and  C2_3 
ROOT
ATOM      1  C2  UNL d   1       0.626   1.705  -3.241  0.00  0.00    -0.081 A 
ATOM      2  C3  UNL d   1       1.280   2.681  -2.480  0.00  0.00     0.006 A 
ATOM      3  C4  UNL d   1       2.160   2.312  -1.460  0.00  0.00     0.002 A 
ATOM      4  C5  UNL d   1       2.407   0.962  -1.190  0.00  0.00    -0.080 A 
ATOM      5  C6  UNL d   1       3.373   0.552  -0.118  0.00  0.00     0.076 C 
ATOM      6  C7  UNL d   1       1.740  -0.014  -1.939  0.00  0.00     0.002 A 
ATOM      7  C8  UNL d   1       0.860   0.355  -2.958  0.00  0.00     0.006 A 
ENDROOT
BRANCH   1   8
ATOM      8  C1  UNL d   1      -0.274   2.100  -4.384  0.00  0.00     0.054 C 
ATOM      9  C   UNL d   1      -1.726   2.194  -3.938  0.00  0.00     0.018 C 
ENDBRANCH   1   8
TORSDOF 1
ENDMDL
