MODEL 1
REMARK minimizedAffinity 9.84751034
REMARK minimizedRMSD -1
REMARK  1 active torsions:
REMARK  status: ('A' for Active; 'I' for Inactive)
REMARK    1  A    between atoms: C1_2  and  C2_3 
ROOT
ATOM      1  C2  UNL d   1       3.443   3.505   1.745  0.00  0.00    -0.081 A 
ATOM      2  C3  UNL d   1       3.976   2.387   1.092  0.00  0.00     0.006 A 
ATOM      3  C4  UNL d   1       3.243   1.201   1.006  0.00  0.00     0.002 A 
ATOM      4  C5  UNL d   1       1.963   1.115   1.563  0.00  0.00    -0.080 A 
ATOM      5  C6  UNL d   1       1.154  -0.142   1.451  0.00  0.00     0.076 C 
ATOM      6  C7  UNL d   1       1.437   2.227   2.230  0.00  0.00     0.002 A 
ATOM      7  C8  UNL d   1       2.169   3.413   2.318  0.00  0.00     0.006 A 
ENDROOT
BRANCH   1   8
ATOM      8  C1  UNL d   1       4.204   4.806   1.783  0.00  0.00     0.054 C 
ATOM      9  C   UNL d   1       3.261   6.000   1.746  0.00  0.00     0.018 C 
ENDBRANCH   1   8
TORSDOF 1
ENDMDL
