MODEL 1
REMARK minimizedAffinity 13.3686876
REMARK minimizedRMSD -1
REMARK  1 active torsions:
REMARK  status: ('A' for Active; 'I' for Inactive)
REMARK    1  A    between atoms: C1_2  and  C2_3 
ROOT
ATOM      1  C2  UNL d   1       2.012   0.346  -2.005  0.00  0.00    -0.081 A 
ATOM      2  C3  UNL d   1       1.090   0.360  -3.059  0.00  0.00     0.006 A 
ATOM      3  C4  UNL d   1       0.110  -0.631  -3.154  0.00  0.00     0.002 A 
ATOM      4  C5  UNL d   1       0.030  -1.646  -2.195  0.00  0.00    -0.080 A 
ATOM      5  C6  UNL d   1      -1.036  -2.698  -2.270  0.00  0.00     0.076 C 
ATOM      6  C7  UNL d   1       0.963  -1.670  -1.153  0.00  0.00     0.002 A 
ATOM      7  C8  UNL d   1       1.944  -0.680  -1.057  0.00  0.00     0.006 A 
ENDROOT
BRANCH   1   8
ATOM      8  C1  UNL d   1       3.030   1.449  -1.863  0.00  0.00     0.054 C 
ATOM      9  C   UNL d   1       4.285   0.957  -1.156  0.00  0.00     0.018 C 
ENDBRANCH   1   8
TORSDOF 1
ENDMDL
