MODEL 1
REMARK minimizedAffinity 11.602417
REMARK minimizedRMSD -1
REMARK  1 active torsions:
REMARK  status: ('A' for Active; 'I' for Inactive)
REMARK    1  A    between atoms: C1_2  and  C2_3 
ROOT
ATOM      1  C2  UNL d   1       2.159  -0.097  -1.272  0.00  0.00    -0.081 A 
ATOM      2  C3  UNL d   1       1.587  -0.284  -2.536  0.00  0.00     0.006 A 
ATOM      3  C4  UNL d   1       0.781  -1.396  -2.792  0.00  0.00     0.002 A 
ATOM      4  C5  UNL d   1       0.527  -2.334  -1.786  0.00  0.00    -0.080 A 
ATOM      5  C6  UNL d   1      -0.362  -3.516  -2.038  0.00  0.00     0.076 C 
ATOM      6  C7  UNL d   1       1.112  -2.157  -0.528  0.00  0.00     0.002 A 
ATOM      7  C8  UNL d   1       1.919  -1.046  -0.272  0.00  0.00     0.006 A 
ENDROOT
BRANCH   1   8
ATOM      8  C1  UNL d   1       2.977   1.134  -0.975  0.00  0.00     0.054 C 
ATOM      9  C   UNL d   1       3.473   1.135   0.464  0.00  0.00     0.018 C 
ENDBRANCH   1   8
TORSDOF 1
ENDMDL
