MODEL 1
REMARK minimizedAffinity 13.1728125
REMARK minimizedRMSD -1
REMARK  1 active torsions:
REMARK  status: ('A' for Active; 'I' for Inactive)
REMARK    1  A    between atoms: C1_2  and  C2_3 
ROOT
ATOM      1  C2  UNL d   1       1.603  -0.034  -2.203  0.00  0.00    -0.081 A 
ATOM      2  C3  UNL d   1       2.307   0.753  -1.283  0.00  0.00     0.006 A 
ATOM      3  C4  UNL d   1       2.217   2.146  -1.328  0.00  0.00     0.002 A 
ATOM      4  C5  UNL d   1       1.418   2.775  -2.289  0.00  0.00    -0.080 A 
ATOM      5  C6  UNL d   1       1.289   4.269  -2.329  0.00  0.00     0.076 C 
ATOM      6  C7  UNL d   1       0.729   1.990  -3.219  0.00  0.00     0.002 A 
ATOM      7  C8  UNL d   1       0.819   0.597  -3.175  0.00  0.00     0.006 A 
ENDROOT
BRANCH   1   8
ATOM      8  C1  UNL d   1       1.647  -1.538  -2.116  0.00  0.00     0.054 C 
ATOM      9  C   UNL d   1       0.267  -2.116  -1.836  0.00  0.00     0.018 C 
ENDBRANCH   1   8
TORSDOF 1
ENDMDL
