MODEL 1
REMARK minimizedAffinity 16.7746525
REMARK minimizedRMSD -1
REMARK  1 active torsions:
REMARK  status: ('A' for Active; 'I' for Inactive)
REMARK    1  A    between atoms: C1_2  and  C2_3 
ROOT
ATOM      1  C2  UNL d   1      -1.404  -3.950  -1.976  0.00  0.00    -0.081 A 
ATOM      2  C3  UNL d   1      -0.456  -2.983  -1.620  0.00  0.00     0.006 A 
ATOM      3  C4  UNL d   1      -0.708  -1.628  -1.845  0.00  0.00     0.002 A 
ATOM      4  C5  UNL d   1      -1.915  -1.216  -2.421  0.00  0.00    -0.080 A 
ATOM      5  C6  UNL d   1      -2.211   0.238  -2.640  0.00  0.00     0.076 C 
ATOM      6  C7  UNL d   1      -2.855  -2.183  -2.793  0.00  0.00     0.002 A 
ATOM      7  C8  UNL d   1      -2.603  -3.539  -2.569  0.00  0.00     0.006 A 
ENDROOT
BRANCH   1   8
ATOM      8  C1  UNL d   1      -1.163  -5.407  -1.676  0.00  0.00     0.054 C 
ATOM      9  C   UNL d   1      -2.248  -5.973  -0.771  0.00  0.00     0.018 C 
ENDBRANCH   1   8
TORSDOF 1
ENDMDL
