MODEL 1
REMARK minimizedAffinity 2.85153174
REMARK minimizedRMSD -1
REMARK  1 active torsions:
REMARK  status: ('A' for Active; 'I' for Inactive)
REMARK    1  A    between atoms: C1_2  and  C2_3 
ROOT
ATOM      1  C2  UNL d   1       2.182  -0.952  -1.725  0.00  0.00    -0.081 A 
ATOM      2  C3  UNL d   1       1.573  -1.125  -2.974  0.00  0.00     0.006 A 
ATOM      3  C4  UNL d   1       0.575  -2.087  -3.149  0.00  0.00     0.002 A 
ATOM      4  C5  UNL d   1       0.164  -2.886  -2.076  0.00  0.00    -0.080 A 
ATOM      5  C6  UNL d   1      -0.928  -3.901  -2.243  0.00  0.00     0.076 C 
ATOM      6  C7  UNL d   1       0.784  -2.725  -0.833  0.00  0.00     0.002 A 
ATOM      7  C8  UNL d   1       1.782  -1.764  -0.658  0.00  0.00     0.006 A 
ENDROOT
BRANCH   1   8
ATOM      8  C1  UNL d   1       3.212   0.128  -1.518  0.00  0.00     0.054 C 
ATOM      9  C   UNL d   1       2.682   1.488  -1.947  0.00  0.00     0.018 C 
ENDBRANCH   1   8
TORSDOF 1
ENDMDL
