MODEL 1
REMARK minimizedAffinity 17.5029354
REMARK minimizedRMSD -1
REMARK  1 active torsions:
REMARK  status: ('A' for Active; 'I' for Inactive)
REMARK    1  A    between atoms: C1_2  and  C2_3 
ROOT
ATOM      1  C2  UNL d   1       0.837   1.482  -3.495  0.00  0.00    -0.081 A 
ATOM      2  C3  UNL d   1       1.249   0.208  -3.085  0.00  0.00     0.006 A 
ATOM      3  C4  UNL d   1       2.190   0.064  -2.063  0.00  0.00     0.002 A 
ATOM      4  C5  UNL d   1       2.729   1.189  -1.430  0.00  0.00    -0.080 A 
ATOM      5  C6  UNL d   1       3.718   1.047  -0.311  0.00  0.00     0.076 C 
ATOM      6  C7  UNL d   1       2.331   2.462  -1.852  0.00  0.00     0.002 A 
ATOM      7  C8  UNL d   1       1.390   2.607  -2.874  0.00  0.00     0.006 A 
ENDROOT
BRANCH   1   8
ATOM      8  C1  UNL d   1      -0.226   1.640  -4.552  0.00  0.00     0.054 C 
ATOM      9  C   UNL d   1      -1.576   1.975  -3.934  0.00  0.00     0.018 C 
ENDBRANCH   1   8
TORSDOF 1
ENDMDL
