MODEL 1
REMARK minimizedAffinity -3.00588608
REMARK minimizedRMSD -1
REMARK  0 active torsions:
REMARK  status: ('A' for Active; 'I' for Inactive)
ROOT
ATOM      1  C1  BNZ d   1      -2.319   0.999   1.867  0.00  0.00     0.000 A 
ATOM      2  C2  BNZ d   1      -3.282   0.566   2.739  0.00  0.00     0.000 A 
ATOM      3  C3  BNZ d   1      -3.060   0.580   4.088  0.00  0.00     0.000 A 
ATOM      4  C4  BNZ d   1      -1.865   0.987   4.560  0.00  0.00     0.000 A 
ATOM      5  C5  BNZ d   1      -0.881   1.418   3.692  0.00  0.00     0.000 A 
ATOM      6  C6  BNZ d   1      -1.121   1.440   2.338  0.00  0.00     0.000 A 
ENDROOT
TORSDOF 0
ENDMDL
