MODEL 1
REMARK minimizedAffinity 1.12867534
REMARK minimizedRMSD -1
REMARK  0 active torsions:
REMARK  status: ('A' for Active; 'I' for Inactive)
ROOT
ATOM      1  C1  BNZ d   1       0.262   1.092  -1.459  0.00  0.00     0.000 A 
ATOM      2  C2  BNZ d   1       0.806   1.248  -2.706  0.00  0.00     0.000 A 
ATOM      3  C3  BNZ d   1       1.125   0.162  -3.471  0.00  0.00     0.000 A 
ATOM      4  C4  BNZ d   1       0.937  -1.078  -2.974  0.00  0.00     0.000 A 
ATOM      5  C5  BNZ d   1       0.398  -1.252  -1.715  0.00  0.00     0.000 A 
ATOM      6  C6  BNZ d   1       0.042  -0.156  -0.963  0.00  0.00     0.000 A 
ENDROOT
TORSDOF 0
ENDMDL
