MODEL 1
REMARK minimizedAffinity 0.00971855875
REMARK minimizedRMSD -1
REMARK  0 active torsions:
REMARK  status: ('A' for Active; 'I' for Inactive)
ROOT
ATOM      1  C1  BNZ d   1       0.010  -1.587  -0.787  0.00  0.00     0.000 A 
ATOM      2  C2  BNZ d   1       0.665  -1.623  -1.989  0.00  0.00     0.000 A 
ATOM      3  C3  BNZ d   1       1.037  -0.467  -2.618  0.00  0.00     0.000 A 
ATOM      4  C4  BNZ d   1       0.718   0.721  -2.065  0.00  0.00     0.000 A 
ATOM      5  C5  BNZ d   1       0.049   0.773  -0.858  0.00  0.00     0.000 A 
ATOM      6  C6  BNZ d   1      -0.289  -0.392  -0.209  0.00  0.00     0.000 A 
ENDROOT
TORSDOF 0
ENDMDL
