MODEL 1
REMARK minimizedAffinity -4.24333143
REMARK minimizedRMSD -1
REMARK  0 active torsions:
REMARK  status: ('A' for Active; 'I' for Inactive)
ROOT
ATOM      1  C1  BNZ d   1      -3.626   5.373   3.931  0.00  0.00     0.000 A 
ATOM      2  C2  BNZ d   1      -3.455   4.182   3.278  0.00  0.00     0.000 A 
ATOM      3  C3  BNZ d   1      -3.349   3.011   3.975  0.00  0.00     0.000 A 
ATOM      4  C4  BNZ d   1      -3.373   3.037   5.323  0.00  0.00     0.000 A 
ATOM      5  C5  BNZ d   1      -3.536   4.232   5.996  0.00  0.00     0.000 A 
ATOM      6  C6  BNZ d   1      -3.682   5.404   5.290  0.00  0.00     0.000 A 
ENDROOT
TORSDOF 0
ENDMDL
