MODEL 1
REMARK minimizedAffinity -1.20692611
REMARK minimizedRMSD -1
REMARK  0 active torsions:
REMARK  status: ('A' for Active; 'I' for Inactive)
ROOT
ATOM      1  C1  BNZ d   1       5.924  -1.237  -5.665  0.00  0.00     0.000 A 
ATOM      2  C2  BNZ d   1       5.927   0.111  -5.424  0.00  0.00     0.000 A 
ATOM      3  C3  BNZ d   1       5.985   0.594  -4.147  0.00  0.00     0.000 A 
ATOM      4  C4  BNZ d   1       5.999  -0.270  -3.111  0.00  0.00     0.000 A 
ATOM      5  C5  BNZ d   1       5.987  -1.632  -3.337  0.00  0.00     0.000 A 
ATOM      6  C6  BNZ d   1       5.968  -2.114  -4.626  0.00  0.00     0.000 A 
ENDROOT
TORSDOF 0
ENDMDL
