MODEL 1
REMARK minimizedAffinity 2.29330087
REMARK minimizedRMSD -1
REMARK  0 active torsions:
REMARK  status: ('A' for Active; 'I' for Inactive)
ROOT
ATOM      1  C1  BNZ d   1       0.445   0.844  -1.088  0.00  0.00     0.000 A 
ATOM      2  C2  BNZ d   1       1.099   1.663  -0.207  0.00  0.00     0.000 A 
ATOM      3  C3  BNZ d   1       2.449   1.855  -0.302  0.00  0.00     0.000 A 
ATOM      4  C4  BNZ d   1       3.148   1.198  -1.250  0.00  0.00     0.000 A 
ATOM      5  C5  BNZ d   1       2.504   0.362  -2.140  0.00  0.00     0.000 A 
ATOM      6  C6  BNZ d   1       1.139   0.201  -2.066  0.00  0.00     0.000 A 
ENDROOT
TORSDOF 0
ENDMDL
