MODEL 1
REMARK minimizedAffinity 3.71718073
REMARK minimizedRMSD -1
REMARK  0 active torsions:
REMARK  status: ('A' for Active; 'I' for Inactive)
ROOT
ATOM      1  C1  BNZ d   1       0.347  -0.907  -0.903  0.00  0.00     0.000 A 
ATOM      2  C2  BNZ d   1       0.837  -1.743  -1.870  0.00  0.00     0.000 A 
ATOM      3  C3  BNZ d   1       1.087  -1.283  -3.132  0.00  0.00     0.000 A 
ATOM      4  C4  BNZ d   1       0.810   0.001  -3.437  0.00  0.00     0.000 A 
ATOM      5  C5  BNZ d   1       0.307   0.855  -2.475  0.00  0.00     0.000 A 
ATOM      6  C6  BNZ d   1       0.093   0.398  -1.195  0.00  0.00     0.000 A 
ENDROOT
TORSDOF 0
ENDMDL
