MODEL 1
REMARK minimizedAffinity -0.586262107
REMARK minimizedRMSD -1
REMARK  0 active torsions:
REMARK  status: ('A' for Active; 'I' for Inactive)
ROOT
ATOM      1  C1  BNZ d   1       5.980   2.304  -4.216  0.00  0.00     0.000 A 
ATOM      2  C2  BNZ d   1       6.000   0.935  -4.230  0.00  0.00     0.000 A 
ATOM      3  C3  BNZ d   1       5.255   0.233  -5.136  0.00  0.00     0.000 A 
ATOM      4  C4  BNZ d   1       4.462   0.899  -6.000  0.00  0.00     0.000 A 
ATOM      5  C5  BNZ d   1       4.423   2.279  -5.992  0.00  0.00     0.000 A 
ATOM      6  C6  BNZ d   1       5.204   2.983  -5.104  0.00  0.00     0.000 A 
ENDROOT
TORSDOF 0
ENDMDL
