MODEL 1
REMARK minimizedAffinity 1.10377443
REMARK minimizedRMSD -1
REMARK  0 active torsions:
REMARK  status: ('A' for Active; 'I' for Inactive)
ROOT
ATOM      1  C1  BNZ d   1      -3.473   0.427   5.250  0.00  0.00     0.000 A 
ATOM      2  C2  BNZ d   1      -2.579  -0.610   5.222  0.00  0.00     0.000 A 
ATOM      3  C3  BNZ d   1      -2.649  -1.568   4.250  0.00  0.00     0.000 A 
ATOM      4  C4  BNZ d   1      -3.636  -1.511   3.333  0.00  0.00     0.000 A 
ATOM      5  C5  BNZ d   1      -4.551  -0.477   3.353  0.00  0.00     0.000 A 
ATOM      6  C6  BNZ d   1      -4.453   0.507   4.309  0.00  0.00     0.000 A 
ENDROOT
TORSDOF 0
ENDMDL
