MODEL 1
REMARK minimizedAffinity 4.6112628
REMARK minimizedRMSD -1
REMARK  0 active torsions:
REMARK  status: ('A' for Active; 'I' for Inactive)
ROOT
ATOM      1  C1  BNZ d   1       3.767   4.784  -4.273  0.00  0.00     0.000 A 
ATOM      2  C2  BNZ d   1       4.941   4.079  -4.287  0.00  0.00     0.000 A 
ATOM      3  C3  BNZ d   1       5.128   3.048  -5.164  0.00  0.00     0.000 A 
ATOM      4  C4  BNZ d   1       4.128   2.698  -5.999  0.00  0.00     0.000 A 
ATOM      5  C5  BNZ d   1       2.935   3.393  -5.991  0.00  0.00     0.000 A 
ATOM      6  C6  BNZ d   1       2.765   4.455  -5.133  0.00  0.00     0.000 A 
ENDROOT
TORSDOF 0
ENDMDL
