MODEL 1
REMARK minimizedAffinity -2.18597054
REMARK minimizedRMSD -1
REMARK  0 active torsions:
REMARK  status: ('A' for Active; 'I' for Inactive)
ROOT
ATOM      1  C1  BNZ d   1       1.876  -0.035  -0.033  0.00  0.00     0.000 A 
ATOM      2  C2  BNZ d   1       2.349   1.246  -0.140  0.00  0.00     0.000 A 
ATOM      3  C3  BNZ d   1       1.688   2.175  -0.893  0.00  0.00     0.000 A 
ATOM      4  C4  BNZ d   1       0.579   1.814  -1.569  0.00  0.00     0.000 A 
ATOM      5  C5  BNZ d   1       0.095   0.524  -1.479  0.00  0.00     0.000 A 
ATOM      6  C6  BNZ d   1       0.741  -0.399  -0.689  0.00  0.00     0.000 A 
ENDROOT
TORSDOF 0
ENDMDL
