MODEL 1
REMARK minimizedAffinity 8.48467064
REMARK minimizedRMSD -1
REMARK  0 active torsions:
REMARK  status: ('A' for Active; 'I' for Inactive)
ROOT
ATOM      1  C1  BNZ d   1      -3.425   3.691   5.365  0.00  0.00     0.000 A 
ATOM      2  C2  BNZ d   1      -3.085   3.707   4.038  0.00  0.00     0.000 A 
ATOM      3  C3  BNZ d   1      -3.135   4.867   3.317  0.00  0.00     0.000 A 
ATOM      4  C4  BNZ d   1      -3.562   6.000   3.912  0.00  0.00     0.000 A 
ATOM      5  C5  BNZ d   1      -3.917   5.997   5.246  0.00  0.00     0.000 A 
ATOM      6  C6  BNZ d   1      -3.828   4.836   5.979  0.00  0.00     0.000 A 
ENDROOT
TORSDOF 0
ENDMDL
