MODEL 1
REMARK minimizedAffinity 1.02379489
REMARK minimizedRMSD -1
REMARK  0 active torsions:
REMARK  status: ('A' for Active; 'I' for Inactive)
ROOT
ATOM      1  C1  BNZ d   1      -3.252   5.965   4.726  0.00  0.00     0.000 A 
ATOM      2  C2  BNZ d   1      -4.001   5.958   3.579  0.00  0.00     0.000 A 
ATOM      3  C3  BNZ d   1      -5.366   5.996   3.634  0.00  0.00     0.000 A 
ATOM      4  C4  BNZ d   1      -5.981   6.000   4.835  0.00  0.00     0.000 A 
ATOM      5  C5  BNZ d   1      -5.241   5.997   6.000  0.00  0.00     0.000 A 
ATOM      6  C6  BNZ d   1      -3.866   5.999   5.940  0.00  0.00     0.000 A 
ENDROOT
TORSDOF 0
ENDMDL
