MODEL 1
REMARK minimizedAffinity -3.47818351
REMARK minimizedRMSD -1
REMARK  2 active torsions:
REMARK  status: ('A' for Active; 'I' for Inactive)
REMARK    1  A    between atoms: C2'_3  and  C1'_4 
REMARK    2  A    between atoms: C1'_4  and  C1_5 
ROOT
ATOM      1  C1  I4B d   1       5.955  -4.186   3.972  0.00  0.00    -0.075 A 
ATOM      2  C2  I4B d   1       5.999  -2.817   3.887  0.00  0.00     0.003 A 
ATOM      3  C3  I4B d   1       5.996  -2.180   2.622  0.00  0.00     0.002 A 
ATOM      4  C4  I4B d   1       6.000  -2.948   1.475  0.00  0.00    -0.004 A 
ATOM      5  C5  I4B d   1       5.932  -4.335   1.563  0.00  0.00     0.002 A 
ATOM      6  C6  I4B d   1       5.897  -4.958   2.819  0.00  0.00     0.003 A 
ENDROOT
BRANCH   1   7
ATOM      7  C1' I4B d   1       5.992  -4.826   5.323  0.00  0.00     0.060 C 
BRANCH   7   8
ATOM      8  C2' I4B d   1       4.661  -4.569   5.999  0.00  0.00    -0.013 C 
ATOM      9  C4' I4B d   1       4.322  -3.101   5.994  0.00  0.00     0.013 C 
ATOM     10  C3' I4B d   1       3.615  -5.368   5.280  0.00  0.00     0.013 C 
ENDBRANCH   7   8
ENDBRANCH   1   7
TORSDOF 2
ENDMDL
