MODEL 1
REMARK minimizedAffinity 4.77410173
REMARK minimizedRMSD -1
REMARK  2 active torsions:
REMARK  status: ('A' for Active; 'I' for Inactive)
REMARK    1  A    between atoms: C2'_3  and  C1'_4 
REMARK    2  A    between atoms: C1'_4  and  C1_5 
ROOT
ATOM      1  C1  I4B d   1       5.777  -4.108   4.141  0.00  0.00    -0.075 A 
ATOM      2  C2  I4B d   1       5.740  -4.920   3.035  0.00  0.00     0.003 A 
ATOM      3  C3  I4B d   1       5.848  -4.363   1.738  0.00  0.00     0.002 A 
ATOM      4  C4  I4B d   1       5.938  -2.993   1.592  0.00  0.00    -0.004 A 
ATOM      5  C5  I4B d   1       5.998  -2.174   2.715  0.00  0.00     0.002 A 
ATOM      6  C6  I4B d   1       5.930  -2.735   3.998  0.00  0.00     0.003 A 
ENDROOT
BRANCH   1   7
ATOM      7  C1' I4B d   1       5.628  -4.727   5.494  0.00  0.00     0.060 C 
BRANCH   7   8
ATOM      8  C2' I4B d   1       4.233  -4.417   5.999  0.00  0.00    -0.013 C 
ATOM      9  C4' I4B d   1       3.969  -2.934   5.994  0.00  0.00     0.013 C 
ATOM     10  C3' I4B d   1       3.253  -5.144   5.127  0.00  0.00     0.013 C 
ENDBRANCH   7   8
ENDBRANCH   1   7
TORSDOF 2
ENDMDL
