MODEL 1
REMARK minimizedAffinity 6.05045557
REMARK minimizedRMSD -1
REMARK  2 active torsions:
REMARK  status: ('A' for Active; 'I' for Inactive)
REMARK    1  A    between atoms: C2'_3  and  C1'_4 
REMARK    2  A    between atoms: C1'_4  and  C1_5 
ROOT
ATOM      1  C1  I4B d   1       4.724  -3.449   4.881  0.00  0.00    -0.075 A 
ATOM      2  C2  I4B d   1       3.564  -4.070   5.272  0.00  0.00     0.003 A 
ATOM      3  C3  I4B d   1       3.609  -5.356   5.865  0.00  0.00     0.002 A 
ATOM      4  C4  I4B d   1       4.821  -6.000   6.000  0.00  0.00    -0.004 A 
ATOM      5  C5  I4B d   1       5.998  -5.359   5.623  0.00  0.00     0.002 A 
ATOM      6  C6  I4B d   1       5.951  -4.071   5.072  0.00  0.00     0.003 A 
ENDROOT
BRANCH   1   7
ATOM      7  C1' I4B d   1       4.637  -2.106   4.228  0.00  0.00     0.060 C 
BRANCH   7   8
ATOM      8  C2' I4B d   1       4.706  -2.311   2.728  0.00  0.00    -0.013 C 
ATOM      9  C4' I4B d   1       5.886  -3.165   2.348  0.00  0.00     0.013 C 
ATOM     10  C3' I4B d   1       3.417  -2.939   2.287  0.00  0.00     0.013 C 
ENDBRANCH   7   8
ENDBRANCH   1   7
TORSDOF 2
ENDMDL
