MODEL 1
REMARK minimizedAffinity -2.04356456
REMARK minimizedRMSD -1
REMARK  2 active torsions:
REMARK  status: ('A' for Active; 'I' for Inactive)
REMARK    1  A    between atoms: C2'_3  and  C1'_4 
REMARK    2  A    between atoms: C1'_4  and  C1_5 
ROOT
ATOM      1  C1  I4B d   1       5.989  -3.736   3.513  0.00  0.00    -0.075 A 
ATOM      2  C2  I4B d   1       5.997  -2.366   3.589  0.00  0.00     0.003 A 
ATOM      3  C3  I4B d   1       5.957  -1.722   4.850  0.00  0.00     0.002 A 
ATOM      4  C4  I4B d   1       5.859  -2.482   5.998  0.00  0.00    -0.004 A 
ATOM      5  C5  I4B d   1       5.874  -3.871   5.920  0.00  0.00     0.002 A 
ATOM      6  C6  I4B d   1       5.952  -4.503   4.670  0.00  0.00     0.003 A 
ENDROOT
BRANCH   1   7
ATOM      7  C1' I4B d   1       5.998  -4.383   2.164  0.00  0.00     0.060 C 
BRANCH   7   8
ATOM      8  C2' I4B d   1       5.259  -3.473   1.205  0.00  0.00    -0.013 C 
ATOM      9  C4' I4B d   1       5.599  -3.797  -0.226  0.00  0.00     0.013 C 
ATOM     10  C3' I4B d   1       3.789  -3.626   1.460  0.00  0.00     0.013 C 
ENDBRANCH   7   8
ENDBRANCH   1   7
TORSDOF 2
ENDMDL
