MODEL 1
REMARK minimizedAffinity -3.61949801
REMARK minimizedRMSD -1
REMARK  2 active torsions:
REMARK  status: ('A' for Active; 'I' for Inactive)
REMARK    1  A    between atoms: C2'_3  and  C1'_4 
REMARK    2  A    between atoms: C1'_4  and  C1_5 
ROOT
ATOM      1  C1  I4B d   1       5.957  -4.502   1.532  0.00  0.00    -0.075 A 
ATOM      2  C2  I4B d   1       5.923  -3.163   1.234  0.00  0.00     0.003 A 
ATOM      3  C3  I4B d   1       5.913  -2.733  -0.115  0.00  0.00     0.002 A 
ATOM      4  C4  I4B d   1       5.988  -3.668  -1.127  0.00  0.00    -0.004 A 
ATOM      5  C5  I4B d   1       6.000  -5.027  -0.823  0.00  0.00     0.002 A 
ATOM      6  C6  I4B d   1       5.971  -5.447   0.515  0.00  0.00     0.003 A 
ENDROOT
BRANCH   1   7
ATOM      7  C1' I4B d   1       6.000  -4.920   2.968  0.00  0.00     0.060 C 
BRANCH   7   8
ATOM      8  C2' I4B d   1       5.138  -3.958   3.760  0.00  0.00    -0.013 C 
ATOM      9  C4' I4B d   1       4.516  -4.637   4.952  0.00  0.00     0.013 C 
ATOM     10  C3' I4B d   1       5.999  -2.805   4.182  0.00  0.00     0.013 C 
ENDBRANCH   7   8
ENDBRANCH   1   7
TORSDOF 2
ENDMDL
