MODEL 1
REMARK minimizedAffinity 0.255146265
REMARK minimizedRMSD -1
REMARK  2 active torsions:
REMARK  status: ('A' for Active; 'I' for Inactive)
REMARK    1  A    between atoms: C2'_3  and  C1'_4 
REMARK    2  A    between atoms: C1'_4  and  C1_5 
ROOT
ATOM      1  C1  I4B d   1       5.573  -4.056   3.634  0.00  0.00    -0.075 A 
ATOM      2  C2  I4B d   1       5.992  -2.777   3.902  0.00  0.00     0.003 A 
ATOM      3  C3  I4B d   1       5.583  -2.127   5.091  0.00  0.00     0.002 A 
ATOM      4  C4  I4B d   1       4.719  -2.769   5.954  0.00  0.00    -0.004 A 
ATOM      5  C5  I4B d   1       4.313  -4.075   5.692  0.00  0.00     0.002 A 
ATOM      6  C6  I4B d   1       4.752  -4.727   4.531  0.00  0.00     0.003 A 
ENDROOT
BRANCH   1   7
ATOM      7  C1' I4B d   1       5.998  -4.701   2.353  0.00  0.00     0.060 C 
BRANCH   7   8
ATOM      8  C2' I4B d   1       5.164  -4.110   1.234  0.00  0.00    -0.013 C 
ATOM      9  C4' I4B d   1       3.865  -3.557   1.757  0.00  0.00     0.013 C 
ATOM     10  C3' I4B d   1       5.977  -3.043   0.564  0.00  0.00     0.013 C 
ENDBRANCH   7   8
ENDBRANCH   1   7
TORSDOF 2
ENDMDL
