MODEL 1
REMARK minimizedAffinity 1.91906011
REMARK minimizedRMSD -1
REMARK  2 active torsions:
REMARK  status: ('A' for Active; 'I' for Inactive)
REMARK    1  A    between atoms: C2'_3  and  C1'_4 
REMARK    2  A    between atoms: C1'_4  and  C1_5 
ROOT
ATOM      1  C1  I4B d   1       5.261  -3.944   3.574  0.00  0.00    -0.075 A 
ATOM      2  C2  I4B d   1       4.120  -4.681   3.374  0.00  0.00     0.003 A 
ATOM      3  C3  I4B d   1       3.434  -5.246   4.476  0.00  0.00     0.002 A 
ATOM      4  C4  I4B d   1       3.948  -5.093   5.748  0.00  0.00    -0.004 A 
ATOM      5  C5  I4B d   1       5.092  -4.326   5.951  0.00  0.00     0.002 A 
ATOM      6  C6  I4B d   1       5.746  -3.737   4.859  0.00  0.00     0.003 A 
ENDROOT
BRANCH   1   7
ATOM      7  C1' I4B d   1       5.978  -3.389   2.385  0.00  0.00     0.060 C 
BRANCH   7   8
ATOM      8  C2' I4B d   1       5.506  -4.146   1.160  0.00  0.00    -0.013 C 
ATOM      9  C4' I4B d   1       5.998  -3.495  -0.106  0.00  0.00     0.013 C 
ATOM     10  C3' I4B d   1       5.998  -5.558   1.270  0.00  0.00     0.013 C 
ENDBRANCH   7   8
ENDBRANCH   1   7
TORSDOF 2
ENDMDL
