MODEL 1
REMARK minimizedAffinity -1.28119946
REMARK minimizedRMSD -1
REMARK  2 active torsions:
REMARK  status: ('A' for Active; 'I' for Inactive)
REMARK    1  A    between atoms: C2'_3  and  C1'_4 
REMARK    2  A    between atoms: C1'_4  and  C1_5 
ROOT
ATOM      1  C1  I4B d   1       5.934  -4.364   3.495  0.00  0.00    -0.075 A 
ATOM      2  C2  I4B d   1       5.939  -5.665   3.059  0.00  0.00     0.003 A 
ATOM      3  C3  I4B d   1       5.985  -5.953   1.674  0.00  0.00     0.002 A 
ATOM      4  C4  I4B d   1       5.975  -4.916   0.763  0.00  0.00    -0.004 A 
ATOM      5  C5  I4B d   1       5.994  -3.597   1.207  0.00  0.00     0.002 A 
ATOM      6  C6  I4B d   1       5.986  -3.318   2.582  0.00  0.00     0.003 A 
ENDROOT
BRANCH   1   7
ATOM      7  C1' I4B d   1       5.851  -4.095   4.964  0.00  0.00     0.060 C 
BRANCH   7   8
ATOM      8  C2' I4B d   1       5.050  -2.825   5.162  0.00  0.00    -0.013 C 
ATOM      9  C4' I4B d   1       3.721  -3.114   5.810  0.00  0.00     0.013 C 
ATOM     10  C3' I4B d   1       5.868  -1.887   5.999  0.00  0.00     0.013 C 
ENDBRANCH   7   8
ENDBRANCH   1   7
TORSDOF 2
ENDMDL
