MODEL 1
REMARK minimizedAffinity 8.00286198
REMARK minimizedRMSD -1
REMARK  2 active torsions:
REMARK  status: ('A' for Active; 'I' for Inactive)
REMARK    1  A    between atoms: C2'_3  and  C1'_4 
REMARK    2  A    between atoms: C1'_4  and  C1_5 
ROOT
ATOM      1  C1  I4B d   1       4.806  -3.527   3.850  0.00  0.00    -0.075 A 
ATOM      2  C2  I4B d   1       5.980  -3.625   3.144  0.00  0.00     0.003 A 
ATOM      3  C3  I4B d   1       5.955  -3.865   1.749  0.00  0.00     0.002 A 
ATOM      4  C4  I4B d   1       4.744  -4.049   1.113  0.00  0.00    -0.004 A 
ATOM      5  C5  I4B d   1       3.555  -3.927   1.825  0.00  0.00     0.002 A 
ATOM      6  C6  I4B d   1       3.585  -3.652   3.200  0.00  0.00     0.003 A 
ENDROOT
BRANCH   1   7
ATOM      7  C1' I4B d   1       4.870  -3.306   5.328  0.00  0.00     0.060 C 
BRANCH   7   8
ATOM      8  C2' I4B d   1       4.941  -4.662   6.000  0.00  0.00    -0.013 C 
ATOM      9  C4' I4B d   1       3.606  -5.359   5.965  0.00  0.00     0.013 C 
ATOM     10  C3' I4B d   1       5.992  -5.472   5.300  0.00  0.00     0.013 C 
ENDBRANCH   7   8
ENDBRANCH   1   7
TORSDOF 2
ENDMDL
