MODEL 1
REMARK minimizedAffinity 1.22009289
REMARK minimizedRMSD -1
REMARK  2 active torsions:
REMARK  status: ('A' for Active; 'I' for Inactive)
REMARK    1  A    between atoms: C2'_3  and  C1'_4 
REMARK    2  A    between atoms: C1'_4  and  C1_5 
ROOT
ATOM      1  C1  I4B d   1       5.852  -4.143   4.414  0.00  0.00    -0.075 A 
ATOM      2  C2  I4B d   1       5.901  -3.247   3.376  0.00  0.00     0.003 A 
ATOM      3  C3  I4B d   1       5.986  -1.858   3.637  0.00  0.00     0.002 A 
ATOM      4  C4  I4B d   1       5.969  -1.409   4.942  0.00  0.00    -0.004 A 
ATOM      5  C5  I4B d   1       5.942  -2.321   5.993  0.00  0.00     0.002 A 
ATOM      6  C6  I4B d   1       5.896  -3.697   5.729  0.00  0.00     0.003 A 
ENDROOT
BRANCH   1   7
ATOM      7  C1' I4B d   1       5.729  -5.601   4.103  0.00  0.00     0.060 C 
BRANCH   7   8
ATOM      8  C2' I4B d   1       4.260  -5.967   4.149  0.00  0.00    -0.013 C 
ATOM      9  C4' I4B d   1       3.749  -5.992   5.566  0.00  0.00     0.013 C 
ATOM     10  C3' I4B d   1       3.508  -4.968   3.321  0.00  0.00     0.013 C 
ENDBRANCH   7   8
ENDBRANCH   1   7
TORSDOF 2
ENDMDL
