MODEL 1
REMARK minimizedAffinity -0.205769509
REMARK minimizedRMSD -1
REMARK  3 active torsions:
REMARK  status: ('A' for Active; 'I' for Inactive)
REMARK    1  A    between atoms: C3'_2  and  C2'_3 
REMARK    2  A    between atoms: C2'_3  and  C1'_4 
REMARK    3  A    between atoms: C1'_4  and  C1_5 
ROOT
ATOM      1  C1  N4B d   1       0.760   0.230  -0.055  0.00  0.00    -0.075 A 
ATOM      2  C2  N4B d   1       1.312  -0.653   0.899  0.00  0.00     0.002 A 
ATOM      3  C3  N4B d   1       0.517  -1.594   1.506  0.00  0.00     0.002 A 
ATOM      4  C4  N4B d   1      -0.832  -1.658   1.191  0.00  0.00    -0.004 A 
ATOM      5  C5  N4B d   1      -1.353  -0.818   0.250  0.00  0.00     0.002 A 
ATOM      6  C6  N4B d   1      -0.564   0.129  -0.371  0.00  0.00     0.002 A 
ENDROOT
BRANCH   1   7
ATOM      7  C1' N4B d   1       1.571   1.331  -0.682  0.00  0.00     0.057 C 
BRANCH   7   8
ATOM      8  C2' N4B d   1       2.719   1.701   0.253  0.00  0.00     0.009 C 
BRANCH   8   9
ATOM      9  C3' N4B d   1       2.638   3.149   0.705  0.00  0.00     0.004 C 
ATOM     10  C4' N4B d   1       2.652   3.293   2.198  0.00  0.00     0.003 C 
ENDBRANCH   8   9
ENDBRANCH   7   8
ENDBRANCH   1   7
TORSDOF 3
ENDMDL
