MODEL 1
REMARK minimizedAffinity 6.73271275
REMARK minimizedRMSD -1
REMARK  3 active torsions:
REMARK  status: ('A' for Active; 'I' for Inactive)
REMARK    1  A    between atoms: C3'_2  and  C2'_3 
REMARK    2  A    between atoms: C2'_3  and  C1'_4 
REMARK    3  A    between atoms: C1'_4  and  C1_5 
ROOT
ATOM      1  C1  N4B d   1      -1.960  -1.268   0.313  0.00  0.00    -0.075 A 
ATOM      2  C2  N4B d   1      -1.456  -2.204   1.242  0.00  0.00     0.002 A 
ATOM      3  C3  N4B d   1      -0.245  -1.982   1.852  0.00  0.00     0.002 A 
ATOM      4  C4  N4B d   1       0.484  -0.845   1.536  0.00  0.00    -0.004 A 
ATOM      5  C5  N4B d   1      -0.022   0.066   0.656  0.00  0.00     0.002 A 
ATOM      6  C6  N4B d   1      -1.239  -0.142   0.039  0.00  0.00     0.002 A 
ENDROOT
BRANCH   1   7
ATOM      7  C1' N4B d   1      -3.238  -1.509  -0.443  0.00  0.00     0.057 C 
BRANCH   7   8
ATOM      8  C2' N4B d   1      -2.976  -2.513  -1.562  0.00  0.00     0.009 C 
BRANCH   8   9
ATOM      9  C3' N4B d   1      -2.169  -1.904  -2.695  0.00  0.00     0.004 C 
ATOM     10  C4' N4B d   1      -2.473  -2.525  -4.025  0.00  0.00     0.003 C 
ENDBRANCH   8   9
ENDBRANCH   7   8
ENDBRANCH   1   7
TORSDOF 3
ENDMDL
