MODEL 1
REMARK minimizedAffinity -5.64016247
REMARK minimizedRMSD -1
REMARK  3 active torsions:
REMARK  status: ('A' for Active; 'I' for Inactive)
REMARK    1  A    between atoms: C3'_2  and  C2'_3 
REMARK    2  A    between atoms: C2'_3  and  C1'_4 
REMARK    3  A    between atoms: C1'_4  and  C1_5 
ROOT
ATOM      1  C1  N4B d   1      -0.295  -0.061  -0.428  0.00  0.00    -0.075 A 
ATOM      2  C2  N4B d   1      -0.742  -0.300  -1.746  0.00  0.00     0.002 A 
ATOM      3  C3  N4B d   1      -2.076  -0.516  -1.990  0.00  0.00     0.002 A 
ATOM      4  C4  N4B d   1      -2.975  -0.517  -0.934  0.00  0.00    -0.004 A 
ATOM      5  C5  N4B d   1      -2.538  -0.261   0.333  0.00  0.00     0.002 A 
ATOM      6  C6  N4B d   1      -1.201  -0.038   0.592  0.00  0.00     0.002 A 
ENDROOT
BRANCH   1   7
ATOM      7  C1' N4B d   1       1.165   0.095  -0.101  0.00  0.00     0.057 C 
BRANCH   7   8
ATOM      8  C2' N4B d   1       1.404   1.489   0.471  0.00  0.00     0.009 C 
BRANCH   8   9
ATOM      9  C3' N4B d   1       2.746   2.057   0.042  0.00  0.00     0.004 C 
ATOM     10  C4' N4B d   1       2.702   3.537  -0.193  0.00  0.00     0.003 C 
ENDBRANCH   8   9
ENDBRANCH   7   8
ENDBRANCH   1   7
TORSDOF 3
ENDMDL
