MODEL 1
REMARK minimizedAffinity -3.47866511
REMARK minimizedRMSD -1
REMARK  3 active torsions:
REMARK  status: ('A' for Active; 'I' for Inactive)
REMARK    1  A    between atoms: C3'_2  and  C2'_3 
REMARK    2  A    between atoms: C2'_3  and  C1'_4 
REMARK    3  A    between atoms: C1'_4  and  C1_5 
ROOT
ATOM      1  C1  N4B d   1       1.992   1.458   0.904  0.00  0.00    -0.075 A 
ATOM      2  C2  N4B d   1       2.466   2.517   0.098  0.00  0.00     0.002 A 
ATOM      3  C3  N4B d   1       2.729   3.742   0.660  0.00  0.00     0.002 A 
ATOM      4  C4  N4B d   1       2.508   3.937   2.015  0.00  0.00    -0.004 A 
ATOM      5  C5  N4B d   1       2.075   2.902   2.791  0.00  0.00     0.002 A 
ATOM      6  C6  N4B d   1       1.811   1.664   2.241  0.00  0.00     0.002 A 
ENDROOT
BRANCH   1   7
ATOM      7  C1' N4B d   1       1.610   0.126   0.320  0.00  0.00     0.057 C 
BRANCH   7   8
ATOM      8  C2' N4B d   1       0.135   0.155  -0.070  0.00  0.00     0.009 C 
BRANCH   8   9
ATOM      9  C3' N4B d   1      -0.625  -1.034   0.493  0.00  0.00     0.004 C 
ATOM     10  C4' N4B d   1       0.153  -1.780   1.536  0.00  0.00     0.003 C 
ENDBRANCH   8   9
ENDBRANCH   7   8
ENDBRANCH   1   7
TORSDOF 3
ENDMDL
