MODEL 1
REMARK minimizedAffinity -1.57081497
REMARK minimizedRMSD -1
REMARK  3 active torsions:
REMARK  status: ('A' for Active; 'I' for Inactive)
REMARK    1  A    between atoms: C3'_2  and  C2'_3 
REMARK    2  A    between atoms: C2'_3  and  C1'_4 
REMARK    3  A    between atoms: C1'_4  and  C1_5 
ROOT
ATOM      1  C1  N4B d   1       0.607  -0.328   0.607  0.00  0.00    -0.075 A 
ATOM      2  C2  N4B d   1       0.301  -1.218   1.660  0.00  0.00     0.002 A 
ATOM      3  C3  N4B d   1      -0.994  -1.344   2.099  0.00  0.00     0.002 A 
ATOM      4  C4  N4B d   1      -1.993  -0.579   1.515  0.00  0.00    -0.004 A 
ATOM      5  C5  N4B d   1      -1.694   0.259   0.482  0.00  0.00     0.002 A 
ATOM      6  C6  N4B d   1      -0.397   0.393   0.028  0.00  0.00     0.002 A 
ENDROOT
BRANCH   1   7
ATOM      7  C1' N4B d   1       2.021  -0.093   0.151  0.00  0.00     0.057 C 
BRANCH   7   8
ATOM      8  C2' N4B d   1       2.352   1.390   0.289  0.00  0.00     0.009 C 
BRANCH   8   9
ATOM      9  C3' N4B d   1       2.375   1.834   1.741  0.00  0.00     0.004 C 
ATOM     10  C4' N4B d   1       2.956   3.205   1.920  0.00  0.00     0.003 C 
ENDBRANCH   8   9
ENDBRANCH   7   8
ENDBRANCH   1   7
TORSDOF 3
ENDMDL
