MODEL 1
REMARK minimizedAffinity -5.92867041
REMARK minimizedRMSD -1
REMARK  3 active torsions:
REMARK  status: ('A' for Active; 'I' for Inactive)
REMARK    1  A    between atoms: C3'_2  and  C2'_3 
REMARK    2  A    between atoms: C2'_3  and  C1'_4 
REMARK    3  A    between atoms: C1'_4  and  C1_5 
ROOT
ATOM      1  C1  N4B d   1       0.662   0.041   0.254  0.00  0.00    -0.075 A 
ATOM      2  C2  N4B d   1       0.206  -0.807   1.288  0.00  0.00     0.002 A 
ATOM      3  C3  N4B d   1      -1.109  -1.202   1.322  0.00  0.00     0.002 A 
ATOM      4  C4  N4B d   1      -1.987  -0.749   0.348  0.00  0.00    -0.004 A 
ATOM      5  C5  N4B d   1      -1.533   0.049  -0.661  0.00  0.00     0.002 A 
ATOM      6  C6  N4B d   1      -0.213   0.451  -0.710  0.00  0.00     0.002 A 
ENDROOT
BRANCH   1   7
ATOM      7  C1' N4B d   1       2.070   0.569   0.224  0.00  0.00     0.057 C 
BRANCH   7   8
ATOM      8  C2' N4B d   1       2.462   1.032   1.624  0.00  0.00     0.009 C 
BRANCH   8   9
ATOM      9  C3' N4B d   1       2.927   2.478   1.634  0.00  0.00     0.004 C 
ATOM     10  C4' N4B d   1       2.795   3.140   0.296  0.00  0.00     0.003 C 
ENDBRANCH   8   9
ENDBRANCH   7   8
ENDBRANCH   1   7
TORSDOF 3
ENDMDL
