MODEL 1
REMARK minimizedAffinity -4.18253946
REMARK minimizedRMSD -1
REMARK  3 active torsions:
REMARK  status: ('A' for Active; 'I' for Inactive)
REMARK    1  A    between atoms: C3'_2  and  C2'_3 
REMARK    2  A    between atoms: C2'_3  and  C1'_4 
REMARK    3  A    between atoms: C1'_4  and  C1_5 
ROOT
ATOM      1  C1  N4B d   1       1.468   1.493   0.434  0.00  0.00    -0.075 A 
ATOM      2  C2  N4B d   1       1.757   2.466  -0.548  0.00  0.00     0.002 A 
ATOM      3  C3  N4B d   1       2.119   3.736  -0.171  0.00  0.00     0.002 A 
ATOM      4  C4  N4B d   1       2.179   4.060   1.176  0.00  0.00    -0.004 A 
ATOM      5  C5  N4B d   1       1.922   3.108   2.119  0.00  0.00     0.002 A 
ATOM      6  C6  N4B d   1       1.562   1.826   1.754  0.00  0.00     0.002 A 
ENDROOT
BRANCH   1   7
ATOM      7  C1' N4B d   1       0.985   0.116   0.069  0.00  0.00     0.057 C 
BRANCH   7   8
ATOM      8  C2' N4B d   1       0.221   0.186  -1.250  0.00  0.00     0.009 C 
BRANCH   8   9
ATOM      9  C3' N4B d   1      -1.251   0.496  -1.038  0.00  0.00     0.004 C 
ATOM     10  C4' N4B d   1      -2.155  -0.524  -1.665  0.00  0.00     0.003 C 
ENDBRANCH   8   9
ENDBRANCH   7   8
ENDBRANCH   1   7
TORSDOF 3
ENDMDL
