MODEL 1
REMARK minimizedAffinity -4.66426611
REMARK minimizedRMSD -1
REMARK  3 active torsions:
REMARK  status: ('A' for Active; 'I' for Inactive)
REMARK    1  A    between atoms: C3'_2  and  C2'_3 
REMARK    2  A    between atoms: C2'_3  and  C1'_4 
REMARK    3  A    between atoms: C1'_4  and  C1_5 
ROOT
ATOM      1  C1  N4B d   1      -1.046  -0.382   0.128  0.00  0.00    -0.075 A 
ATOM      2  C2  N4B d   1      -1.156  -0.149  -1.261  0.00  0.00     0.002 A 
ATOM      3  C3  N4B d   1      -2.148  -0.766  -1.983  0.00  0.00     0.002 A 
ATOM      4  C4  N4B d   1      -3.024  -1.631  -1.346  0.00  0.00    -0.004 A 
ATOM      5  C5  N4B d   1      -2.926  -1.832   0.000  0.00  0.00     0.002 A 
ATOM      6  C6  N4B d   1      -1.937  -1.215   0.740  0.00  0.00     0.002 A 
ENDROOT
BRANCH   1   7
ATOM      7  C1' N4B d   1       0.074   0.202   0.944  0.00  0.00     0.057 C 
BRANCH   7   8
ATOM      8  C2' N4B d   1       1.380   0.079   0.164  0.00  0.00     0.009 C 
BRANCH   8   9
ATOM      9  C3' N4B d   1       2.363   1.180   0.523  0.00  0.00     0.004 C 
ATOM     10  C4' N4B d   1       2.092   1.784   1.869  0.00  0.00     0.003 C 
ENDBRANCH   8   9
ENDBRANCH   7   8
ENDBRANCH   1   7
TORSDOF 3
ENDMDL
