MODEL 1
REMARK minimizedAffinity -1.54254913
REMARK minimizedRMSD -1
REMARK  0 active torsions:
REMARK  status: ('A' for Active; 'I' for Inactive)
ROOT
ATOM      1  C   UNL d   1      -0.914   2.845   1.647  0.00  0.00     0.023 A 
ATOM      2  C1  UNL d   1      -1.041   1.556   2.167  0.00  0.00     0.003 A 
ATOM      3  C2  UNL d   1      -0.559   0.461   1.447  0.00  0.00     0.048 A 
ATOM      4  C3  UNL d   1       0.049   0.661   0.208  0.00  0.00     0.023 A 
ATOM      5  C4  UNL d   1       0.179   1.949  -0.316  0.00  0.00     0.048 A 
ATOM      6  C5  UNL d   1      -0.305   3.040   0.407  0.00  0.00     0.003 A 
ATOM      7  I   UNL d   1       0.767  -0.967  -0.865  0.00  0.00    -0.146 I 
ENDROOT
TORSDOF 0
ENDMDL
