MODEL 1
REMARK minimizedAffinity -3.08026338
REMARK minimizedRMSD -1
REMARK  0 active torsions:
REMARK  status: ('A' for Active; 'I' for Inactive)
ROOT
ATOM      1  C   UNL d   1       0.411   3.788   0.255  0.00  0.00     0.023 A 
ATOM      2  C1  UNL d   1       0.714   2.611  -0.429  0.00  0.00     0.003 A 
ATOM      3  C2  UNL d   1       0.425   1.373   0.148  0.00  0.00     0.048 A 
ATOM      4  C3  UNL d   1      -0.168   1.319   1.409  0.00  0.00     0.023 A 
ATOM      5  C4  UNL d   1      -0.473   2.494   2.097  0.00  0.00     0.048 A 
ATOM      6  C5  UNL d   1      -0.181   3.730   1.517  0.00  0.00     0.003 A 
ATOM      7  I   UNL d   1      -0.599  -0.523   2.269  0.00  0.00    -0.146 I 
ENDROOT
TORSDOF 0
ENDMDL
