MODEL 1
REMARK minimizedAffinity -2.72608232
REMARK minimizedRMSD -1
REMARK  0 active torsions:
REMARK  status: ('A' for Active; 'I' for Inactive)
ROOT
ATOM      1  C   UNL d   1      -0.633   2.091   1.596  0.00  0.00     0.023 A 
ATOM      2  C1  UNL d   1      -0.779   0.779   2.045  0.00  0.00     0.003 A 
ATOM      3  C2  UNL d   1      -0.329  -0.284   1.259  0.00  0.00     0.048 A 
ATOM      4  C3  UNL d   1       0.269  -0.026   0.025  0.00  0.00     0.023 A 
ATOM      5  C4  UNL d   1       0.418   1.286  -0.427  0.00  0.00     0.048 A 
ATOM      6  C5  UNL d   1      -0.035   2.345   0.362  0.00  0.00     0.003 A 
ATOM      7  I   UNL d   1       0.941  -1.605  -1.147  0.00  0.00    -0.146 I 
ENDROOT
TORSDOF 0
ENDMDL
