MODEL 1
REMARK minimizedAffinity 0.466371387
REMARK minimizedRMSD -1
REMARK  0 active torsions:
REMARK  status: ('A' for Active; 'I' for Inactive)
ROOT
ATOM      1  C   UNL d   1      -0.550   1.780   2.348  0.00  0.00     0.023 A 
ATOM      2  C1  UNL d   1      -0.100   2.232   1.107  0.00  0.00     0.003 A 
ATOM      3  C2  UNL d   1       0.239   1.315   0.110  0.00  0.00     0.048 A 
ATOM      4  C3  UNL d   1       0.125  -0.052   0.360  0.00  0.00     0.023 A 
ATOM      5  C4  UNL d   1      -0.327  -0.509   1.599  0.00  0.00     0.048 A 
ATOM      6  C5  UNL d   1      -0.664   0.412   2.593  0.00  0.00     0.003 A 
ATOM      7  I   UNL d   1       0.629  -1.418  -1.123  0.00  0.00    -0.146 I 
ENDROOT
TORSDOF 0
ENDMDL
