MODEL 1
REMARK minimizedAffinity -1.05448008
REMARK minimizedRMSD -1
REMARK  0 active torsions:
REMARK  status: ('A' for Active; 'I' for Inactive)
ROOT
ATOM      1  C   UNL d   1      -1.078   0.382   2.595  0.00  0.00     0.023 A 
ATOM      2  C1  UNL d   1      -0.304  -0.751   2.341  0.00  0.00     0.003 A 
ATOM      3  C2  UNL d   1       0.431  -0.844   1.157  0.00  0.00     0.048 A 
ATOM      4  C3  UNL d   1       0.389   0.199   0.233  0.00  0.00     0.023 A 
ATOM      5  C4  UNL d   1      -0.384   1.335   0.484  0.00  0.00     0.048 A 
ATOM      6  C5  UNL d   1      -1.118   1.423   1.668  0.00  0.00     0.003 A 
ATOM      7  I   UNL d   1       1.482   0.063  -1.529  0.00  0.00    -0.146 I 
ENDROOT
TORSDOF 0
ENDMDL
