MODEL 1
REMARK minimizedAffinity 3.41426563
REMARK minimizedRMSD -1
REMARK  0 active torsions:
REMARK  status: ('A' for Active; 'I' for Inactive)
ROOT
ATOM      1  C   UNL d   1       0.859   5.755   2.041  0.00  0.00     0.023 A 
ATOM      2  C1  UNL d   1       0.440   5.508   0.734  0.00  0.00     0.003 A 
ATOM      3  C2  UNL d   1      -0.076   4.257   0.389  0.00  0.00     0.048 A 
ATOM      4  C3  UNL d   1      -0.172   3.258   1.358  0.00  0.00     0.023 A 
ATOM      5  C4  UNL d   1       0.245   3.501   2.667  0.00  0.00     0.048 A 
ATOM      6  C5  UNL d   1       0.761   4.753   3.007  0.00  0.00     0.003 A 
ATOM      7  I   UNL d   1      -0.941   1.396   0.848  0.00  0.00    -0.146 I 
ENDROOT
TORSDOF 0
ENDMDL
