MODEL 1
REMARK minimizedAffinity -2.36037421
REMARK minimizedRMSD -1
REMARK  0 active torsions:
REMARK  status: ('A' for Active; 'I' for Inactive)
ROOT
ATOM      1  C   UNL d   1      -0.289   0.880   1.048  0.00  0.00     0.023 A 
ATOM      2  C1  UNL d   1       0.262   0.996  -0.228  0.00  0.00     0.003 A 
ATOM      3  C2  UNL d   1       0.365  -0.128  -1.051  0.00  0.00     0.048 A 
ATOM      4  C3  UNL d   1      -0.086  -1.365  -0.591  0.00  0.00     0.023 A 
ATOM      5  C4  UNL d   1      -0.639  -1.485   0.685  0.00  0.00     0.048 A 
ATOM      6  C5  UNL d   1      -0.739  -0.359   1.504  0.00  0.00     0.003 A 
ATOM      7  I   UNL d   1       0.065  -3.039  -1.813  0.00  0.00    -0.146 I 
ENDROOT
TORSDOF 0
ENDMDL
