MODEL 1
REMARK minimizedAffinity -0.112547122
REMARK minimizedRMSD -1
REMARK  0 active torsions:
REMARK  status: ('A' for Active; 'I' for Inactive)
ROOT
ATOM      1  C   UNL d   1       0.396  -4.025  -2.028  0.00  0.00     0.023 A 
ATOM      2  C1  UNL d   1      -0.121  -3.308  -3.107  0.00  0.00     0.003 A 
ATOM      3  C2  UNL d   1      -0.048  -1.913  -3.119  0.00  0.00     0.048 A 
ATOM      4  C3  UNL d   1       0.545  -1.242  -2.050  0.00  0.00     0.023 A 
ATOM      5  C4  UNL d   1       1.064  -1.956  -0.969  0.00  0.00     0.048 A 
ATOM      6  C5  UNL d   1       0.988  -3.350  -0.961  0.00  0.00     0.003 A 
ATOM      7  I   UNL d   1       0.655   0.833  -2.066  0.00  0.00    -0.146 I 
ENDROOT
TORSDOF 0
ENDMDL
