MODEL 1
REMARK minimizedAffinity -1.90102684
REMARK minimizedRMSD -1
REMARK  0 active torsions:
REMARK  status: ('A' for Active; 'I' for Inactive)
ROOT
ATOM      1  C   UNL d   1       0.302  -3.022  -2.475  0.00  0.00     0.023 A 
ATOM      2  C1  UNL d   1       0.922  -2.590  -1.302  0.00  0.00     0.003 A 
ATOM      3  C2  UNL d   1       0.989  -1.226  -1.008  0.00  0.00     0.048 A 
ATOM      4  C3  UNL d   1       0.433  -0.301  -1.891  0.00  0.00     0.023 A 
ATOM      5  C4  UNL d   1      -0.188  -0.729  -3.065  0.00  0.00     0.048 A 
ATOM      6  C5  UNL d   1      -0.252  -2.093  -3.355  0.00  0.00     0.003 A 
ATOM      7  I   UNL d   1       0.532   1.729  -1.457  0.00  0.00    -0.146 I 
ENDROOT
TORSDOF 0
ENDMDL
