MODEL 1
REMARK minimizedAffinity -3.88011789
REMARK minimizedRMSD -1
REMARK  0 active torsions:
REMARK  status: ('A' for Active; 'I' for Inactive)
ROOT
ATOM      1  C   UNL d   1       0.603   0.719  -0.247  0.00  0.00     0.023 A 
ATOM      2  C1  UNL d   1       1.314  -0.385   0.225  0.00  0.00     0.003 A 
ATOM      3  C2  UNL d   1       1.258  -1.599  -0.462  0.00  0.00     0.048 A 
ATOM      4  C3  UNL d   1       0.490  -1.703  -1.621  0.00  0.00     0.023 A 
ATOM      5  C4  UNL d   1      -0.222  -0.601  -2.098  0.00  0.00     0.048 A 
ATOM      6  C5  UNL d   1      -0.164   0.611  -1.408  0.00  0.00     0.003 A 
ATOM      7  I   UNL d   1       0.405  -3.509  -2.646  0.00  0.00    -0.146 I 
ENDROOT
TORSDOF 0
ENDMDL
