MODEL 1
REMARK minimizedAffinity -3.28636527
REMARK minimizedRMSD -1
REMARK  0 active torsions:
REMARK  status: ('A' for Active; 'I' for Inactive)
ROOT
ATOM      1  C   UNL d   1      -0.834   1.695   1.689  0.00  0.00     0.023 A 
ATOM      2  C1  UNL d   1      -0.622   1.926   0.330  0.00  0.00     0.003 A 
ATOM      3  C2  UNL d   1      -0.109   0.911  -0.480  0.00  0.00     0.048 A 
ATOM      4  C3  UNL d   1       0.188  -0.333   0.075  0.00  0.00     0.023 A 
ATOM      5  C4  UNL d   1      -0.024  -0.569   1.434  0.00  0.00     0.048 A 
ATOM      6  C5  UNL d   1      -0.536   0.449   2.241  0.00  0.00     0.003 A 
ATOM      7  I   UNL d   1       0.951  -1.845  -1.129  0.00  0.00    -0.146 I 
ENDROOT
TORSDOF 0
ENDMDL
