MODEL 1
REMARK minimizedAffinity -4.03274345
REMARK minimizedRMSD -1
REMARK  0 active torsions:
REMARK  status: ('A' for Active; 'I' for Inactive)
ROOT
ATOM      1  C   UNL d   1      -0.831   1.230   2.283  0.00  0.00     0.023 A 
ATOM      2  C1  UNL d   1      -0.499   1.773   1.042  0.00  0.00     0.003 A 
ATOM      3  C2  UNL d   1       0.012   0.954   0.034  0.00  0.00     0.048 A 
ATOM      4  C3  UNL d   1       0.187  -0.409   0.272  0.00  0.00     0.023 A 
ATOM      5  C4  UNL d   1      -0.145  -0.957   1.512  0.00  0.00     0.048 A 
ATOM      6  C5  UNL d   1      -0.654  -0.134   2.518  0.00  0.00     0.003 A 
ATOM      7  I   UNL d   1       0.947  -1.631  -1.227  0.00  0.00    -0.146 I 
ENDROOT
TORSDOF 0
ENDMDL
