MODEL 1
REMARK minimizedAffinity 3.60882378
REMARK minimizedRMSD -1
REMARK  0 active torsions:
REMARK  status: ('A' for Active; 'I' for Inactive)
ROOT
ATOM      1  C   UNL d   1       0.640  -1.056  -0.629  0.00  0.00     0.023 A 
ATOM      2  C1  UNL d   1      -0.079  -1.545   0.462  0.00  0.00     0.003 A 
ATOM      3  C2  UNL d   1      -0.326  -0.721   1.562  0.00  0.00     0.048 A 
ATOM      4  C3  UNL d   1       0.146   0.591   1.564  0.00  0.00     0.023 A 
ATOM      5  C4  UNL d   1       0.865   1.085   0.474  0.00  0.00     0.048 A 
ATOM      6  C5  UNL d   1       1.111   0.257  -0.623  0.00  0.00     0.003 A 
ATOM      7  I   UNL d   1      -0.222   1.818   3.200  0.00  0.00    -0.146 I 
ENDROOT
TORSDOF 0
ENDMDL
