MODEL 1
REMARK minimizedAffinity -2.08359957
REMARK minimizedRMSD -1
REMARK  0 active torsions:
REMARK  status: ('A' for Active; 'I' for Inactive)
ROOT
ATOM      1  C   UNL d   1      -1.158   1.683   1.860  0.00  0.00     0.023 A 
ATOM      2  C1  UNL d   1      -0.883   2.120   0.564  0.00  0.00     0.003 A 
ATOM      3  C2  UNL d   1      -0.205   1.286  -0.327  0.00  0.00     0.048 A 
ATOM      4  C3  UNL d   1       0.195   0.015   0.084  0.00  0.00     0.023 A 
ATOM      5  C4  UNL d   1      -0.079  -0.427   1.380  0.00  0.00     0.048 A 
ATOM      6  C5  UNL d   1      -0.756   0.411   2.267  0.00  0.00     0.003 A 
ATOM      7  I   UNL d   1       1.204  -1.230  -1.240  0.00  0.00    -0.146 I 
ENDROOT
TORSDOF 0
ENDMDL
