MODEL 1
REMARK minimizedAffinity -2.09395313
REMARK minimizedRMSD -1
REMARK  1 active torsions:
REMARK  status: ('A' for Active; 'I' for Inactive)
REMARK    1  A    between atoms: C1_2  and  C2_3 
ROOT
ATOM      1  C2  UNL d   1      -0.167  -0.823   0.355  0.00  0.00    -0.073 A 
ATOM      2  C3  UNL d   1       0.709   0.065  -0.279  0.00  0.00    -0.002 A 
ATOM      3  C4  UNL d   1       1.415  -0.331  -1.416  0.00  0.00     0.004 A 
ATOM      4  C5  UNL d   1       1.246  -1.615  -1.934  0.00  0.00    -0.004 A 
ATOM      5  C6  UNL d   1       0.366  -2.513  -1.322  0.00  0.00    -0.075 A 
ATOM      6  C7  UNL d   1       0.176  -3.899  -1.865  0.00  0.00     0.076 C 
ATOM      7  C8  UNL d   1      -0.336  -2.109  -0.179  0.00  0.00     0.001 A 
ENDROOT
BRANCH   1   8
ATOM      8  C1  UNL d   1      -0.935  -0.397   1.579  0.00  0.00     0.053 C 
ATOM      9  C   UNL d   1      -0.619   1.035   1.982  0.00  0.00     0.018 C 
ENDBRANCH   1   8
TORSDOF 1
ENDMDL
