MODEL 1
REMARK minimizedAffinity -3.17414331
REMARK minimizedRMSD -1
REMARK  1 active torsions:
REMARK  status: ('A' for Active; 'I' for Inactive)
REMARK    1  A    between atoms: C1_2  and  C2_3 
ROOT
ATOM      1  C2  UNL d   1      -0.219  -0.539   0.625  0.00  0.00    -0.073 A 
ATOM      2  C3  UNL d   1       1.022   0.076   0.420  0.00  0.00    -0.002 A 
ATOM      3  C4  UNL d   1       1.849  -0.337  -0.626  0.00  0.00     0.004 A 
ATOM      4  C5  UNL d   1       1.442  -1.361  -1.480  0.00  0.00    -0.004 A 
ATOM      5  C6  UNL d   1       0.200  -1.980  -1.299  0.00  0.00    -0.075 A 
ATOM      6  C7  UNL d   1      -0.251  -3.085  -2.208  0.00  0.00     0.076 C 
ATOM      7  C8  UNL d   1      -0.623  -1.562  -0.245  0.00  0.00     0.001 A 
ENDROOT
BRANCH   1   8
ATOM      8  C1  UNL d   1      -1.118  -0.092   1.749  0.00  0.00     0.053 C 
ATOM      9  C   UNL d   1      -0.809   1.327   2.196  0.00  0.00     0.018 C 
ENDBRANCH   1   8
TORSDOF 1
ENDMDL
