MODEL 1
REMARK minimizedAffinity -2.17599988
REMARK minimizedRMSD -1
REMARK  1 active torsions:
REMARK  status: ('A' for Active; 'I' for Inactive)
REMARK    1  A    between atoms: C1_2  and  C2_3 
ROOT
ATOM      1  C2  UNL d   1       0.076  -0.912   0.337  0.00  0.00    -0.073 A 
ATOM      2  C3  UNL d   1       1.293  -0.231   0.223  0.00  0.00    -0.002 A 
ATOM      3  C4  UNL d   1       2.210  -0.588  -0.766  0.00  0.00     0.004 A 
ATOM      4  C5  UNL d   1       1.917  -1.622  -1.655  0.00  0.00    -0.004 A 
ATOM      5  C6  UNL d   1       0.701  -2.306  -1.565  0.00  0.00    -0.075 A 
ATOM      6  C7  UNL d   1       0.372  -3.423  -2.512  0.00  0.00     0.076 C 
ATOM      7  C8  UNL d   1      -0.214  -1.944  -0.567  0.00  0.00     0.001 A 
ENDROOT
BRANCH   1   8
ATOM      8  C1  UNL d   1      -0.920  -0.526   1.400  0.00  0.00     0.053 C 
ATOM      9  C   UNL d   1      -0.722   0.904   1.875  0.00  0.00     0.018 C 
ENDBRANCH   1   8
TORSDOF 1
ENDMDL
