MODEL 1
REMARK minimizedAffinity -5.60786629
REMARK minimizedRMSD -1
REMARK  1 active torsions:
REMARK  status: ('A' for Active; 'I' for Inactive)
REMARK    1  A    between atoms: C1_2  and  C2_3 
ROOT
ATOM      1  C2  UNL d   1       0.643  -0.746   0.324  0.00  0.00    -0.073 A 
ATOM      2  C3  UNL d   1      -0.252  -1.084   1.345  0.00  0.00    -0.002 A 
ATOM      3  C4  UNL d   1      -1.073  -0.110   1.914  0.00  0.00     0.004 A 
ATOM      4  C5  UNL d   1      -1.013   1.209   1.464  0.00  0.00    -0.004 A 
ATOM      5  C6  UNL d   1      -0.134   1.564   0.436  0.00  0.00    -0.075 A 
ATOM      6  C7  UNL d   1      -0.056   2.979  -0.058  0.00  0.00     0.076 C 
ATOM      7  C8  UNL d   1       0.689   0.581  -0.129  0.00  0.00     0.001 A 
ENDROOT
BRANCH   1   8
ATOM      8  C1  UNL d   1       1.527  -1.796  -0.298  0.00  0.00     0.053 C 
ATOM      9  C   UNL d   1       1.008  -2.247  -1.654  0.00  0.00     0.018 C 
ENDBRANCH   1   8
TORSDOF 1
ENDMDL
