MODEL 1
REMARK minimizedAffinity -6.01970863
REMARK minimizedRMSD -1
REMARK  1 active torsions:
REMARK  status: ('A' for Active; 'I' for Inactive)
REMARK    1  A    between atoms: C1_2  and  C2_3 
ROOT
ATOM      1  C2  UNL d   1      -0.199   1.054  -0.536  0.00  0.00    -0.073 A 
ATOM      2  C3  UNL d   1      -1.009   0.669   0.539  0.00  0.00    -0.002 A 
ATOM      3  C4  UNL d   1      -1.343   1.587   1.534  0.00  0.00     0.004 A 
ATOM      4  C5  UNL d   1      -0.878   2.900   1.463  0.00  0.00    -0.004 A 
ATOM      5  C6  UNL d   1      -0.077   3.308   0.391  0.00  0.00    -0.075 A 
ATOM      6  C7  UNL d   1       0.433   4.716   0.300  0.00  0.00     0.076 C 
ATOM      7  C8  UNL d   1       0.256   2.379  -0.604  0.00  0.00     0.001 A 
ENDROOT
BRANCH   1   8
ATOM      8  C1  UNL d   1       0.159   0.067  -1.617  0.00  0.00     0.053 C 
ATOM      9  C   UNL d   1       0.814  -1.183  -1.053  0.00  0.00     0.018 C 
ENDBRANCH   1   8
TORSDOF 1
ENDMDL
