MODEL 1
REMARK minimizedAffinity -1.98366833
REMARK minimizedRMSD -1
REMARK  1 active torsions:
REMARK  status: ('A' for Active; 'I' for Inactive)
REMARK    1  A    between atoms: C3_4  and  O_7 
ROOT
ATOM      1  C   UNL d   1      -0.676  -0.835   0.975  0.00  0.00    -0.033 A 
ATOM      2  C1  UNL d   1      -1.743  -0.054   1.423  0.00  0.00     0.039 A 
ATOM      3  C2  UNL d   1      -1.773   1.314   1.148  0.00  0.00    -0.080 A 
ATOM      4  C3  UNL d   1      -0.731   1.889   0.425  0.00  0.00     0.150 A 
ATOM      5  C4  UNL d   1       0.334   1.117  -0.027  0.00  0.00    -0.007 A 
ATOM      6  C5  UNL d   1       0.362  -0.250   0.249  0.00  0.00     0.039 A 
ENDROOT
BRANCH   4   7
ATOM      7  O   UNL d   1      -0.714   3.222   0.137  0.00  0.00    -0.526 OA
ATOM      8  H5  UNL d   1      -1.498   3.633   0.537  0.00  0.00     0.418 HD
ENDBRANCH   4   7
TORSDOF 1
ENDMDL
