MODEL 1
REMARK minimizedAffinity -1.95525789
REMARK minimizedRMSD -1
REMARK  1 active torsions:
REMARK  status: ('A' for Active; 'I' for Inactive)
REMARK    1  A    between atoms: C3_4  and  O_7 
ROOT
ATOM      1  C   UNL d   1      -1.925  -3.746  -0.548  0.00  0.00    -0.033 A 
ATOM      2  C1  UNL d   1      -2.348  -3.773  -1.878  0.00  0.00     0.039 A 
ATOM      3  C2  UNL d   1      -1.478  -3.385  -2.898  0.00  0.00    -0.080 A 
ATOM      4  C3  UNL d   1      -0.188  -2.973  -2.575  0.00  0.00     0.150 A 
ATOM      5  C4  UNL d   1       0.242  -2.947  -1.253  0.00  0.00    -0.007 A 
ATOM      6  C5  UNL d   1      -0.629  -3.334  -0.235  0.00  0.00     0.039 A 
ENDROOT
BRANCH   4   7
ATOM      7  O   UNL d   1       0.696  -2.581  -3.536  0.00  0.00    -0.526 OA
ATOM      8  H5  UNL d   1       0.252  -2.623  -4.399  0.00  0.00     0.418 HD
ENDBRANCH   4   7
TORSDOF 1
ENDMDL
