MODEL 1
REMARK minimizedAffinity -4.4432373
REMARK minimizedRMSD -1
REMARK  1 active torsions:
REMARK  status: ('A' for Active; 'I' for Inactive)
REMARK    1  A    between atoms: C3_4  and  O_7 
ROOT
ATOM      1  C   UNL d   1      -0.052  -0.452   0.437  0.00  0.00    -0.033 A 
ATOM      2  C1  UNL d   1       1.247  -0.067   0.099  0.00  0.00     0.039 A 
ATOM      3  C2  UNL d   1       1.555   1.284  -0.074  0.00  0.00    -0.080 A 
ATOM      4  C3  UNL d   1       0.556   2.239   0.096  0.00  0.00     0.150 A 
ATOM      5  C4  UNL d   1      -0.739   1.863   0.438  0.00  0.00    -0.007 A 
ATOM      6  C5  UNL d   1      -1.044   0.513   0.608  0.00  0.00     0.039 A 
ENDROOT
BRANCH   4   7
ATOM      7  O   UNL d   1       0.807   3.569  -0.066  0.00  0.00    -0.526 OA
ATOM      8  H5  UNL d   1       1.736   3.677  -0.328  0.00  0.00     0.418 HD
ENDBRANCH   4   7
TORSDOF 1
ENDMDL
