MODEL 1
REMARK minimizedAffinity -3.35960722
REMARK minimizedRMSD -1
REMARK  1 active torsions:
REMARK  status: ('A' for Active; 'I' for Inactive)
REMARK    1  A    between atoms: C3_4  and  O_7 
ROOT
ATOM      1  C   UNL d   1       0.552  -0.708   0.188  0.00  0.00    -0.033 A 
ATOM      2  C1  UNL d   1      -0.711  -0.190  -0.108  0.00  0.00     0.039 A 
ATOM      3  C2  UNL d   1      -0.878   1.184  -0.293  0.00  0.00    -0.080 A 
ATOM      4  C3  UNL d   1       0.224   2.027  -0.180  0.00  0.00     0.150 A 
ATOM      5  C4  UNL d   1       1.485   1.518   0.111  0.00  0.00    -0.007 A 
ATOM      6  C5  UNL d   1       1.650   0.146   0.296  0.00  0.00     0.039 A 
ENDROOT
BRANCH   4   7
ATOM      7  O   UNL d   1       0.109   3.375  -0.347  0.00  0.00    -0.526 OA
ATOM      8  H5  UNL d   1      -0.825   3.586  -0.515  0.00  0.00     0.418 HD
ENDBRANCH   4   7
TORSDOF 1
ENDMDL
