MODEL 1
REMARK minimizedAffinity -2.37821984
REMARK minimizedRMSD -1
REMARK  1 active torsions:
REMARK  status: ('A' for Active; 'I' for Inactive)
REMARK    1  A    between atoms: C3_4  and  O_7 
ROOT
ATOM      1  C   UNL d   1      -0.899   1.242   0.484  0.00  0.00    -0.033 A 
ATOM      2  C1  UNL d   1      -0.149   2.391   0.741  0.00  0.00     0.039 A 
ATOM      3  C2  UNL d   1       1.238   2.307   0.874  0.00  0.00    -0.080 A 
ATOM      4  C3  UNL d   1       1.863   1.069   0.748  0.00  0.00     0.150 A 
ATOM      5  C4  UNL d   1       1.122  -0.080   0.489  0.00  0.00    -0.007 A 
ATOM      6  C5  UNL d   1      -0.263   0.006   0.357  0.00  0.00     0.039 A 
ENDROOT
BRANCH   4   7
ATOM      7  O   UNL d   1       3.213   0.935   0.875  0.00  0.00    -0.526 OA
ATOM      8  H5  UNL d   1       3.590   1.807   1.081  0.00  0.00     0.418 HD
ENDBRANCH   4   7
TORSDOF 1
ENDMDL
