MODEL 1
REMARK minimizedAffinity -5.67036438
REMARK minimizedRMSD -1
REMARK  1 active torsions:
REMARK  status: ('A' for Active; 'I' for Inactive)
REMARK    1  A    between atoms: C3_4  and  O_7 
ROOT
ATOM      1  C   UNL d   1       0.412   2.983   0.022  0.00  0.00    -0.033 A 
ATOM      2  C1  UNL d   1       1.683   3.216   0.551  0.00  0.00     0.039 A 
ATOM      3  C2  UNL d   1       2.503   2.141   0.900  0.00  0.00    -0.080 A 
ATOM      4  C3  UNL d   1       2.042   0.841   0.715  0.00  0.00     0.150 A 
ATOM      5  C4  UNL d   1       0.778   0.602   0.185  0.00  0.00    -0.007 A 
ATOM      6  C5  UNL d   1      -0.040   1.676  -0.162  0.00  0.00     0.039 A 
ENDROOT
BRANCH   4   7
ATOM      7  O   UNL d   1       2.804  -0.240   1.045  0.00  0.00    -0.526 OA
ATOM      8  H5  UNL d   1       3.640   0.078   1.426  0.00  0.00     0.418 HD
ENDBRANCH   4   7
TORSDOF 1
ENDMDL
