MODEL 1
REMARK minimizedAffinity -5.06748104
REMARK minimizedRMSD -1
REMARK  1 active torsions:
REMARK  status: ('A' for Active; 'I' for Inactive)
REMARK    1  A    between atoms: C3_4  and  O_7 
ROOT
ATOM      1  C   UNL d   1       2.627   1.422   0.831  0.00  0.00    -0.033 A 
ATOM      2  C1  UNL d   1       1.709   0.390   0.624  0.00  0.00     0.039 A 
ATOM      3  C2  UNL d   1       0.371   0.686   0.358  0.00  0.00    -0.080 A 
ATOM      4  C3  UNL d   1      -0.036   2.016   0.300  0.00  0.00     0.150 A 
ATOM      5  C4  UNL d   1       0.873   3.049   0.501  0.00  0.00    -0.007 A 
ATOM      6  C5  UNL d   1       2.209   2.752   0.768  0.00  0.00     0.039 A 
ENDROOT
BRANCH   4   7
ATOM      7  O   UNL d   1      -1.333   2.355   0.048  0.00  0.00    -0.526 OA
ATOM      8  H5  UNL d   1      -1.852   1.538  -0.041  0.00  0.00     0.418 HD
ENDBRANCH   4   7
TORSDOF 1
ENDMDL
