MODEL 1
REMARK minimizedAffinity -5.28628826
REMARK minimizedRMSD -1
REMARK  1 active torsions:
REMARK  status: ('A' for Active; 'I' for Inactive)
REMARK    1  A    between atoms: C3_4  and  O_7 
ROOT
ATOM      1  C   UNL d   1       0.809  -0.400  -0.031  0.00  0.00    -0.033 A 
ATOM      2  C1  UNL d   1      -0.544  -0.120   0.167  0.00  0.00     0.039 A 
ATOM      3  C2  UNL d   1      -0.987   1.204   0.202  0.00  0.00    -0.080 A 
ATOM      4  C3  UNL d   1      -0.067   2.236   0.037  0.00  0.00     0.150 A 
ATOM      5  C4  UNL d   1       1.282   1.964  -0.165  0.00  0.00    -0.007 A 
ATOM      6  C5  UNL d   1       1.722   0.641  -0.198  0.00  0.00     0.039 A 
ENDROOT
BRANCH   4   7
ATOM      7  O   UNL d   1      -0.451   3.544   0.068  0.00  0.00    -0.526 OA
ATOM      8  H5  UNL d   1      -1.406   3.580   0.243  0.00  0.00     0.418 HD
ENDBRANCH   4   7
TORSDOF 1
ENDMDL
