MODEL 1
REMARK minimizedAffinity -3.91692472
REMARK minimizedRMSD -1
REMARK  1 active torsions:
REMARK  status: ('A' for Active; 'I' for Inactive)
REMARK    1  A    between atoms: C3_4  and  O_7 
ROOT
ATOM      1  C   UNL d   1       0.206   3.231   0.729  0.00  0.00    -0.033 A 
ATOM      2  C1  UNL d   1      -0.924   2.580   1.226  0.00  0.00     0.039 A 
ATOM      3  C2  UNL d   1      -1.122   1.223   0.963  0.00  0.00    -0.080 A 
ATOM      4  C3  UNL d   1      -0.184   0.530   0.203  0.00  0.00     0.150 A 
ATOM      5  C4  UNL d   1       0.946   1.172  -0.292  0.00  0.00    -0.007 A 
ATOM      6  C5  UNL d   1       1.142   2.527  -0.029  0.00  0.00     0.039 A 
ENDROOT
BRANCH   4   7
ATOM      7  O   UNL d   1      -0.336  -0.794  -0.084  0.00  0.00    -0.526 OA
ATOM      8  H5  UNL d   1      -1.176  -1.097   0.300  0.00  0.00     0.418 HD
ENDBRANCH   4   7
TORSDOF 1
ENDMDL
