MODEL 1
REMARK minimizedAffinity -5.43107462
REMARK minimizedRMSD -1
REMARK  1 active torsions:
REMARK  status: ('A' for Active; 'I' for Inactive)
REMARK    1  A    between atoms: C3_4  and  O_7 
ROOT
ATOM      1  C   UNL d   1      -0.075   3.149   0.094  0.00  0.00    -0.033 A 
ATOM      2  C1  UNL d   1       1.113   2.472  -0.188  0.00  0.00     0.039 A 
ATOM      3  C2  UNL d   1       1.137   1.076  -0.199  0.00  0.00    -0.080 A 
ATOM      4  C3  UNL d   1      -0.032   0.370   0.071  0.00  0.00     0.150 A 
ATOM      5  C4  UNL d   1      -1.220   1.039   0.349  0.00  0.00    -0.007 A 
ATOM      6  C5  UNL d   1      -1.242   2.433   0.360  0.00  0.00     0.039 A 
ENDROOT
BRANCH   4   7
ATOM      7  O   UNL d   1      -0.057  -0.993   0.077  0.00  0.00    -0.526 OA
ATOM      8  H5  UNL d   1       0.841  -1.317  -0.103  0.00  0.00     0.418 HD
ENDBRANCH   4   7
TORSDOF 1
ENDMDL
