MODEL 1
REMARK minimizedAffinity -4.18475199
REMARK minimizedRMSD -1
REMARK  1 active torsions:
REMARK  status: ('A' for Active; 'I' for Inactive)
REMARK    1  A    between atoms: C3_4  and  O_7 
ROOT
ATOM      1  C   UNL d   1      -0.812  -0.111   0.513  0.00  0.00    -0.033 A 
ATOM      2  C1  UNL d   1       0.305   0.296  -0.218  0.00  0.00     0.039 A 
ATOM      3  C2  UNL d   1       0.577   1.655  -0.384  0.00  0.00    -0.080 A 
ATOM      4  C3  UNL d   1      -0.276   2.597   0.186  0.00  0.00     0.150 A 
ATOM      5  C4  UNL d   1      -1.389   2.199   0.919  0.00  0.00    -0.007 A 
ATOM      6  C5  UNL d   1      -1.659   0.841   1.083  0.00  0.00     0.039 A 
ENDROOT
BRANCH   4   7
ATOM      7  O   UNL d   1      -0.054   3.935   0.047  0.00  0.00    -0.526 OA
ATOM      8  H5  UNL d   1       0.734   4.060  -0.508  0.00  0.00     0.418 HD
ENDBRANCH   4   7
TORSDOF 1
ENDMDL
