MODEL 1
REMARK minimizedAffinity -4.07227087
REMARK minimizedRMSD -1
REMARK  1 active torsions:
REMARK  status: ('A' for Active; 'I' for Inactive)
REMARK    1  A    between atoms: C3_4  and  O_7 
ROOT
ATOM      1  C   UNL d   1       0.505   3.162  -0.081  0.00  0.00    -0.033 A 
ATOM      2  C1  UNL d   1       1.585   2.349  -0.433  0.00  0.00     0.039 A 
ATOM      3  C2  UNL d   1       1.523   0.971  -0.217  0.00  0.00    -0.080 A 
ATOM      4  C3  UNL d   1       0.376   0.419   0.348  0.00  0.00     0.150 A 
ATOM      5  C4  UNL d   1      -0.704   1.222   0.697  0.00  0.00    -0.007 A 
ATOM      6  C5  UNL d   1      -0.640   2.598   0.482  0.00  0.00     0.039 A 
ENDROOT
BRANCH   4   7
ATOM      7  O   UNL d   1       0.271  -0.920   0.581  0.00  0.00    -0.526 OA
ATOM      8  H5  UNL d   1       1.104  -1.345   0.317  0.00  0.00     0.418 HD
ENDBRANCH   4   7
TORSDOF 1
ENDMDL
