MODEL 1
REMARK minimizedAffinity -2.99727726
REMARK minimizedRMSD -1
REMARK  1 active torsions:
REMARK  status: ('A' for Active; 'I' for Inactive)
REMARK    1  A    between atoms: C3_4  and  O_7 
ROOT
ATOM      1  C   UNL d   1       1.400   2.580  -0.506  0.00  0.00    -0.033 A 
ATOM      2  C1  UNL d   1       0.419   3.089   0.347  0.00  0.00     0.039 A 
ATOM      3  C2  UNL d   1      -0.605   2.259   0.809  0.00  0.00    -0.080 A 
ATOM      4  C3  UNL d   1      -0.635   0.925   0.412  0.00  0.00     0.150 A 
ATOM      5  C4  UNL d   1       0.342   0.411  -0.434  0.00  0.00    -0.007 A 
ATOM      6  C5  UNL d   1       1.363   1.241  -0.895  0.00  0.00     0.039 A 
ENDROOT
BRANCH   4   7
ATOM      7  O   UNL d   1      -1.617   0.078   0.834  0.00  0.00    -0.526 OA
ATOM      8  H5  UNL d   1      -2.238   0.579   1.389  0.00  0.00     0.418 HD
ENDBRANCH   4   7
TORSDOF 1
ENDMDL
