MODEL 1
REMARK minimizedAffinity -4.70169067
REMARK minimizedRMSD -1
REMARK  1 active torsions:
REMARK  status: ('A' for Active; 'I' for Inactive)
REMARK    1  A    between atoms: C3_4  and  O_7 
ROOT
ATOM      1  C   UNL d   1      -0.225   1.581  -0.151  0.00  0.00    -0.033 A 
ATOM      2  C1  UNL d   1      -0.478   0.354   0.464  0.00  0.00     0.039 A 
ATOM      3  C2  UNL d   1       0.582  -0.446   0.893  0.00  0.00    -0.080 A 
ATOM      4  C3  UNL d   1       1.890  -0.007   0.704  0.00  0.00     0.150 A 
ATOM      5  C4  UNL d   1       2.149   1.217   0.095  0.00  0.00    -0.007 A 
ATOM      6  C5  UNL d   1       1.089   2.014  -0.334  0.00  0.00     0.039 A 
ENDROOT
BRANCH   4   7
ATOM      7  O   UNL d   1       2.958  -0.755   1.102  0.00  0.00    -0.526 OA
ATOM      8  H5  UNL d   1       2.627  -1.587   1.479  0.00  0.00     0.418 HD
ENDBRANCH   4   7
TORSDOF 1
ENDMDL
