MODEL 1
REMARK minimizedAffinity 16.0943584
REMARK minimizedRMSD -1
REMARK  2 active torsions:
REMARK  status: ('A' for Active; 'I' for Inactive)
REMARK    1  A    between atoms: C1_2  and  C2_3 
REMARK    2  A    between atoms: C2_3  and  C3_4 
ROOT
ATOM      1  C3  UNL d   1       0.398  -2.581   3.890  0.00  0.00    -0.075 A 
ATOM      2  C4  UNL d   1       1.222  -2.927   4.970  0.00  0.00     0.002 A 
ATOM      3  C5  UNL d   1       0.739  -3.736   6.000  0.00  0.00     0.002 A 
ATOM      4  C6  UNL d   1      -0.574  -4.199   5.967  0.00  0.00    -0.004 A 
ATOM      5  C7  UNL d   1      -1.407  -3.848   4.907  0.00  0.00     0.002 A 
ATOM      6  C8  UNL d   1      -0.925  -3.043   3.874  0.00  0.00     0.002 A 
ENDROOT
BRANCH   1   7
ATOM      7  C2  UNL d   1       0.924  -1.731   2.758  0.00  0.00     0.056 C 
BRANCH   7   8
ATOM      8  C1  UNL d   1       0.928  -0.228   3.057  0.00  0.00     0.007 C 
ATOM      9  C   UNL d   1      -0.308   0.237   3.815  0.00  0.00     0.009 C 
ENDBRANCH   7   8
ENDBRANCH   1   7
TORSDOF 2
ENDMDL
