MODEL 1
REMARK minimizedAffinity 14.9317169
REMARK minimizedRMSD -1
REMARK  2 active torsions:
REMARK  status: ('A' for Active; 'I' for Inactive)
REMARK    1  A    between atoms: C1_2  and  C2_3 
REMARK    2  A    between atoms: C2_3  and  C3_4 
ROOT
ATOM      1  C3  UNL d   1       3.188   4.403   2.168  0.00  0.00    -0.075 A 
ATOM      2  C4  UNL d   1       4.131   5.351   2.589  0.00  0.00     0.002 A 
ATOM      3  C5  UNL d   1       4.946   6.000   1.661  0.00  0.00     0.002 A 
ATOM      4  C6  UNL d   1       4.837   5.702   0.305  0.00  0.00    -0.004 A 
ATOM      5  C7  UNL d   1       3.915   4.749  -0.123  0.00  0.00     0.002 A 
ATOM      6  C8  UNL d   1       3.095   4.101   0.803  0.00  0.00     0.002 A 
ENDROOT
BRANCH   1   7
ATOM      7  C2  UNL d   1       2.282   3.719   3.164  0.00  0.00     0.056 C 
BRANCH   7   8
ATOM      8  C1  UNL d   1       2.300   2.189   3.076  0.00  0.00     0.007 C 
ATOM      9  C   UNL d   1       1.198   1.528   3.893  0.00  0.00     0.009 C 
ENDBRANCH   7   8
ENDBRANCH   1   7
TORSDOF 2
ENDMDL
