MODEL 1
REMARK minimizedAffinity 15.4619312
REMARK minimizedRMSD -1
REMARK  2 active torsions:
REMARK  status: ('A' for Active; 'I' for Inactive)
REMARK    1  A    between atoms: C1_2  and  C2_3 
REMARK    2  A    between atoms: C2_3  and  C3_4 
ROOT
ATOM      1  C3  UNL d   1       0.465  -2.995   4.340  0.00  0.00    -0.075 A 
ATOM      2  C4  UNL d   1       1.521  -3.392   5.172  0.00  0.00     0.002 A 
ATOM      3  C5  UNL d   1       1.394  -4.514   5.992  0.00  0.00     0.002 A 
ATOM      4  C6  UNL d   1       0.208  -5.244   5.999  0.00  0.00    -0.004 A 
ATOM      5  C7  UNL d   1      -0.854  -4.849   5.189  0.00  0.00     0.002 A 
ATOM      6  C8  UNL d   1      -0.728  -3.730   4.364  0.00  0.00     0.002 A 
ENDROOT
BRANCH   1   7
ATOM      7  C2  UNL d   1       0.607  -1.799   3.429  0.00  0.00     0.056 C 
BRANCH   7   8
ATOM      8  C1  UNL d   1      -0.003  -0.511   3.990  0.00  0.00     0.007 C 
ATOM      9  C   UNL d   1       0.377   0.730   3.193  0.00  0.00     0.009 C 
ENDBRANCH   7   8
ENDBRANCH   1   7
TORSDOF 2
ENDMDL
