MODEL 1
REMARK minimizedAffinity 3.81073356
REMARK minimizedRMSD -1
REMARK  2 active torsions:
REMARK  status: ('A' for Active; 'I' for Inactive)
REMARK    1  A    between atoms: C1_2  and  C2_3 
REMARK    2  A    between atoms: C2_3  and  C3_4 
ROOT
ATOM      1  C3  UNL d   1       2.659  -0.524   0.567  0.00  0.00    -0.075 A 
ATOM      2  C4  UNL d   1       2.249  -0.739  -0.757  0.00  0.00     0.002 A 
ATOM      3  C5  UNL d   1       1.525  -1.881  -1.098  0.00  0.00     0.002 A 
ATOM      4  C6  UNL d   1       1.211  -2.827  -0.125  0.00  0.00    -0.004 A 
ATOM      5  C7  UNL d   1       1.628  -2.632   1.190  0.00  0.00     0.002 A 
ATOM      6  C8  UNL d   1       2.349  -1.488   1.535  0.00  0.00     0.002 A 
ENDROOT
BRANCH   1   7
ATOM      7  C2  UNL d   1       3.418   0.725   0.948  0.00  0.00     0.056 C 
BRANCH   7   8
ATOM      8  C1  UNL d   1       2.566   1.778   1.663  0.00  0.00     0.007 C 
ATOM      9  C   UNL d   1       1.630   2.531   0.725  0.00  0.00     0.009 C 
ENDBRANCH   7   8
ENDBRANCH   1   7
TORSDOF 2
ENDMDL
