MODEL 1
REMARK minimizedAffinity -1.64014113
REMARK minimizedRMSD -1
REMARK  2 active torsions:
REMARK  status: ('A' for Active; 'I' for Inactive)
REMARK    1  A    between atoms: C1_2  and  C2_3 
REMARK    2  A    between atoms: C2_3  and  C3_4 
ROOT
ATOM      1  C3  UNL d   1       3.215  -0.398  -0.070  0.00  0.00    -0.075 A 
ATOM      2  C4  UNL d   1       4.317  -0.229   0.780  0.00  0.00     0.002 A 
ATOM      3  C5  UNL d   1       5.194   0.841   0.600  0.00  0.00     0.002 A 
ATOM      4  C6  UNL d   1       4.986   1.748  -0.437  0.00  0.00    -0.004 A 
ATOM      5  C7  UNL d   1       3.904   1.581  -1.298  0.00  0.00     0.002 A 
ATOM      6  C8  UNL d   1       3.022   0.514  -1.117  0.00  0.00     0.002 A 
ENDROOT
BRANCH   1   7
ATOM      7  C2  UNL d   1       2.246  -1.537   0.138  0.00  0.00     0.056 C 
BRANCH   7   8
ATOM      8  C1  UNL d   1       1.731  -2.163  -1.162  0.00  0.00     0.007 C 
ATOM      9  C   UNL d   1       0.285  -1.798  -1.473  0.00  0.00     0.009 C 
ENDBRANCH   7   8
ENDBRANCH   1   7
TORSDOF 2
ENDMDL
