MODEL 1
REMARK minimizedAffinity 4.2959156
REMARK minimizedRMSD -1
REMARK  2 active torsions:
REMARK  status: ('A' for Active; 'I' for Inactive)
REMARK    1  A    between atoms: C1_2  and  C2_3 
REMARK    2  A    between atoms: C2_3  and  C3_4 
ROOT
ATOM      1  C3  UNL d   1      -5.214   4.916   3.458  0.00  0.00    -0.075 A 
ATOM      2  C4  UNL d   1      -3.895   5.393   3.479  0.00  0.00     0.002 A 
ATOM      3  C5  UNL d   1      -3.353   5.926   4.649  0.00  0.00     0.002 A 
ATOM      4  C6  UNL d   1      -4.124   5.998   5.807  0.00  0.00    -0.004 A 
ATOM      5  C7  UNL d   1      -5.441   5.543   5.793  0.00  0.00     0.002 A 
ATOM      6  C8  UNL d   1      -5.984   5.005   4.625  0.00  0.00     0.002 A 
ENDROOT
BRANCH   1   7
ATOM      7  C2  UNL d   1      -5.796   4.311   2.203  0.00  0.00     0.056 C 
BRANCH   7   8
ATOM      8  C1  UNL d   1      -4.865   3.320   1.498  0.00  0.00     0.007 C 
ATOM      9  C   UNL d   1      -5.228   3.090   0.037  0.00  0.00     0.009 C 
ENDBRANCH   7   8
ENDBRANCH   1   7
TORSDOF 2
ENDMDL
