MODEL 1
REMARK minimizedAffinity 0.844142318
REMARK minimizedRMSD -1
REMARK  2 active torsions:
REMARK  status: ('A' for Active; 'I' for Inactive)
REMARK    1  A    between atoms: C1_2  and  C2_3 
REMARK    2  A    between atoms: C2_3  and  C3_4 
ROOT
ATOM      1  C3  UNL d   1       1.853  -1.244   0.270  0.00  0.00    -0.075 A 
ATOM      2  C4  UNL d   1       2.097   0.133   0.172  0.00  0.00     0.002 A 
ATOM      3  C5  UNL d   1       3.053   0.621  -0.720  0.00  0.00     0.002 A 
ATOM      4  C6  UNL d   1       3.783  -0.261  -1.514  0.00  0.00    -0.004 A 
ATOM      5  C7  UNL d   1       3.560  -1.632  -1.412  0.00  0.00     0.002 A 
ATOM      6  C8  UNL d   1       2.601  -2.123  -0.525  0.00  0.00     0.002 A 
ENDROOT
BRANCH   1   7
ATOM      7  C2  UNL d   1       0.798  -1.776   1.212  0.00  0.00     0.056 C 
BRANCH   7   8
ATOM      8  C1  UNL d   1       0.878  -1.198   2.629  0.00  0.00     0.007 C 
ATOM      9  C   UNL d   1      -0.367  -1.473   3.461  0.00  0.00     0.009 C 
ENDBRANCH   7   8
ENDBRANCH   1   7
TORSDOF 2
ENDMDL
