MODEL 1
REMARK minimizedAffinity 8.85591602
REMARK minimizedRMSD -1
REMARK  1 active torsions:
REMARK  status: ('A' for Active; 'I' for Inactive)
REMARK    1  A    between atoms: N_2  and  C1_3 
ROOT
ATOM      1  C1  UNL d   1       2.127  -2.357   0.062  0.00  0.00     0.143 A 
ATOM      2  C2  UNL d   1       3.406  -1.814  -0.102  0.00  0.00    -0.057 A 
ATOM      3  C3  UNL d   1       4.555  -2.561   0.186  0.00  0.00     0.033 A 
ATOM      4  C4  UNL d   1       4.443  -3.860   0.671  0.00  0.00    -0.042 A 
ATOM      5  C5  UNL d   1       3.182  -4.412   0.864  0.00  0.00     0.033 A 
ATOM      6  C6  UNL d   1       2.039  -3.663   0.569  0.00  0.00    -0.057 A 
ENDROOT
BRANCH   1   7
ATOM      7  N   UNL d   1       0.946  -1.632  -0.113  0.00  0.00    -0.732 N 
ATOM      8  C   UNL d   1       0.049  -1.405   1.000  0.00  0.00     0.284 C 
ATOM      9  H3  UNL d   1       1.073  -0.822  -0.716  0.00  0.00     0.395 HD
ENDBRANCH   1   7
TORSDOF 1
ENDMDL
