MODEL 1
REMARK minimizedAffinity 2.82033396
REMARK minimizedRMSD -1
REMARK  1 active torsions:
REMARK  status: ('A' for Active; 'I' for Inactive)
REMARK    1  A    between atoms: N_2  and  C1_3 
ROOT
ATOM      1  C1  UNL d   1       3.213   3.956  -5.997  0.00  0.00     0.143 A 
ATOM      2  C2  UNL d   1       4.514   3.444  -5.984  0.00  0.00    -0.057 A 
ATOM      3  C3  UNL d   1       4.752   2.064  -5.997  0.00  0.00     0.033 A 
ATOM      4  C4  UNL d   1       3.687   1.169  -5.994  0.00  0.00    -0.042 A 
ATOM      5  C5  UNL d   1       2.385   1.656  -5.981  0.00  0.00     0.033 A 
ATOM      6  C6  UNL d   1       2.154   3.035  -5.975  0.00  0.00    -0.057 A 
ENDROOT
BRANCH   1   7
ATOM      7  N   UNL d   1       2.911   5.316  -5.885  0.00  0.00    -0.732 N 
ATOM      8  C   UNL d   1       1.543   5.777  -5.982  0.00  0.00     0.284 C 
ATOM      9  H3  UNL d   1       3.454   5.776  -5.158  0.00  0.00     0.395 HD
ENDBRANCH   1   7
TORSDOF 1
ENDMDL
