MODEL 1
REMARK minimizedAffinity 10.0079966
REMARK minimizedRMSD -1
REMARK  1 active torsions:
REMARK  status: ('A' for Active; 'I' for Inactive)
REMARK    1  A    between atoms: N_2  and  C1_3 
ROOT
ATOM      1  C1  UNL d   1       2.962   2.875  -5.842  0.00  0.00     0.143 A 
ATOM      2  C2  UNL d   1       4.260   3.396  -5.889  0.00  0.00    -0.057 A 
ATOM      3  C3  UNL d   1       4.486   4.777  -5.952  0.00  0.00     0.033 A 
ATOM      4  C4  UNL d   1       3.414   5.662  -5.998  0.00  0.00    -0.042 A 
ATOM      5  C5  UNL d   1       2.116   5.165  -5.978  0.00  0.00     0.033 A 
ATOM      6  C6  UNL d   1       1.896   3.786  -5.908  0.00  0.00    -0.057 A 
ENDROOT
BRANCH   1   7
ATOM      7  N   UNL d   1       2.671   1.510  -5.878  0.00  0.00    -0.732 N 
ATOM      8  C   UNL d   1       1.302   1.045  -5.793  0.00  0.00     0.284 C 
ATOM      9  H3  UNL d   1       3.238   1.009  -6.558  0.00  0.00     0.395 HD
ENDBRANCH   1   7
TORSDOF 1
ENDMDL
