MODEL 1
REMARK minimizedAffinity 6.29471159
REMARK minimizedRMSD -1
REMARK  1 active torsions:
REMARK  status: ('A' for Active; 'I' for Inactive)
REMARK    1  A    between atoms: N_2  and  C1_3 
ROOT
ATOM      1  C1  UNL d   1       2.224   5.420   4.944  0.00  0.00     0.143 A 
ATOM      2  C2  UNL d   1       1.005   5.994   4.568  0.00  0.00    -0.057 A 
ATOM      3  C3  UNL d   1       0.297   5.529   3.453  0.00  0.00     0.033 A 
ATOM      4  C4  UNL d   1       0.812   4.499   2.674  0.00  0.00    -0.042 A 
ATOM      5  C5  UNL d   1       2.035   3.930   3.014  0.00  0.00     0.033 A 
ATOM      6  C6  UNL d   1       2.733   4.393   4.133  0.00  0.00    -0.057 A 
ENDROOT
BRANCH   1   7
ATOM      7  N   UNL d   1       3.023   5.902   5.984  0.00  0.00    -0.732 N 
ATOM      8  C   UNL d   1       4.458   5.999   5.827  0.00  0.00     0.284 C 
ATOM      9  H3  UNL d   1       2.602   6.696   6.461  0.00  0.00     0.395 HD
ENDBRANCH   1   7
TORSDOF 1
ENDMDL
