MODEL 1
REMARK minimizedAffinity -0.795768917
REMARK minimizedRMSD -1
REMARK  1 active torsions:
REMARK  status: ('A' for Active; 'I' for Inactive)
REMARK    1  A    between atoms: N_2  and  C1_3 
ROOT
ATOM      1  C1  UNL d   1       2.546   2.865  -5.921  0.00  0.00     0.143 A 
ATOM      2  C2  UNL d   1       3.925   3.100  -5.946  0.00  0.00    -0.057 A 
ATOM      3  C3  UNL d   1       4.440   4.401  -5.969  0.00  0.00     0.033 A 
ATOM      4  C4  UNL d   1       3.581   5.495  -5.997  0.00  0.00    -0.042 A 
ATOM      5  C5  UNL d   1       2.206   5.285  -5.998  0.00  0.00     0.033 A 
ATOM      6  C6  UNL d   1       1.698   3.983  -5.968  0.00  0.00    -0.057 A 
ENDROOT
BRANCH   1   7
ATOM      7  N   UNL d   1       1.972   1.594  -5.997  0.00  0.00    -0.732 N 
ATOM      8  C   UNL d   1       0.544   1.419  -5.838  0.00  0.00     0.284 C 
ATOM      9  H3  UNL d   1       2.380   1.027  -6.737  0.00  0.00     0.395 HD
ENDBRANCH   1   7
TORSDOF 1
ENDMDL
