MODEL 1
REMARK minimizedAffinity -4.93153381
REMARK minimizedRMSD -1
REMARK  1 active torsions:
REMARK  status: ('A' for Active; 'I' for Inactive)
REMARK    1  A    between atoms: C3_4  and  O_7 
ROOT
ATOM      1  C   UNL d   1      -1.407   1.974  -1.118  0.00  0.00    -0.033 A 
ATOM      2  C1  UNL d   1      -2.090   2.400   0.023  0.00  0.00     0.039 A 
ATOM      3  C2  UNL d   1      -1.931   1.716   1.230  0.00  0.00    -0.080 A 
ATOM      4  C3  UNL d   1      -1.086   0.611   1.282  0.00  0.00     0.150 A 
ATOM      5  C4  UNL d   1      -0.399   0.184   0.151  0.00  0.00    -0.007 A 
ATOM      6  C5  UNL d   1      -0.560   0.867  -1.054  0.00  0.00     0.039 A 
ENDROOT
BRANCH   4   7
ATOM      7  O   UNL d   1      -0.902  -0.091   2.437  0.00  0.00    -0.526 OA
ATOM      8  H5  UNL d   1      -1.461   0.301   3.128  0.00  0.00     0.418 HD
ENDBRANCH   4   7
TORSDOF 1
ENDMDL
