MODEL 1
REMARK minimizedAffinity -4.41853857
REMARK minimizedRMSD -1
REMARK  1 active torsions:
REMARK  status: ('A' for Active; 'I' for Inactive)
REMARK    1  A    between atoms: C3_4  and  O_7 
ROOT
ATOM      1  C   UNL d   1       0.751  -2.233  -2.287  0.00  0.00    -0.033 A 
ATOM      2  C1  UNL d   1      -0.100  -3.169  -2.878  0.00  0.00     0.039 A 
ATOM      3  C2  UNL d   1      -0.249  -4.436  -2.310  0.00  0.00    -0.080 A 
ATOM      4  C3  UNL d   1       0.457  -4.753  -1.153  0.00  0.00     0.150 A 
ATOM      5  C4  UNL d   1       1.304  -3.824  -0.557  0.00  0.00    -0.007 A 
ATOM      6  C5  UNL d   1       1.452  -2.560  -1.126  0.00  0.00     0.039 A 
ENDROOT
BRANCH   4   7
ATOM      7  O   UNL d   1       0.348  -5.978  -0.565  0.00  0.00    -0.526 OA
ATOM      8  H5  UNL d   1      -0.249  -6.525  -1.102  0.00  0.00     0.418 HD
ENDBRANCH   4   7
TORSDOF 1
ENDMDL
