MODEL 1
REMARK minimizedAffinity -5.27476692
REMARK minimizedRMSD -1
REMARK  1 active torsions:
REMARK  status: ('A' for Active; 'I' for Inactive)
REMARK    1  A    between atoms: C3_4  and  O_7 
ROOT
ATOM      1  C   UNL d   1       0.223  -0.092  -0.051  0.00  0.00    -0.033 A 
ATOM      2  C1  UNL d   1      -0.106  -0.475   1.251  0.00  0.00     0.039 A 
ATOM      3  C2  UNL d   1      -1.031   0.270   1.987  0.00  0.00    -0.080 A 
ATOM      4  C3  UNL d   1      -1.618   1.392   1.409  0.00  0.00     0.150 A 
ATOM      5  C4  UNL d   1      -1.298   1.776   0.112  0.00  0.00    -0.007 A 
ATOM      6  C5  UNL d   1      -0.374   1.032  -0.621  0.00  0.00     0.039 A 
ENDROOT
BRANCH   4   7
ATOM      7  O   UNL d   1      -2.522   2.153   2.090  0.00  0.00    -0.526 OA
ATOM      8  H5  UNL d   1      -2.624   1.784   2.983  0.00  0.00     0.418 HD
ENDBRANCH   4   7
TORSDOF 1
ENDMDL
