MODEL 1
REMARK minimizedAffinity 0.764777184
REMARK minimizedRMSD -1
REMARK  1 active torsions:
REMARK  status: ('A' for Active; 'I' for Inactive)
REMARK    1  A    between atoms: C3_4  and  O_7 
ROOT
ATOM      1  C   UNL d   1       5.129  -1.211  -5.175  0.00  0.00    -0.033 A 
ATOM      2  C1  UNL d   1       4.086  -2.139  -5.196  0.00  0.00     0.039 A 
ATOM      3  C2  UNL d   1       3.915  -3.025  -4.130  0.00  0.00    -0.080 A 
ATOM      4  C3  UNL d   1       4.792  -2.971  -3.050  0.00  0.00     0.150 A 
ATOM      5  C4  UNL d   1       5.830  -2.046  -3.020  0.00  0.00    -0.007 A 
ATOM      6  C5  UNL d   1       6.000  -1.163  -4.086  0.00  0.00     0.039 A 
ENDROOT
BRANCH   4   7
ATOM      7  O   UNL d   1       4.667  -3.817  -1.988  0.00  0.00    -0.526 OA
ATOM      8  H5  UNL d   1       3.924  -4.419  -2.160  0.00  0.00     0.418 HD
ENDBRANCH   4   7
TORSDOF 1
ENDMDL
