MODEL 1
REMARK minimizedAffinity -1.47301722
REMARK minimizedRMSD -1
REMARK  1 active torsions:
REMARK  status: ('A' for Active; 'I' for Inactive)
REMARK    1  A    between atoms: C3_4  and  O_7 
ROOT
ATOM      1  C   UNL d   1      -0.393  -0.215   2.695  0.00  0.00    -0.033 A 
ATOM      2  C1  UNL d   1      -0.865   1.079   2.468  0.00  0.00     0.039 A 
ATOM      3  C2  UNL d   1      -0.420   1.802   1.359  0.00  0.00    -0.080 A 
ATOM      4  C3  UNL d   1       0.495   1.219   0.486  0.00  0.00     0.150 A 
ATOM      5  C4  UNL d   1       0.966  -0.071   0.705  0.00  0.00    -0.007 A 
ATOM      6  C5  UNL d   1       0.522  -0.791   1.813  0.00  0.00     0.039 A 
ENDROOT
BRANCH   4   7
ATOM      7  O   UNL d   1       0.962   1.887  -0.606  0.00  0.00    -0.526 OA
ATOM      8  H5  UNL d   1       0.571   2.777  -0.613  0.00  0.00     0.418 HD
ENDBRANCH   4   7
TORSDOF 1
ENDMDL
