MODEL 1
REMARK minimizedAffinity -3.21393538
REMARK minimizedRMSD -1
REMARK  1 active torsions:
REMARK  status: ('A' for Active; 'I' for Inactive)
REMARK    1  A    between atoms: C3_4  and  O_7 
ROOT
ATOM      1  C   UNL d   1      -0.044  -3.189  -2.738  0.00  0.00    -0.033 A 
ATOM      2  C1  UNL d   1       0.398  -3.172  -1.414  0.00  0.00     0.039 A 
ATOM      3  C2  UNL d   1       0.572  -1.957  -0.749  0.00  0.00    -0.080 A 
ATOM      4  C3  UNL d   1       0.300  -0.767  -1.418  0.00  0.00     0.150 A 
ATOM      5  C4  UNL d   1      -0.144  -0.776  -2.736  0.00  0.00    -0.007 A 
ATOM      6  C5  UNL d   1      -0.316  -1.990  -3.399  0.00  0.00     0.039 A 
ENDROOT
BRANCH   4   7
ATOM      7  O   UNL d   1       0.460   0.444  -0.812  0.00  0.00    -0.526 OA
ATOM      8  H5  UNL d   1       0.799   0.296   0.086  0.00  0.00     0.418 HD
ENDBRANCH   4   7
TORSDOF 1
ENDMDL
