MODEL 1
REMARK minimizedAffinity -5.4351759
REMARK minimizedRMSD -1
REMARK  1 active torsions:
REMARK  status: ('A' for Active; 'I' for Inactive)
REMARK    1  A    between atoms: C3_4  and  O_7 
ROOT
ATOM      1  C   UNL d   1      -0.273   0.530   0.206  0.00  0.00    -0.033 A 
ATOM      2  C1  UNL d   1      -1.098   1.356  -0.559  0.00  0.00     0.039 A 
ATOM      3  C2  UNL d   1      -1.992   2.227   0.067  0.00  0.00    -0.080 A 
ATOM      4  C3  UNL d   1      -2.050   2.263   1.457  0.00  0.00     0.150 A 
ATOM      5  C4  UNL d   1      -1.228   1.446   2.226  0.00  0.00    -0.007 A 
ATOM      6  C5  UNL d   1      -0.337   0.576   1.599  0.00  0.00     0.039 A 
ENDROOT
BRANCH   4   7
ATOM      7  O   UNL d   1      -2.909   3.093   2.114  0.00  0.00    -0.526 OA
ATOM      8  H5  UNL d   1      -3.434   3.577   1.454  0.00  0.00     0.418 HD
ENDBRANCH   4   7
TORSDOF 1
ENDMDL
