MODEL 1
REMARK minimizedAffinity -5.17423439
REMARK minimizedRMSD -1
REMARK  1 active torsions:
REMARK  status: ('A' for Active; 'I' for Inactive)
REMARK    1  A    between atoms: C3_4  and  O_7 
ROOT
ATOM      1  C   UNL d   1       0.279   1.825  -0.749  0.00  0.00    -0.033 A 
ATOM      2  C1  UNL d   1      -0.167   0.639  -0.163  0.00  0.00     0.039 A 
ATOM      3  C2  UNL d   1      -1.336   0.633   0.602  0.00  0.00    -0.080 A 
ATOM      4  C3  UNL d   1      -2.048   1.817   0.770  0.00  0.00     0.150 A 
ATOM      5  C4  UNL d   1      -1.611   3.001   0.185  0.00  0.00    -0.007 A 
ATOM      6  C5  UNL d   1      -0.444   3.006  -0.577  0.00  0.00     0.039 A 
ENDROOT
BRANCH   4   7
ATOM      7  O   UNL d   1      -3.192   1.862   1.511  0.00  0.00    -0.526 OA
ATOM      8  H5  UNL d   1      -3.356   0.977   1.877  0.00  0.00     0.418 HD
ENDBRANCH   4   7
TORSDOF 1
ENDMDL
