MODEL 1
REMARK minimizedAffinity -5.38369083
REMARK minimizedRMSD -1
REMARK  1 active torsions:
REMARK  status: ('A' for Active; 'I' for Inactive)
REMARK    1  A    between atoms: C3_4  and  O_7 
ROOT
ATOM      1  C   UNL d   1      -1.066   0.504   1.078  0.00  0.00    -0.033 A 
ATOM      2  C1  UNL d   1       0.036  -0.291   0.758  0.00  0.00     0.039 A 
ATOM      3  C2  UNL d   1       0.907   0.097  -0.262  0.00  0.00    -0.080 A 
ATOM      4  C3  UNL d   1       0.665   1.281  -0.953  0.00  0.00     0.150 A 
ATOM      5  C4  UNL d   1      -0.428   2.080  -0.637  0.00  0.00    -0.007 A 
ATOM      6  C5  UNL d   1      -1.298   1.691   0.381  0.00  0.00     0.039 A 
ENDROOT
BRANCH   4   7
ATOM      7  O   UNL d   1       1.485   1.699  -1.959  0.00  0.00    -0.526 OA
ATOM      8  H5  UNL d   1       2.181   1.033  -2.085  0.00  0.00     0.418 HD
ENDBRANCH   4   7
TORSDOF 1
ENDMDL
