MODEL 1
REMARK minimizedAffinity -4.04844475
REMARK minimizedRMSD -1
REMARK  1 active torsions:
REMARK  status: ('A' for Active; 'I' for Inactive)
REMARK    1  A    between atoms: C3_4  and  O_7 
ROOT
ATOM      1  C   UNL d   1      -1.692   1.487   2.141  0.00  0.00    -0.033 A 
ATOM      2  C1  UNL d   1      -0.834   0.501   2.631  0.00  0.00     0.039 A 
ATOM      3  C2  UNL d   1      -0.056  -0.251   1.749  0.00  0.00    -0.080 A 
ATOM      4  C3  UNL d   1      -0.144  -0.007   0.381  0.00  0.00     0.150 A 
ATOM      5  C4  UNL d   1      -0.994   0.977  -0.114  0.00  0.00    -0.007 A 
ATOM      6  C5  UNL d   1      -1.771   1.726   0.769  0.00  0.00     0.039 A 
ENDROOT
BRANCH   4   7
ATOM      7  O   UNL d   1       0.592  -0.718  -0.519  0.00  0.00    -0.526 OA
ATOM      8  H5  UNL d   1       1.111  -1.382  -0.035  0.00  0.00     0.418 HD
ENDBRANCH   4   7
TORSDOF 1
ENDMDL
