MODEL 1
REMARK minimizedAffinity -4.38466549
REMARK minimizedRMSD -1
REMARK  1 active torsions:
REMARK  status: ('A' for Active; 'I' for Inactive)
REMARK    1  A    between atoms: C3_4  and  O_7 
ROOT
ATOM      1  C   UNL d   1      -1.121   1.479   1.886  0.00  0.00    -0.033 A 
ATOM      2  C1  UNL d   1      -1.342   0.118   2.106  0.00  0.00     0.039 A 
ATOM      3  C2  UNL d   1      -0.803  -0.829   1.233  0.00  0.00    -0.080 A 
ATOM      4  C3  UNL d   1      -0.043  -0.403   0.147  0.00  0.00     0.150 A 
ATOM      5  C4  UNL d   1       0.185   0.951  -0.076  0.00  0.00    -0.007 A 
ATOM      6  C5  UNL d   1      -0.356   1.895   0.796  0.00  0.00     0.039 A 
ENDROOT
BRANCH   4   7
ATOM      7  O   UNL d   1       0.500  -1.290  -0.734  0.00  0.00    -0.526 OA
ATOM      8  H5  UNL d   1       0.236  -2.187  -0.471  0.00  0.00     0.418 HD
ENDBRANCH   4   7
TORSDOF 1
ENDMDL
