MODEL 1
REMARK minimizedAffinity -3.51732874
REMARK minimizedRMSD -1
REMARK  1 active torsions:
REMARK  status: ('A' for Active; 'I' for Inactive)
REMARK    1  A    between atoms: C3_4  and  O_7 
ROOT
ATOM      1  C   UNL d   1       0.002  -3.251  -2.195  0.00  0.00    -0.033 A 
ATOM      2  C1  UNL d   1      -0.630  -2.207  -2.874  0.00  0.00     0.039 A 
ATOM      3  C2  UNL d   1      -0.530  -0.899  -2.396  0.00  0.00    -0.080 A 
ATOM      4  C3  UNL d   1       0.205  -0.648  -1.241  0.00  0.00     0.150 A 
ATOM      5  C4  UNL d   1       0.840  -1.683  -0.561  0.00  0.00    -0.007 A 
ATOM      6  C5  UNL d   1       0.738  -2.988  -1.039  0.00  0.00     0.039 A 
ENDROOT
BRANCH   4   7
ATOM      7  O   UNL d   1       0.327   0.611  -0.734  0.00  0.00    -0.526 OA
ATOM      8  H5  UNL d   1      -0.187   1.219  -1.291  0.00  0.00     0.418 HD
ENDBRANCH   4   7
TORSDOF 1
ENDMDL
