MODEL 1
REMARK minimizedAffinity 0.171304345
REMARK minimizedRMSD -1
REMARK  1 active torsions:
REMARK  status: ('A' for Active; 'I' for Inactive)
REMARK    1  A    between atoms: C3_4  and  O_7 
ROOT
ATOM      1  C   UNL d   1      -1.847   1.037  -1.553  0.00  0.00    -0.033 A 
ATOM      2  C1  UNL d   1      -0.452   1.091  -1.528  0.00  0.00     0.039 A 
ATOM      3  C2  UNL d   1       0.247   0.612  -0.418  0.00  0.00    -0.080 A 
ATOM      4  C3  UNL d   1      -0.459   0.081   0.657  0.00  0.00     0.150 A 
ATOM      5  C4  UNL d   1      -1.849   0.020   0.638  0.00  0.00    -0.007 A 
ATOM      6  C5  UNL d   1      -2.545   0.500  -0.471  0.00  0.00     0.039 A 
ENDROOT
BRANCH   4   7
ATOM      7  O   UNL d   1       0.179  -0.395   1.764  0.00  0.00    -0.526 OA
ATOM      8  H5  UNL d   1       1.135  -0.262   1.649  0.00  0.00     0.418 HD
ENDBRANCH   4   7
TORSDOF 1
ENDMDL
