MODEL 1
REMARK minimizedAffinity -0.739312172
REMARK minimizedRMSD -1
REMARK  1 active torsions:
REMARK  status: ('A' for Active; 'I' for Inactive)
REMARK    1  A    between atoms: C3_4  and  O_7 
ROOT
ATOM      1  C   UNL d   1      -3.125   1.058  -1.996  0.00  0.00    -0.033 A 
ATOM      2  C1  UNL d   1      -4.183   1.280  -2.879  0.00  0.00     0.039 A 
ATOM      3  C2  UNL d   1      -4.284   2.496  -3.558  0.00  0.00    -0.080 A 
ATOM      4  C3  UNL d   1      -3.321   3.479  -3.347  0.00  0.00     0.150 A 
ATOM      5  C4  UNL d   1      -2.262   3.263  -2.471  0.00  0.00    -0.007 A 
ATOM      6  C5  UNL d   1      -2.164   2.049  -1.793  0.00  0.00     0.039 A 
ENDROOT
BRANCH   4   7
ATOM      7  O   UNL d   1      -3.380   4.683  -3.983  0.00  0.00    -0.526 OA
ATOM      8  H5  UNL d   1      -4.180   4.701  -4.534  0.00  0.00     0.418 HD
ENDBRANCH   4   7
TORSDOF 1
ENDMDL
