MODEL 1
REMARK minimizedAffinity 1.78534353
REMARK minimizedRMSD -1
REMARK  3 active torsions:
REMARK  status: ('A' for Active; 'I' for Inactive)
REMARK    1  A    between atoms: C3'_2  and  C2'_3 
REMARK    2  A    between atoms: C2'_3  and  C1'_4 
REMARK    3  A    between atoms: C1'_4  and  C1_5 
ROOT
ATOM      1  C1  N4B d   1      -0.765   2.241   0.448  0.00  0.00    -0.075 A 
ATOM      2  C2  N4B d   1      -2.162   2.222   0.656  0.00  0.00     0.002 A 
ATOM      3  C3  N4B d   1      -2.697   1.445   1.654  0.00  0.00     0.002 A 
ATOM      4  C4  N4B d   1      -1.861   0.666   2.440  0.00  0.00    -0.004 A 
ATOM      5  C5  N4B d   1      -0.511   0.709   2.249  0.00  0.00     0.002 A 
ATOM      6  C6  N4B d   1       0.041   1.489   1.253  0.00  0.00     0.002 A 
ENDROOT
BRANCH   1   7
ATOM      7  C1' N4B d   1      -0.141   3.009  -0.685  0.00  0.00     0.057 C 
BRANCH   7   8
ATOM      8  C2' N4B d   1      -0.436   4.495  -0.505  0.00  0.00     0.009 C 
BRANCH   8   9
ATOM      9  C3' N4B d   1       0.776   5.258   0.002  0.00  0.00     0.004 C 
ATOM     10  C4' N4B d   1       1.492   6.000  -1.087  0.00  0.00     0.003 C 
ENDBRANCH   8   9
ENDBRANCH   7   8
ENDBRANCH   1   7
TORSDOF 3
ENDMDL
