MODEL 1
REMARK minimizedAffinity 4.44748592
REMARK minimizedRMSD -1
REMARK  3 active torsions:
REMARK  status: ('A' for Active; 'I' for Inactive)
REMARK    1  A    between atoms: C3'_2  and  C2'_3 
REMARK    2  A    between atoms: C2'_3  and  C1'_4 
REMARK    3  A    between atoms: C1'_4  and  C1_5 
ROOT
ATOM      1  C1  N4B d   1      -1.028   2.004   0.955  0.00  0.00    -0.075 A 
ATOM      2  C2  N4B d   1      -0.431   1.343  -0.141  0.00  0.00     0.002 A 
ATOM      3  C3  N4B d   1       0.169   2.072  -1.138  0.00  0.00     0.002 A 
ATOM      4  C4  N4B d   1       0.169   3.457  -1.070  0.00  0.00    -0.004 A 
ATOM      5  C5  N4B d   1      -0.387   4.087   0.005  0.00  0.00     0.002 A 
ATOM      6  C6  N4B d   1      -0.991   3.367   1.016  0.00  0.00     0.002 A 
ENDROOT
BRANCH   1   7
ATOM      7  C1' N4B d   1      -1.772   1.254   2.026  0.00  0.00     0.057 C 
BRANCH   7   8
ATOM      8  C2' N4B d   1      -0.940   0.052   2.465  0.00  0.00     0.009 C 
BRANCH   8   9
ATOM      9  C3' N4B d   1      -1.808  -1.077   2.993  0.00  0.00     0.004 C 
ATOM     10  C4' N4B d   1      -1.010  -2.274   3.418  0.00  0.00     0.003 C 
ENDBRANCH   8   9
ENDBRANCH   7   8
ENDBRANCH   1   7
TORSDOF 3
ENDMDL
