MODEL 1
REMARK minimizedAffinity 1.47527075
REMARK minimizedRMSD -1
REMARK  3 active torsions:
REMARK  status: ('A' for Active; 'I' for Inactive)
REMARK    1  A    between atoms: C3'_2  and  C2'_3 
REMARK    2  A    between atoms: C2'_3  and  C1'_4 
REMARK    3  A    between atoms: C1'_4  and  C1_5 
ROOT
ATOM      1  C1  N4B d   1      -0.915   0.519   2.029  0.00  0.00    -0.075 A 
ATOM      2  C2  N4B d   1      -1.940  -0.194   2.689  0.00  0.00     0.002 A 
ATOM      3  C3  N4B d   1      -1.708  -1.471   3.138  0.00  0.00     0.002 A 
ATOM      4  C4  N4B d   1      -0.471  -2.060   2.923  0.00  0.00    -0.004 A 
ATOM      5  C5  N4B d   1       0.521  -1.355   2.307  0.00  0.00     0.002 A 
ATOM      6  C6  N4B d   1       0.304  -0.069   1.854  0.00  0.00     0.002 A 
ENDROOT
BRANCH   1   7
ATOM      7  C1' N4B d   1      -1.149   1.885   1.444  0.00  0.00     0.057 C 
BRANCH   7   8
ATOM      8  C2' N4B d   1      -0.337   2.026   0.160  0.00  0.00     0.009 C 
BRANCH   8   9
ATOM      9  C3' N4B d   1      -0.440   3.423  -0.427  0.00  0.00     0.004 C 
ATOM     10  C4' N4B d   1       0.296   4.449   0.381  0.00  0.00     0.003 C 
ENDBRANCH   8   9
ENDBRANCH   7   8
ENDBRANCH   1   7
TORSDOF 3
ENDMDL
