MODEL 1
REMARK minimizedAffinity 5.37269306
REMARK minimizedRMSD -1
REMARK  3 active torsions:
REMARK  status: ('A' for Active; 'I' for Inactive)
REMARK    1  A    between atoms: C3'_2  and  C2'_3 
REMARK    2  A    between atoms: C2'_3  and  C1'_4 
REMARK    3  A    between atoms: C1'_4  and  C1_5 
ROOT
ATOM      1  C1  N4B d   1       0.020   1.155  -0.519  0.00  0.00    -0.075 A 
ATOM      2  C2  N4B d   1      -0.795   1.068   0.631  0.00  0.00     0.002 A 
ATOM      3  C3  N4B d   1      -1.371   2.200   1.152  0.00  0.00     0.002 A 
ATOM      4  C4  N4B d   1      -1.132   3.428   0.554  0.00  0.00    -0.004 A 
ATOM      5  C5  N4B d   1      -0.365   3.501  -0.572  0.00  0.00     0.002 A 
ATOM      6  C6  N4B d   1       0.217   2.370  -1.109  0.00  0.00     0.002 A 
ENDROOT
BRANCH   1   7
ATOM      7  C1' N4B d   1       0.740  -0.042  -1.075  0.00  0.00     0.057 C 
BRANCH   7   8
ATOM      8  C2' N4B d   1      -0.285  -1.083  -1.518  0.00  0.00     0.009 C 
BRANCH   8   9
ATOM      9  C3' N4B d   1      -1.408  -0.463  -2.331  0.00  0.00     0.004 C 
ATOM     10  C4' N4B d   1      -2.751  -1.046  -2.004  0.00  0.00     0.003 C 
ENDBRANCH   8   9
ENDBRANCH   7   8
ENDBRANCH   1   7
TORSDOF 3
ENDMDL
