MODEL 1
REMARK minimizedAffinity 4.20414066
REMARK minimizedRMSD -1
REMARK  3 active torsions:
REMARK  status: ('A' for Active; 'I' for Inactive)
REMARK    1  A    between atoms: C3'_2  and  C2'_3 
REMARK    2  A    between atoms: C2'_3  and  C1'_4 
REMARK    3  A    between atoms: C1'_4  and  C1_5 
ROOT
ATOM      1  C1  N4B d   1      -0.335   1.584  -2.236  0.00  0.00    -0.075 A 
ATOM      2  C2  N4B d   1      -1.653   1.117  -2.038  0.00  0.00     0.002 A 
ATOM      3  C3  N4B d   1      -2.068  -0.045  -2.641  0.00  0.00     0.002 A 
ATOM      4  C4  N4B d   1      -1.192  -0.744  -3.458  0.00  0.00    -0.004 A 
ATOM      5  C5  N4B d   1       0.087  -0.300  -3.624  0.00  0.00     0.002 A 
ATOM      6  C6  N4B d   1       0.519   0.865  -3.021  0.00  0.00     0.002 A 
ENDROOT
BRANCH   1   7
ATOM      7  C1' N4B d   1       0.137   2.894  -1.667  0.00  0.00     0.057 C 
BRANCH   7   8
ATOM      8  C2' N4B d   1      -0.092   2.897  -0.159  0.00  0.00     0.009 C 
BRANCH   8   9
ATOM      9  C3' N4B d   1      -0.360   4.295   0.373  0.00  0.00     0.004 C 
ATOM     10  C4' N4B d   1       0.849   5.180   0.315  0.00  0.00     0.003 C 
ENDBRANCH   8   9
ENDBRANCH   7   8
ENDBRANCH   1   7
TORSDOF 3
ENDMDL
