MODEL 1
REMARK minimizedAffinity 14.1636276
REMARK minimizedRMSD -1
REMARK  3 active torsions:
REMARK  status: ('A' for Active; 'I' for Inactive)
REMARK    1  A    between atoms: C3'_2  and  C2'_3 
REMARK    2  A    between atoms: C2'_3  and  C1'_4 
REMARK    3  A    between atoms: C1'_4  and  C1_5 
ROOT
ATOM      1  C1  N4B d   1      -0.573   0.890  -1.818  0.00  0.00    -0.075 A 
ATOM      2  C2  N4B d   1      -0.163  -0.448  -2.009  0.00  0.00     0.002 A 
ATOM      3  C3  N4B d   1      -0.862  -1.265  -2.863  0.00  0.00     0.002 A 
ATOM      4  C4  N4B d   1      -1.981  -0.775  -3.519  0.00  0.00    -0.004 A 
ATOM      5  C5  N4B d   1      -2.356   0.525  -3.348  0.00  0.00     0.002 A 
ATOM      6  C6  N4B d   1      -1.661   1.360  -2.496  0.00  0.00     0.002 A 
ENDROOT
BRANCH   1   7
ATOM      7  C1' N4B d   1       0.108   1.796  -0.830  0.00  0.00     0.057 C 
BRANCH   7   8
ATOM      8  C2' N4B d   1       0.096   1.136   0.546  0.00  0.00     0.009 C 
BRANCH   8   9
ATOM      9  C3' N4B d   1      -0.682   1.954   1.562  0.00  0.00     0.004 C 
ATOM     10  C4' N4B d   1      -1.371   1.103   2.587  0.00  0.00     0.003 C 
ENDBRANCH   8   9
ENDBRANCH   7   8
ENDBRANCH   1   7
TORSDOF 3
ENDMDL
