MODEL 1
REMARK minimizedAffinity 7.09033251
REMARK minimizedRMSD -1
REMARK  3 active torsions:
REMARK  status: ('A' for Active; 'I' for Inactive)
REMARK    1  A    between atoms: C3'_2  and  C2'_3 
REMARK    2  A    between atoms: C2'_3  and  C1'_4 
REMARK    3  A    between atoms: C1'_4  and  C1_5 
ROOT
ATOM      1  C1  N4B d   1       0.332   0.723   1.489  0.00  0.00    -0.075 A 
ATOM      2  C2  N4B d   1       1.138   0.923   2.632  0.00  0.00     0.002 A 
ATOM      3  C3  N4B d   1       0.640   1.612   3.710  0.00  0.00     0.002 A 
ATOM      4  C4  N4B d   1      -0.647   2.125   3.662  0.00  0.00    -0.004 A 
ATOM      5  C5  N4B d   1      -1.428   1.905   2.565  0.00  0.00     0.002 A 
ATOM      6  C6  N4B d   1      -0.942   1.211   1.475  0.00  0.00     0.002 A 
ENDROOT
BRANCH   1   7
ATOM      7  C1' N4B d   1       0.862   0.050   0.252  0.00  0.00     0.057 C 
BRANCH   7   8
ATOM      8  C2' N4B d   1      -0.040   0.393  -0.930  0.00  0.00     0.009 C 
BRANCH   8   9
ATOM      9  C3' N4B d   1      -0.098  -0.734  -1.947  0.00  0.00     0.004 C 
ATOM     10  C4' N4B d   1      -1.442  -0.858  -2.601  0.00  0.00     0.003 C 
ENDBRANCH   8   9
ENDBRANCH   7   8
ENDBRANCH   1   7
TORSDOF 3
ENDMDL
