MODEL 1
REMARK minimizedAffinity 12.3203077
REMARK minimizedRMSD -1
REMARK  0 active torsions:
REMARK  status: ('A' for Active; 'I' for Inactive)
ROOT
ATOM      1  C4' PXY d   1       0.998   5.319  -3.133  0.00  0.00     0.077 C 
ATOM      2  C1' PXY d   1      -0.662   2.184   1.432  0.00  0.00     0.077 C 
ATOM      3  C1  PXY d   1      -0.220   3.014   0.243  0.00  0.00    -0.082 A 
ATOM      4  C2  PXY d   1      -0.922   2.977  -0.878  0.00  0.00     0.003 A 
ATOM      5  C3  PXY d   1      -0.519   3.696  -1.973  0.00  0.00     0.003 A 
ATOM      6  C4  PXY d   1       0.584   4.504  -1.904  0.00  0.00    -0.082 A 
ATOM      7  C5  PXY d   1       1.300   4.556  -0.760  0.00  0.00     0.003 A 
ATOM      8  C6  PXY d   1       0.897   3.786   0.327  0.00  0.00     0.003 A 
ENDROOT
TORSDOF 0
ENDMDL
