MODEL 1
REMARK minimizedAffinity 13.3015642
REMARK minimizedRMSD -1
REMARK  0 active torsions:
REMARK  status: ('A' for Active; 'I' for Inactive)
ROOT
ATOM      1  C4' PXY d   1      -0.868  -5.184  -3.293  0.00  0.00     0.077 C 
ATOM      2  C1' PXY d   1      -5.962  -5.936  -5.919  0.00  0.00     0.077 C 
ATOM      3  C1  PXY d   1      -4.621  -5.747  -5.238  0.00  0.00    -0.082 A 
ATOM      4  C2  PXY d   1      -4.577  -5.336  -3.982  0.00  0.00     0.003 A 
ATOM      5  C3  PXY d   1      -3.371  -5.129  -3.361  0.00  0.00     0.003 A 
ATOM      6  C4  PXY d   1      -2.200  -5.398  -4.017  0.00  0.00    -0.082 A 
ATOM      7  C5  PXY d   1      -2.237  -5.828  -5.296  0.00  0.00     0.003 A 
ATOM      8  C6  PXY d   1      -3.469  -5.992  -5.921  0.00  0.00     0.003 A 
ENDROOT
TORSDOF 0
ENDMDL
