MODEL 1
REMARK minimizedAffinity 7.8535409
REMARK minimizedRMSD -1
REMARK  0 active torsions:
REMARK  status: ('A' for Active; 'I' for Inactive)
ROOT
ATOM      1  C4' PXY d   1      -0.608   4.471  -2.103  0.00  0.00     0.077 C 
ATOM      2  C1' PXY d   1      -0.649   1.546   2.884  0.00  0.00     0.077 C 
ATOM      3  C1  PXY d   1      -0.648   2.321   1.580  0.00  0.00    -0.082 A 
ATOM      4  C2  PXY d   1      -0.159   1.760   0.486  0.00  0.00     0.003 A 
ATOM      5  C3  PXY d   1      -0.121   2.457  -0.694  0.00  0.00     0.003 A 
ATOM      6  C4  PXY d   1      -0.638   3.723  -0.767  0.00  0.00    -0.082 A 
ATOM      7  C5  PXY d   1      -1.148   4.299   0.342  0.00  0.00     0.003 A 
ATOM      8  C6  PXY d   1      -1.140   3.589   1.540  0.00  0.00     0.003 A 
ENDROOT
TORSDOF 0
ENDMDL
