MODEL 1
REMARK minimizedAffinity 8.36574841
REMARK minimizedRMSD -1
REMARK  0 active torsions:
REMARK  status: ('A' for Active; 'I' for Inactive)
ROOT
ATOM      1  C4' PXY d   1       0.389  -3.932  -1.019  0.00  0.00     0.077 C 
ATOM      2  C1' PXY d   1       5.999  -5.281  -0.682  0.00  0.00     0.077 C 
ATOM      3  C1  PXY d   1       4.530  -4.916  -0.764  0.00  0.00    -0.082 A 
ATOM      4  C2  PXY d   1       3.623  -5.874  -0.859  0.00  0.00     0.003 A 
ATOM      5  C3  PXY d   1       2.292  -5.560  -0.967  0.00  0.00     0.003 A 
ATOM      6  C4  PXY d   1       1.882  -4.255  -0.924  0.00  0.00    -0.082 A 
ATOM      7  C5  PXY d   1       2.802  -3.272  -0.816  0.00  0.00     0.003 A 
ATOM      8  C6  PXY d   1       4.150  -3.610  -0.749  0.00  0.00     0.003 A 
ENDROOT
TORSDOF 0
ENDMDL
