MODEL 1
REMARK minimizedAffinity 12.562583
REMARK minimizedRMSD -1
REMARK  0 active torsions:
REMARK  status: ('A' for Active; 'I' for Inactive)
ROOT
ATOM      1  C4' PXY d   1       0.801   3.549  -1.393  0.00  0.00     0.077 C 
ATOM      2  C1' PXY d   1       0.042   1.190   3.829  0.00  0.00     0.077 C 
ATOM      3  C1  PXY d   1       0.229   1.804   2.456  0.00  0.00    -0.082 A 
ATOM      4  C2  PXY d   1       1.450   2.067   2.018  0.00  0.00     0.003 A 
ATOM      5  C3  PXY d   1       1.636   2.652   0.792  0.00  0.00     0.003 A 
ATOM      6  C4  PXY d   1       0.565   2.921  -0.017  0.00  0.00    -0.082 A 
ATOM      7  C5  PXY d   1      -0.683   2.645   0.418  0.00  0.00     0.003 A 
ATOM      8  C6  PXY d   1      -0.853   2.090   1.683  0.00  0.00     0.003 A 
ENDROOT
TORSDOF 0
ENDMDL
