MODEL 1
REMARK minimizedAffinity 8.57259178
REMARK minimizedRMSD -1
REMARK  0 active torsions:
REMARK  status: ('A' for Active; 'I' for Inactive)
ROOT
ATOM      1  C4' PXY d   1       5.999  -5.979   0.362  0.00  0.00     0.077 C 
ATOM      2  C1' PXY d   1       5.979  -2.261  -4.064  0.00  0.00     0.077 C 
ATOM      3  C1  PXY d   1       5.979  -3.245  -2.911  0.00  0.00    -0.082 A 
ATOM      4  C2  PXY d   1       5.967  -2.795  -1.666  0.00  0.00     0.003 A 
ATOM      5  C3  PXY d   1       6.000  -3.671  -0.612  0.00  0.00     0.003 A 
ATOM      6  C4  PXY d   1       5.989  -5.022  -0.833  0.00  0.00    -0.082 A 
ATOM      7  C5  PXY d   1       5.990  -5.489  -2.099  0.00  0.00     0.003 A 
ATOM      8  C6  PXY d   1       5.999  -4.584  -3.156  0.00  0.00     0.003 A 
ENDROOT
TORSDOF 0
ENDMDL
