MODEL 1
REMARK minimizedAffinity 16.6219883
REMARK minimizedRMSD -1
REMARK  0 active torsions:
REMARK  status: ('A' for Active; 'I' for Inactive)
ROOT
ATOM      1  C4' PXY d   1      -2.807   3.583  -3.363  0.00  0.00     0.077 C 
ATOM      2  C1' PXY d   1      -5.603  -0.735  -6.000  0.00  0.00     0.077 C 
ATOM      3  C1  PXY d   1      -4.881   0.400  -5.301  0.00  0.00    -0.082 A 
ATOM      4  C2  PXY d   1      -3.844   0.975  -5.888  0.00  0.00     0.003 A 
ATOM      5  C3  PXY d   1      -3.159   1.982  -5.257  0.00  0.00     0.003 A 
ATOM      6  C4  PXY d   1      -3.573   2.440  -4.035  0.00  0.00    -0.082 A 
ATOM      7  C5  PXY d   1      -4.636   1.866  -3.434  0.00  0.00     0.003 A 
ATOM      8  C6  PXY d   1      -5.292   0.818  -4.073  0.00  0.00     0.003 A 
ENDROOT
TORSDOF 0
ENDMDL
