MODEL 1
REMARK minimizedAffinity 6.99821138
REMARK minimizedRMSD -1
REMARK  0 active torsions:
REMARK  status: ('A' for Active; 'I' for Inactive)
ROOT
ATOM      1  C4' PXY d   1       0.949   1.464   0.282  0.00  0.00     0.077 C 
ATOM      2  C1' PXY d   1       5.244  -2.405   0.237  0.00  0.00     0.077 C 
ATOM      3  C1  PXY d   1       4.118  -1.390   0.262  0.00  0.00    -0.082 A 
ATOM      4  C2  PXY d   1       3.295  -1.301  -0.770  0.00  0.00     0.003 A 
ATOM      5  C3  PXY d   1       2.291  -0.368  -0.778  0.00  0.00     0.003 A 
ATOM      6  C4  PXY d   1       2.094   0.448   0.305  0.00  0.00    -0.082 A 
ATOM      7  C5  PXY d   1       2.923   0.356   1.366  0.00  0.00     0.003 A 
ATOM      8  C6  PXY d   1       3.962  -0.571   1.337  0.00  0.00     0.003 A 
ENDROOT
TORSDOF 0
ENDMDL
