MODEL 1
REMARK minimizedAffinity 6.48675632
REMARK minimizedRMSD -1
REMARK  0 active torsions:
REMARK  status: ('A' for Active; 'I' for Inactive)
ROOT
ATOM      1  C4' PXY d   1      -3.216   3.142  -1.585  0.00  0.00     0.077 C 
ATOM      2  C1' PXY d   1       0.810   1.967   2.393  0.00  0.00     0.077 C 
ATOM      3  C1  PXY d   1      -0.255   2.272   1.358  0.00  0.00    -0.082 A 
ATOM      4  C2  PXY d   1       0.046   2.209   0.071  0.00  0.00     0.003 A 
ATOM      5  C3  PXY d   1      -0.896   2.513  -0.877  0.00  0.00     0.003 A 
ATOM      6  C4  PXY d   1      -2.175   2.833  -0.506  0.00  0.00    -0.082 A 
ATOM      7  C5  PXY d   1      -2.493   2.889   0.805  0.00  0.00     0.003 A 
ATOM      8  C6  PXY d   1      -1.511   2.617   1.753  0.00  0.00     0.003 A 
ENDROOT
TORSDOF 0
ENDMDL
