MODEL 1
REMARK minimizedAffinity 12.497901
REMARK minimizedRMSD -1
REMARK  0 active torsions:
REMARK  status: ('A' for Active; 'I' for Inactive)
ROOT
ATOM      1  C   UNL d   1      -1.068  -3.910   1.166  0.00  0.00     0.023 A 
ATOM      2  C1  UNL d   1      -0.709  -4.818   0.170  0.00  0.00     0.003 A 
ATOM      3  C2  UNL d   1      -0.775  -4.445  -1.174  0.00  0.00     0.048 A 
ATOM      4  C3  UNL d   1      -1.199  -3.161  -1.515  0.00  0.00     0.023 A 
ATOM      5  C4  UNL d   1      -1.559  -2.248  -0.521  0.00  0.00     0.048 A 
ATOM      6  C5  UNL d   1      -1.492  -2.626   0.821  0.00  0.00     0.003 A 
ATOM      7  I   UNL d   1      -1.298  -2.603  -3.514  0.00  0.00    -0.146 I 
ENDROOT
TORSDOF 0
ENDMDL
