MODEL 1
REMARK minimizedAffinity 5.29104662
REMARK minimizedRMSD -1
REMARK  0 active torsions:
REMARK  status: ('A' for Active; 'I' for Inactive)
ROOT
ATOM      1  C   UNL d   1      -0.977  -3.989  -0.272  0.00  0.00     0.023 A 
ATOM      2  C1  UNL d   1      -1.183  -2.611  -0.212  0.00  0.00     0.003 A 
ATOM      3  C2  UNL d   1      -1.472  -1.999   1.010  0.00  0.00     0.048 A 
ATOM      4  C3  UNL d   1      -1.550  -2.772   2.168  0.00  0.00     0.023 A 
ATOM      5  C4  UNL d   1      -1.343  -4.151   2.113  0.00  0.00     0.048 A 
ATOM      6  C5  UNL d   1      -1.057  -4.758   0.889  0.00  0.00     0.003 A 
ATOM      7  I   UNL d   1      -1.979  -1.864   3.988  0.00  0.00    -0.146 I 
ENDROOT
TORSDOF 0
ENDMDL
