MODEL 1
REMARK minimizedAffinity 10.7547274
REMARK minimizedRMSD -1
REMARK  0 active torsions:
REMARK  status: ('A' for Active; 'I' for Inactive)
ROOT
ATOM      1  C   UNL d   1      -1.488  -2.451  -0.999  0.00  0.00     0.023 A 
ATOM      2  C1  UNL d   1      -1.493  -2.214   0.375  0.00  0.00     0.003 A 
ATOM      3  C2  UNL d   1      -1.133  -3.232   1.261  0.00  0.00     0.048 A 
ATOM      4  C3  UNL d   1      -0.769  -4.484   0.765  0.00  0.00     0.023 A 
ATOM      5  C4  UNL d   1      -0.763  -4.724  -0.609  0.00  0.00     0.048 A 
ATOM      6  C5  UNL d   1      -1.124  -3.704  -1.491  0.00  0.00     0.003 A 
ATOM      7  I   UNL d   1      -0.233  -6.000   2.082  0.00  0.00    -0.146 I 
ENDROOT
TORSDOF 0
ENDMDL
