MODEL 1
REMARK minimizedAffinity 9.9197464
REMARK minimizedRMSD -1
REMARK  0 active torsions:
REMARK  status: ('A' for Active; 'I' for Inactive)
ROOT
ATOM      1  C   UNL d   1       1.820  -0.608  -2.848  0.00  0.00     0.023 A 
ATOM      2  C1  UNL d   1       3.045   0.055  -2.926  0.00  0.00     0.003 A 
ATOM      3  C2  UNL d   1       3.511   0.793  -1.836  0.00  0.00     0.048 A 
ATOM      4  C3  UNL d   1       2.747   0.864  -0.671  0.00  0.00     0.023 A 
ATOM      5  C4  UNL d   1       1.521   0.202  -0.589  0.00  0.00     0.048 A 
ATOM      6  C5  UNL d   1       1.059  -0.534  -1.682  0.00  0.00     0.003 A 
ATOM      7  I   UNL d   1       3.439   1.962   0.952  0.00  0.00    -0.146 I 
ENDROOT
TORSDOF 0
ENDMDL
