MODEL 1
REMARK minimizedAffinity 4.4982872
REMARK minimizedRMSD -1
REMARK  0 active torsions:
REMARK  status: ('A' for Active; 'I' for Inactive)
ROOT
ATOM      1  C   UNL d   1      -1.196  -3.207  -0.766  0.00  0.00     0.023 A 
ATOM      2  C1  UNL d   1      -0.532  -3.772   0.322  0.00  0.00     0.003 A 
ATOM      3  C2  UNL d   1      -0.847  -3.369   1.621  0.00  0.00     0.048 A 
ATOM      4  C3  UNL d   1      -1.828  -2.399   1.825  0.00  0.00     0.023 A 
ATOM      5  C4  UNL d   1      -2.497  -1.831   0.739  0.00  0.00     0.048 A 
ATOM      6  C5  UNL d   1      -2.177  -2.237  -0.558  0.00  0.00     0.003 A 
ATOM      7  I   UNL d   1      -2.300  -1.797   3.758  0.00  0.00    -0.146 I 
ENDROOT
TORSDOF 0
ENDMDL
