MODEL 1
REMARK minimizedAffinity 5.67369032
REMARK minimizedRMSD -1
REMARK  0 active torsions:
REMARK  status: ('A' for Active; 'I' for Inactive)
ROOT
ATOM      1  C   UNL d   1       2.520   2.037   1.366  0.00  0.00     0.023 A 
ATOM      2  C1  UNL d   1       1.766   1.011   0.796  0.00  0.00     0.003 A 
ATOM      3  C2  UNL d   1       2.150   0.456  -0.426  0.00  0.00     0.048 A 
ATOM      4  C3  UNL d   1       3.290   0.933  -1.074  0.00  0.00     0.023 A 
ATOM      5  C4  UNL d   1       4.047   1.959  -0.507  0.00  0.00     0.048 A 
ATOM      6  C5  UNL d   1       3.659   2.511   0.715  0.00  0.00     0.003 A 
ATOM      7  I   UNL d   1       3.864   0.110  -2.894  0.00  0.00    -0.146 I 
ENDROOT
TORSDOF 0
ENDMDL
