MODEL 1
REMARK minimizedAffinity 8.26039791
REMARK minimizedRMSD -1
REMARK  0 active torsions:
REMARK  status: ('A' for Active; 'I' for Inactive)
ROOT
ATOM      1  C   UNL d   1      -4.775   1.704   5.997  0.00  0.00     0.023 A 
ATOM      2  C1  UNL d   1      -5.340   0.429   6.000  0.00  0.00     0.003 A 
ATOM      3  C2  UNL d   1      -4.550  -0.687   5.715  0.00  0.00     0.048 A 
ATOM      4  C3  UNL d   1      -3.195  -0.520   5.431  0.00  0.00     0.023 A 
ATOM      5  C4  UNL d   1      -2.625   0.754   5.428  0.00  0.00     0.048 A 
ATOM      6  C5  UNL d   1      -3.419   1.867   5.712  0.00  0.00     0.003 A 
ATOM      7  I   UNL d   1      -2.017  -2.179   5.008  0.00  0.00    -0.146 I 
ENDROOT
TORSDOF 0
ENDMDL
