MODEL 1
REMARK minimizedAffinity 11.1100712
REMARK minimizedRMSD -1
REMARK  0 active torsions:
REMARK  status: ('A' for Active; 'I' for Inactive)
ROOT
ATOM      1  C   UNL d   1      -1.114  -2.435  -0.411  0.00  0.00     0.023 A 
ATOM      2  C1  UNL d   1      -1.902  -1.371   0.026  0.00  0.00     0.003 A 
ATOM      3  C2  UNL d   1      -2.134  -1.186   1.390  0.00  0.00     0.048 A 
ATOM      4  C3  UNL d   1      -1.573  -2.068   2.313  0.00  0.00     0.023 A 
ATOM      5  C4  UNL d   1      -0.782  -3.134   1.880  0.00  0.00     0.048 A 
ATOM      6  C5  UNL d   1      -0.554  -3.316   0.515  0.00  0.00     0.003 A 
ATOM      7  I   UNL d   1      -1.916  -1.794   4.344  0.00  0.00    -0.146 I 
ENDROOT
TORSDOF 0
ENDMDL
