MODEL 1
REMARK minimizedAffinity 20.3351555
REMARK minimizedRMSD -1
REMARK  0 active torsions:
REMARK  status: ('A' for Active; 'I' for Inactive)
ROOT
ATOM      1  C   UNL d   1       3.282   5.069   5.997  0.00  0.00     0.023 A 
ATOM      2  C1  UNL d   1       2.557   3.889   5.831  0.00  0.00     0.003 A 
ATOM      3  C2  UNL d   1       3.081   2.848   5.063  0.00  0.00     0.048 A 
ATOM      4  C3  UNL d   1       4.333   2.992   4.464  0.00  0.00     0.023 A 
ATOM      5  C4  UNL d   1       5.062   4.171   4.629  0.00  0.00     0.048 A 
ATOM      6  C5  UNL d   1       4.533   5.210   5.397  0.00  0.00     0.003 A 
ATOM      7  I   UNL d   1       5.116   1.444   3.321  0.00  0.00    -0.146 I 
ENDROOT
TORSDOF 0
ENDMDL
