MODEL 1
REMARK minimizedAffinity 12.6021519
REMARK minimizedRMSD -1
REMARK  0 active torsions:
REMARK  status: ('A' for Active; 'I' for Inactive)
ROOT
ATOM      1  C   UNL d   1      -1.836  -1.741  -0.004  0.00  0.00     0.023 A 
ATOM      2  C1  UNL d   1      -0.811  -2.446  -0.634  0.00  0.00     0.003 A 
ATOM      3  C2  UNL d   1      -0.379  -3.667  -0.114  0.00  0.00     0.048 A 
ATOM      4  C3  UNL d   1      -0.977  -4.179   1.037  0.00  0.00     0.023 A 
ATOM      5  C4  UNL d   1      -2.005  -3.478   1.671  0.00  0.00     0.048 A 
ATOM      6  C5  UNL d   1      -2.432  -2.256   1.147  0.00  0.00     0.003 A 
ATOM      7  I   UNL d   1      -0.336  -5.997   1.814  0.00  0.00    -0.146 I 
ENDROOT
TORSDOF 0
ENDMDL
