MODEL 1
REMARK minimizedAffinity 15.8210039
REMARK minimizedRMSD -1
REMARK  0 active torsions:
REMARK  status: ('A' for Active; 'I' for Inactive)
ROOT
ATOM      1  C   UNL d   1       3.280   4.630   6.000  0.00  0.00     0.023 A 
ATOM      2  C1  UNL d   1       4.445   4.960   5.307  0.00  0.00     0.003 A 
ATOM      3  C2  UNL d   1       5.104   3.992   4.545  0.00  0.00     0.048 A 
ATOM      4  C3  UNL d   1       4.591   2.697   4.479  0.00  0.00     0.023 A 
ATOM      5  C4  UNL d   1       3.425   2.363   5.170  0.00  0.00     0.048 A 
ATOM      6  C5  UNL d   1       2.770   3.333   5.931  0.00  0.00     0.003 A 
ATOM      7  I   UNL d   1       5.569   1.256   3.345  0.00  0.00    -0.146 I 
ENDROOT
TORSDOF 0
ENDMDL
