MODEL 1
REMARK minimizedAffinity 12.5204706
REMARK minimizedRMSD -1
REMARK  0 active torsions:
REMARK  status: ('A' for Active; 'I' for Inactive)
ROOT
ATOM      1  C   UNL d   1      -2.287   2.857   1.191  0.00  0.00     0.023 A 
ATOM      2  C1  UNL d   1      -3.444   2.525   0.488  0.00  0.00     0.003 A 
ATOM      3  C2  UNL d   1      -4.511   3.424   0.431  0.00  0.00     0.048 A 
ATOM      4  C3  UNL d   1      -4.413   4.655   1.080  0.00  0.00     0.023 A 
ATOM      5  C4  UNL d   1      -3.256   4.992   1.785  0.00  0.00     0.048 A 
ATOM      6  C5  UNL d   1      -2.193   4.089   1.839  0.00  0.00     0.003 A 
ATOM      7  I   UNL d   1      -5.999   5.995   0.998  0.00  0.00    -0.146 I 
ENDROOT
TORSDOF 0
ENDMDL
