MODEL 1
REMARK minimizedAffinity 16.0690842
REMARK minimizedRMSD -1
REMARK  0 active torsions:
REMARK  status: ('A' for Active; 'I' for Inactive)
ROOT
ATOM      1  C   UNL d   1       3.088   0.581   0.791  0.00  0.00     0.023 A 
ATOM      2  C1  UNL d   1       2.687   1.408  -0.259  0.00  0.00     0.003 A 
ATOM      3  C2  UNL d   1       3.243   2.681  -0.398  0.00  0.00     0.048 A 
ATOM      4  C3  UNL d   1       4.200   3.122   0.515  0.00  0.00     0.023 A 
ATOM      5  C4  UNL d   1       4.605   2.298   1.567  0.00  0.00     0.048 A 
ATOM      6  C5  UNL d   1       4.046   1.026   1.703  0.00  0.00     0.003 A 
ATOM      7  I   UNL d   1       5.028   5.017   0.310  0.00  0.00    -0.146 I 
ENDROOT
TORSDOF 0
ENDMDL
