MODEL 1
REMARK minimizedAffinity 12.3576994
REMARK minimizedRMSD -1
REMARK  0 active torsions:
REMARK  status: ('A' for Active; 'I' for Inactive)
ROOT
ATOM      1  C   UNL d   1       1.781  -0.237  -2.250  0.00  0.00     0.023 A 
ATOM      2  C1  UNL d   1       2.043   1.132  -2.215  0.00  0.00     0.003 A 
ATOM      3  C2  UNL d   1       1.313   2.005  -3.025  0.00  0.00     0.048 A 
ATOM      4  C3  UNL d   1       0.322   1.502  -3.867  0.00  0.00     0.023 A 
ATOM      5  C4  UNL d   1       0.056   0.132  -3.905  0.00  0.00     0.048 A 
ATOM      6  C5  UNL d   1       0.789  -0.737  -3.094  0.00  0.00     0.003 A 
ATOM      7  I   UNL d   1      -0.765   2.799  -5.073  0.00  0.00    -0.146 I 
ENDROOT
TORSDOF 0
ENDMDL
