MODEL 1
REMARK minimizedAffinity 8.84117413
REMARK minimizedRMSD -1
REMARK  0 active torsions:
REMARK  status: ('A' for Active; 'I' for Inactive)
ROOT
ATOM      1  C   UNL d   1      -0.805  -5.999   2.837  0.00  0.00     0.023 A 
ATOM      2  C1  UNL d   1      -1.517  -4.936   3.393  0.00  0.00     0.003 A 
ATOM      3  C2  UNL d   1      -1.873  -3.843   2.601  0.00  0.00     0.048 A 
ATOM      4  C3  UNL d   1      -1.514  -3.818   1.254  0.00  0.00     0.023 A 
ATOM      5  C4  UNL d   1      -0.802  -4.879   0.693  0.00  0.00     0.048 A 
ATOM      6  C5  UNL d   1      -0.447  -5.970   1.489  0.00  0.00     0.003 A 
ATOM      7  I   UNL d   1      -2.044  -2.191   0.074  0.00  0.00    -0.146 I 
ENDROOT
TORSDOF 0
ENDMDL
