MODEL 1
REMARK minimizedAffinity 9.452528
REMARK minimizedRMSD -1
REMARK  0 active torsions:
REMARK  status: ('A' for Active; 'I' for Inactive)
ROOT
ATOM      1  C   UNL d   1       2.271   1.266   1.186  0.00  0.00     0.023 A 
ATOM      2  C1  UNL d   1       3.070   1.930   2.117  0.00  0.00     0.003 A 
ATOM      3  C2  UNL d   1       4.070   2.803   1.684  0.00  0.00     0.048 A 
ATOM      4  C3  UNL d   1       4.266   3.008   0.318  0.00  0.00     0.023 A 
ATOM      5  C4  UNL d   1       3.469   2.346  -0.617  0.00  0.00     0.048 A 
ATOM      6  C5  UNL d   1       2.471   1.473  -0.179  0.00  0.00     0.003 A 
ATOM      7  I   UNL d   1       5.753   4.307  -0.328  0.00  0.00    -0.146 I 
ENDROOT
TORSDOF 0
ENDMDL
