MODEL 1
REMARK minimizedAffinity 8.17957687
REMARK minimizedRMSD -1
REMARK  0 active torsions:
REMARK  status: ('A' for Active; 'I' for Inactive)
ROOT
ATOM      1  C   UNL d   1       3.023   2.413  -0.696  0.00  0.00     0.023 A 
ATOM      2  C1  UNL d   1       4.070   3.152  -0.145  0.00  0.00     0.003 A 
ATOM      3  C2  UNL d   1       4.197   3.260   1.241  0.00  0.00     0.048 A 
ATOM      4  C3  UNL d   1       3.273   2.626   2.071  0.00  0.00     0.023 A 
ATOM      5  C4  UNL d   1       2.224   1.885   1.525  0.00  0.00     0.048 A 
ATOM      6  C5  UNL d   1       2.101   1.780   0.138  0.00  0.00     0.003 A 
ATOM      7  I   UNL d   1       3.460   2.785   4.135  0.00  0.00    -0.146 I 
ENDROOT
TORSDOF 0
ENDMDL
