MODEL 1
REMARK minimizedAffinity -3.7537086
REMARK minimizedRMSD -1
REMARK  2 active torsions:
REMARK  status: ('A' for Active; 'I' for Inactive)
REMARK    1  A    between atoms: C2'_3  and  C1'_4 
REMARK    2  A    between atoms: C1'_4  and  C1_5 
ROOT
ATOM      1  C1  I4B d   1      -0.163   0.123   0.109  0.00  0.00    -0.075 A 
ATOM      2  C2  I4B d   1      -0.062  -0.880  -0.823  0.00  0.00     0.003 A 
ATOM      3  C3  I4B d   1       1.023  -1.789  -0.776  0.00  0.00     0.002 A 
ATOM      4  C4  I4B d   1       2.003  -1.630   0.182  0.00  0.00    -0.004 A 
ATOM      5  C5  I4B d   1       1.886  -0.627   1.140  0.00  0.00     0.002 A 
ATOM      6  C6  I4B d   1       0.790   0.248   1.112  0.00  0.00     0.003 A 
ENDROOT
BRANCH   1   7
ATOM      7  C1' I4B d   1      -1.304   1.086   0.011  0.00  0.00     0.060 C 
BRANCH   7   8
ATOM      8  C2' I4B d   1      -2.458   0.527   0.819  0.00  0.00    -0.013 C 
ATOM      9  C4' I4B d   1      -2.946   1.526   1.834  0.00  0.00     0.013 C 
ATOM     10  C3' I4B d   1      -3.550   0.148  -0.136  0.00  0.00     0.013 C 
ENDBRANCH   7   8
ENDBRANCH   1   7
TORSDOF 2
ENDMDL
