MODEL 1
REMARK minimizedAffinity -0.593492389
REMARK minimizedRMSD -1
REMARK  2 active torsions:
REMARK  status: ('A' for Active; 'I' for Inactive)
REMARK    1  A    between atoms: C2'_3  and  C1'_4 
REMARK    2  A    between atoms: C1'_4  and  C1_5 
ROOT
ATOM      1  C1  I4B d   1      -0.465   0.194   0.503  0.00  0.00    -0.075 A 
ATOM      2  C2  I4B d   1       0.433  -0.416   1.343  0.00  0.00     0.003 A 
ATOM      3  C3  I4B d   1       1.653   0.224   1.668  0.00  0.00     0.002 A 
ATOM      4  C4  I4B d   1       1.955   1.442   1.096  0.00  0.00    -0.004 A 
ATOM      5  C5  I4B d   1       1.034   2.070   0.262  0.00  0.00     0.002 A 
ATOM      6  C6  I4B d   1      -0.189   1.448  -0.027  0.00  0.00     0.003 A 
ENDROOT
BRANCH   1   7
ATOM      7  C1' I4B d   1      -1.729  -0.525   0.154  0.00  0.00     0.060 C 
BRANCH   7   8
ATOM      8  C2' I4B d   1      -2.807   0.514  -0.083  0.00  0.00    -0.013 C 
ATOM      9  C4' I4B d   1      -3.484   0.303  -1.411  0.00  0.00     0.013 C 
ATOM     10  C3' I4B d   1      -3.790   0.427   1.046  0.00  0.00     0.013 C 
ENDBRANCH   7   8
ENDBRANCH   1   7
TORSDOF 2
ENDMDL
