MODEL 1
REMARK minimizedAffinity -6.16315508
REMARK minimizedRMSD -1
REMARK  2 active torsions:
REMARK  status: ('A' for Active; 'I' for Inactive)
REMARK    1  A    between atoms: C2'_3  and  C1'_4 
REMARK    2  A    between atoms: C1'_4  and  C1_5 
ROOT
ATOM      1  C1  I4B d   1      -0.094  -0.089  -0.091  0.00  0.00    -0.075 A 
ATOM      2  C2  I4B d   1      -0.367  -1.344  -0.575  0.00  0.00     0.003 A 
ATOM      3  C3  I4B d   1       0.600  -2.373  -0.470  0.00  0.00     0.002 A 
ATOM      4  C4  I4B d   1       1.835  -2.093   0.076  0.00  0.00    -0.004 A 
ATOM      5  C5  I4B d   1       2.102  -0.825   0.586  0.00  0.00     0.002 A 
ATOM      6  C6  I4B d   1       1.127   0.180   0.514  0.00  0.00     0.003 A 
ENDROOT
BRANCH   1   7
ATOM      7  C1' I4B d   1      -1.125   0.984  -0.248  0.00  0.00     0.060 C 
BRANCH   7   8
ATOM      8  C2' I4B d   1      -2.410   0.493   0.389  0.00  0.00    -0.013 C 
ATOM      9  C4' I4B d   1      -2.734   1.274   1.635  0.00  0.00     0.013 C 
ATOM     10  C3' I4B d   1      -3.506   0.615  -0.627  0.00  0.00     0.013 C 
ENDBRANCH   7   8
ENDBRANCH   1   7
TORSDOF 2
ENDMDL
