MODEL 1
REMARK minimizedAffinity -1.59677327
REMARK minimizedRMSD -1
REMARK  2 active torsions:
REMARK  status: ('A' for Active; 'I' for Inactive)
REMARK    1  A    between atoms: C2'_3  and  C1'_4 
REMARK    2  A    between atoms: C1'_4  and  C1_5 
ROOT
ATOM      1  C1  I4B d   1       0.505   0.041   0.250  0.00  0.00    -0.075 A 
ATOM      2  C2  I4B d   1       1.034   0.165   1.510  0.00  0.00     0.003 A 
ATOM      3  C3  I4B d   1       2.245  -0.489   1.842  0.00  0.00     0.002 A 
ATOM      4  C4  I4B d   1       2.863  -1.292   0.905  0.00  0.00    -0.004 A 
ATOM      5  C5  I4B d   1       2.337  -1.398  -0.379  0.00  0.00     0.002 A 
ATOM      6  C6  I4B d   1       1.157  -0.718  -0.713  0.00  0.00     0.003 A 
ENDROOT
BRANCH   1   7
ATOM      7  C1' I4B d   1      -0.793   0.718  -0.056  0.00  0.00     0.060 C 
BRANCH   7   8
ATOM      8  C2' I4B d   1      -1.806  -0.352  -0.409  0.00  0.00    -0.013 C 
ATOM      9  C4' I4B d   1      -1.719  -1.519   0.539  0.00  0.00     0.013 C 
ATOM     10  C3' I4B d   1      -3.170   0.272  -0.375  0.00  0.00     0.013 C 
ENDBRANCH   7   8
ENDBRANCH   1   7
TORSDOF 2
ENDMDL
