MODEL 1
REMARK minimizedAffinity -4.9820118
REMARK minimizedRMSD -1
REMARK  2 active torsions:
REMARK  status: ('A' for Active; 'I' for Inactive)
REMARK    1  A    between atoms: C2'_3  and  C1'_4 
REMARK    2  A    between atoms: C1'_4  and  C1_5 
ROOT
ATOM      1  C1  I4B d   1       1.095  -0.001   0.172  0.00  0.00    -0.075 A 
ATOM      2  C2  I4B d   1       1.985  -1.045   0.208  0.00  0.00     0.003 A 
ATOM      3  C3  I4B d   1       3.360  -0.801   0.444  0.00  0.00     0.002 A 
ATOM      4  C4  I4B d   1       3.805   0.497   0.587  0.00  0.00    -0.004 A 
ATOM      5  C5  I4B d   1       2.898   1.552   0.574  0.00  0.00     0.002 A 
ATOM      6  C6  I4B d   1       1.532   1.301   0.378  0.00  0.00     0.003 A 
ENDROOT
BRANCH   1   7
ATOM      7  C1' I4B d   1      -0.345  -0.291  -0.112  0.00  0.00     0.060 C 
BRANCH   7   8
ATOM      8  C2' I4B d   1      -1.109   1.015  -0.033  0.00  0.00    -0.013 C 
ATOM      9  C4' I4B d   1      -0.968   1.806  -1.306  0.00  0.00     0.013 C 
ATOM     10  C3' I4B d   1      -2.546   0.694   0.250  0.00  0.00     0.013 C 
ENDBRANCH   7   8
ENDBRANCH   1   7
TORSDOF 2
ENDMDL
