MODEL 1
REMARK minimizedAffinity -5.34939003
REMARK minimizedRMSD -1
REMARK  2 active torsions:
REMARK  status: ('A' for Active; 'I' for Inactive)
REMARK    1  A    between atoms: C2'_3  and  C1'_4 
REMARK    2  A    between atoms: C1'_4  and  C1_5 
ROOT
ATOM      1  C1  I4B d   1       0.625   1.468  -0.407  0.00  0.00    -0.075 A 
ATOM      2  C2  I4B d   1      -0.040   0.284  -0.210  0.00  0.00     0.003 A 
ATOM      3  C3  I4B d   1      -1.429   0.194  -0.468  0.00  0.00     0.002 A 
ATOM      4  C4  I4B d   1      -2.120   1.318  -0.871  0.00  0.00    -0.004 A 
ATOM      5  C5  I4B d   1      -1.440   2.513  -1.093  0.00  0.00     0.002 A 
ATOM      6  C6  I4B d   1      -0.057   2.586  -0.872  0.00  0.00     0.003 A 
ENDROOT
BRANCH   1   7
ATOM      7  C1' I4B d   1       2.086   1.537  -0.094  0.00  0.00     0.060 C 
BRANCH   7   8
ATOM      8  C2' I4B d   1       2.837   0.851  -1.217  0.00  0.00    -0.013 C 
ATOM      9  C4' I4B d   1       4.164   1.516  -1.470  0.00  0.00     0.013 C 
ATOM     10  C3' I4B d   1       3.015  -0.590  -0.842  0.00  0.00     0.013 C 
ENDBRANCH   7   8
ENDBRANCH   1   7
TORSDOF 2
ENDMDL
