MODEL 1
REMARK minimizedAffinity -2.9610815
REMARK minimizedRMSD -1
REMARK  2 active torsions:
REMARK  status: ('A' for Active; 'I' for Inactive)
REMARK    1  A    between atoms: C2'_3  and  C1'_4 
REMARK    2  A    between atoms: C1'_4  and  C1_5 
ROOT
ATOM      1  C1  I4B d   1       2.055   0.036   0.208  0.00  0.00    -0.075 A 
ATOM      2  C2  I4B d   1       2.721  -1.160   0.304  0.00  0.00     0.003 A 
ATOM      3  C3  I4B d   1       4.112  -1.225   0.046  0.00  0.00     0.002 A 
ATOM      4  C4  I4B d   1       4.783  -0.086  -0.351  0.00  0.00    -0.004 A 
ATOM      5  C5  I4B d   1       4.111   1.130  -0.425  0.00  0.00     0.002 A 
ATOM      6  C6  I4B d   1       2.741   1.195  -0.132  0.00  0.00     0.003 A 
ENDROOT
BRANCH   1   7
ATOM      7  C1' I4B d   1       0.580   0.062   0.455  0.00  0.00     0.060 C 
BRANCH   7   8
ATOM      8  C2' I4B d   1       0.007  -1.264  -0.003  0.00  0.00    -0.013 C 
ATOM      9  C4' I4B d   1      -1.145  -1.690   0.869  0.00  0.00     0.013 C 
ATOM     10  C3' I4B d   1      -0.422  -1.113  -1.432  0.00  0.00     0.013 C 
ENDBRANCH   7   8
ENDBRANCH   1   7
TORSDOF 2
ENDMDL
