MODEL 1
REMARK minimizedAffinity -5.12021399
REMARK minimizedRMSD -1
REMARK  2 active torsions:
REMARK  status: ('A' for Active; 'I' for Inactive)
REMARK    1  A    between atoms: C2'_3  and  C1'_4 
REMARK    2  A    between atoms: C1'_4  and  C1_5 
ROOT
ATOM      1  C1  I4B d   1      -0.080   0.220  -0.093  0.00  0.00    -0.075 A 
ATOM      2  C2  I4B d   1       1.077   0.624   0.526  0.00  0.00     0.003 A 
ATOM      3  C3  I4B d   1       2.138  -0.292   0.721  0.00  0.00     0.002 A 
ATOM      4  C4  I4B d   1       1.983  -1.606   0.329  0.00  0.00    -0.004 A 
ATOM      5  C5  I4B d   1       0.819  -2.008  -0.319  0.00  0.00     0.002 A 
ATOM      6  C6  I4B d   1      -0.215  -1.087  -0.543  0.00  0.00     0.003 A 
ENDROOT
BRANCH   1   7
ATOM      7  C1' I4B d   1      -1.194   1.206  -0.253  0.00  0.00     0.060 C 
BRANCH   7   8
ATOM      8  C2' I4B d   1      -2.313   0.801   0.685  0.00  0.00    -0.013 C 
ATOM      9  C4' I4B d   1      -2.411   1.742   1.856  0.00  0.00     0.013 C 
ATOM     10  C3' I4B d   1      -3.590   0.781  -0.101  0.00  0.00     0.013 C 
ENDBRANCH   7   8
ENDBRANCH   1   7
TORSDOF 2
ENDMDL
