MODEL 1
REMARK minimizedAffinity -1.73617744
REMARK minimizedRMSD -1
REMARK  0 active torsions:
REMARK  status: ('A' for Active; 'I' for Inactive)
ROOT
ATOM      1  C   UNL d   1      -0.384   3.002   0.755  0.00  0.00    -0.002 A 
ATOM      2  C1  UNL d   1       0.997   2.867   0.764  0.00  0.00     0.010 A 
ATOM      3  C2  UNL d   1       1.592   1.631   0.500  0.00  0.00     0.041 A 
ATOM      4  C3  UNL d   1       0.766   0.523   0.224  0.00  0.00    -0.075 A 
ATOM      5  S   UNL d   1       1.272  -1.087  -0.129  0.00  0.00     0.015 SA
ATOM      6  C4  UNL d   1      -0.333  -1.633  -0.300  0.00  0.00     0.022 A 
ATOM      7  C5  UNL d   1      -1.246  -0.625  -0.096  0.00  0.00     0.026 A 
ATOM      8  C6  UNL d   1      -0.627   0.635   0.208  0.00  0.00    -0.082 A 
ATOM      9  C7  UNL d   1      -1.199   1.901   0.481  0.00  0.00     0.045 A 
ENDROOT
TORSDOF 0
ENDMDL
