MODEL 1
REMARK minimizedAffinity -2.70494366
REMARK minimizedRMSD -1
REMARK  0 active torsions:
REMARK  status: ('A' for Active; 'I' for Inactive)
ROOT
ATOM      1  C   UNL d   1      -0.681   2.678  -0.547  0.00  0.00    -0.002 A 
ATOM      2  C1  UNL d   1       0.103   2.577   0.594  0.00  0.00     0.010 A 
ATOM      3  C2  UNL d   1       0.618   1.342   0.994  0.00  0.00     0.041 A 
ATOM      4  C3  UNL d   1       0.331   0.201   0.220  0.00  0.00    -0.075 A 
ATOM      5  S   UNL d   1       0.855  -1.415   0.517  0.00  0.00     0.015 SA
ATOM      6  C4  UNL d   1       0.051  -2.008  -0.864  0.00  0.00     0.022 A 
ATOM      7  C5  UNL d   1      -0.606  -1.012  -1.546  0.00  0.00     0.026 A 
ATOM      8  C6  UNL d   1      -0.455   0.278  -0.933  0.00  0.00    -0.082 A 
ATOM      9  C7  UNL d   1      -0.964   1.543  -1.312  0.00  0.00     0.045 A 
ENDROOT
TORSDOF 0
ENDMDL
