MODEL 1
REMARK minimizedAffinity -2.44387078
REMARK minimizedRMSD -1
REMARK  0 active torsions:
REMARK  status: ('A' for Active; 'I' for Inactive)
ROOT
ATOM      1  C   UNL d   1      -1.549   2.525   1.134  0.00  0.00    -0.002 A 
ATOM      2  C1  UNL d   1      -2.646   1.697   0.936  0.00  0.00     0.010 A 
ATOM      3  C2  UNL d   1      -2.478   0.402   0.442  0.00  0.00     0.041 A 
ATOM      4  C3  UNL d   1      -1.177  -0.053   0.149  0.00  0.00    -0.075 A 
ATOM      5  S   UNL d   1      -0.730  -1.601  -0.465  0.00  0.00     0.015 SA
ATOM      6  C4  UNL d   1       0.927  -1.200  -0.478  0.00  0.00     0.022 A 
ATOM      7  C5  UNL d   1       1.151   0.080  -0.029  0.00  0.00     0.026 A 
ATOM      8  C6  UNL d   1      -0.057   0.762   0.340  0.00  0.00    -0.082 A 
ATOM      9  C7  UNL d   1      -0.261   2.070   0.842  0.00  0.00     0.045 A 
ENDROOT
TORSDOF 0
ENDMDL
