MODEL 1
REMARK minimizedAffinity -4.45397282
REMARK minimizedRMSD -1
REMARK  0 active torsions:
REMARK  status: ('A' for Active; 'I' for Inactive)
ROOT
ATOM      1  C   UNL d   1       1.199   3.024  -0.493  0.00  0.00    -0.002 A 
ATOM      2  C1  UNL d   1      -0.027   3.434   0.014  0.00  0.00     0.010 A 
ATOM      3  C2  UNL d   1      -0.948   2.497   0.489  0.00  0.00     0.041 A 
ATOM      4  C3  UNL d   1      -0.612   1.130   0.446  0.00  0.00    -0.075 A 
ATOM      5  S   UNL d   1      -1.582  -0.195   0.972  0.00  0.00     0.015 SA
ATOM      6  C4  UNL d   1      -0.392  -1.336   0.538  0.00  0.00     0.022 A 
ATOM      7  C5  UNL d   1       0.724  -0.737   0.002  0.00  0.00     0.026 A 
ATOM      8  C6  UNL d   1       0.616   0.693  -0.059  0.00  0.00    -0.082 A 
ATOM      9  C7  UNL d   1       1.528   1.667  -0.533  0.00  0.00     0.045 A 
ENDROOT
TORSDOF 0
ENDMDL
