MODEL 1
REMARK minimizedAffinity -4.90900946
REMARK minimizedRMSD -1
REMARK  0 active torsions:
REMARK  status: ('A' for Active; 'I' for Inactive)
ROOT
ATOM      1  C   UNL d   1       1.784   3.128   0.864  0.00  0.00    -0.002 A 
ATOM      2  C1  UNL d   1       2.758   2.168   0.628  0.00  0.00     0.010 A 
ATOM      3  C2  UNL d   1       2.402   0.838   0.397  0.00  0.00     0.041 A 
ATOM      4  C3  UNL d   1       1.038   0.486   0.404  0.00  0.00    -0.075 A 
ATOM      5  S   UNL d   1       0.367  -1.081   0.143  0.00  0.00     0.015 SA
ATOM      6  C4  UNL d   1      -1.228  -0.513   0.337  0.00  0.00     0.022 A 
ATOM      7  C5  UNL d   1      -1.266   0.837   0.595  0.00  0.00     0.026 A 
ATOM      8  C6  UNL d   1       0.039   1.435   0.637  0.00  0.00    -0.082 A 
ATOM      9  C7  UNL d   1       0.432   2.775   0.870  0.00  0.00     0.045 A 
ENDROOT
TORSDOF 0
ENDMDL
