MODEL 1
REMARK minimizedAffinity -5.35664701
REMARK minimizedRMSD -1
REMARK  0 active torsions:
REMARK  status: ('A' for Active; 'I' for Inactive)
ROOT
ATOM      1  C   UNL d   1       2.478   2.905   1.040  0.00  0.00    -0.002 A 
ATOM      2  C1  UNL d   1       1.368   3.560   0.526  0.00  0.00     0.010 A 
ATOM      3  C2  UNL d   1       0.268   2.836   0.062  0.00  0.00     0.041 A 
ATOM      4  C3  UNL d   1       0.302   1.429   0.125  0.00  0.00    -0.075 A 
ATOM      5  S   UNL d   1      -0.929   0.335  -0.384  0.00  0.00     0.015 SA
ATOM      6  C4  UNL d   1      -0.011  -1.027   0.069  0.00  0.00     0.022 A 
ATOM      7  C5  UNL d   1       1.208  -0.675   0.598  0.00  0.00     0.026 A 
ATOM      8  C6  UNL d   1       1.409   0.747   0.639  0.00  0.00    -0.082 A 
ATOM      9  C7  UNL d   1       2.509   1.509   1.101  0.00  0.00     0.045 A 
ENDROOT
TORSDOF 0
ENDMDL
