MODEL 1
REMARK minimizedAffinity 9.77523804
REMARK minimizedRMSD -1
REMARK  0 active torsions:
REMARK  status: ('A' for Active; 'I' for Inactive)
ROOT
ATOM      1  C   UNL d   1       0.252  -3.704  -3.098  0.00  0.00    -0.002 A 
ATOM      2  C1  UNL d   1      -0.873  -3.953  -2.324  0.00  0.00     0.010 A 
ATOM      3  C2  UNL d   1      -1.014  -3.365  -1.066  0.00  0.00     0.041 A 
ATOM      4  C3  UNL d   1       0.003  -2.511  -0.595  0.00  0.00    -0.075 A 
ATOM      5  S   UNL d   1       0.046  -1.679   0.915  0.00  0.00     0.015 SA
ATOM      6  C4  UNL d   1       1.557  -0.972   0.567  0.00  0.00     0.022 A 
ATOM      7  C5  UNL d   1       2.033  -1.351  -0.666  0.00  0.00     0.026 A 
ATOM      8  C6  UNL d   1       1.145  -2.244  -1.356  0.00  0.00    -0.082 A 
ATOM      9  C7  UNL d   1       1.259  -2.857  -2.627  0.00  0.00     0.045 A 
ENDROOT
TORSDOF 0
ENDMDL
