MODEL 1
REMARK minimizedAffinity 1.26997507
REMARK minimizedRMSD -1
REMARK  0 active torsions:
REMARK  status: ('A' for Active; 'I' for Inactive)
ROOT
ATOM      1  C   UNL d   1      -2.108   2.457   0.293  0.00  0.00    -0.002 A 
ATOM      2  C1  UNL d   1      -0.953   3.225   0.340  0.00  0.00     0.010 A 
ATOM      3  C2  UNL d   1       0.303   2.616   0.376  0.00  0.00     0.041 A 
ATOM      4  C3  UNL d   1       0.380   1.209   0.362  0.00  0.00    -0.075 A 
ATOM      5  S   UNL d   1       1.809   0.246   0.399  0.00  0.00     0.015 SA
ATOM      6  C4  UNL d   1       0.920  -1.208   0.352  0.00  0.00     0.022 A 
ATOM      7  C5  UNL d   1      -0.436  -0.982   0.310  0.00  0.00     0.026 A 
ATOM      8  C6  UNL d   1      -0.769   0.415   0.314  0.00  0.00    -0.082 A 
ATOM      9  C7  UNL d   1      -2.028   1.062   0.279  0.00  0.00     0.045 A 
ENDROOT
TORSDOF 0
ENDMDL
