MODEL 1
REMARK minimizedAffinity -2.73309469
REMARK minimizedRMSD -1
REMARK  2 active torsions:
REMARK  status: ('A' for Active; 'I' for Inactive)
REMARK    1  A    between atoms: C1_2  and  C2_3 
REMARK    2  A    between atoms: C2_3  and  C3_4 
ROOT
ATOM      1  C3  UNL d   1      -0.158   0.048   0.293  0.00  0.00    -0.075 A 
ATOM      2  C4  UNL d   1       1.086  -0.157   0.909  0.00  0.00     0.002 A 
ATOM      3  C5  UNL d   1       1.260   0.128   2.264  0.00  0.00     0.002 A 
ATOM      4  C6  UNL d   1       0.200   0.629   3.016  0.00  0.00    -0.004 A 
ATOM      5  C7  UNL d   1      -1.035   0.852   2.410  0.00  0.00     0.002 A 
ATOM      6  C8  UNL d   1      -1.214   0.563   1.056  0.00  0.00     0.002 A 
ENDROOT
BRANCH   1   7
ATOM      7  C2  UNL d   1      -0.361  -0.287  -1.165  0.00  0.00     0.056 C 
BRANCH   7   8
ATOM      8  C1  UNL d   1       0.756   0.222  -2.083  0.00  0.00     0.007 C 
ATOM      9  C   UNL d   1       0.458   0.014  -3.562  0.00  0.00     0.009 C 
ENDBRANCH   7   8
ENDBRANCH   1   7
TORSDOF 2
ENDMDL
