MODEL 1
REMARK minimizedAffinity -5.34185886
REMARK minimizedRMSD -1
REMARK  2 active torsions:
REMARK  status: ('A' for Active; 'I' for Inactive)
REMARK    1  A    between atoms: C1_2  and  C2_3 
REMARK    2  A    between atoms: C2_3  and  C3_4 
ROOT
ATOM      1  C3  UNL d   1       0.019  -0.238   0.007  0.00  0.00    -0.075 A 
ATOM      2  C4  UNL d   1       0.640   0.300   1.144  0.00  0.00     0.002 A 
ATOM      3  C5  UNL d   1      -0.116   0.939   2.128  0.00  0.00     0.002 A 
ATOM      4  C6  UNL d   1      -1.496   1.058   1.983  0.00  0.00    -0.004 A 
ATOM      5  C7  UNL d   1      -2.121   0.542   0.850  0.00  0.00     0.002 A 
ATOM      6  C8  UNL d   1      -1.368  -0.102  -0.134  0.00  0.00     0.002 A 
ENDROOT
BRANCH   1   7
ATOM      7  C2  UNL d   1       0.827  -0.957  -1.047  0.00  0.00     0.056 C 
BRANCH   7   8
ATOM      8  C1  UNL d   1       0.486  -0.544  -2.483  0.00  0.00     0.007 C 
ATOM      9  C   UNL d   1       1.542   0.351  -3.117  0.00  0.00     0.009 C 
ENDBRANCH   7   8
ENDBRANCH   1   7
TORSDOF 2
ENDMDL
