MODEL 1
REMARK minimizedAffinity -5.19053268
REMARK minimizedRMSD -1
REMARK  2 active torsions:
REMARK  status: ('A' for Active; 'I' for Inactive)
REMARK    1  A    between atoms: C1_2  and  C2_3 
REMARK    2  A    between atoms: C2_3  and  C3_4 
ROOT
ATOM      1  C3  UNL d   1       0.369   0.450   0.972  0.00  0.00    -0.075 A 
ATOM      2  C4  UNL d   1      -0.159   0.252  -0.311  0.00  0.00     0.002 A 
ATOM      3  C5  UNL d   1       0.157  -0.895  -1.039  0.00  0.00     0.002 A 
ATOM      4  C6  UNL d   1       1.012  -1.853  -0.497  0.00  0.00    -0.004 A 
ATOM      5  C7  UNL d   1       1.556  -1.659   0.770  0.00  0.00     0.002 A 
ATOM      6  C8  UNL d   1       1.238  -0.514   1.502  0.00  0.00     0.002 A 
ENDROOT
BRANCH   1   7
ATOM      7  C2  UNL d   1       0.007   1.676   1.776  0.00  0.00     0.056 C 
BRANCH   7   8
ATOM      8  C1  UNL d   1      -0.922   1.393   2.961  0.00  0.00     0.007 C 
ATOM      9  C   UNL d   1      -1.805   0.170   2.753  0.00  0.00     0.009 C 
ENDBRANCH   7   8
ENDBRANCH   1   7
TORSDOF 2
ENDMDL
