MODEL 1
REMARK minimizedAffinity -3.67272758
REMARK minimizedRMSD -1
REMARK  2 active torsions:
REMARK  status: ('A' for Active; 'I' for Inactive)
REMARK    1  A    between atoms: C1_2  and  C2_3 
REMARK    2  A    between atoms: C2_3  and  C3_4 
ROOT
ATOM      1  C3  UNL d   1      -0.070  -0.080  -0.309  0.00  0.00    -0.075 A 
ATOM      2  C4  UNL d   1       0.653   0.998   0.222  0.00  0.00     0.002 A 
ATOM      3  C5  UNL d   1       0.270   1.581   1.431  0.00  0.00     0.002 A 
ATOM      4  C6  UNL d   1      -0.845   1.102   2.116  0.00  0.00    -0.004 A 
ATOM      5  C7  UNL d   1      -1.580   0.043   1.588  0.00  0.00     0.002 A 
ATOM      6  C8  UNL d   1      -1.197  -0.545   0.382  0.00  0.00     0.002 A 
ENDROOT
BRANCH   1   7
ATOM      7  C2  UNL d   1       0.357  -0.734  -1.602  0.00  0.00     0.056 C 
BRANCH   7   8
ATOM      8  C1  UNL d   1       0.752   0.257  -2.702  0.00  0.00     0.007 C 
ATOM      9  C   UNL d   1       0.375  -0.217  -4.099  0.00  0.00     0.009 C 
ENDBRANCH   7   8
ENDBRANCH   1   7
TORSDOF 2
ENDMDL
