MODEL 1
REMARK minimizedAffinity -4.33938313
REMARK minimizedRMSD -1
REMARK  2 active torsions:
REMARK  status: ('A' for Active; 'I' for Inactive)
REMARK    1  A    between atoms: C1_2  and  C2_3 
REMARK    2  A    between atoms: C2_3  and  C3_4 
ROOT
ATOM      1  C3  UNL d   1       0.012  -0.272  -0.038  0.00  0.00    -0.075 A 
ATOM      2  C4  UNL d   1      -1.298  -0.007   0.389  0.00  0.00     0.002 A 
ATOM      3  C5  UNL d   1      -1.547   0.384   1.705  0.00  0.00     0.002 A 
ATOM      4  C6  UNL d   1      -0.496   0.505   2.611  0.00  0.00    -0.004 A 
ATOM      5  C7  UNL d   1       0.807   0.228   2.201  0.00  0.00     0.002 A 
ATOM      6  C8  UNL d   1       1.060  -0.159   0.884  0.00  0.00     0.002 A 
ENDROOT
BRANCH   1   7
ATOM      7  C2  UNL d   1       0.292  -0.667  -1.468  0.00  0.00     0.056 C 
BRANCH   7   8
ATOM      8  C1  UNL d   1       1.039   0.400  -2.275  0.00  0.00     0.007 C 
ATOM      9  C   UNL d   1       0.856   0.253  -3.780  0.00  0.00     0.009 C 
ENDBRANCH   7   8
ENDBRANCH   1   7
TORSDOF 2
ENDMDL
