MODEL 1
REMARK minimizedAffinity -5.46553421
REMARK minimizedRMSD -1
REMARK  2 active torsions:
REMARK  status: ('A' for Active; 'I' for Inactive)
REMARK    1  A    between atoms: C1_2  and  C2_3 
REMARK    2  A    between atoms: C2_3  and  C3_4 
ROOT
ATOM      1  C3  UNL d   1      -0.617  -0.291   0.401  0.00  0.00    -0.075 A 
ATOM      2  C4  UNL d   1      -1.694  -0.335   1.298  0.00  0.00     0.002 A 
ATOM      3  C5  UNL d   1      -1.652   0.388   2.491  0.00  0.00     0.002 A 
ATOM      4  C6  UNL d   1      -0.532   1.153   2.806  0.00  0.00    -0.004 A 
ATOM      5  C7  UNL d   1       0.551   1.190   1.930  0.00  0.00     0.002 A 
ATOM      6  C8  UNL d   1       0.510   0.472   0.734  0.00  0.00     0.002 A 
ENDROOT
BRANCH   1   7
ATOM      7  C2  UNL d   1      -0.668  -1.047  -0.905  0.00  0.00     0.056 C 
BRANCH   7   8
ATOM      8  C1  UNL d   1       0.645  -1.020  -1.694  0.00  0.00     0.007 C 
ATOM      9  C   UNL d   1       0.453  -0.699  -3.170  0.00  0.00     0.009 C 
ENDBRANCH   7   8
ENDBRANCH   1   7
TORSDOF 2
ENDMDL
