MODEL 1
REMARK minimizedAffinity -1.00907028
REMARK minimizedRMSD -1
REMARK  2 active torsions:
REMARK  status: ('A' for Active; 'I' for Inactive)
REMARK    1  A    between atoms: C1_2  and  C2_3 
REMARK    2  A    between atoms: C2_3  and  C3_4 
ROOT
ATOM      1  C3  UNL d   1       0.050  -0.449  -4.117  0.00  0.00    -0.075 A 
ATOM      2  C4  UNL d   1      -0.252  -1.784  -3.808  0.00  0.00     0.002 A 
ATOM      3  C5  UNL d   1      -1.147  -2.508  -4.595  0.00  0.00     0.002 A 
ATOM      4  C6  UNL d   1      -1.760  -1.906  -5.692  0.00  0.00    -0.004 A 
ATOM      5  C7  UNL d   1      -1.480  -0.576  -5.999  0.00  0.00     0.002 A 
ATOM      6  C8  UNL d   1      -0.581   0.150  -5.216  0.00  0.00     0.002 A 
ENDROOT
BRANCH   1   7
ATOM      7  C2  UNL d   1       1.041   0.331  -3.287  0.00  0.00     0.056 C 
BRANCH   7   8
ATOM      8  C1  UNL d   1       2.202   0.922  -4.094  0.00  0.00     0.007 C 
ATOM      9  C   UNL d   1       3.537   0.246  -3.810  0.00  0.00     0.009 C 
ENDBRANCH   7   8
ENDBRANCH   1   7
TORSDOF 2
ENDMDL
