MODEL 1
REMARK minimizedAffinity 8.31196308
REMARK minimizedRMSD -1
REMARK  0 active torsions:
REMARK  status: ('A' for Active; 'I' for Inactive)
ROOT
ATOM      1  C   UNL d   1      -6.000   1.491   0.076  0.00  0.00     0.077 C 
ATOM      2  C1  UNL d   1      -5.299   1.910  -1.182  0.00  0.00    -0.074 A 
ATOM      3  C2  UNL d   1      -4.021   1.431  -1.487  0.00  0.00    -0.005 A 
ATOM      4  C3  UNL d   1      -3.386   1.823  -2.665  0.00  0.00     0.006 A 
ATOM      5  C4  UNL d   1      -4.021   2.697  -3.549  0.00  0.00    -0.005 A 
ATOM      6  C5  UNL d   1      -5.299   3.185  -3.262  0.00  0.00    -0.074 A 
ATOM      7  C6  UNL d   1      -6.000   4.117  -4.205  0.00  0.00     0.077 C 
ATOM      8  C7  UNL d   1      -5.934   2.781  -2.079  0.00  0.00    -0.001 A 
ENDROOT
TORSDOF 0
ENDMDL
