MODEL 1
REMARK minimizedAffinity 3.74952102
REMARK minimizedRMSD -1
REMARK  0 active torsions:
REMARK  status: ('A' for Active; 'I' for Inactive)
ROOT
ATOM      1  C   UNL d   1      -3.749   0.178  -4.091  0.00  0.00     0.077 C 
ATOM      2  C1  UNL d   1      -4.528   1.422  -3.781  0.00  0.00    -0.074 A 
ATOM      3  C2  UNL d   1      -4.934   2.289  -4.800  0.00  0.00    -0.005 A 
ATOM      4  C3  UNL d   1      -5.666   3.437  -4.497  0.00  0.00     0.006 A 
ATOM      5  C4  UNL d   1      -6.000   3.728  -3.174  0.00  0.00    -0.005 A 
ATOM      6  C5  UNL d   1      -5.604   2.872  -2.142  0.00  0.00    -0.074 A 
ATOM      7  C6  UNL d   1      -5.962   3.166  -0.715  0.00  0.00     0.077 C 
ATOM      8  C7  UNL d   1      -4.874   1.717  -2.455  0.00  0.00    -0.001 A 
ENDROOT
TORSDOF 0
ENDMDL
