MODEL 1
REMARK minimizedAffinity 2.26731968
REMARK minimizedRMSD -1
REMARK  0 active torsions:
REMARK  status: ('A' for Active; 'I' for Inactive)
ROOT
ATOM      1  C   UNL d   1       2.623   4.254  -0.639  0.00  0.00     0.077 C 
ATOM      2  C1  UNL d   1       1.772   3.256   0.088  0.00  0.00    -0.074 A 
ATOM      3  C2  UNL d   1       0.403   3.476   0.269  0.00  0.00    -0.005 A 
ATOM      4  C3  UNL d   1      -0.378   2.534   0.939  0.00  0.00     0.006 A 
ATOM      5  C4  UNL d   1       0.201   1.366   1.435  0.00  0.00    -0.005 A 
ATOM      6  C5  UNL d   1       1.569   1.129   1.264  0.00  0.00    -0.074 A 
ATOM      7  C6  UNL d   1       2.206  -0.126   1.782  0.00  0.00     0.077 C 
ATOM      8  C7  UNL d   1       2.346   2.076   0.583  0.00  0.00    -0.001 A 
ENDROOT
TORSDOF 0
ENDMDL
