MODEL 1
REMARK minimizedAffinity 3.2650342
REMARK minimizedRMSD -1
REMARK  0 active torsions:
REMARK  status: ('A' for Active; 'I' for Inactive)
ROOT
ATOM      1  C   UNL d   1       3.085   1.439   0.917  0.00  0.00     0.077 C 
ATOM      2  C1  UNL d   1       2.513   0.257   1.641  0.00  0.00    -0.074 A 
ATOM      3  C2  UNL d   1       1.155  -0.060   1.540  0.00  0.00    -0.005 A 
ATOM      4  C3  UNL d   1       0.639  -1.168   2.212  0.00  0.00     0.006 A 
ATOM      5  C4  UNL d   1       1.475  -1.969   2.991  0.00  0.00    -0.005 A 
ATOM      6  C5  UNL d   1       2.836  -1.668   3.103  0.00  0.00    -0.074 A 
ATOM      7  C6  UNL d   1       3.751  -2.524   3.928  0.00  0.00     0.077 C 
ATOM      8  C7  UNL d   1       3.348  -0.557   2.419  0.00  0.00    -0.001 A 
ENDROOT
TORSDOF 0
ENDMDL
