MODEL 1
REMARK minimizedAffinity 7.8169713
REMARK minimizedRMSD -1
REMARK  0 active torsions:
REMARK  status: ('A' for Active; 'I' for Inactive)
ROOT
ATOM      1  C   UNL d   1       2.626  -2.093   4.987  0.00  0.00     0.077 C 
ATOM      2  C1  UNL d   1       2.213  -1.525   3.662  0.00  0.00    -0.074 A 
ATOM      3  C2  UNL d   1       1.319  -2.211   2.833  0.00  0.00    -0.005 A 
ATOM      4  C3  UNL d   1       0.936  -1.666   1.608  0.00  0.00     0.006 A 
ATOM      5  C4  UNL d   1       1.443  -0.432   1.199  0.00  0.00    -0.005 A 
ATOM      6  C5  UNL d   1       2.337   0.269   2.014  0.00  0.00    -0.074 A 
ATOM      7  C6  UNL d   1       2.884   1.601   1.594  0.00  0.00     0.077 C 
ATOM      8  C7  UNL d   1       2.712  -0.282   3.247  0.00  0.00    -0.001 A 
ENDROOT
TORSDOF 0
ENDMDL
