MODEL 1
REMARK minimizedAffinity 5.47299528
REMARK minimizedRMSD -1
REMARK  0 active torsions:
REMARK  status: ('A' for Active; 'I' for Inactive)
ROOT
ATOM      1  C   UNL d   1       2.248  -3.262   4.040  0.00  0.00     0.077 C 
ATOM      2  C1  UNL d   1       2.263  -1.855   3.520  0.00  0.00    -0.074 A 
ATOM      3  C2  UNL d   1       1.859  -0.786   4.327  0.00  0.00    -0.005 A 
ATOM      4  C3  UNL d   1       1.888   0.518   3.832  0.00  0.00     0.006 A 
ATOM      5  C4  UNL d   1       2.319   0.766   2.529  0.00  0.00    -0.005 A 
ATOM      6  C5  UNL d   1       2.727  -0.290   1.708  0.00  0.00    -0.074 A 
ATOM      7  C6  UNL d   1       3.202  -0.040   0.307  0.00  0.00     0.077 C 
ATOM      8  C7  UNL d   1       2.702  -1.597   2.214  0.00  0.00    -0.001 A 
ENDROOT
TORSDOF 0
ENDMDL
