MODEL 1
REMARK minimizedAffinity 6.19995403
REMARK minimizedRMSD -1
REMARK  0 active torsions:
REMARK  status: ('A' for Active; 'I' for Inactive)
ROOT
ATOM      1  C   UNL d   1      -3.750   0.199  -3.748  0.00  0.00     0.077 C 
ATOM      2  C1  UNL d   1      -4.529   1.444  -3.442  0.00  0.00    -0.074 A 
ATOM      3  C2  UNL d   1      -4.916   2.318  -4.462  0.00  0.00    -0.005 A 
ATOM      4  C3  UNL d   1      -5.648   3.467  -4.163  0.00  0.00     0.006 A 
ATOM      5  C4  UNL d   1      -6.000   3.753  -2.843  0.00  0.00    -0.005 A 
ATOM      6  C5  UNL d   1      -5.622   2.890  -1.810  0.00  0.00    -0.074 A 
ATOM      7  C6  UNL d   1      -6.000   3.177  -0.387  0.00  0.00     0.077 C 
ATOM      8  C7  UNL d   1      -4.892   1.734  -2.119  0.00  0.00    -0.001 A 
ENDROOT
TORSDOF 0
ENDMDL
