MODEL 1
REMARK minimizedAffinity 8.46692085
REMARK minimizedRMSD -1
REMARK  0 active torsions:
REMARK  status: ('A' for Active; 'I' for Inactive)
ROOT
ATOM      1  C   UNL d   1       0.108  -2.245  -2.525  0.00  0.00     0.077 C 
ATOM      2  C1  UNL d   1      -1.111  -2.731  -1.799  0.00  0.00    -0.074 A 
ATOM      3  C2  UNL d   1      -1.016  -3.254  -0.506  0.00  0.00    -0.005 A 
ATOM      4  C3  UNL d   1      -2.160  -3.694   0.160  0.00  0.00     0.006 A 
ATOM      5  C4  UNL d   1      -3.408  -3.616  -0.459  0.00  0.00    -0.005 A 
ATOM      6  C5  UNL d   1      -3.522  -3.095  -1.752  0.00  0.00    -0.074 A 
ATOM      7  C6  UNL d   1      -4.857  -2.994  -2.429  0.00  0.00     0.077 C 
ATOM      8  C7  UNL d   1      -2.369  -2.648  -2.412  0.00  0.00    -0.001 A 
ENDROOT
TORSDOF 0
ENDMDL
