MODEL 1
REMARK minimizedAffinity 5.75941706
REMARK minimizedRMSD -1
REMARK  0 active torsions:
REMARK  status: ('A' for Active; 'I' for Inactive)
ROOT
ATOM      1  C   UNL d   1       2.712   1.733   0.896  0.00  0.00     0.077 C 
ATOM      2  C1  UNL d   1       2.098   0.513   1.517  0.00  0.00    -0.074 A 
ATOM      3  C2  UNL d   1       0.779   0.147   1.230  0.00  0.00    -0.005 A 
ATOM      4  C3  UNL d   1       0.226  -0.996   1.808  0.00  0.00     0.006 A 
ATOM      5  C4  UNL d   1       0.983  -1.782   2.677  0.00  0.00    -0.005 A 
ATOM      6  C5  UNL d   1       2.304  -1.432   2.974  0.00  0.00    -0.074 A 
ATOM      7  C6  UNL d   1       3.136  -2.271   3.898  0.00  0.00     0.077 C 
ATOM      8  C7  UNL d   1       2.856  -0.286   2.385  0.00  0.00    -0.001 A 
ENDROOT
TORSDOF 0
ENDMDL
