MODEL 1
REMARK minimizedAffinity 2.22070217
REMARK minimizedRMSD -1
REMARK  0 active torsions:
REMARK  status: ('A' for Active; 'I' for Inactive)
ROOT
ATOM      1  C   UNL d   1       1.666   2.860   1.138  0.00  0.00     0.077 C 
ATOM      2  C1  UNL d   1       1.678   1.437   1.612  0.00  0.00    -0.074 A 
ATOM      3  C2  UNL d   1       2.693   0.968   2.452  0.00  0.00    -0.005 A 
ATOM      4  C3  UNL d   1       2.686  -0.356   2.891  0.00  0.00     0.006 A 
ATOM      5  C4  UNL d   1       1.667  -1.223   2.496  0.00  0.00    -0.005 A 
ATOM      6  C5  UNL d   1       0.643  -0.771   1.657  0.00  0.00    -0.074 A 
ATOM      7  C6  UNL d   1      -0.466  -1.686   1.230  0.00  0.00     0.077 C 
ATOM      8  C7  UNL d   1       0.653   0.562   1.225  0.00  0.00    -0.001 A 
ENDROOT
TORSDOF 0
ENDMDL
