MODEL 1
REMARK minimizedAffinity 4.2936554
REMARK minimizedRMSD -1
REMARK  1 active torsions:
REMARK  status: ('A' for Active; 'I' for Inactive)
REMARK    1  A    between atoms: C1_2  and  C2_3 
ROOT
ATOM      1  C2  UNL d   1      -3.318   3.456   5.966  0.00  0.00    -0.077 A 
ATOM      2  C3  UNL d   1      -1.922   3.592   5.985  0.00  0.00     0.002 A 
ATOM      3  C4  UNL d   1      -1.336   4.859   6.000  0.00  0.00     0.002 A 
ATOM      4  C5  UNL d   1      -2.138   5.999   6.000  0.00  0.00    -0.004 A 
ATOM      5  C6  UNL d   1      -3.526   5.874   5.979  0.00  0.00     0.002 A 
ATOM      6  C7  UNL d   1      -4.114   4.608   5.962  0.00  0.00     0.002 A 
ENDROOT
BRANCH   1   7
ATOM      7  C1  UNL d   1      -3.952   2.090   5.999  0.00  0.00     0.055 C 
ATOM      8  C   UNL d   1      -4.622   1.758   4.674  0.00  0.00     0.019 C 
ENDBRANCH   1   7
TORSDOF 1
ENDMDL
