MODEL 1
REMARK minimizedAffinity 0.348190397
REMARK minimizedRMSD -1
REMARK  1 active torsions:
REMARK  status: ('A' for Active; 'I' for Inactive)
REMARK    1  A    between atoms: C1_2  and  C2_3 
ROOT
ATOM      1  C2  UNL d   1      -1.341   4.029   5.288  0.00  0.00    -0.077 A 
ATOM      2  C3  UNL d   1      -0.414   4.804   6.000  0.00  0.00     0.002 A 
ATOM      3  C4  UNL d   1       0.337   5.783   5.347  0.00  0.00     0.002 A 
ATOM      4  C5  UNL d   1       0.167   5.999   3.982  0.00  0.00    -0.004 A 
ATOM      5  C6  UNL d   1      -0.751   5.233   3.264  0.00  0.00     0.002 A 
ATOM      6  C7  UNL d   1      -1.502   4.253   3.915  0.00  0.00     0.002 A 
ENDROOT
BRANCH   1   7
ATOM      7  C1  UNL d   1      -2.187   3.006   6.000  0.00  0.00     0.055 C 
ATOM      8  C   UNL d   1      -2.624   1.896   5.055  0.00  0.00     0.019 C 
ENDBRANCH   1   7
TORSDOF 1
ENDMDL
