MODEL 1
REMARK minimizedAffinity -4.38626194
REMARK minimizedRMSD -1
REMARK  1 active torsions:
REMARK  status: ('A' for Active; 'I' for Inactive)
REMARK    1  A    between atoms: C1_2  and  C2_3 
ROOT
ATOM      1  C2  UNL d   1      -1.012   4.889   4.688  0.00  0.00    -0.077 A 
ATOM      2  C3  UNL d   1      -1.411   3.673   5.259  0.00  0.00     0.002 A 
ATOM      3  C4  UNL d   1      -2.745   3.463   5.613  0.00  0.00     0.002 A 
ATOM      4  C5  UNL d   1      -3.691   4.463   5.397  0.00  0.00    -0.004 A 
ATOM      5  C6  UNL d   1      -3.303   5.677   4.832  0.00  0.00     0.002 A 
ATOM      6  C7  UNL d   1      -1.970   5.889   4.478  0.00  0.00     0.002 A 
ENDROOT
BRANCH   1   7
ATOM      7  C1  UNL d   1       0.417   5.099   4.259  0.00  0.00     0.055 C 
ATOM      8  C   UNL d   1       1.279   5.575   5.420  0.00  0.00     0.019 C 
ENDBRANCH   1   7
TORSDOF 1
ENDMDL
