MODEL 1
REMARK minimizedAffinity -0.0769813135
REMARK minimizedRMSD -1
REMARK  1 active torsions:
REMARK  status: ('A' for Active; 'I' for Inactive)
REMARK    1  A    between atoms: C1_2  and  C2_3 
ROOT
ATOM      1  C2  UNL d   1      -0.330   5.220   5.726  0.00  0.00    -0.077 A 
ATOM      2  C3  UNL d   1      -0.448   3.833   5.891  0.00  0.00     0.002 A 
ATOM      3  C4  UNL d   1      -1.707   3.239   5.998  0.00  0.00     0.002 A 
ATOM      4  C5  UNL d   1      -2.857   4.023   5.937  0.00  0.00    -0.004 A 
ATOM      5  C6  UNL d   1      -2.750   5.404   5.775  0.00  0.00     0.002 A 
ATOM      6  C7  UNL d   1      -1.492   6.000   5.669  0.00  0.00     0.002 A 
ENDROOT
BRANCH   1   7
ATOM      7  C1  UNL d   1       1.025   5.857   5.562  0.00  0.00     0.055 C 
ATOM      8  C   UNL d   1       1.571   5.642   4.158  0.00  0.00     0.019 C 
ENDBRANCH   1   7
TORSDOF 1
ENDMDL
