MODEL 1
REMARK minimizedAffinity -2.72964931
REMARK minimizedRMSD -1
REMARK  1 active torsions:
REMARK  status: ('A' for Active; 'I' for Inactive)
REMARK    1  A    between atoms: C1_2  and  C2_3 
ROOT
ATOM      1  C2  UNL d   1      -0.131   5.526   4.762  0.00  0.00    -0.077 A 
ATOM      2  C3  UNL d   1      -0.870   4.961   3.714  0.00  0.00     0.002 A 
ATOM      3  C4  UNL d   1      -2.261   4.870   3.800  0.00  0.00     0.002 A 
ATOM      4  C5  UNL d   1      -2.924   5.346   4.929  0.00  0.00    -0.004 A 
ATOM      5  C6  UNL d   1      -2.197   5.908   5.978  0.00  0.00     0.002 A 
ATOM      6  C7  UNL d   1      -0.807   5.998   5.895  0.00  0.00     0.002 A 
ENDROOT
BRANCH   1   7
ATOM      7  C1  UNL d   1       1.365   5.670   4.650  0.00  0.00     0.055 C 
ATOM      8  C   UNL d   1       1.991   6.000   5.997  0.00  0.00     0.019 C 
ENDBRANCH   1   7
TORSDOF 1
ENDMDL
