MODEL 1
REMARK minimizedAffinity 14.1446524
REMARK minimizedRMSD -1
REMARK  0 active torsions:
REMARK  status: ('A' for Active; 'I' for Inactive)
ROOT
ATOM      1  C   UNL d   1       1.500  -0.905   4.089  0.00  0.00     0.020 A 
ATOM      2  C1  UNL d   1       1.622  -1.160   5.454  0.00  0.00     0.020 A 
ATOM      3  C2  UNL d   1       2.872  -1.457   6.000  0.00  0.00     0.034 A 
ATOM      4  C3  UNL d   1       4.006  -1.501   5.180  0.00  0.00     0.017 A 
ATOM      5  C4  UNL d   1       3.883  -1.245   3.810  0.00  0.00     0.017 A 
ATOM      6  C5  UNL d   1       2.629  -0.947   3.268  0.00  0.00     0.034 A 
ATOM      7 Cl   UNL d   1       5.236  -1.280   2.735  0.00  0.00    -0.070 Cl
ATOM      8 Cl1  UNL d   1       5.521  -1.875   5.923  0.00  0.00    -0.070 Cl
ENDROOT
TORSDOF 0
ENDMDL
