MODEL 1
REMARK minimizedAffinity -1.94711566
REMARK minimizedRMSD -1
REMARK  0 active torsions:
REMARK  status: ('A' for Active; 'I' for Inactive)
ROOT
ATOM      1  C   UNL d   1       1.058  -2.716   2.239  0.00  0.00     0.020 A 
ATOM      2  C1  UNL d   1       1.987  -2.086   3.066  0.00  0.00     0.020 A 
ATOM      3  C2  UNL d   1       2.342  -0.756   2.831  0.00  0.00     0.034 A 
ATOM      4  C3  UNL d   1       1.768  -0.052   1.766  0.00  0.00     0.017 A 
ATOM      5  C4  UNL d   1       0.835  -0.685   0.937  0.00  0.00     0.017 A 
ATOM      6  C5  UNL d   1       0.483  -2.017   1.177  0.00  0.00     0.034 A 
ATOM      7 Cl   UNL d   1       0.084   0.118  -0.397  0.00  0.00    -0.070 Cl
ATOM      8 Cl1  UNL d   1       2.253   1.590   1.534  0.00  0.00    -0.070 Cl
ENDROOT
TORSDOF 0
ENDMDL
