MODEL 1
REMARK minimizedAffinity 12.262598
REMARK minimizedRMSD -1
REMARK  0 active torsions:
REMARK  status: ('A' for Active; 'I' for Inactive)
ROOT
ATOM      1  C   UNL d   1       2.058  -0.010   5.454  0.00  0.00     0.020 A 
ATOM      2  C1  UNL d   1       2.206   0.149   4.076  0.00  0.00     0.020 A 
ATOM      3  C2  UNL d   1       2.239  -0.972   3.244  0.00  0.00     0.034 A 
ATOM      4  C3  UNL d   1       2.124  -2.256   3.788  0.00  0.00     0.017 A 
ATOM      5  C4  UNL d   1       1.976  -2.415   5.171  0.00  0.00     0.017 A 
ATOM      6  C5  UNL d   1       1.943  -1.289   5.999  0.00  0.00     0.034 A 
ATOM      7 Cl   UNL d   1       1.828  -3.967   5.915  0.00  0.00    -0.070 Cl
ATOM      8 Cl1  UNL d   1       2.173  -3.597   2.699  0.00  0.00    -0.070 Cl
ENDROOT
TORSDOF 0
ENDMDL
