MODEL 1
REMARK minimizedAffinity 9.01382256
REMARK minimizedRMSD -1
REMARK  0 active torsions:
REMARK  status: ('A' for Active; 'I' for Inactive)
ROOT
ATOM      1  C   UNL d   1      -2.658  -2.392  -3.162  0.00  0.00     0.020 A 
ATOM      2  C1  UNL d   1      -3.846  -1.845  -3.645  0.00  0.00     0.020 A 
ATOM      3  C2  UNL d   1      -3.990  -0.459  -3.736  0.00  0.00     0.034 A 
ATOM      4  C3  UNL d   1      -2.944   0.385  -3.344  0.00  0.00     0.017 A 
ATOM      5  C4  UNL d   1      -1.752  -0.165  -2.859  0.00  0.00     0.017 A 
ATOM      6  C5  UNL d   1      -1.614  -1.554  -2.770  0.00  0.00     0.034 A 
ATOM      7 Cl   UNL d   1      -0.418   0.811  -2.356  0.00  0.00    -0.070 Cl
ATOM      8 Cl1  UNL d   1      -3.191   2.089  -3.484  0.00  0.00    -0.070 Cl
ENDROOT
TORSDOF 0
ENDMDL
