MODEL 1
REMARK minimizedAffinity 12.5209389
REMARK minimizedRMSD -1
REMARK  0 active torsions:
REMARK  status: ('A' for Active; 'I' for Inactive)
ROOT
ATOM      1  C   UNL d   1      -3.024   0.804  -4.398  0.00  0.00     0.020 A 
ATOM      2  C1  UNL d   1      -2.096   1.415  -3.556  0.00  0.00     0.020 A 
ATOM      3  C2  UNL d   1      -1.467   0.672  -2.554  0.00  0.00     0.034 A 
ATOM      4  C3  UNL d   1      -1.766  -0.686  -2.393  0.00  0.00     0.017 A 
ATOM      5  C4  UNL d   1      -2.698  -1.298  -3.239  0.00  0.00     0.017 A 
ATOM      6  C5  UNL d   1      -3.324  -0.549  -4.240  0.00  0.00     0.034 A 
ATOM      7 Cl   UNL d   1      -3.119  -2.969  -3.100  0.00  0.00    -0.070 Cl
ATOM      8 Cl1  UNL d   1      -0.951  -1.544  -1.133  0.00  0.00    -0.070 Cl
ENDROOT
TORSDOF 0
ENDMDL
