MODEL 1
REMARK minimizedAffinity 5.78456831
REMARK minimizedRMSD -1
REMARK  0 active torsions:
REMARK  status: ('A' for Active; 'I' for Inactive)
ROOT
ATOM      1  C   UNL d   1      -1.019  -1.411  -3.737  0.00  0.00     0.020 A 
ATOM      2  C1  UNL d   1      -1.706  -0.584  -4.625  0.00  0.00     0.020 A 
ATOM      3  C2  UNL d   1      -2.373   0.548  -4.152  0.00  0.00     0.034 A 
ATOM      4  C3  UNL d   1      -2.354   0.857  -2.787  0.00  0.00     0.017 A 
ATOM      5  C4  UNL d   1      -1.664   0.027  -1.896  0.00  0.00     0.017 A 
ATOM      6  C5  UNL d   1      -0.998  -1.106  -2.376  0.00  0.00     0.034 A 
ATOM      7 Cl   UNL d   1      -1.595   0.343  -0.198  0.00  0.00    -0.070 Cl
ATOM      8 Cl1  UNL d   1      -3.199   2.273  -2.272  0.00  0.00    -0.070 Cl
ENDROOT
TORSDOF 0
ENDMDL
