MODEL 1
REMARK minimizedAffinity 4.81447411
REMARK minimizedRMSD -1
REMARK  0 active torsions:
REMARK  status: ('A' for Active; 'I' for Inactive)
ROOT
ATOM      1  C   UNL d   1      -1.907  -2.311  -4.872  0.00  0.00     0.020 A 
ATOM      2  C1  UNL d   1      -3.291  -2.406  -4.736  0.00  0.00     0.020 A 
ATOM      3  C2  UNL d   1      -3.968  -1.554  -3.862  0.00  0.00     0.034 A 
ATOM      4  C3  UNL d   1      -3.261  -0.601  -3.119  0.00  0.00     0.017 A 
ATOM      5  C4  UNL d   1      -1.871  -0.506  -3.255  0.00  0.00     0.017 A 
ATOM      6  C5  UNL d   1      -1.198  -1.362  -4.133  0.00  0.00     0.034 A 
ATOM      7 Cl   UNL d   1      -0.930   0.644  -2.373  0.00  0.00    -0.070 Cl
ATOM      8 Cl1  UNL d   1      -4.162   0.421  -2.057  0.00  0.00    -0.070 Cl
ENDROOT
TORSDOF 0
ENDMDL
