MODEL 1
REMARK minimizedAffinity 11.8682451
REMARK minimizedRMSD -1
REMARK  1 active torsions:
REMARK  status: ('A' for Active; 'I' for Inactive)
REMARK    1  A    between atoms: C1_2  and  C2_3 
ROOT
ATOM      1  C2  UNL d   1      -1.077  -5.232  -3.748  0.00  0.00    -0.081 A 
ATOM      2  C3  UNL d   1      -1.033  -5.799  -5.028  0.00  0.00     0.006 A 
ATOM      3  C4  UNL d   1      -2.209  -5.999  -5.754  0.00  0.00     0.002 A 
ATOM      4  C5  UNL d   1      -3.447  -5.630  -5.218  0.00  0.00    -0.080 A 
ATOM      5  C6  UNL d   1      -4.713  -5.812  -6.000  0.00  0.00     0.076 C 
ATOM      6  C7  UNL d   1      -3.493  -5.079  -3.932  0.00  0.00     0.002 A 
ATOM      7  C8  UNL d   1      -2.317  -4.879  -3.205  0.00  0.00     0.006 A 
ENDROOT
BRANCH   1   8
ATOM      8  C1  UNL d   1       0.195  -4.955  -2.988  0.00  0.00     0.054 C 
ATOM      9  C   UNL d   1      -0.099  -4.418  -1.594  0.00  0.00     0.018 C 
ENDBRANCH   1   8
TORSDOF 1
ENDMDL
