MODEL 1
REMARK minimizedAffinity 6.53570843
REMARK minimizedRMSD -1
REMARK  1 active torsions:
REMARK  status: ('A' for Active; 'I' for Inactive)
REMARK    1  A    between atoms: C1_2  and  C2_3 
ROOT
ATOM      1  C2  UNL d   1       1.719   2.496   1.551  0.00  0.00    -0.081 A 
ATOM      2  C3  UNL d   1       2.697   3.242   0.882  0.00  0.00     0.006 A 
ATOM      3  C4  UNL d   1       2.424   3.812  -0.364  0.00  0.00     0.002 A 
ATOM      4  C5  UNL d   1       1.168   3.652  -0.958  0.00  0.00    -0.080 A 
ATOM      5  C6  UNL d   1       0.852   4.284  -2.281  0.00  0.00     0.076 C 
ATOM      6  C7  UNL d   1       0.196   2.892  -0.298  0.00  0.00     0.002 A 
ATOM      7  C8  UNL d   1       0.468   2.321   0.947  0.00  0.00     0.006 A 
ENDROOT
BRANCH   1   8
ATOM      8  C1  UNL d   1       1.988   1.935   2.923  0.00  0.00     0.054 C 
ATOM      9  C   UNL d   1       3.315   1.191   2.966  0.00  0.00     0.018 C 
ENDBRANCH   1   8
TORSDOF 1
ENDMDL
