MODEL 1
REMARK minimizedAffinity 16.1393013
REMARK minimizedRMSD -1
REMARK  1 active torsions:
REMARK  status: ('A' for Active; 'I' for Inactive)
REMARK    1  A    between atoms: C1_2  and  C2_3 
ROOT
ATOM      1  C2  UNL d   1      -4.575   0.944  -2.317  0.00  0.00    -0.081 A 
ATOM      2  C3  UNL d   1      -4.253   2.307  -2.320  0.00  0.00     0.006 A 
ATOM      3  C4  UNL d   1      -3.884   2.945  -3.507  0.00  0.00     0.002 A 
ATOM      4  C5  UNL d   1      -3.839   2.234  -4.711  0.00  0.00    -0.080 A 
ATOM      5  C6  UNL d   1      -3.473   2.914  -5.997  0.00  0.00     0.076 C 
ATOM      6  C7  UNL d   1      -4.143   0.869  -4.705  0.00  0.00     0.002 A 
ATOM      7  C8  UNL d   1      -4.512   0.230  -3.519  0.00  0.00     0.006 A 
ENDROOT
BRANCH   1   8
ATOM      8  C1  UNL d   1      -5.036   0.268  -1.051  0.00  0.00     0.054 C 
ATOM      9  C   UNL d   1      -3.871   0.013  -0.105  0.00  0.00     0.018 C 
ENDBRANCH   1   8
TORSDOF 1
ENDMDL
