MODEL 1
REMARK minimizedAffinity 9.1508379
REMARK minimizedRMSD -1
REMARK  1 active torsions:
REMARK  status: ('A' for Active; 'I' for Inactive)
REMARK    1  A    between atoms: C1_2  and  C2_3 
ROOT
ATOM      1  C2  UNL d   1       4.284  -4.160  -0.694  0.00  0.00    -0.081 A 
ATOM      2  C3  UNL d   1       3.657  -2.927  -0.479  0.00  0.00     0.006 A 
ATOM      3  C4  UNL d   1       2.287  -2.779  -0.713  0.00  0.00     0.002 A 
ATOM      4  C5  UNL d   1       1.522  -3.862  -1.157  0.00  0.00    -0.080 A 
ATOM      5  C6  UNL d   1       0.045  -3.724  -1.383  0.00  0.00     0.076 C 
ATOM      6  C7  UNL d   1       2.151  -5.089  -1.389  0.00  0.00     0.002 A 
ATOM      7  C8  UNL d   1       3.520  -5.238  -1.156  0.00  0.00     0.006 A 
ENDROOT
BRANCH   1   8
ATOM      8  C1  UNL d   1       5.747  -4.341  -0.381  0.00  0.00     0.054 C 
ATOM      9  C   UNL d   1       5.999  -5.653   0.348  0.00  0.00     0.018 C 
ENDBRANCH   1   8
TORSDOF 1
ENDMDL
