MODEL 1
REMARK minimizedAffinity 5.446877
REMARK minimizedRMSD -1
REMARK  1 active torsions:
REMARK  status: ('A' for Active; 'I' for Inactive)
REMARK    1  A    between atoms: C1_2  and  C2_3 
ROOT
ATOM      1  C2  UNL d   1      -0.118   2.903   0.205  0.00  0.00    -0.081 A 
ATOM      2  C3  UNL d   1       1.110   2.345   0.579  0.00  0.00     0.006 A 
ATOM      3  C4  UNL d   1       1.231   1.637   1.777  0.00  0.00     0.002 A 
ATOM      4  C5  UNL d   1       0.124   1.468   2.616  0.00  0.00    -0.080 A 
ATOM      5  C6  UNL d   1       0.232   0.683   3.890  0.00  0.00     0.076 C 
ATOM      6  C7  UNL d   1      -1.099   2.040   2.250  0.00  0.00     0.002 A 
ATOM      7  C8  UNL d   1      -1.220   2.749   1.053  0.00  0.00     0.006 A 
ENDROOT
BRANCH   1   8
ATOM      8  C1  UNL d   1      -0.267   3.612  -1.117  0.00  0.00     0.054 C 
ATOM      9  C   UNL d   1       1.087   4.012  -1.686  0.00  0.00     0.018 C 
ENDBRANCH   1   8
TORSDOF 1
ENDMDL
