MODEL 1
REMARK minimizedAffinity 10.0498238
REMARK minimizedRMSD -1
REMARK  1 active torsions:
REMARK  status: ('A' for Active; 'I' for Inactive)
REMARK    1  A    between atoms: C1_2  and  C2_3 
ROOT
ATOM      1  C2  UNL d   1       3.396  -5.258  -2.141  0.00  0.00    -0.081 A 
ATOM      2  C3  UNL d   1       2.514  -5.353  -1.058  0.00  0.00     0.006 A 
ATOM      3  C4  UNL d   1       1.178  -4.970  -1.197  0.00  0.00     0.002 A 
ATOM      4  C5  UNL d   1       0.700  -4.493  -2.423  0.00  0.00    -0.080 A 
ATOM      5  C6  UNL d   1      -0.739  -4.108  -2.594  0.00  0.00     0.076 C 
ATOM      6  C7  UNL d   1       1.586  -4.382  -3.500  0.00  0.00     0.002 A 
ATOM      7  C8  UNL d   1       2.922  -4.764  -3.361  0.00  0.00     0.006 A 
ENDROOT
BRANCH   1   8
ATOM      8  C1  UNL d   1       4.822  -5.730  -2.012  0.00  0.00     0.054 C 
ATOM      9  C   UNL d   1       5.243  -5.827  -0.552  0.00  0.00     0.018 C 
ENDBRANCH   1   8
TORSDOF 1
ENDMDL
