MODEL 1
REMARK minimizedAffinity 16.249012
REMARK minimizedRMSD -1
REMARK  1 active torsions:
REMARK  status: ('A' for Active; 'I' for Inactive)
REMARK    1  A    between atoms: C1_2  and  C2_3 
ROOT
ATOM      1  C2  UNL d   1      -1.493   4.503  -1.703  0.00  0.00    -0.081 A 
ATOM      2  C3  UNL d   1      -0.098   4.612  -1.757  0.00  0.00     0.006 A 
ATOM      3  C4  UNL d   1       0.711   3.541  -1.370  0.00  0.00     0.002 A 
ATOM      4  C5  UNL d   1       0.140   2.342  -0.932  0.00  0.00    -0.080 A 
ATOM      5  C6  UNL d   1       0.997   1.174  -0.543  0.00  0.00     0.076 C 
ATOM      6  C7  UNL d   1      -1.254   2.239  -0.862  0.00  0.00     0.002 A 
ATOM      7  C8  UNL d   1      -2.064   3.309  -1.248  0.00  0.00     0.006 A 
ENDROOT
BRANCH   1   8
ATOM      8  C1  UNL d   1      -2.369   5.633  -2.181  0.00  0.00     0.054 C 
ATOM      9  C   UNL d   1      -3.787   5.155  -2.458  0.00  0.00     0.018 C 
ENDBRANCH   1   8
TORSDOF 1
ENDMDL
