MODEL 1
REMARK minimizedAffinity 12.4607983
REMARK minimizedRMSD -1
REMARK  1 active torsions:
REMARK  status: ('A' for Active; 'I' for Inactive)
REMARK    1  A    between atoms: C1_2  and  C2_3 
ROOT
ATOM      1  C2  UNL d   1       3.584  -4.842  -0.895  0.00  0.00    -0.081 A 
ATOM      2  C3  UNL d   1       4.923  -4.438  -0.971  0.00  0.00     0.006 A 
ATOM      3  C4  UNL d   1       5.711  -4.801  -2.066  0.00  0.00     0.002 A 
ATOM      4  C5  UNL d   1       5.173  -5.567  -3.105  0.00  0.00    -0.080 A 
ATOM      5  C6  UNL d   1       6.000  -5.939  -4.300  0.00  0.00     0.076 C 
ATOM      6  C7  UNL d   1       3.840  -5.986  -3.021  0.00  0.00     0.002 A 
ATOM      7  C8  UNL d   1       3.052  -5.624  -1.927  0.00  0.00     0.006 A 
ENDROOT
BRANCH   1   8
ATOM      8  C1  UNL d   1       2.713  -4.398   0.252  0.00  0.00     0.054 C 
ATOM      9  C   UNL d   1       1.236  -4.535  -0.089  0.00  0.00     0.018 C 
ENDBRANCH   1   8
TORSDOF 1
ENDMDL
