MODEL 1
REMARK minimizedAffinity 9.66700363
REMARK minimizedRMSD -1
REMARK  1 active torsions:
REMARK  status: ('A' for Active; 'I' for Inactive)
REMARK    1  A    between atoms: C1_2  and  C2_3 
ROOT
ATOM      1  C2  UNL d   1      -0.744   3.684  -0.763  0.00  0.00    -0.081 A 
ATOM      2  C3  UNL d   1       0.558   3.627  -1.277  0.00  0.00     0.006 A 
ATOM      3  C4  UNL d   1       1.493   2.740  -0.738  0.00  0.00     0.002 A 
ATOM      4  C5  UNL d   1       1.141   1.890   0.316  0.00  0.00    -0.080 A 
ATOM      5  C6  UNL d   1       2.127   0.912   0.883  0.00  0.00     0.076 C 
ATOM      6  C7  UNL d   1      -0.154   1.959   0.841  0.00  0.00     0.002 A 
ATOM      7  C8  UNL d   1      -1.089   2.846   0.303  0.00  0.00     0.006 A 
ENDROOT
BRANCH   1   8
ATOM      8  C1  UNL d   1      -1.773   4.593  -1.384  0.00  0.00     0.054 C 
ATOM      9  C   UNL d   1      -2.261   4.047  -2.718  0.00  0.00     0.018 C 
ENDBRANCH   1   8
TORSDOF 1
ENDMDL
