MODEL 1
REMARK minimizedAffinity 10.1181211
REMARK minimizedRMSD -1
REMARK  1 active torsions:
REMARK  status: ('A' for Active; 'I' for Inactive)
REMARK    1  A    between atoms: C1_2  and  C2_3 
ROOT
ATOM      1  C2  UNL d   1      -1.448   3.772  -0.413  0.00  0.00    -0.081 A 
ATOM      2  C3  UNL d   1      -1.912   2.843   0.526  0.00  0.00     0.006 A 
ATOM      3  C4  UNL d   1      -1.037   1.917   1.100  0.00  0.00     0.002 A 
ATOM      4  C5  UNL d   1       0.318   1.910   0.750  0.00  0.00    -0.080 A 
ATOM      5  C6  UNL d   1       1.274   0.942   1.380  0.00  0.00     0.076 C 
ATOM      6  C7  UNL d   1       0.778   2.827  -0.202  0.00  0.00     0.002 A 
ATOM      7  C8  UNL d   1      -0.097   3.752  -0.776  0.00  0.00     0.006 A 
ENDROOT
BRANCH   1   8
ATOM      8  C1  UNL d   1      -2.376   4.813  -0.984  0.00  0.00     0.054 C 
ATOM      9  C   UNL d   1      -2.951   4.368  -2.321  0.00  0.00     0.018 C 
ENDBRANCH   1   8
TORSDOF 1
ENDMDL
