MODEL 1
REMARK minimizedAffinity -2.07182002
REMARK minimizedRMSD -1
REMARK  0 active torsions:
REMARK  status: ('A' for Active; 'I' for Inactive)
ROOT
ATOM      1  C   UNL d   1      -4.661   2.694  -2.000  0.00  0.00    -0.002 A 
ATOM      2  C1  UNL d   1      -5.538   3.640  -1.487  0.00  0.00     0.010 A 
ATOM      3  C2  UNL d   1      -6.000   4.687  -2.287  0.00  0.00     0.041 A 
ATOM      4  C3  UNL d   1      -5.563   4.767  -3.624  0.00  0.00    -0.075 A 
ATOM      5  S   UNL d   1      -5.997   5.961  -4.789  0.00  0.00     0.015 SA
ATOM      6  C4  UNL d   1      -5.030   5.243  -5.995  0.00  0.00     0.022 A 
ATOM      7  C5  UNL d   1      -4.385   4.119  -5.537  0.00  0.00     0.026 A 
ATOM      8  C6  UNL d   1      -4.682   3.826  -4.163  0.00  0.00    -0.082 A 
ATOM      9  C7  UNL d   1      -4.231   2.777  -3.326  0.00  0.00     0.045 A 
ENDROOT
TORSDOF 0
ENDMDL
