MODEL 1
REMARK minimizedAffinity -3.76883292
REMARK minimizedRMSD -1
REMARK  0 active torsions:
REMARK  status: ('A' for Active; 'I' for Inactive)
ROOT
ATOM      1  C   UNL d   1      -4.728   3.996  -5.818  0.00  0.00    -0.002 A 
ATOM      2  C1  UNL d   1      -5.542   5.053  -5.435  0.00  0.00     0.010 A 
ATOM      3  C2  UNL d   1      -5.982   5.170  -4.115  0.00  0.00     0.041 A 
ATOM      4  C3  UNL d   1      -5.584   4.197  -3.176  0.00  0.00    -0.075 A 
ATOM      5  S   UNL d   1      -6.000   4.136  -1.504  0.00  0.00     0.015 SA
ATOM      6  C4  UNL d   1      -5.106   2.706  -1.258  0.00  0.00     0.022 A 
ATOM      7  C5  UNL d   1      -4.499   2.272  -2.413  0.00  0.00     0.026 A 
ATOM      8  C6  UNL d   1      -4.765   3.124  -3.537  0.00  0.00    -0.082 A 
ATOM      9  C7  UNL d   1      -4.336   3.034  -4.884  0.00  0.00     0.045 A 
ENDROOT
TORSDOF 0
ENDMDL
