MODEL 1
REMARK minimizedAffinity 9.69730854
REMARK minimizedRMSD -1
REMARK  0 active torsions:
REMARK  status: ('A' for Active; 'I' for Inactive)
ROOT
ATOM      1  C   UNL d   1      -0.584   0.898  -0.283  0.00  0.00    -0.002 A 
ATOM      2  C1  UNL d   1       0.766   0.913  -0.606  0.00  0.00     0.010 A 
ATOM      3  C2  UNL d   1       1.397  -0.242  -1.073  0.00  0.00     0.041 A 
ATOM      4  C3  UNL d   1       0.641  -1.423  -1.213  0.00  0.00    -0.075 A 
ATOM      5  S   UNL d   1       1.202  -2.956  -1.766  0.00  0.00     0.015 SA
ATOM      6  C4  UNL d   1      -0.337  -3.667  -1.588  0.00  0.00     0.022 A 
ATOM      7  C5  UNL d   1      -1.267  -2.770  -1.119  0.00  0.00     0.026 A 
ATOM      8  C6  UNL d   1      -0.719  -1.462  -0.895  0.00  0.00    -0.082 A 
ATOM      9  C7  UNL d   1      -1.330  -0.275  -0.423  0.00  0.00     0.045 A 
ENDROOT
TORSDOF 0
ENDMDL
