MODEL 1
REMARK minimizedAffinity -0.379606634
REMARK minimizedRMSD -1
REMARK  0 active torsions:
REMARK  status: ('A' for Active; 'I' for Inactive)
ROOT
ATOM      1  C   UNL d   1      -5.889   1.626  -2.353  0.00  0.00    -0.002 A 
ATOM      2  C1  UNL d   1      -5.717   2.757  -1.567  0.00  0.00     0.010 A 
ATOM      3  C2  UNL d   1      -5.642   4.023  -2.150  0.00  0.00     0.041 A 
ATOM      4  C3  UNL d   1      -5.747   4.135  -3.550  0.00  0.00    -0.075 A 
ATOM      5  S   UNL d   1      -5.684   5.583  -4.484  0.00  0.00     0.015 SA
ATOM      6  C4  UNL d   1      -5.886   4.736  -5.949  0.00  0.00     0.022 A 
ATOM      7  C5  UNL d   1      -6.000   3.380  -5.749  0.00  0.00     0.026 A 
ATOM      8  C6  UNL d   1      -5.922   3.012  -4.363  0.00  0.00    -0.082 A 
ATOM      9  C7  UNL d   1      -5.993   1.742  -3.742  0.00  0.00     0.045 A 
ENDROOT
TORSDOF 0
ENDMDL
