MODEL 1
REMARK minimizedAffinity 5.56485033
REMARK minimizedRMSD -1
REMARK  0 active torsions:
REMARK  status: ('A' for Active; 'I' for Inactive)
ROOT
ATOM      1  C   UNL d   1      -0.431   4.303   0.527  0.00  0.00    -0.002 A 
ATOM      2  C1  UNL d   1       0.837   4.797   0.257  0.00  0.00     0.010 A 
ATOM      3  C2  UNL d   1       1.932   4.403   1.028  0.00  0.00     0.041 A 
ATOM      4  C3  UNL d   1       1.729   3.493   2.084  0.00  0.00    -0.075 A 
ATOM      5  S   UNL d   1       2.922   2.868   3.161  0.00  0.00     0.015 SA
ATOM      6  C4  UNL d   1       1.776   1.928   4.004  0.00  0.00     0.022 A 
ATOM      7  C5  UNL d   1       0.510   2.076   3.490  0.00  0.00     0.026 A 
ATOM      8  C6  UNL d   1       0.462   2.980   2.375  0.00  0.00    -0.082 A 
ATOM      9  C7  UNL d   1      -0.628   3.400   1.575  0.00  0.00     0.045 A 
ENDROOT
TORSDOF 0
ENDMDL
