MODEL 1
REMARK minimizedAffinity -4.65414667
REMARK minimizedRMSD -1
REMARK  0 active torsions:
REMARK  status: ('A' for Active; 'I' for Inactive)
ROOT
ATOM      1  C   UNL d   1      -4.130   0.173  -6.000  0.00  0.00    -0.002 A 
ATOM      2  C1  UNL d   1      -5.350  -0.037  -5.373  0.00  0.00     0.010 A 
ATOM      3  C2  UNL d   1      -5.996   1.007  -4.709  0.00  0.00     0.041 A 
ATOM      4  C3  UNL d   1      -5.391   2.279  -4.687  0.00  0.00    -0.075 A 
ATOM      5  S   UNL d   1      -5.999   3.707  -3.935  0.00  0.00     0.015 SA
ATOM      6  C4  UNL d   1      -4.654   4.629  -4.430  0.00  0.00     0.022 A 
ATOM      7  C5  UNL d   1      -3.753   3.882  -5.151  0.00  0.00     0.026 A 
ATOM      8  C6  UNL d   1      -4.163   2.515  -5.311  0.00  0.00    -0.082 A 
ATOM      9  C7  UNL d   1      -3.532   1.436  -5.975  0.00  0.00     0.045 A 
ENDROOT
TORSDOF 0
ENDMDL
