MODEL 1
REMARK minimizedAffinity -0.232461542
REMARK minimizedRMSD -1
REMARK  0 active torsions:
REMARK  status: ('A' for Active; 'I' for Inactive)
ROOT
ATOM      1  C   UNL d   1      -4.910  -0.434  -5.519  0.00  0.00    -0.002 A 
ATOM      2  C1  UNL d   1      -5.998   0.096  -4.840  0.00  0.00     0.010 A 
ATOM      3  C2  UNL d   1      -6.000   1.432  -4.435  0.00  0.00     0.041 A 
ATOM      4  C3  UNL d   1      -4.880   2.235  -4.729  0.00  0.00    -0.075 A 
ATOM      5  S   UNL d   1      -4.661   3.899  -4.333  0.00  0.00     0.015 SA
ATOM      6  C4  UNL d   1      -3.118   3.945  -5.057  0.00  0.00     0.022 A 
ATOM      7  C5  UNL d   1      -2.764   2.729  -5.592  0.00  0.00     0.026 A 
ATOM      8  C6  UNL d   1      -3.773   1.724  -5.413  0.00  0.00    -0.082 A 
ATOM      9  C7  UNL d   1      -3.801   0.365  -5.809  0.00  0.00     0.045 A 
ENDROOT
TORSDOF 0
ENDMDL
