MODEL 1
REMARK minimizedAffinity 3.77600718
REMARK minimizedRMSD -1
REMARK  0 active torsions:
REMARK  status: ('A' for Active; 'I' for Inactive)
ROOT
ATOM      1  C   UNL d   1      -5.599   4.060   1.537  0.00  0.00     0.023 A 
ATOM      2  C1  UNL d   1      -5.179   3.294   2.624  0.00  0.00     0.003 A 
ATOM      3  C2  UNL d   1      -5.158   3.849   3.906  0.00  0.00     0.048 A 
ATOM      4  C3  UNL d   1      -5.560   5.171   4.093  0.00  0.00     0.023 A 
ATOM      5  C4  UNL d   1      -5.982   5.942   3.008  0.00  0.00     0.048 A 
ATOM      6  C5  UNL d   1      -6.000   5.383   1.729  0.00  0.00     0.003 A 
ATOM      7  I   UNL d   1      -5.531   5.999   5.999  0.00  0.00    -0.146 I 
ENDROOT
TORSDOF 0
ENDMDL
