MODEL 1
REMARK minimizedAffinity 13.4848671
REMARK minimizedRMSD -1
REMARK  0 active torsions:
REMARK  status: ('A' for Active; 'I' for Inactive)
ROOT
ATOM      1  C   UNL d   1       1.979  -2.376   0.630  0.00  0.00     0.023 A 
ATOM      2  C1  UNL d   1       1.645  -1.964  -0.660  0.00  0.00     0.003 A 
ATOM      3  C2  UNL d   1       1.982  -0.680  -1.094  0.00  0.00     0.048 A 
ATOM      4  C3  UNL d   1       2.653   0.187  -0.232  0.00  0.00     0.023 A 
ATOM      5  C4  UNL d   1       2.990  -0.221   1.060  0.00  0.00     0.048 A 
ATOM      6  C5  UNL d   1       2.651  -1.506   1.489  0.00  0.00     0.003 A 
ATOM      7  I   UNL d   1       3.155   2.099  -0.875  0.00  0.00    -0.146 I 
ENDROOT
TORSDOF 0
ENDMDL
