MODEL 1
REMARK minimizedAffinity 10.2106237
REMARK minimizedRMSD -1
REMARK  0 active torsions:
REMARK  status: ('A' for Active; 'I' for Inactive)
ROOT
ATOM      1  C   UNL d   1       4.045   2.310  -0.792  0.00  0.00     0.023 A 
ATOM      2  C1  UNL d   1       3.651   1.859   0.468  0.00  0.00     0.003 A 
ATOM      3  C2  UNL d   1       3.023   0.619   0.602  0.00  0.00     0.048 A 
ATOM      4  C3  UNL d   1       2.794  -0.166  -0.527  0.00  0.00     0.023 A 
ATOM      5  C4  UNL d   1       3.188   0.281  -1.790  0.00  0.00     0.048 A 
ATOM      6  C5  UNL d   1       3.814   1.522  -1.920  0.00  0.00     0.003 A 
ATOM      7  I   UNL d   1       1.860  -2.012  -0.330  0.00  0.00    -0.146 I 
ENDROOT
TORSDOF 0
ENDMDL
