MODEL 1
REMARK minimizedAffinity 10.7050724
REMARK minimizedRMSD -1
REMARK  0 active torsions:
REMARK  status: ('A' for Active; 'I' for Inactive)
ROOT
ATOM      1  C   UNL d   1       6.000   3.768  -0.640  0.00  0.00     0.023 A 
ATOM      2  C1  UNL d   1       5.532   3.406   0.623  0.00  0.00     0.003 A 
ATOM      3  C2  UNL d   1       4.602   2.372   0.755  0.00  0.00     0.048 A 
ATOM      4  C3  UNL d   1       4.145   1.704  -0.380  0.00  0.00     0.023 A 
ATOM      5  C4  UNL d   1       4.611   2.063  -1.646  0.00  0.00     0.048 A 
ATOM      6  C5  UNL d   1       5.540   3.097  -1.773  0.00  0.00     0.003 A 
ATOM      7  I   UNL d   1       2.762   0.165  -0.187  0.00  0.00    -0.146 I 
ENDROOT
TORSDOF 0
ENDMDL
