MODEL 1
REMARK minimizedAffinity 3.06006169
REMARK minimizedRMSD -1
REMARK  0 active torsions:
REMARK  status: ('A' for Active; 'I' for Inactive)
ROOT
ATOM      1  C   UNL d   1      -5.371   3.745   1.684  0.00  0.00     0.023 A 
ATOM      2  C1  UNL d   1      -5.956   5.006   1.795  0.00  0.00     0.003 A 
ATOM      3  C2  UNL d   1      -5.998   5.652   3.032  0.00  0.00     0.048 A 
ATOM      4  C3  UNL d   1      -5.451   5.031   4.155  0.00  0.00     0.023 A 
ATOM      5  C4  UNL d   1      -4.863   3.769   4.048  0.00  0.00     0.048 A 
ATOM      6  C5  UNL d   1      -4.825   3.127   2.809  0.00  0.00     0.003 A 
ATOM      7  I   UNL d   1      -5.510   5.990   5.998  0.00  0.00    -0.146 I 
ENDROOT
TORSDOF 0
ENDMDL
