MODEL 1
REMARK minimizedAffinity 14.0985613
REMARK minimizedRMSD -1
REMARK  0 active torsions:
REMARK  status: ('A' for Active; 'I' for Inactive)
ROOT
ATOM      1  C   UNL d   1      -4.445   2.473   0.362  0.00  0.00     0.023 A 
ATOM      2  C1  UNL d   1      -4.819   3.419  -0.593  0.00  0.00     0.003 A 
ATOM      3  C2  UNL d   1      -5.260   3.005  -1.852  0.00  0.00     0.048 A 
ATOM      4  C3  UNL d   1      -5.326   1.644  -2.148  0.00  0.00     0.023 A 
ATOM      5  C4  UNL d   1      -4.955   0.694  -1.195  0.00  0.00     0.048 A 
ATOM      6  C5  UNL d   1      -4.513   1.113   0.061  0.00  0.00     0.003 A 
ATOM      7  I   UNL d   1      -5.983   1.026  -4.021  0.00  0.00    -0.146 I 
ENDROOT
TORSDOF 0
ENDMDL
