MODEL 1
REMARK minimizedAffinity 10.0095472
REMARK minimizedRMSD -1
REMARK  0 active torsions:
REMARK  status: ('A' for Active; 'I' for Inactive)
ROOT
ATOM      1  C   UNL d   1      -5.995   5.734   5.519  0.00  0.00     0.023 A 
ATOM      2  C1  UNL d   1      -6.000   5.985   4.147  0.00  0.00     0.003 A 
ATOM      3  C2  UNL d   1      -5.588   4.995   3.253  0.00  0.00     0.048 A 
ATOM      4  C3  UNL d   1      -5.174   3.755   3.738  0.00  0.00     0.023 A 
ATOM      5  C4  UNL d   1      -5.168   3.499   5.110  0.00  0.00     0.048 A 
ATOM      6  C5  UNL d   1      -5.579   4.492   6.000  0.00  0.00     0.003 A 
ATOM      7  I   UNL d   1      -4.561   2.279   2.409  0.00  0.00    -0.146 I 
ENDROOT
TORSDOF 0
ENDMDL
