MODEL 1
REMARK minimizedAffinity 6.01173353
REMARK minimizedRMSD -1
REMARK  0 active torsions:
REMARK  status: ('A' for Active; 'I' for Inactive)
ROOT
ATOM      1  C   UNL d   1      -3.763   0.176  -0.584  0.00  0.00     0.023 A 
ATOM      2  C1  UNL d   1      -5.133   0.431  -0.643  0.00  0.00     0.003 A 
ATOM      3  C2  UNL d   1      -5.775   0.520  -1.880  0.00  0.00     0.048 A 
ATOM      4  C3  UNL d   1      -5.041   0.351  -3.054  0.00  0.00     0.023 A 
ATOM      5  C4  UNL d   1      -3.670   0.095  -2.999  0.00  0.00     0.048 A 
ATOM      6  C5  UNL d   1      -3.032   0.008  -1.760  0.00  0.00     0.003 A 
ATOM      7  I   UNL d   1      -5.995   0.482  -4.896  0.00  0.00    -0.146 I 
ENDROOT
TORSDOF 0
ENDMDL
