MODEL 1
REMARK minimizedAffinity 2.21105528
REMARK minimizedRMSD -1
REMARK  0 active torsions:
REMARK  status: ('A' for Active; 'I' for Inactive)
ROOT
ATOM      1  C   UNL d   1      -0.022  -0.272  -2.064  0.00  0.00     0.023 A 
ATOM      2  C1  UNL d   1      -1.207  -0.121  -1.344  0.00  0.00     0.003 A 
ATOM      3  C2  UNL d   1      -1.189  -0.169   0.051  0.00  0.00     0.048 A 
ATOM      4  C3  UNL d   1       0.018  -0.368   0.720  0.00  0.00     0.023 A 
ATOM      5  C4  UNL d   1       1.207  -0.519   0.004  0.00  0.00     0.048 A 
ATOM      6  C5  UNL d   1       1.184  -0.471  -1.391  0.00  0.00     0.003 A 
ATOM      7  I   UNL d   1       0.048  -0.440   2.797  0.00  0.00    -0.146 I 
ENDROOT
TORSDOF 0
ENDMDL
