MODEL 1
REMARK minimizedAffinity 5.42440891
REMARK minimizedRMSD -1
REMARK  0 active torsions:
REMARK  status: ('A' for Active; 'I' for Inactive)
ROOT
ATOM      1  C   UNL d   1      -1.218  -0.140  -1.746  0.00  0.00     0.023 A 
ATOM      2  C1  UNL d   1       0.049  -0.567  -1.347  0.00  0.00     0.003 A 
ATOM      3  C2  UNL d   1       0.319  -0.788   0.005  0.00  0.00     0.048 A 
ATOM      4  C3  UNL d   1      -0.682  -0.581   0.953  0.00  0.00     0.023 A 
ATOM      5  C4  UNL d   1      -1.951  -0.155   0.559  0.00  0.00     0.048 A 
ATOM      6  C5  UNL d   1      -2.217   0.066  -0.794  0.00  0.00     0.003 A 
ATOM      7  I   UNL d   1      -0.282  -0.909   2.966  0.00  0.00    -0.146 I 
ENDROOT
TORSDOF 0
ENDMDL
