MODEL 1
REMARK minimizedAffinity 2.80116916
REMARK minimizedRMSD -1
REMARK  0 active torsions:
REMARK  status: ('A' for Active; 'I' for Inactive)
ROOT
ATOM      1  C   UNL d   1       1.415  -4.361   2.561  0.00  0.00     0.023 A 
ATOM      2  C1  UNL d   1       0.294  -3.712   3.080  0.00  0.00     0.003 A 
ATOM      3  C2  UNL d   1      -0.106  -2.481   2.556  0.00  0.00     0.048 A 
ATOM      4  C3  UNL d   1       0.618  -1.905   1.513  0.00  0.00     0.023 A 
ATOM      5  C4  UNL d   1       1.740  -2.550   0.990  0.00  0.00     0.048 A 
ATOM      6  C5  UNL d   1       2.137  -3.781   1.518  0.00  0.00     0.003 A 
ATOM      7  I   UNL d   1       0.024  -0.072   0.732  0.00  0.00    -0.146 I 
ENDROOT
TORSDOF 0
ENDMDL
