MODEL 1
REMARK minimizedAffinity -0.868938565
REMARK minimizedRMSD -1
REMARK  0 active torsions:
REMARK  status: ('A' for Active; 'I' for Inactive)
ROOT
ATOM      1  C   UNL d   1      -1.525  -2.733   3.710  0.00  0.00     0.023 A 
ATOM      2  C1  UNL d   1      -1.387  -4.120   3.656  0.00  0.00     0.003 A 
ATOM      3  C2  UNL d   1      -0.192  -4.688   3.209  0.00  0.00     0.048 A 
ATOM      4  C3  UNL d   1       0.862  -3.862   2.820  0.00  0.00     0.023 A 
ATOM      5  C4  UNL d   1       0.729  -2.473   2.873  0.00  0.00     0.048 A 
ATOM      6  C5  UNL d   1      -0.469  -1.911   3.319  0.00  0.00     0.003 A 
ATOM      7  I   UNL d   1       2.642  -4.703   2.155  0.00  0.00    -0.146 I 
ENDROOT
TORSDOF 0
ENDMDL
