MODEL 1
REMARK minimizedAffinity 5.35451221
REMARK minimizedRMSD -1
REMARK  0 active torsions:
REMARK  status: ('A' for Active; 'I' for Inactive)
ROOT
ATOM      1  C   UNL d   1      -6.000   1.216  -4.502  0.00  0.00     0.023 A 
ATOM      2  C1  UNL d   1      -5.965   2.594  -4.291  0.00  0.00     0.003 A 
ATOM      3  C2  UNL d   1      -4.820   3.191  -3.760  0.00  0.00     0.048 A 
ATOM      4  C3  UNL d   1      -3.713   2.404  -3.444  0.00  0.00     0.023 A 
ATOM      5  C4  UNL d   1      -3.743   1.025  -3.655  0.00  0.00     0.048 A 
ATOM      6  C5  UNL d   1      -4.890   0.432  -4.185  0.00  0.00     0.003 A 
ATOM      7  I   UNL d   1      -2.007   3.291  -2.654  0.00  0.00    -0.146 I 
ENDROOT
TORSDOF 0
ENDMDL
