MODEL 1
REMARK minimizedAffinity 5.03864622
REMARK minimizedRMSD -1
REMARK  0 active torsions:
REMARK  status: ('A' for Active; 'I' for Inactive)
ROOT
ATOM      1  C   UNL d   1      -1.023  -0.252   1.596  0.00  0.00     0.023 A 
ATOM      2  C1  UNL d   1      -0.909  -1.096   2.701  0.00  0.00     0.003 A 
ATOM      3  C2  UNL d   1      -0.018  -2.171   2.671  0.00  0.00     0.048 A 
ATOM      4  C3  UNL d   1       0.757  -2.395   1.534  0.00  0.00     0.023 A 
ATOM      5  C4  UNL d   1       0.647  -1.552   0.426  0.00  0.00     0.048 A 
ATOM      6  C5  UNL d   1      -0.246  -0.480   0.461  0.00  0.00     0.003 A 
ATOM      7  I   UNL d   1       2.084  -3.994   1.486  0.00  0.00    -0.146 I 
ENDROOT
TORSDOF 0
ENDMDL
