MODEL 1
REMARK minimizedAffinity -0.664036214
REMARK minimizedRMSD -1
REMARK  0 active torsions:
REMARK  status: ('A' for Active; 'I' for Inactive)
ROOT
ATOM      1  C   UNL d   1      -0.527  -0.444   1.064  0.00  0.00     0.023 A 
ATOM      2  C1  UNL d   1       0.383  -0.900   0.109  0.00  0.00     0.003 A 
ATOM      3  C2  UNL d   1       1.308  -1.892   0.443  0.00  0.00     0.048 A 
ATOM      4  C3  UNL d   1       1.318  -2.423   1.732  0.00  0.00     0.023 A 
ATOM      5  C4  UNL d   1       0.409  -1.971   2.690  0.00  0.00     0.048 A 
ATOM      6  C5  UNL d   1      -0.513  -0.979   2.352  0.00  0.00     0.003 A 
ATOM      7  I   UNL d   1       2.694  -3.899   2.230  0.00  0.00    -0.146 I 
ENDROOT
TORSDOF 0
ENDMDL
