MODEL 1
REMARK minimizedAffinity -0.905928969
REMARK minimizedRMSD -1
REMARK  0 active torsions:
REMARK  status: ('A' for Active; 'I' for Inactive)
ROOT
ATOM      1  C   UNL d   1      -1.123  -0.198   1.294  0.00  0.00     0.023 A 
ATOM      2  C1  UNL d   1      -1.024  -0.896   2.498  0.00  0.00     0.003 A 
ATOM      3  C2  UNL d   1      -0.176  -2.001   2.597  0.00  0.00     0.048 A 
ATOM      4  C3  UNL d   1       0.571  -2.402   1.490  0.00  0.00     0.023 A 
ATOM      5  C4  UNL d   1       0.476  -1.705   0.284  0.00  0.00     0.048 A 
ATOM      6  C5  UNL d   1      -0.374  -0.602   0.189  0.00  0.00     0.003 A 
ATOM      7  I   UNL d   1       1.834  -4.046   1.636  0.00  0.00    -0.146 I 
ENDROOT
TORSDOF 0
ENDMDL
