MODEL 1
REMARK minimizedAffinity 3.2340529
REMARK minimizedRMSD -1
REMARK  0 active torsions:
REMARK  status: ('A' for Active; 'I' for Inactive)
ROOT
ATOM      1  C   UNL d   1       1.800  -3.406   1.832  0.00  0.00     0.023 A 
ATOM      2  C1  UNL d   1       1.944  -2.877   0.550  0.00  0.00     0.003 A 
ATOM      3  C2  UNL d   1       1.143  -1.809   0.139  0.00  0.00     0.048 A 
ATOM      4  C3  UNL d   1       0.201  -1.274   1.018  0.00  0.00     0.023 A 
ATOM      5  C4  UNL d   1       0.055  -1.799   2.302  0.00  0.00     0.048 A 
ATOM      6  C5  UNL d   1       0.857  -2.868   2.708  0.00  0.00     0.003 A 
ATOM      7  I   UNL d   1      -0.991   0.316   0.409  0.00  0.00    -0.146 I 
ENDROOT
TORSDOF 0
ENDMDL
