MODEL 1
REMARK minimizedAffinity 20.1797047
REMARK minimizedRMSD -1
REMARK  0 active torsions:
REMARK  status: ('A' for Active; 'I' for Inactive)
ROOT
ATOM      1  C1  DEN d   1      -5.976   3.349  -4.936  0.00  0.00     0.130 A 
ATOM      2  C2  DEN d   1      -5.999   4.742  -5.372  0.00  0.00    -0.031 A 
ATOM      3  C3  DEN d   1      -5.480   5.575  -4.268  0.00  0.00     0.027 A 
ATOM      4  C4  DEN d   1      -4.645   4.844  -1.939  0.00  0.00     0.027 A 
ATOM      5  C5  DEN d   1      -4.446   3.766  -1.105  0.00  0.00    -0.003 A 
ATOM      6  C6  DEN d   1      -4.772   2.488  -1.474  0.00  0.00     0.001 A 
ATOM      7  C7  DEN d   1      -5.273   2.250  -2.726  0.00  0.00     0.017 A 
ATOM      8  C8  DEN d   1      -5.484   3.332  -3.570  0.00  0.00    -0.094 A 
ATOM      9  C9  DEN d   1      -5.136   4.616  -3.183  0.00  0.00    -0.072 A 
ENDROOT
TORSDOF 0
ENDMDL
