MODEL 1
REMARK minimizedAffinity 15.9322968
REMARK minimizedRMSD -1
REMARK  0 active torsions:
REMARK  status: ('A' for Active; 'I' for Inactive)
ROOT
ATOM      1  C1  DEN d   1       0.851  -0.320   1.824  0.00  0.00     0.130 A 
ATOM      2  C2  DEN d   1       1.747  -1.028   0.914  0.00  0.00    -0.031 A 
ATOM      3  C3  DEN d   1       1.186  -0.928  -0.449  0.00  0.00     0.027 A 
ATOM      4  C4  DEN d   1      -0.969   0.251  -1.234  0.00  0.00     0.027 A 
ATOM      5  C5  DEN d   1      -2.065   0.978  -0.822  0.00  0.00    -0.003 A 
ATOM      6  C6  DEN d   1      -2.281   1.291   0.493  0.00  0.00     0.001 A 
ATOM      7  C7  DEN d   1      -1.365   0.915   1.440  0.00  0.00     0.017 A 
ATOM      8  C8  DEN d   1      -0.262   0.176   1.034  0.00  0.00    -0.094 A 
ATOM      9  C9  DEN d   1      -0.055  -0.121  -0.302  0.00  0.00    -0.072 A 
ENDROOT
TORSDOF 0
ENDMDL
