MODEL 1
REMARK minimizedAffinity -6.75611115
REMARK minimizedRMSD -1
REMARK  0 active torsions:
REMARK  status: ('A' for Active; 'I' for Inactive)
ROOT
ATOM      1  C1  DEN d   1      -1.980   2.473   0.928  0.00  0.00     0.130 A 
ATOM      2  C2  DEN d   1      -1.634   3.756   0.322  0.00  0.00    -0.031 A 
ATOM      3  C3  DEN d   1      -1.022   3.489  -0.995  0.00  0.00     0.027 A 
ATOM      4  C4  DEN d   1      -0.585   1.226  -2.152  0.00  0.00     0.027 A 
ATOM      5  C5  DEN d   1      -0.698  -0.141  -2.023  0.00  0.00    -0.003 A 
ATOM      6  C6  DEN d   1      -1.210  -0.729  -0.897  0.00  0.00     0.001 A 
ATOM      7  C7  DEN d   1      -1.671   0.055   0.128  0.00  0.00     0.017 A 
ATOM      8  C8  DEN d   1      -1.554   1.434   0.008  0.00  0.00    -0.094 A 
ATOM      9  C9  DEN d   1      -1.045   2.009  -1.144  0.00  0.00    -0.072 A 
ENDROOT
TORSDOF 0
ENDMDL
