MODEL 1
REMARK minimizedAffinity -5.0662365
REMARK minimizedRMSD -1
REMARK  0 active torsions:
REMARK  status: ('A' for Active; 'I' for Inactive)
ROOT
ATOM      1  C1  DEN d   1      -0.181  -0.344  -0.638  0.00  0.00     0.130 A 
ATOM      2  C2  DEN d   1       0.938  -0.934   0.091  0.00  0.00    -0.031 A 
ATOM      3  C3  DEN d   1       1.336   0.007   1.157  0.00  0.00     0.027 A 
ATOM      4  C4  DEN d   1       0.330   2.307   1.749  0.00  0.00     0.027 A 
ATOM      5  C5  DEN d   1      -0.628   3.236   1.405  0.00  0.00    -0.003 A 
ATOM      6  C6  DEN d   1      -1.474   3.053   0.344  0.00  0.00     0.001 A 
ATOM      7  C7  DEN d   1      -1.409   1.895  -0.384  0.00  0.00     0.017 A 
ATOM      8  C8  DEN d   1      -0.442   0.957  -0.048  0.00  0.00    -0.094 A 
ATOM      9  C9  DEN d   1       0.397   1.155   1.036  0.00  0.00    -0.072 A 
ENDROOT
TORSDOF 0
ENDMDL
