MODEL 1
REMARK minimizedAffinity 2.18039083
REMARK minimizedRMSD -1
REMARK  0 active torsions:
REMARK  status: ('A' for Active; 'I' for Inactive)
ROOT
ATOM      1  C1  DEN d   1      -1.450  -2.909  -1.264  0.00  0.00     0.130 A 
ATOM      2  C2  DEN d   1      -0.354  -3.729  -0.755  0.00  0.00    -0.031 A 
ATOM      3  C3  DEN d   1       0.700  -2.824  -0.255  0.00  0.00     0.027 A 
ATOM      4  C4  DEN d   1       0.740  -0.245  -0.217  0.00  0.00     0.027 A 
ATOM      5  C5  DEN d   1       0.041   0.893  -0.551  0.00  0.00    -0.003 A 
ATOM      6  C6  DEN d   1      -1.179   0.845  -1.172  0.00  0.00     0.001 A 
ATOM      7  C7  DEN d   1      -1.758  -0.368  -1.438  0.00  0.00     0.017 A 
ATOM      8  C8  DEN d   1      -1.056  -1.520  -1.111  0.00  0.00    -0.094 A 
ATOM      9  C9  DEN d   1       0.171  -1.450  -0.472  0.00  0.00    -0.072 A 
ENDROOT
TORSDOF 0
ENDMDL
