MODEL 1
REMARK minimizedAffinity -0.636720896
REMARK minimizedRMSD -1
REMARK  0 active torsions:
REMARK  status: ('A' for Active; 'I' for Inactive)
ROOT
ATOM      1  C1  DEN d   1       0.358   4.883  -0.495  0.00  0.00     0.130 A 
ATOM      2  C2  DEN d   1       1.233   5.956  -0.959  0.00  0.00    -0.031 A 
ATOM      3  C3  DEN d   1       2.412   6.000  -0.072  0.00  0.00     0.027 A 
ATOM      4  C4  DEN d   1       2.968   4.515   1.962  0.00  0.00     0.027 A 
ATOM      5  C5  DEN d   1       2.523   3.476   2.749  0.00  0.00    -0.003 A 
ATOM      6  C6  DEN d   1       1.318   2.860   2.532  0.00  0.00     0.001 A 
ATOM      7  C7  DEN d   1       0.538   3.249   1.475  0.00  0.00     0.017 A 
ATOM      8  C8  DEN d   1       0.977   4.301   0.682  0.00  0.00    -0.094 A 
ATOM      9  C9  DEN d   1       2.203   4.902   0.911  0.00  0.00    -0.072 A 
ENDROOT
TORSDOF 0
ENDMDL
