MODEL 1
REMARK minimizedAffinity -1.20898986
REMARK minimizedRMSD -1
REMARK  0 active torsions:
REMARK  status: ('A' for Active; 'I' for Inactive)
ROOT
ATOM      1  C1  DEN d   1       1.064  -1.344   1.580  0.00  0.00     0.130 A 
ATOM      2  C2  DEN d   1       1.526  -1.292   2.964  0.00  0.00    -0.031 A 
ATOM      3  C3  DEN d   1       1.417   0.106   3.429  0.00  0.00     0.027 A 
ATOM      4  C4  DEN d   1       0.579   2.181   2.147  0.00  0.00     0.027 A 
ATOM      5  C5  DEN d   1       0.093   2.635   0.941  0.00  0.00    -0.003 A 
ATOM      6  C6  DEN d   1      -0.071   1.808  -0.138  0.00  0.00     0.001 A 
ATOM      7  C7  DEN d   1       0.213   0.473  -0.019  0.00  0.00     0.017 A 
ATOM      8  C8  DEN d   1       0.710   0.009   1.191  0.00  0.00    -0.094 A 
ATOM      9  C9  DEN d   1       0.857   0.859   2.275  0.00  0.00    -0.072 A 
ENDROOT
TORSDOF 0
ENDMDL
