MODEL 1
REMARK minimizedAffinity 0.555850029
REMARK minimizedRMSD -1
REMARK  0 active torsions:
REMARK  status: ('A' for Active; 'I' for Inactive)
ROOT
ATOM      1  C1  DEN d   1       0.831   5.451   0.372  0.00  0.00     0.130 A 
ATOM      2  C2  DEN d   1       0.631   5.628  -1.063  0.00  0.00    -0.031 A 
ATOM      3  C3  DEN d   1       0.407   4.297  -1.661  0.00  0.00     0.027 A 
ATOM      4  C4  DEN d   1       0.346   1.990  -0.508  0.00  0.00     0.027 A 
ATOM      5  C5  DEN d   1       0.474   1.333   0.696  0.00  0.00    -0.003 A 
ATOM      6  C6  DEN d   1       0.761   1.994   1.861  0.00  0.00     0.001 A 
ATOM      7  C7  DEN d   1       0.885   3.358   1.856  0.00  0.00     0.017 A 
ATOM      8  C8  DEN d   1       0.765   4.027   0.644  0.00  0.00    -0.094 A 
ATOM      9  C9  DEN d   1       0.463   3.342  -0.521  0.00  0.00    -0.072 A 
ENDROOT
TORSDOF 0
ENDMDL
