MODEL 1
REMARK minimizedAffinity -4.25800705
REMARK minimizedRMSD -1
REMARK  0 active torsions:
REMARK  status: ('A' for Active; 'I' for Inactive)
ROOT
ATOM      1  C   UNL d   1      -1.072   2.426   0.509  0.00  0.00     0.172 C 
ATOM      2  N   UNL d   1       0.328   2.074   0.475  0.00  0.00    -0.070 N 
ATOM      3  C1  UNL d   1       1.373   2.942   0.649  0.00  0.00    -0.004 A 
ATOM      4  C2  UNL d   1       2.542   2.220   0.545  0.00  0.00    -0.047 A 
ATOM      5  C3  UNL d   1       2.188   0.872   0.300  0.00  0.00    -0.047 A 
ATOM      6  C4  UNL d   1       0.811   0.810   0.261  0.00  0.00    -0.004 A 
ENDROOT
TORSDOF 0
ENDMDL
