MODEL 1
REMARK minimizedAffinity -3.12817311
REMARK minimizedRMSD -1
REMARK  0 active torsions:
REMARK  status: ('A' for Active; 'I' for Inactive)
ROOT
ATOM      1  C   UNL d   1       0.167  -1.066   0.257  0.00  0.00     0.172 C 
ATOM      2  N   UNL d   1      -0.031   0.365   0.248  0.00  0.00    -0.070 N 
ATOM      3  C1  UNL d   1      -1.157   1.018   0.672  0.00  0.00    -0.004 A 
ATOM      4  C2  UNL d   1      -0.951   2.369   0.501  0.00  0.00    -0.047 A 
ATOM      5  C3  UNL d   1       0.344   2.535  -0.045  0.00  0.00    -0.047 A 
ATOM      6  C4  UNL d   1       0.891   1.278  -0.191  0.00  0.00    -0.004 A 
ENDROOT
TORSDOF 0
ENDMDL
