MODEL 1
REMARK minimizedAffinity -2.43244267
REMARK minimizedRMSD -1
REMARK  0 active torsions:
REMARK  status: ('A' for Active; 'I' for Inactive)
ROOT
ATOM      1  C   UNL d   1      -0.736   1.074   0.500  0.00  0.00     0.172 C 
ATOM      2  N   UNL d   1       0.166  -0.050   0.401  0.00  0.00    -0.070 N 
ATOM      3  C1  UNL d   1      -0.203  -1.355   0.212  0.00  0.00    -0.004 A 
ATOM      4  C2  UNL d   1       0.945  -2.117   0.173  0.00  0.00    -0.047 A 
ATOM      5  C3  UNL d   1       2.041  -1.239   0.345  0.00  0.00    -0.047 A 
ATOM      6  C4  UNL d   1       1.530   0.034   0.485  0.00  0.00    -0.004 A 
ENDROOT
TORSDOF 0
ENDMDL
