MODEL 1
REMARK minimizedAffinity -3.12383509
REMARK minimizedRMSD -1
REMARK  0 active torsions:
REMARK  status: ('A' for Active; 'I' for Inactive)
ROOT
ATOM      1  C   UNL d   1       0.263  -1.693   0.723  0.00  0.00     0.172 C 
ATOM      2  N   UNL d   1      -0.604  -1.769   1.875  0.00  0.00    -0.070 N 
ATOM      3  C1  UNL d   1      -0.532  -2.710   2.868  0.00  0.00    -0.004 A 
ATOM      4  C2  UNL d   1      -1.529  -2.438   3.780  0.00  0.00    -0.047 A 
ATOM      5  C3  UNL d   1      -2.224  -1.295   3.320  0.00  0.00    -0.047 A 
ATOM      6  C4  UNL d   1      -1.631  -0.901   2.139  0.00  0.00    -0.004 A 
ENDROOT
TORSDOF 0
ENDMDL
