MODEL 1
REMARK minimizedAffinity -3.46976447
REMARK minimizedRMSD -1
REMARK  0 active torsions:
REMARK  status: ('A' for Active; 'I' for Inactive)
ROOT
ATOM      1  C   UNL d   1       1.932   0.712   0.157  0.00  0.00     0.172 C 
ATOM      2  N   UNL d   1       0.657   1.384   0.262  0.00  0.00    -0.070 N 
ATOM      3  C1  UNL d   1      -0.566   0.771   0.308  0.00  0.00    -0.004 A 
ATOM      4  C2  UNL d   1      -1.527   1.753   0.408  0.00  0.00    -0.047 A 
ATOM      5  C3  UNL d   1      -0.858   3.000   0.422  0.00  0.00    -0.047 A 
ATOM      6  C4  UNL d   1       0.494   2.742   0.330  0.00  0.00    -0.004 A 
ENDROOT
TORSDOF 0
ENDMDL
