MODEL 1
REMARK minimizedAffinity -3.36075449
REMARK minimizedRMSD -1
REMARK  0 active torsions:
REMARK  status: ('A' for Active; 'I' for Inactive)
ROOT
ATOM      1  C   UNL d   1      -1.345   0.703   0.577  0.00  0.00     0.172 C 
ATOM      2  N   UNL d   1      -1.710  -0.329   1.519  0.00  0.00    -0.070 N 
ATOM      3  C1  UNL d   1      -0.959  -1.432   1.826  0.00  0.00    -0.004 A 
ATOM      4  C2  UNL d   1      -1.652  -2.167   2.764  0.00  0.00    -0.047 A 
ATOM      5  C3  UNL d   1      -2.862  -1.482   3.028  0.00  0.00    -0.047 A 
ATOM      6  C4  UNL d   1      -2.872  -0.348   2.244  0.00  0.00    -0.004 A 
ENDROOT
TORSDOF 0
ENDMDL
