MODEL 1
REMARK minimizedAffinity -3.72745156
REMARK minimizedRMSD -1
REMARK  0 active torsions:
REMARK  status: ('A' for Active; 'I' for Inactive)
ROOT
ATOM      1  C   UNL d   1       0.500  -0.750   0.371  0.00  0.00     0.172 C 
ATOM      2  N   UNL d   1       0.051   0.589   0.071  0.00  0.00    -0.070 N 
ATOM      3  C1  UNL d   1      -1.123   1.151   0.496  0.00  0.00    -0.004 A 
ATOM      4  C2  UNL d   1      -1.180   2.436  -0.000  0.00  0.00    -0.047 A 
ATOM      5  C3  UNL d   1       0.000   2.653  -0.750  0.00  0.00    -0.047 A 
ATOM      6  C4  UNL d   1       0.744   1.493  -0.689  0.00  0.00    -0.004 A 
ENDROOT
TORSDOF 0
ENDMDL
