MODEL 1
REMARK minimizedAffinity -1.38241553
REMARK minimizedRMSD -1
REMARK  0 active torsions:
REMARK  status: ('A' for Active; 'I' for Inactive)
ROOT
ATOM      1  C   UNL d   1      -0.662  -1.953  -0.046  0.00  0.00     0.172 C 
ATOM      2  N   UNL d   1       0.333  -0.906  -0.020  0.00  0.00    -0.070 N 
ATOM      3  C1  UNL d   1       1.686  -1.093   0.070  0.00  0.00    -0.004 A 
ATOM      4  C2  UNL d   1       2.285   0.148   0.065  0.00  0.00    -0.047 A 
ATOM      5  C3  UNL d   1       1.256   1.114  -0.030  0.00  0.00    -0.047 A 
ATOM      6  C4  UNL d   1       0.058   0.434  -0.081  0.00  0.00    -0.004 A 
ENDROOT
TORSDOF 0
ENDMDL
