MODEL 1
REMARK minimizedAffinity -3.50577116
REMARK minimizedRMSD -1
REMARK  0 active torsions:
REMARK  status: ('A' for Active; 'I' for Inactive)
ROOT
ATOM      1  C   UNL d   1      -0.323  -0.620  -0.348  0.00  0.00     0.172 C 
ATOM      2  N   UNL d   1      -0.418   0.771   0.027  0.00  0.00    -0.070 N 
ATOM      3  C1  UNL d   1       0.485   1.748  -0.297  0.00  0.00    -0.004 A 
ATOM      4  C2  UNL d   1       0.036   2.934   0.244  0.00  0.00    -0.047 A 
ATOM      5  C3  UNL d   1      -1.178   2.659   0.917  0.00  0.00    -0.047 A 
ATOM      6  C4  UNL d   1      -1.436   1.313   0.766  0.00  0.00    -0.004 A 
ENDROOT
TORSDOF 0
ENDMDL
