MODEL 1
REMARK minimizedAffinity -2.68642712
REMARK minimizedRMSD -1
REMARK  0 active torsions:
REMARK  status: ('A' for Active; 'I' for Inactive)
ROOT
ATOM      1  C   UNL d   1      -0.562  -0.920   0.219  0.00  0.00     0.172 C 
ATOM      2  N   UNL d   1      -0.813  -1.815  -0.886  0.00  0.00    -0.070 N 
ATOM      3  C1  UNL d   1      -2.047  -2.143  -1.382  0.00  0.00    -0.004 A 
ATOM      4  C2  UNL d   1      -1.860  -3.019  -2.430  0.00  0.00    -0.047 A 
ATOM      5  C3  UNL d   1      -0.467  -3.225  -2.567  0.00  0.00    -0.047 A 
ATOM      6  C4  UNL d   1       0.157  -2.468  -1.598  0.00  0.00    -0.004 A 
ENDROOT
TORSDOF 0
ENDMDL
