MODEL 1
REMARK minimizedAffinity 4.03857183
REMARK minimizedRMSD -1
REMARK  0 active torsions:
REMARK  status: ('A' for Active; 'I' for Inactive)
ROOT
ATOM      1  C   UNL d   1       3.001   1.682  -3.054  0.00  0.00     0.172 C 
ATOM      2  N   UNL d   1       4.139   2.534  -3.307  0.00  0.00    -0.070 N 
ATOM      3  C1  UNL d   1       4.978   2.445  -4.386  0.00  0.00    -0.004 A 
ATOM      4  C2  UNL d   1       5.932   3.432  -4.260  0.00  0.00    -0.047 A 
ATOM      5  C3  UNL d   1       5.658   4.136  -3.064  0.00  0.00    -0.047 A 
ATOM      6  C4  UNL d   1       4.543   3.560  -2.494  0.00  0.00    -0.004 A 
ENDROOT
TORSDOF 0
ENDMDL
