MODEL 1
REMARK minimizedAffinity -3.66083455
REMARK minimizedRMSD -1
REMARK  0 active torsions:
REMARK  status: ('A' for Active; 'I' for Inactive)
ROOT
ATOM      1  C   UNL d   1       0.504   3.433   2.331  0.00  0.00     0.172 C 
ATOM      2  N   UNL d   1       0.386   2.973   0.968  0.00  0.00    -0.070 N 
ATOM      3  C1  UNL d   1      -0.071   1.743   0.577  0.00  0.00    -0.004 A 
ATOM      4  C2  UNL d   1      -0.029   1.695  -0.800  0.00  0.00    -0.047 A 
ATOM      5  C3  UNL d   1       0.472   2.940  -1.252  0.00  0.00    -0.047 A 
ATOM      6  C4  UNL d   1       0.720   3.712  -0.137  0.00  0.00    -0.004 A 
ENDROOT
TORSDOF 0
ENDMDL
