MODEL 1
REMARK minimizedAffinity -1.21378636
REMARK minimizedRMSD -1
REMARK  0 active torsions:
REMARK  status: ('A' for Active; 'I' for Inactive)
ROOT
ATOM      1  C   UNL d   1       2.621   6.000   3.162  0.00  0.00     0.172 C 
ATOM      2  N   UNL d   1       1.826   4.801   3.285  0.00  0.00    -0.070 N 
ATOM      3  C1  UNL d   1       2.025   3.636   2.594  0.00  0.00    -0.004 A 
ATOM      4  C2  UNL d   1       1.060   2.737   2.994  0.00  0.00    -0.047 A 
ATOM      5  C3  UNL d   1       0.253   3.385   3.959  0.00  0.00    -0.047 A 
ATOM      6  C4  UNL d   1       0.749   4.661   4.120  0.00  0.00    -0.004 A 
ENDROOT
TORSDOF 0
ENDMDL
