MODEL 1
REMARK minimizedAffinity 0.107451789
REMARK minimizedRMSD -1
REMARK  0 active torsions:
REMARK  status: ('A' for Active; 'I' for Inactive)
ROOT
ATOM      1  C   UNL d   1       4.507   2.257  -5.866  0.00  0.00     0.172 C 
ATOM      2  N   UNL d   1       3.064   2.232  -5.920  0.00  0.00    -0.070 N 
ATOM      3  C1  UNL d   1       2.248   3.331  -5.948  0.00  0.00    -0.004 A 
ATOM      4  C2  UNL d   1       0.944   2.887  -5.998  0.00  0.00    -0.047 A 
ATOM      5  C3  UNL d   1       0.979   1.472  -5.999  0.00  0.00    -0.047 A 
ATOM      6  C4  UNL d   1       2.304   1.094  -5.950  0.00  0.00    -0.004 A 
ENDROOT
TORSDOF 0
ENDMDL
