MODEL 1
REMARK minimizedAffinity -2.33552408
REMARK minimizedRMSD -1
REMARK  0 active torsions:
REMARK  status: ('A' for Active; 'I' for Inactive)
ROOT
ATOM      1  C   UNL d   1       0.250   2.995  -4.307  0.00  0.00     0.172 C 
ATOM      2  N   UNL d   1       1.596   2.654  -4.704  0.00  0.00    -0.070 N 
ATOM      3  C1  UNL d   1       2.070   2.639  -5.989  0.00  0.00    -0.004 A 
ATOM      4  C2  UNL d   1       3.395   2.264  -5.946  0.00  0.00    -0.047 A 
ATOM      5  C3  UNL d   1       3.730   2.046  -4.588  0.00  0.00    -0.047 A 
ATOM      6  C4  UNL d   1       2.598   2.294  -3.841  0.00  0.00    -0.004 A 
ENDROOT
TORSDOF 0
ENDMDL
