MODEL 1
REMARK minimizedAffinity -3.48807979
REMARK minimizedRMSD -1
REMARK  0 active torsions:
REMARK  status: ('A' for Active; 'I' for Inactive)
ROOT
ATOM      1  C   UNL d   1      -0.031  -0.320  -0.376  0.00  0.00     0.172 C 
ATOM      2  N   UNL d   1      -0.244   1.064  -0.021  0.00  0.00    -0.070 N 
ATOM      3  C1  UNL d   1       0.735   2.010   0.124  0.00  0.00    -0.004 A 
ATOM      4  C2  UNL d   1       0.126   3.198   0.466  0.00  0.00    -0.047 A 
ATOM      5  C3  UNL d   1      -1.267   2.957   0.530  0.00  0.00    -0.047 A 
ATOM      6  C4  UNL d   1      -1.468   1.628   0.224  0.00  0.00    -0.004 A 
ENDROOT
TORSDOF 0
ENDMDL
