MODEL 1
REMARK minimizedAffinity 1.13581932
REMARK minimizedRMSD -1
REMARK  0 active torsions:
REMARK  status: ('A' for Active; 'I' for Inactive)
ROOT
ATOM      1  C   UNL d   1      -0.200   0.833  -1.706  0.00  0.00     0.078 C 
ATOM      2  C1  UNL d   1       0.332   0.356  -0.388  0.00  0.00    -0.077 A 
ATOM      3  C2  UNL d   1      -0.089   0.939   0.813  0.00  0.00    -0.001 A 
ATOM      4  C3  UNL d   1       0.423   0.491   2.032  0.00  0.00     0.003 A 
ATOM      5  C4  UNL d   1       1.359  -0.540   2.062  0.00  0.00    -0.005 A 
ATOM      6  C5  UNL d   1       1.786  -1.125   0.871  0.00  0.00     0.003 A 
ATOM      7  C6  UNL d   1       1.276  -0.679  -0.349  0.00  0.00    -0.001 A 
ENDROOT
TORSDOF 0
ENDMDL
