MODEL 1
REMARK minimizedAffinity -0.706781983
REMARK minimizedRMSD -1
REMARK  0 active torsions:
REMARK  status: ('A' for Active; 'I' for Inactive)
ROOT
ATOM      1  C   UNL d   1       0.675   2.379   2.704  0.00  0.00     0.078 C 
ATOM      2  C1  UNL d   1       0.368   1.694   1.406  0.00  0.00    -0.077 A 
ATOM      3  C2  UNL d   1       0.392   0.297   1.305  0.00  0.00    -0.001 A 
ATOM      4  C3  UNL d   1       0.114  -0.327   0.088  0.00  0.00     0.003 A 
ATOM      5  C4  UNL d   1      -0.189   0.436  -1.037  0.00  0.00    -0.005 A 
ATOM      6  C5  UNL d   1      -0.212   1.827  -0.947  0.00  0.00     0.003 A 
ATOM      7  C6  UNL d   1       0.065   2.453   0.269  0.00  0.00    -0.001 A 
ENDROOT
TORSDOF 0
ENDMDL
