MODEL 1
REMARK minimizedAffinity 0.553076565
REMARK minimizedRMSD -1
REMARK  0 active torsions:
REMARK  status: ('A' for Active; 'I' for Inactive)
ROOT
ATOM      1  C   UNL d   1      -0.191   2.298  -0.826  0.00  0.00     0.078 C 
ATOM      2  C1  UNL d   1       0.455   1.330   0.120  0.00  0.00    -0.077 A 
ATOM      3  C2  UNL d   1       0.221   1.404   1.498  0.00  0.00    -0.001 A 
ATOM      4  C3  UNL d   1       0.837   0.503   2.368  0.00  0.00     0.003 A 
ATOM      5  C4  UNL d   1       1.692  -0.478   1.869  0.00  0.00    -0.005 A 
ATOM      6  C5  UNL d   1       1.931  -0.559   0.499  0.00  0.00     0.003 A 
ATOM      7  C6  UNL d   1       1.316   0.342  -0.372  0.00  0.00    -0.001 A 
ENDROOT
TORSDOF 0
ENDMDL
