MODEL 1
REMARK minimizedAffinity 5.4958744
REMARK minimizedRMSD -1
REMARK  0 active torsions:
REMARK  status: ('A' for Active; 'I' for Inactive)
ROOT
ATOM      1  C   UNL d   1      -0.127  -3.163  -0.378  0.00  0.00     0.078 C 
ATOM      2  C1  UNL d   1       0.164  -1.826   0.235  0.00  0.00    -0.077 A 
ATOM      3  C2  UNL d   1      -0.823  -0.835   0.309  0.00  0.00    -0.001 A 
ATOM      4  C3  UNL d   1      -0.535   0.408   0.873  0.00  0.00     0.003 A 
ATOM      5  C4  UNL d   1       0.741   0.674   1.367  0.00  0.00    -0.005 A 
ATOM      6  C5  UNL d   1       1.730  -0.305   1.296  0.00  0.00     0.003 A 
ATOM      7  C6  UNL d   1       1.444  -1.549   0.732  0.00  0.00    -0.001 A 
ENDROOT
TORSDOF 0
ENDMDL
