MODEL 1
REMARK minimizedAffinity 1.1072768
REMARK minimizedRMSD -1
REMARK  0 active torsions:
REMARK  status: ('A' for Active; 'I' for Inactive)
ROOT
ATOM      1  C   UNL d   1       1.746  -1.661  -0.670  0.00  0.00     0.078 C 
ATOM      2  C1  UNL d   1       1.008  -0.427  -0.246  0.00  0.00    -0.077 A 
ATOM      3  C2  UNL d   1       0.438   0.434  -1.192  0.00  0.00    -0.001 A 
ATOM      4  C3  UNL d   1      -0.238   1.585  -0.783  0.00  0.00     0.003 A 
ATOM      5  C4  UNL d   1      -0.349   1.886   0.573  0.00  0.00    -0.005 A 
ATOM      6  C5  UNL d   1       0.216   1.036   1.522  0.00  0.00     0.003 A 
ATOM      7  C6  UNL d   1       0.893  -0.114   1.115  0.00  0.00    -0.001 A 
ENDROOT
TORSDOF 0
ENDMDL
