MODEL 1
REMARK minimizedAffinity 4.69443178
REMARK minimizedRMSD -1
REMARK  0 active torsions:
REMARK  status: ('A' for Active; 'I' for Inactive)
ROOT
ATOM      1  C   UNL d   1      -5.852   0.472   0.756  0.00  0.00     0.078 C 
ATOM      2  C1  UNL d   1      -5.896  -0.510   1.888  0.00  0.00    -0.077 A 
ATOM      3  C2  UNL d   1      -5.932  -1.889   1.646  0.00  0.00    -0.001 A 
ATOM      4  C3  UNL d   1      -5.983  -2.792   2.709  0.00  0.00     0.003 A 
ATOM      5  C4  UNL d   1      -5.999  -2.325   4.022  0.00  0.00    -0.005 A 
ATOM      6  C5  UNL d   1      -5.966  -0.955   4.273  0.00  0.00     0.003 A 
ATOM      7  C6  UNL d   1      -5.915  -0.051   3.211  0.00  0.00    -0.001 A 
ENDROOT
TORSDOF 0
ENDMDL
