MODEL 1
REMARK minimizedAffinity -3.73666501
REMARK minimizedRMSD -1
REMARK  0 active torsions:
REMARK  status: ('A' for Active; 'I' for Inactive)
ROOT
ATOM      1  C   UNL d   1      -0.014   2.264   2.216  0.00  0.00     0.078 C 
ATOM      2  C1  UNL d   1       0.056   1.530   0.911  0.00  0.00    -0.077 A 
ATOM      3  C2  UNL d   1       0.362   0.164   0.868  0.00  0.00    -0.001 A 
ATOM      4  C3  UNL d   1       0.433  -0.505  -0.355  0.00  0.00     0.003 A 
ATOM      5  C4  UNL d   1       0.201   0.183  -1.544  0.00  0.00    -0.005 A 
ATOM      6  C5  UNL d   1      -0.102   1.543  -1.511  0.00  0.00     0.003 A 
ATOM      7  C6  UNL d   1      -0.173   2.214  -0.289  0.00  0.00    -0.001 A 
ENDROOT
TORSDOF 0
ENDMDL
