MODEL 1
REMARK minimizedAffinity 7.88510704
REMARK minimizedRMSD -1
REMARK  0 active torsions:
REMARK  status: ('A' for Active; 'I' for Inactive)
ROOT
ATOM      1  C   UNL d   1      -5.876   0.313   1.502  0.00  0.00     0.078 C 
ATOM      2  C1  UNL d   1      -5.845  -0.505   2.759  0.00  0.00    -0.077 A 
ATOM      3  C2  UNL d   1      -5.998  -1.896   2.718  0.00  0.00    -0.001 A 
ATOM      4  C3  UNL d   1      -5.977  -2.644   3.896  0.00  0.00     0.003 A 
ATOM      5  C4  UNL d   1      -5.803  -2.009   5.124  0.00  0.00    -0.005 A 
ATOM      6  C5  UNL d   1      -5.652  -0.625   5.176  0.00  0.00     0.003 A 
ATOM      7  C6  UNL d   1      -5.673   0.125   3.998  0.00  0.00    -0.001 A 
ENDROOT
TORSDOF 0
ENDMDL
