MODEL 1
REMARK minimizedAffinity 1.34417367
REMARK minimizedRMSD -1
REMARK  0 active torsions:
REMARK  status: ('A' for Active; 'I' for Inactive)
ROOT
ATOM      1  C   UNL d   1      -0.331   1.489  -0.859  0.00  0.00     0.078 C 
ATOM      2  C1  UNL d   1       0.316   0.754   0.277  0.00  0.00    -0.077 A 
ATOM      3  C2  UNL d   1      -0.034   1.027   1.605  0.00  0.00    -0.001 A 
ATOM      4  C3  UNL d   1       0.584   0.342   2.653  0.00  0.00     0.003 A 
ATOM      5  C4  UNL d   1       1.556  -0.619   2.383  0.00  0.00    -0.005 A 
ATOM      6  C5  UNL d   1       1.912  -0.896   1.065  0.00  0.00     0.003 A 
ATOM      7  C6  UNL d   1       1.296  -0.212   0.016  0.00  0.00    -0.001 A 
ENDROOT
TORSDOF 0
ENDMDL
