MODEL 1
REMARK minimizedAffinity -4.41356182
REMARK minimizedRMSD -1
REMARK  1 active torsions:
REMARK  status: ('A' for Active; 'I' for Inactive)
REMARK    1  A    between atoms: N_2  and  C1_3 
ROOT
ATOM      1  C1  UNL d   1       0.287  -0.421   0.354  0.00  0.00     0.143 A 
ATOM      2  C2  UNL d   1      -1.063  -0.132   0.583  0.00  0.00    -0.057 A 
ATOM      3  C3  UNL d   1      -1.542   0.124   1.873  0.00  0.00     0.033 A 
ATOM      4  C4  UNL d   1      -0.682   0.066   2.965  0.00  0.00    -0.042 A 
ATOM      5  C5  UNL d   1       0.658  -0.244   2.765  0.00  0.00     0.033 A 
ATOM      6  C6  UNL d   1       1.132  -0.492   1.473  0.00  0.00    -0.057 A 
ENDROOT
BRANCH   1   7
ATOM      7  N   UNL d   1       0.805  -0.781  -0.892  0.00  0.00    -0.732 N 
ATOM      8  C   UNL d   1       0.488  -0.007  -2.073  0.00  0.00     0.284 C 
ATOM      9  H3  UNL d   1       1.776  -1.078  -0.838  0.00  0.00     0.395 HD
ENDBRANCH   1   7
TORSDOF 1
ENDMDL
