MODEL 1
REMARK minimizedAffinity -3.7710824
REMARK minimizedRMSD -1
REMARK  1 active torsions:
REMARK  status: ('A' for Active; 'I' for Inactive)
REMARK    1  A    between atoms: N_2  and  C1_3 
ROOT
ATOM      1  C1  UNL d   1       0.437   0.021  -2.041  0.00  0.00     0.143 A 
ATOM      2  C2  UNL d   1      -0.014   1.290  -1.660  0.00  0.00    -0.057 A 
ATOM      3  C3  UNL d   1      -0.785   1.469  -0.505  0.00  0.00     0.033 A 
ATOM      4  C4  UNL d   1      -1.145   0.376   0.275  0.00  0.00    -0.042 A 
ATOM      5  C5  UNL d   1      -0.729  -0.897  -0.098  0.00  0.00     0.033 A 
ATOM      6  C6  UNL d   1       0.047  -1.069  -1.248  0.00  0.00    -0.057 A 
ENDROOT
BRANCH   1   7
ATOM      7  N   UNL d   1       1.124  -0.235  -3.230  0.00  0.00    -0.732 N 
ATOM      8  C   UNL d   1       2.310   0.520  -3.574  0.00  0.00     0.284 C 
ATOM      9  H3  UNL d   1       1.191  -1.230  -3.433  0.00  0.00     0.395 HD
ENDBRANCH   1   7
TORSDOF 1
ENDMDL
