MODEL 1
REMARK minimizedAffinity -3.11709476
REMARK minimizedRMSD -1
REMARK  1 active torsions:
REMARK  status: ('A' for Active; 'I' for Inactive)
REMARK    1  A    between atoms: N_2  and  C1_3 
ROOT
ATOM      1  C1  UNL d   1      -0.581  -0.001   2.217  0.00  0.00     0.143 A 
ATOM      2  C2  UNL d   1       0.054   0.063   0.973  0.00  0.00    -0.057 A 
ATOM      3  C3  UNL d   1       1.415  -0.238   0.836  0.00  0.00     0.033 A 
ATOM      4  C4  UNL d   1       2.173  -0.582   1.950  0.00  0.00    -0.042 A 
ATOM      5  C5  UNL d   1       1.568  -0.628   3.201  0.00  0.00     0.033 A 
ATOM      6  C6  UNL d   1       0.207  -0.332   3.330  0.00  0.00    -0.057 A 
ENDROOT
BRANCH   1   7
ATOM      7  N   UNL d   1      -1.907   0.382   2.435  0.00  0.00    -0.732 N 
ATOM      8  C   UNL d   1      -2.752   0.775   1.327  0.00  0.00     0.284 C 
ATOM      9  H3  UNL d   1      -2.372  -0.204   3.125  0.00  0.00     0.395 HD
ENDBRANCH   1   7
TORSDOF 1
ENDMDL
