MODEL 1
REMARK minimizedAffinity -4.78788948
REMARK minimizedRMSD -1
REMARK  1 active torsions:
REMARK  status: ('A' for Active; 'I' for Inactive)
REMARK    1  A    between atoms: N_2  and  C1_3 
ROOT
ATOM      1  C1  UNL d   1      -0.110   0.029   0.261  0.00  0.00     0.143 A 
ATOM      2  C2  UNL d   1      -1.455  -0.082   0.627  0.00  0.00    -0.057 A 
ATOM      3  C3  UNL d   1      -1.885   0.247   1.919  0.00  0.00     0.033 A 
ATOM      4  C4  UNL d   1      -0.969   0.667   2.877  0.00  0.00    -0.042 A 
ATOM      5  C5  UNL d   1       0.377   0.761   2.542  0.00  0.00     0.033 A 
ATOM      6  C6  UNL d   1       0.799   0.437   1.249  0.00  0.00    -0.057 A 
ENDROOT
BRANCH   1   7
ATOM      7  N   UNL d   1       0.395  -0.377  -0.977  0.00  0.00    -0.732 N 
ATOM      8  C   UNL d   1       1.346  -1.464  -1.065  0.00  0.00     0.284 C 
ATOM      9  H3  UNL d   1      -0.318  -0.389  -1.703  0.00  0.00     0.395 HD
ENDBRANCH   1   7
TORSDOF 1
ENDMDL
