MODEL 1
REMARK minimizedAffinity -2.9696219
REMARK minimizedRMSD -1
REMARK  1 active torsions:
REMARK  status: ('A' for Active; 'I' for Inactive)
REMARK    1  A    between atoms: N_2  and  C1_3 
ROOT
ATOM      1  C1  UNL d   1       0.970  -0.506   1.003  0.00  0.00     0.143 A 
ATOM      2  C2  UNL d   1       1.025  -0.729  -0.377  0.00  0.00    -0.057 A 
ATOM      3  C3  UNL d   1      -0.091  -0.510  -1.193  0.00  0.00     0.033 A 
ATOM      4  C4  UNL d   1      -1.295  -0.089  -0.637  0.00  0.00    -0.042 A 
ATOM      5  C5  UNL d   1      -1.380   0.115   0.736  0.00  0.00     0.033 A 
ATOM      6  C6  UNL d   1      -0.260  -0.100   1.544  0.00  0.00    -0.057 A 
ENDROOT
BRANCH   1   7
ATOM      7  N   UNL d   1       2.016  -0.800   1.881  0.00  0.00    -0.732 N 
ATOM      8  C   UNL d   1       1.774  -0.914   3.304  0.00  0.00     0.284 C 
ATOM      9  H3  UNL d   1       2.648  -1.505   1.509  0.00  0.00     0.395 HD
ENDBRANCH   1   7
TORSDOF 1
ENDMDL
