MODEL 1
REMARK minimizedAffinity -2.63436151
REMARK minimizedRMSD -1
REMARK  1 active torsions:
REMARK  status: ('A' for Active; 'I' for Inactive)
REMARK    1  A    between atoms: N_2  and  C1_3 
ROOT
ATOM      1  C1  UNL d   1       0.127  -0.026   0.132  0.00  0.00     0.143 A 
ATOM      2  C2  UNL d   1      -1.232  -0.325   0.270  0.00  0.00    -0.057 A 
ATOM      3  C3  UNL d   1      -1.971   0.143   1.364  0.00  0.00     0.033 A 
ATOM      4  C4  UNL d   1      -1.352   0.896   2.357  0.00  0.00    -0.042 A 
ATOM      5  C5  UNL d   1       0.004   1.184   2.253  0.00  0.00     0.033 A 
ATOM      6  C6  UNL d   1       0.734   0.719   1.154  0.00  0.00    -0.057 A 
ENDROOT
BRANCH   1   7
ATOM      7  N   UNL d   1       0.938  -0.544  -0.882  0.00  0.00    -0.732 N 
ATOM      8  C   UNL d   1       0.513  -0.493  -2.264  0.00  0.00     0.284 C 
ATOM      9  H3  UNL d   1       1.922  -0.328  -0.740  0.00  0.00     0.395 HD
ENDBRANCH   1   7
TORSDOF 1
ENDMDL
