MODEL 1
REMARK minimizedAffinity -3.86003494
REMARK minimizedRMSD -1
REMARK  1 active torsions:
REMARK  status: ('A' for Active; 'I' for Inactive)
REMARK    1  A    between atoms: N_2  and  C1_3 
ROOT
ATOM      1  C1  UNL d   1       1.650   0.422   2.207  0.00  0.00     0.143 A 
ATOM      2  C2  UNL d   1       1.540   0.068   3.556  0.00  0.00    -0.057 A 
ATOM      3  C3  UNL d   1       0.293  -0.191   4.139  0.00  0.00     0.033 A 
ATOM      4  C4  UNL d   1      -0.871  -0.072   3.388  0.00  0.00    -0.042 A 
ATOM      5  C5  UNL d   1      -0.788   0.303   2.052  0.00  0.00     0.033 A 
ATOM      6  C6  UNL d   1       0.460   0.553   1.473  0.00  0.00    -0.057 A 
ENDROOT
BRANCH   1   7
ATOM      7  N   UNL d   1       2.851   0.787   1.594  0.00  0.00    -0.732 N 
ATOM      8  C   UNL d   1       3.673   1.838   2.153  0.00  0.00     0.284 C 
ATOM      9  H3  UNL d   1       3.376  -0.017   1.257  0.00  0.00     0.395 HD
ENDBRANCH   1   7
TORSDOF 1
ENDMDL
