MODEL 1
REMARK minimizedAffinity -0.506060362
REMARK minimizedRMSD -1
REMARK  0 active torsions:
REMARK  status: ('A' for Active; 'I' for Inactive)
ROOT
ATOM      1  C   UNL d   1      -3.913   3.750  -3.018  0.00  0.00     0.172 C 
ATOM      2  N   UNL d   1      -2.517   3.386  -2.942  0.00  0.00    -0.070 N 
ATOM      3  C1  UNL d   1      -1.471   4.134  -3.412  0.00  0.00    -0.004 A 
ATOM      4  C2  UNL d   1      -0.307   3.444  -3.148  0.00  0.00    -0.047 A 
ATOM      5  C3  UNL d   1      -0.667   2.240  -2.497  0.00  0.00    -0.047 A 
ATOM      6  C4  UNL d   1      -2.041   2.230  -2.383  0.00  0.00    -0.004 A 
ENDROOT
TORSDOF 0
ENDMDL
