MODEL 1
REMARK minimizedAffinity -0.943638027
REMARK minimizedRMSD -1
REMARK  0 active torsions:
REMARK  status: ('A' for Active; 'I' for Inactive)
ROOT
ATOM      1  C   UNL d   1      -0.654   3.759  -3.790  0.00  0.00     0.172 C 
ATOM      2  N   UNL d   1      -1.858   3.164  -3.258  0.00  0.00    -0.070 N 
ATOM      3  C1  UNL d   1      -1.961   1.903  -2.735  0.00  0.00    -0.004 A 
ATOM      4  C2  UNL d   1      -3.268   1.716  -2.338  0.00  0.00    -0.047 A 
ATOM      5  C3  UNL d   1      -3.974   2.906  -2.633  0.00  0.00    -0.047 A 
ATOM      6  C4  UNL d   1      -3.077   3.786  -3.203  0.00  0.00    -0.004 A 
ENDROOT
TORSDOF 0
ENDMDL
