MODEL 1
REMARK minimizedAffinity -3.42131066
REMARK minimizedRMSD -1
REMARK  0 active torsions:
REMARK  status: ('A' for Active; 'I' for Inactive)
ROOT
ATOM      1  C   UNL d   1      -0.008   0.227  -1.242  0.00  0.00     0.172 C 
ATOM      2  N   UNL d   1       0.242   0.048   0.169  0.00  0.00    -0.070 N 
ATOM      3  C1  UNL d   1      -0.668  -0.397   1.091  0.00  0.00    -0.004 A 
ATOM      4  C2  UNL d   1      -0.044  -0.428   2.319  0.00  0.00    -0.047 A 
ATOM      5  C3  UNL d   1       1.287   0.014   2.129  0.00  0.00    -0.047 A 
ATOM      6  C4  UNL d   1       1.437   0.302   0.789  0.00  0.00    -0.004 A 
ENDROOT
TORSDOF 0
ENDMDL
