MODEL 1
REMARK minimizedAffinity -3.55083275
REMARK minimizedRMSD -1
REMARK  0 active torsions:
REMARK  status: ('A' for Active; 'I' for Inactive)
ROOT
ATOM      1  C   UNL d   1      -0.124  -0.135  -0.864  0.00  0.00     0.172 C 
ATOM      2  N   UNL d   1       0.484  -0.302   0.435  0.00  0.00    -0.070 N 
ATOM      3  C1  UNL d   1      -0.178  -0.300   1.633  0.00  0.00    -0.004 A 
ATOM      4  C2  UNL d   1       0.754  -0.488   2.631  0.00  0.00    -0.047 A 
ATOM      5  C3  UNL d   1       2.020  -0.605   2.011  0.00  0.00    -0.047 A 
ATOM      6  C4  UNL d   1       1.825  -0.486   0.651  0.00  0.00    -0.004 A 
ENDROOT
TORSDOF 0
ENDMDL
