MODEL 1
REMARK minimizedAffinity -1.70815969
REMARK minimizedRMSD -1
REMARK  0 active torsions:
REMARK  status: ('A' for Active; 'I' for Inactive)
ROOT
ATOM      1  C   UNL d   1       0.886  -0.683   2.678  0.00  0.00     0.172 C 
ATOM      2  N   UNL d   1       0.516  -0.276   1.343  0.00  0.00    -0.070 N 
ATOM      3  C1  UNL d   1       1.367  -0.169   0.276  0.00  0.00    -0.004 A 
ATOM      4  C2  UNL d   1       0.630   0.246  -0.812  0.00  0.00    -0.047 A 
ATOM      5  C3  UNL d   1      -0.710   0.395  -0.384  0.00  0.00    -0.047 A 
ATOM      6  C4  UNL d   1      -0.753   0.065   0.954  0.00  0.00    -0.004 A 
ENDROOT
TORSDOF 0
ENDMDL
