MODEL 1
REMARK minimizedAffinity 0.623240888
REMARK minimizedRMSD -1
REMARK  0 active torsions:
REMARK  status: ('A' for Active; 'I' for Inactive)
ROOT
ATOM      1  C   UNL d   1      -0.690   0.642  -1.119  0.00  0.00     0.172 C 
ATOM      2  N   UNL d   1       0.479   0.015  -0.548  0.00  0.00    -0.070 N 
ATOM      3  C1  UNL d   1       1.344  -0.814  -1.211  0.00  0.00    -0.004 A 
ATOM      4  C2  UNL d   1       2.323  -1.200  -0.322  0.00  0.00    -0.047 A 
ATOM      5  C3  UNL d   1       2.036  -0.582   0.919  0.00  0.00    -0.047 A 
ATOM      6  C4  UNL d   1       0.889   0.164   0.750  0.00  0.00    -0.004 A 
ENDROOT
TORSDOF 0
ENDMDL
