MODEL 1
REMARK minimizedAffinity 0.239673242
REMARK minimizedRMSD -1
REMARK  0 active torsions:
REMARK  status: ('A' for Active; 'I' for Inactive)
ROOT
ATOM      1  C   UNL d   1       1.045  -1.182   2.252  0.00  0.00     0.172 C 
ATOM      2  N   UNL d   1       0.951  -0.836   0.853  0.00  0.00    -0.070 N 
ATOM      3  C1  UNL d   1       1.842  -1.200  -0.121  0.00  0.00    -0.004 A 
ATOM      4  C2  UNL d   1       1.399  -0.675  -1.316  0.00  0.00    -0.047 A 
ATOM      5  C3  UNL d   1       0.201   0.029  -1.050  0.00  0.00    -0.047 A 
ATOM      6  C4  UNL d   1      -0.053  -0.086   0.300  0.00  0.00    -0.004 A 
ENDROOT
TORSDOF 0
ENDMDL
