MODEL 1
REMARK minimizedAffinity -2.48319626
REMARK minimizedRMSD -1
REMARK  0 active torsions:
REMARK  status: ('A' for Active; 'I' for Inactive)
ROOT
ATOM      1  C   UNL d   1       1.960  -0.135   1.344  0.00  0.00     0.172 C 
ATOM      2  N   UNL d   1       1.203  -0.242   0.119  0.00  0.00    -0.070 N 
ATOM      3  C1  UNL d   1      -0.088   0.180  -0.060  0.00  0.00    -0.004 A 
ATOM      4  C2  UNL d   1      -0.446  -0.099  -1.362  0.00  0.00    -0.047 A 
ATOM      5  C3  UNL d   1       0.668  -0.711  -1.985  0.00  0.00    -0.047 A 
ATOM      6  C4  UNL d   1       1.674  -0.787  -1.045  0.00  0.00    -0.004 A 
ENDROOT
TORSDOF 0
ENDMDL
