MODEL 1
REMARK minimizedAffinity 8.63093662
REMARK minimizedRMSD -1
REMARK  0 active torsions:
REMARK  status: ('A' for Active; 'I' for Inactive)
ROOT
ATOM      1  C4' PXY d   1       4.110   1.138  -1.292  0.00  0.00     0.077 C 
ATOM      2  C1' PXY d   1       0.061   1.259   2.833  0.00  0.00     0.077 C 
ATOM      3  C1  PXY d   1       1.131   1.221   1.759  0.00  0.00    -0.082 A 
ATOM      4  C2  PXY d   1       1.159   2.161   0.829  0.00  0.00     0.003 A 
ATOM      5  C3  PXY d   1       2.099   2.124  -0.168  0.00  0.00     0.003 A 
ATOM      6  C4  PXY d   1       3.054   1.143  -0.183  0.00  0.00    -0.082 A 
ATOM      7  C5  PXY d   1       3.039   0.185   0.768  0.00  0.00     0.003 A 
ATOM      8  C6  PXY d   1       2.051   0.218   1.748  0.00  0.00     0.003 A 
ENDROOT
TORSDOF 0
ENDMDL
