MODEL 1
REMARK minimizedAffinity 17.3279037
REMARK minimizedRMSD -1
REMARK  0 active torsions:
REMARK  status: ('A' for Active; 'I' for Inactive)
ROOT
ATOM      1  C4' PXY d   1       5.630   5.999  -0.211  0.00  0.00     0.077 C 
ATOM      2  C1' PXY d   1       5.359   2.722   4.543  0.00  0.00     0.077 C 
ATOM      3  C1  PXY d   1       5.423   3.590   3.302  0.00  0.00    -0.082 A 
ATOM      4  C2  PXY d   1       5.631   3.030   2.122  0.00  0.00     0.003 A 
ATOM      5  C3  PXY d   1       5.723   3.804   0.994  0.00  0.00     0.003 A 
ATOM      6  C4  PXY d   1       5.548   5.160   1.067  0.00  0.00    -0.082 A 
ATOM      7  C5  PXY d   1       5.325   5.738   2.267  0.00  0.00     0.003 A 
ATOM      8  C6  PXY d   1       5.276   4.939   3.406  0.00  0.00     0.003 A 
ENDROOT
TORSDOF 0
ENDMDL
