MODEL 1
REMARK minimizedAffinity 6.73054171
REMARK minimizedRMSD -1
REMARK  0 active torsions:
REMARK  status: ('A' for Active; 'I' for Inactive)
ROOT
ATOM      1  C4' PXY d   1       5.282   3.133  -1.477  0.00  0.00     0.077 C 
ATOM      2  C1' PXY d   1       1.497  -0.439   1.038  0.00  0.00     0.077 C 
ATOM      3  C1  PXY d   1       2.486   0.494   0.367  0.00  0.00    -0.082 A 
ATOM      4  C2  PXY d   1       3.566   0.884   1.023  0.00  0.00     0.003 A 
ATOM      5  C3  PXY d   1       4.455   1.752   0.443  0.00  0.00     0.003 A 
ATOM      6  C4  PXY d   1       4.262   2.184  -0.842  0.00  0.00    -0.082 A 
ATOM      7  C5  PXY d   1       3.167   1.782  -1.522  0.00  0.00     0.003 A 
ATOM      8  C6  PXY d   1       2.257   0.933  -0.900  0.00  0.00     0.003 A 
ENDROOT
TORSDOF 0
ENDMDL
