MODEL 1
REMARK minimizedAffinity 9.67264938
REMARK minimizedRMSD -1
REMARK  0 active torsions:
REMARK  status: ('A' for Active; 'I' for Inactive)
ROOT
ATOM      1  C4' PXY d   1       0.497  -3.583  -0.805  0.00  0.00     0.077 C 
ATOM      2  C1' PXY d   1       3.787   1.062   0.200  0.00  0.00     0.077 C 
ATOM      3  C1  PXY d   1       2.918  -0.150  -0.073  0.00  0.00    -0.082 A 
ATOM      4  C2  PXY d   1       2.733  -1.049   0.879  0.00  0.00     0.003 A 
ATOM      5  C3  PXY d   1       1.976  -2.167   0.639  0.00  0.00     0.003 A 
ATOM      6  C4  PXY d   1       1.359  -2.340  -0.571  0.00  0.00    -0.082 A 
ATOM      7  C5  PXY d   1       1.534  -1.421  -1.544  0.00  0.00     0.003 A 
ATOM      8  C6  PXY d   1       2.340  -0.313  -1.294  0.00  0.00     0.003 A 
ENDROOT
TORSDOF 0
ENDMDL
