MODEL 1
REMARK minimizedAffinity 5.92484188
REMARK minimizedRMSD -1
REMARK  0 active torsions:
REMARK  status: ('A' for Active; 'I' for Inactive)
ROOT
ATOM      1  C4' PXY d   1       1.926  -1.495  -1.557  0.00  0.00     0.077 C 
ATOM      2  C1' PXY d   1       2.867   2.506   2.508  0.00  0.00     0.077 C 
ATOM      3  C1  PXY d   1       2.613   1.465   1.436  0.00  0.00    -0.082 A 
ATOM      4  C2  PXY d   1       2.766   0.182   1.720  0.00  0.00     0.003 A 
ATOM      5  C3  PXY d   1       2.571  -0.771   0.754  0.00  0.00     0.003 A 
ATOM      6  C4  PXY d   1       2.163  -0.410  -0.503  0.00  0.00    -0.082 A 
ATOM      7  C5  PXY d   1       1.995   0.897  -0.798  0.00  0.00     0.003 A 
ATOM      8  C6  PXY d   1       2.238   1.851   0.186  0.00  0.00     0.003 A 
ENDROOT
TORSDOF 0
ENDMDL
