MODEL 1
REMARK minimizedAffinity 7.44425154
REMARK minimizedRMSD -1
REMARK  0 active torsions:
REMARK  status: ('A' for Active; 'I' for Inactive)
ROOT
ATOM      1  C4' PXY d   1       5.997   3.114  -1.505  0.00  0.00     0.077 C 
ATOM      2  C1' PXY d   1       2.359  -1.089   0.080  0.00  0.00     0.077 C 
ATOM      3  C1  PXY d   1       3.312   0.009  -0.348  0.00  0.00    -0.082 A 
ATOM      4  C2  PXY d   1       4.177   0.501   0.524  0.00  0.00     0.003 A 
ATOM      5  C3  PXY d   1       5.024   1.517   0.163  0.00  0.00     0.003 A 
ATOM      6  C4  PXY d   1       5.022   1.998  -1.120  0.00  0.00    -0.082 A 
ATOM      7  C5  PXY d   1       4.150   1.494  -2.018  0.00  0.00     0.003 A 
ATOM      8  C6  PXY d   1       3.270   0.491  -1.620  0.00  0.00     0.003 A 
ENDROOT
TORSDOF 0
ENDMDL
