MODEL 1
REMARK minimizedAffinity 21.7975655
REMARK minimizedRMSD -1
REMARK  0 active torsions:
REMARK  status: ('A' for Active; 'I' for Inactive)
ROOT
ATOM      1  C4' PXY d   1      -4.524   2.343   1.521  0.00  0.00     0.077 C 
ATOM      2  C1' PXY d   1      -2.131  -0.401  -2.970  0.00  0.00     0.077 C 
ATOM      3  C1  PXY d   1      -2.770   0.313  -1.795  0.00  0.00    -0.082 A 
ATOM      4  C2  PXY d   1      -2.261   1.458  -1.370  0.00  0.00     0.003 A 
ATOM      5  C3  PXY d   1      -2.807   2.100  -0.288  0.00  0.00     0.003 A 
ATOM      6  C4  PXY d   1      -3.917   1.592   0.332  0.00  0.00    -0.082 A 
ATOM      7  C5  PXY d   1      -4.448   0.430  -0.103  0.00  0.00     0.003 A 
ATOM      8  C6  PXY d   1      -3.855  -0.228  -1.176  0.00  0.00     0.003 A 
ENDROOT
TORSDOF 0
ENDMDL
