MODEL 1
REMARK minimizedAffinity 13.0626593
REMARK minimizedRMSD -1
REMARK  0 active torsions:
REMARK  status: ('A' for Active; 'I' for Inactive)
ROOT
ATOM      1  C4' PXY d   1       4.105   3.344   2.889  0.00  0.00     0.077 C 
ATOM      2  C1' PXY d   1      -0.346   5.324   6.000  0.00  0.00     0.077 C 
ATOM      3  C1  PXY d   1       0.822   4.795   5.192  0.00  0.00    -0.082 A 
ATOM      4  C2  PXY d   1       1.536   5.627   4.451  0.00  0.00     0.003 A 
ATOM      5  C3  PXY d   1       2.576   5.160   3.690  0.00  0.00     0.003 A 
ATOM      6  C4  PXY d   1       2.923   3.836   3.728  0.00  0.00    -0.082 A 
ATOM      7  C5  PXY d   1       2.206   2.982   4.490  0.00  0.00     0.003 A 
ATOM      8  C6  PXY d   1       1.128   3.469   5.223  0.00  0.00     0.003 A 
ENDROOT
TORSDOF 0
ENDMDL
