MODEL 1
REMARK minimizedAffinity 6.17725945
REMARK minimizedRMSD -1
REMARK  0 active torsions:
REMARK  status: ('A' for Active; 'I' for Inactive)
ROOT
ATOM      1  C   UNL d   1       1.183  -5.784   3.858  0.00  0.00    -0.002 A 
ATOM      2  C1  UNL d   1       1.241  -5.934   5.237  0.00  0.00     0.010 A 
ATOM      3  C2  UNL d   1       2.472  -5.990   5.894  0.00  0.00     0.041 A 
ATOM      4  C3  UNL d   1       3.655  -5.889   5.135  0.00  0.00    -0.075 A 
ATOM      5  S   UNL d   1       5.275  -5.931   5.725  0.00  0.00     0.015 SA
ATOM      6  C4  UNL d   1       5.928  -5.749   4.161  0.00  0.00     0.022 A 
ATOM      7  C5  UNL d   1       4.948  -5.658   3.201  0.00  0.00     0.026 A 
ATOM      8  C6  UNL d   1       3.622  -5.736   3.746  0.00  0.00    -0.082 A 
ATOM      9  C7  UNL d   1       2.359  -5.684   3.109  0.00  0.00     0.045 A 
ENDROOT
TORSDOF 0
ENDMDL
