MODEL 1
REMARK minimizedAffinity 14.9812775
REMARK minimizedRMSD -1
REMARK  0 active torsions:
REMARK  status: ('A' for Active; 'I' for Inactive)
ROOT
ATOM      1  C   UNL d   1       3.325   4.100  -2.889  0.00  0.00    -0.002 A 
ATOM      2  C1  UNL d   1       3.896   4.330  -4.133  0.00  0.00     0.010 A 
ATOM      3  C2  UNL d   1       3.993   3.301  -5.072  0.00  0.00     0.041 A 
ATOM      4  C3  UNL d   1       3.499   2.024  -4.737  0.00  0.00    -0.075 A 
ATOM      5  S   UNL d   1       3.509   0.613  -5.727  0.00  0.00     0.015 SA
ATOM      6  C4  UNL d   1       2.754  -0.328  -4.523  0.00  0.00     0.022 A 
ATOM      7  C5  UNL d   1       2.494   0.401  -3.386  0.00  0.00     0.026 A 
ATOM      8  C6  UNL d   1       2.919   1.769  -3.491  0.00  0.00    -0.082 A 
ATOM      9  C7  UNL d   1       2.837   2.833  -2.561  0.00  0.00     0.045 A 
ENDROOT
TORSDOF 0
ENDMDL
