MODEL 1
REMARK minimizedAffinity 6.28935289
REMARK minimizedRMSD -1
REMARK  0 active torsions:
REMARK  status: ('A' for Active; 'I' for Inactive)
ROOT
ATOM      1  C   UNL d   1       1.069  -1.904  -4.743  0.00  0.00    -0.002 A 
ATOM      2  C1  UNL d   1      -0.305  -1.711  -4.793  0.00  0.00     0.010 A 
ATOM      3  C2  UNL d   1      -0.911  -0.720  -4.018  0.00  0.00     0.041 A 
ATOM      4  C3  UNL d   1      -0.106   0.083  -3.187  0.00  0.00    -0.075 A 
ATOM      5  S   UNL d   1      -0.628   1.358  -2.151  0.00  0.00     0.015 SA
ATOM      6  C4  UNL d   1       0.959   1.678  -1.620  0.00  0.00     0.022 A 
ATOM      7  C5  UNL d   1       1.878   0.841  -2.207  0.00  0.00     0.026 A 
ATOM      8  C6  UNL d   1       1.280  -0.092  -3.121  0.00  0.00    -0.082 A 
ATOM      9  C7  UNL d   1       1.864  -1.106  -3.917  0.00  0.00     0.045 A 
ENDROOT
TORSDOF 0
ENDMDL
