MODEL 1
REMARK minimizedAffinity 16.6880112
REMARK minimizedRMSD -1
REMARK  0 active torsions:
REMARK  status: ('A' for Active; 'I' for Inactive)
ROOT
ATOM      1  C   UNL d   1       2.099  -1.378  -3.957  0.00  0.00    -0.002 A 
ATOM      2  C1  UNL d   1       0.768  -1.614  -3.646  0.00  0.00     0.010 A 
ATOM      3  C2  UNL d   1       0.103  -0.814  -2.714  0.00  0.00     0.041 A 
ATOM      4  C3  UNL d   1       0.806   0.238  -2.096  0.00  0.00    -0.075 A 
ATOM      5  S   UNL d   1       0.197   1.348  -0.925  0.00  0.00     0.015 SA
ATOM      6  C4  UNL d   1       1.690   2.162  -0.811  0.00  0.00     0.022 A 
ATOM      7  C5  UNL d   1       2.641   1.614  -1.639  0.00  0.00     0.026 A 
ATOM      8  C6  UNL d   1       2.147   0.496  -2.393  0.00  0.00    -0.082 A 
ATOM      9  C7  UNL d   1       2.793  -0.333  -3.341  0.00  0.00     0.045 A 
ENDROOT
TORSDOF 0
ENDMDL
