MODEL 1
REMARK minimizedAffinity 18.5513439
REMARK minimizedRMSD -1
REMARK  0 active torsions:
REMARK  status: ('A' for Active; 'I' for Inactive)
ROOT
ATOM      1  C   UNL d   1      -0.048   3.014   3.364  0.00  0.00    -0.002 A 
ATOM      2  C1  UNL d   1       0.029   1.713   2.888  0.00  0.00     0.010 A 
ATOM      3  C2  UNL d   1      -1.070   1.117   2.266  0.00  0.00     0.041 A 
ATOM      4  C3  UNL d   1      -2.259   1.860   2.127  0.00  0.00    -0.075 A 
ATOM      5  S   UNL d   1      -3.732   1.337   1.399  0.00  0.00     0.015 SA
ATOM      6  C4  UNL d   1      -4.498   2.829   1.701  0.00  0.00     0.022 A 
ATOM      7  C5  UNL d   1      -3.665   3.716   2.342  0.00  0.00     0.026 A 
ATOM      8  C6  UNL d   1      -2.361   3.172   2.598  0.00  0.00    -0.082 A 
ATOM      9  C7  UNL d   1      -1.230   3.747   3.225  0.00  0.00     0.045 A 
ENDROOT
TORSDOF 0
ENDMDL
