MODEL 1
REMARK minimizedAffinity 18.092186
REMARK minimizedRMSD -1
REMARK  0 active torsions:
REMARK  status: ('A' for Active; 'I' for Inactive)
ROOT
ATOM      1  C   UNL d   1       3.609   4.076  -5.267  0.00  0.00    -0.002 A 
ATOM      2  C1  UNL d   1       3.436   2.836  -5.866  0.00  0.00     0.010 A 
ATOM      3  C2  UNL d   1       2.934   1.758  -5.134  0.00  0.00     0.041 A 
ATOM      4  C3  UNL d   1       2.604   1.950  -3.778  0.00  0.00    -0.075 A 
ATOM      5  S   UNL d   1       1.973   0.775  -2.686  0.00  0.00     0.015 SA
ATOM      6  C4  UNL d   1       1.917   1.891  -1.399  0.00  0.00     0.022 A 
ATOM      7  C5  UNL d   1       2.365   3.135  -1.776  0.00  0.00     0.026 A 
ATOM      8  C6  UNL d   1       2.768   3.189  -3.153  0.00  0.00    -0.082 A 
ATOM      9  C7  UNL d   1       3.280   4.262  -3.922  0.00  0.00     0.045 A 
ENDROOT
TORSDOF 0
ENDMDL
