MODEL 1
REMARK minimizedAffinity 20.9184608
REMARK minimizedRMSD -1
REMARK  0 active torsions:
REMARK  status: ('A' for Active; 'I' for Inactive)
ROOT
ATOM      1  C   UNL d   1       0.717  -1.001  -1.846  0.00  0.00    -0.002 A 
ATOM      2  C1  UNL d   1       0.853   0.370  -2.018  0.00  0.00     0.010 A 
ATOM      3  C2  UNL d   1       1.496   0.884  -3.145  0.00  0.00     0.041 A 
ATOM      4  C3  UNL d   1       2.003  -0.011  -4.108  0.00  0.00    -0.075 A 
ATOM      5  S   UNL d   1       2.826   0.390  -5.569  0.00  0.00     0.015 SA
ATOM      6  C4  UNL d   1       3.016  -1.248  -6.000  0.00  0.00     0.022 A 
ATOM      7  C5  UNL d   1       2.470  -2.094  -5.063  0.00  0.00     0.026 A 
ATOM      8  C6  UNL d   1       1.877  -1.395  -3.958  0.00  0.00    -0.082 A 
ATOM      9  C7  UNL d   1       1.221  -1.885  -2.803  0.00  0.00     0.045 A 
ENDROOT
TORSDOF 0
ENDMDL
