MODEL 1
REMARK minimizedAffinity 18.4928169
REMARK minimizedRMSD -1
REMARK  0 active torsions:
REMARK  status: ('A' for Active; 'I' for Inactive)
ROOT
ATOM      1  C   UNL d   1       1.671  -0.992  -4.528  0.00  0.00    -0.002 A 
ATOM      2  C1  UNL d   1       0.736   0.015  -4.718  0.00  0.00     0.010 A 
ATOM      3  C2  UNL d   1      -0.550  -0.285  -5.173  0.00  0.00     0.041 A 
ATOM      4  C3  UNL d   1      -0.883  -1.629  -5.435  0.00  0.00    -0.075 A 
ATOM      5  S   UNL d   1      -2.396  -2.234  -5.999  0.00  0.00     0.015 SA
ATOM      6  C4  UNL d   1      -1.836  -3.844  -6.000  0.00  0.00     0.022 A 
ATOM      7  C5  UNL d   1      -0.529  -3.936  -5.583  0.00  0.00     0.026 A 
ATOM      8  C6  UNL d   1       0.042  -2.661  -5.251  0.00  0.00    -0.082 A 
ATOM      9  C7  UNL d   1       1.337  -2.324  -4.789  0.00  0.00     0.045 A 
ENDROOT
TORSDOF 0
ENDMDL
