MODEL 1
REMARK minimizedAffinity 10.7312794
REMARK minimizedRMSD -1
REMARK  0 active torsions:
REMARK  status: ('A' for Active; 'I' for Inactive)
ROOT
ATOM      1  C   UNL d   1       1.495   1.598  -1.385  0.00  0.00    -0.002 A 
ATOM      2  C1  UNL d   1       2.200   0.744  -2.222  0.00  0.00     0.010 A 
ATOM      3  C2  UNL d   1       2.973   1.252  -3.268  0.00  0.00     0.041 A 
ATOM      4  C3  UNL d   1       3.027   2.647  -3.460  0.00  0.00    -0.075 A 
ATOM      5  S   UNL d   1       3.907   3.495  -4.676  0.00  0.00     0.015 SA
ATOM      6  C4  UNL d   1       3.369   5.011  -4.113  0.00  0.00     0.022 A 
ATOM      7  C5  UNL d   1       2.537   4.891  -3.025  0.00  0.00     0.026 A 
ATOM      8  C6  UNL d   1       2.326   3.527  -2.631  0.00  0.00    -0.082 A 
ATOM      9  C7  UNL d   1       1.551   2.981  -1.579  0.00  0.00     0.045 A 
ENDROOT
TORSDOF 0
ENDMDL
