MODEL 1
REMARK minimizedAffinity 15.3712072
REMARK minimizedRMSD -1
REMARK  0 active torsions:
REMARK  status: ('A' for Active; 'I' for Inactive)
ROOT
ATOM      1  C   UNL d   1       1.858   3.470  -1.857  0.00  0.00    -0.002 A 
ATOM      2  C1  UNL d   1       2.917   3.675  -2.729  0.00  0.00     0.010 A 
ATOM      3  C2  UNL d   1       3.351   2.650  -3.573  0.00  0.00     0.041 A 
ATOM      4  C3  UNL d   1       2.694   1.405  -3.526  0.00  0.00    -0.075 A 
ATOM      5  S   UNL d   1       3.051   0.005  -4.467  0.00  0.00     0.015 SA
ATOM      6  C4  UNL d   1       1.805  -0.897  -3.733  0.00  0.00     0.022 A 
ATOM      7  C5  UNL d   1       1.123  -0.164  -2.791  0.00  0.00     0.026 A 
ATOM      8  C6  UNL d   1       1.624   1.175  -2.656  0.00  0.00    -0.082 A 
ATOM      9  C7  UNL d   1       1.209   2.234  -1.813  0.00  0.00     0.045 A 
ENDROOT
TORSDOF 0
ENDMDL
