MODEL 1
REMARK minimizedAffinity -0.165715635
REMARK minimizedRMSD -1
REMARK  0 active torsions:
REMARK  status: ('A' for Active; 'I' for Inactive)
ROOT
ATOM      1  C   UNL d   1      -2.647   0.877   2.493  0.00  0.00    -0.002 A 
ATOM      2  C1  UNL d   1      -3.148   0.847   1.199  0.00  0.00     0.010 A 
ATOM      3  C2  UNL d   1      -2.311   0.553   0.121  0.00  0.00     0.041 A 
ATOM      4  C3  UNL d   1      -0.950   0.285   0.367  0.00  0.00    -0.075 A 
ATOM      5  S   UNL d   1       0.261  -0.100  -0.798  0.00  0.00     0.015 SA
ATOM      6  C4  UNL d   1       1.471  -0.235   0.395  0.00  0.00     0.022 A 
ATOM      7  C5  UNL d   1       0.981   0.005   1.657  0.00  0.00     0.026 A 
ATOM      8  C6  UNL d   1      -0.423   0.308   1.662  0.00  0.00    -0.082 A 
ATOM      9  C7  UNL d   1      -1.297   0.610   2.734  0.00  0.00     0.045 A 
ENDROOT
TORSDOF 0
ENDMDL
