MODEL 1
REMARK minimizedAffinity -1.89319718
REMARK minimizedRMSD -1
REMARK  0 active torsions:
REMARK  status: ('A' for Active; 'I' for Inactive)
ROOT
ATOM      1  C   UNL d   1       0.761   0.071  -3.616  0.00  0.00    -0.002 A 
ATOM      2  C1  UNL d   1       0.818  -1.304  -3.436  0.00  0.00     0.010 A 
ATOM      3  C2  UNL d   1       0.787  -1.855  -2.154  0.00  0.00     0.041 A 
ATOM      4  C3  UNL d   1       0.695  -0.992  -1.044  0.00  0.00    -0.075 A 
ATOM      5  S   UNL d   1       0.641  -1.441   0.620  0.00  0.00     0.015 SA
ATOM      6  C4  UNL d   1       0.540   0.181   1.132  0.00  0.00     0.022 A 
ATOM      7  C5  UNL d   1       0.546   1.057   0.072  0.00  0.00     0.026 A 
ATOM      8  C6  UNL d   1       0.635   0.396  -1.199  0.00  0.00    -0.082 A 
ATOM      9  C7  UNL d   1       0.670   0.923  -2.512  0.00  0.00     0.045 A 
ENDROOT
TORSDOF 0
ENDMDL
