MODEL 1
REMARK minimizedAffinity -3.56500769
REMARK minimizedRMSD -1
REMARK  0 active torsions:
REMARK  status: ('A' for Active; 'I' for Inactive)
ROOT
ATOM      1  C   UNL d   1      -2.490   0.682   2.796  0.00  0.00    -0.002 A 
ATOM      2  C1  UNL d   1      -1.338   0.454   3.535  0.00  0.00     0.010 A 
ATOM      3  C2  UNL d   1      -0.124   0.192   2.896  0.00  0.00     0.041 A 
ATOM      4  C3  UNL d   1      -0.088   0.163   1.488  0.00  0.00    -0.075 A 
ATOM      5  S   UNL d   1       1.285  -0.138   0.490  0.00  0.00     0.015 SA
ATOM      6  C4  UNL d   1       0.375   0.030  -0.941  0.00  0.00     0.022 A 
ATOM      7  C5  UNL d   1      -0.946   0.309  -0.682  0.00  0.00     0.026 A 
ATOM      8  C6  UNL d   1      -1.235   0.390   0.722  0.00  0.00    -0.082 A 
ATOM      9  C7  UNL d   1      -2.449   0.653   1.400  0.00  0.00     0.045 A 
ENDROOT
TORSDOF 0
ENDMDL
