MODEL 1
REMARK minimizedAffinity 0.185009226
REMARK minimizedRMSD -1
REMARK  0 active torsions:
REMARK  status: ('A' for Active; 'I' for Inactive)
ROOT
ATOM      1  C   UNL d   1      -0.468   0.354   2.628  0.00  0.00    -0.002 A 
ATOM      2  C1  UNL d   1      -1.810   0.619   2.388  0.00  0.00     0.010 A 
ATOM      3  C2  UNL d   1      -2.281   0.768   1.082  0.00  0.00     0.041 A 
ATOM      4  C3  UNL d   1      -1.375   0.644   0.012  0.00  0.00    -0.075 A 
ATOM      5  S   UNL d   1      -1.726   0.787  -1.670  0.00  0.00     0.015 SA
ATOM      6  C4  UNL d   1      -0.105   0.499  -2.110  0.00  0.00     0.022 A 
ATOM      7  C5  UNL d   1       0.699   0.298  -1.013  0.00  0.00     0.026 A 
ATOM      8  C6  UNL d   1      -0.020   0.377   0.228  0.00  0.00    -0.082 A 
ATOM      9  C7  UNL d   1       0.428   0.232   1.563  0.00  0.00     0.045 A 
ENDROOT
TORSDOF 0
ENDMDL
