MODEL 1
REMARK minimizedAffinity -1.33364308
REMARK minimizedRMSD -1
REMARK  0 active torsions:
REMARK  status: ('A' for Active; 'I' for Inactive)
ROOT
ATOM      1  C   UNL d   1      -0.797   0.425   3.060  0.00  0.00    -0.002 A 
ATOM      2  C1  UNL d   1      -2.104   0.729   2.704  0.00  0.00     0.010 A 
ATOM      3  C2  UNL d   1      -2.481   0.774   1.360  0.00  0.00     0.041 A 
ATOM      4  C3  UNL d   1      -1.515   0.504   0.371  0.00  0.00    -0.075 A 
ATOM      5  S   UNL d   1      -1.748   0.500  -1.337  0.00  0.00     0.015 SA
ATOM      6  C4  UNL d   1      -0.120   0.094  -1.633  0.00  0.00     0.022 A 
ATOM      7  C5  UNL d   1       0.599  -0.039  -0.469  0.00  0.00     0.026 A 
ATOM      8  C6  UNL d   1      -0.193   0.194   0.706  0.00  0.00    -0.082 A 
ATOM      9  C7  UNL d   1       0.158   0.158   2.077  0.00  0.00     0.045 A 
ENDROOT
TORSDOF 0
ENDMDL
