MODEL 1
REMARK minimizedAffinity -2.46754456
REMARK minimizedRMSD -1
REMARK  0 active torsions:
REMARK  status: ('A' for Active; 'I' for Inactive)
ROOT
ATOM      1  C   UNL d   1       1.286  -1.679  -3.583  0.00  0.00    -0.002 A 
ATOM      2  C1  UNL d   1       0.297  -0.720  -3.747  0.00  0.00     0.010 A 
ATOM      3  C2  UNL d   1      -0.173   0.010  -2.654  0.00  0.00     0.041 A 
ATOM      4  C3  UNL d   1       0.375  -0.241  -1.380  0.00  0.00    -0.075 A 
ATOM      5  S   UNL d   1      -0.044   0.531   0.103  0.00  0.00     0.015 SA
ATOM      6  C4  UNL d   1       1.080  -0.393   0.989  0.00  0.00     0.022 A 
ATOM      7  C5  UNL d   1       1.767  -1.275   0.189  0.00  0.00     0.026 A 
ATOM      8  C6  UNL d   1       1.373  -1.202  -1.190  0.00  0.00    -0.082 A 
ATOM      9  C7  UNL d   1       1.827  -1.926  -2.319  0.00  0.00     0.045 A 
ENDROOT
TORSDOF 0
ENDMDL
