MODEL 1
REMARK minimizedAffinity -2.14069152
REMARK minimizedRMSD -1
REMARK  0 active torsions:
REMARK  status: ('A' for Active; 'I' for Inactive)
ROOT
ATOM      1  C   UNL d   1       0.778   0.543   1.238  0.00  0.00    -0.002 A 
ATOM      2  C1  UNL d   1       0.942  -0.825   1.404  0.00  0.00     0.010 A 
ATOM      3  C2  UNL d   1       1.013  -1.671   0.296  0.00  0.00     0.041 A 
ATOM      4  C3  UNL d   1       0.918  -1.114  -0.995  0.00  0.00    -0.075 A 
ATOM      5  S   UNL d   1       0.980  -1.956  -2.498  0.00  0.00     0.015 SA
ATOM      6  C4  UNL d   1       0.792  -0.520  -3.396  0.00  0.00     0.022 A 
ATOM      7  C5  UNL d   1       0.682   0.585  -2.584  0.00  0.00     0.026 A 
ATOM      8  C6  UNL d   1       0.753   0.261  -1.187  0.00  0.00    -0.082 A 
ATOM      9  C7  UNL d   1       0.683   1.092  -0.044  0.00  0.00     0.045 A 
ENDROOT
TORSDOF 0
ENDMDL
