MODEL 1
REMARK minimizedAffinity -2.48889017
REMARK minimizedRMSD -1
REMARK  0 active torsions:
REMARK  status: ('A' for Active; 'I' for Inactive)
ROOT
ATOM      1  C   UNL d   1      -2.222   0.668   2.819  0.00  0.00    -0.002 A 
ATOM      2  C1  UNL d   1      -2.969   0.731   1.652  0.00  0.00     0.010 A 
ATOM      3  C2  UNL d   1      -2.343   0.695   0.405  0.00  0.00     0.041 A 
ATOM      4  C3  UNL d   1      -0.939   0.593   0.350  0.00  0.00    -0.075 A 
ATOM      5  S   UNL d   1       0.045   0.532  -1.064  0.00  0.00     0.015 SA
ATOM      6  C4  UNL d   1       1.480   0.420  -0.152  0.00  0.00     0.022 A 
ATOM      7  C5  UNL d   1       1.234   0.429   1.200  0.00  0.00     0.026 A 
ATOM      8  C6  UNL d   1      -0.164   0.528   1.512  0.00  0.00    -0.082 A 
ATOM      9  C7  UNL d   1      -0.829   0.567   2.761  0.00  0.00     0.045 A 
ENDROOT
TORSDOF 0
ENDMDL
