MODEL 1
REMARK minimizedAffinity 1.32218647
REMARK minimizedRMSD -1
REMARK  0 active torsions:
REMARK  status: ('A' for Active; 'I' for Inactive)
ROOT
ATOM      1  C   UNL d   1      -1.040   0.500   3.508  0.00  0.00    -0.002 A 
ATOM      2  C1  UNL d   1      -2.210   0.738   2.801  0.00  0.00     0.010 A 
ATOM      3  C2  UNL d   1      -2.211   0.727   1.405  0.00  0.00     0.041 A 
ATOM      4  C3  UNL d   1      -1.005   0.468   0.724  0.00  0.00    -0.075 A 
ATOM      5  S   UNL d   1      -0.767   0.404  -0.982  0.00  0.00     0.015 SA
ATOM      6  C4  UNL d   1       0.894   0.058  -0.812  0.00  0.00     0.022 A 
ATOM      7  C5  UNL d   1       1.274  -0.010   0.507  0.00  0.00     0.026 A 
ATOM      8  C6  UNL d   1       0.186   0.225   1.415  0.00  0.00    -0.082 A 
ATOM      9  C7  UNL d   1       0.154   0.244   2.830  0.00  0.00     0.045 A 
ENDROOT
TORSDOF 0
ENDMDL
