MODEL 1
REMARK minimizedAffinity 0.640031219
REMARK minimizedRMSD -1
REMARK  0 active torsions:
REMARK  status: ('A' for Active; 'I' for Inactive)
ROOT
ATOM      1  C   UNL d   1      -2.387   0.944   3.135  0.00  0.00    -0.002 A 
ATOM      2  C1  UNL d   1      -3.124   0.877   1.961  0.00  0.00     0.010 A 
ATOM      3  C2  UNL d   1      -2.517   0.495   0.762  0.00  0.00     0.041 A 
ATOM      4  C3  UNL d   1      -1.145   0.177   0.764  0.00  0.00    -0.075 A 
ATOM      5  S   UNL d   1      -0.191  -0.316  -0.584  0.00  0.00     0.015 SA
ATOM      6  C4  UNL d   1       1.217  -0.451   0.366  0.00  0.00     0.022 A 
ATOM      7  C5  UNL d   1       0.983  -0.131   1.683  0.00  0.00     0.026 A 
ATOM      8  C6  UNL d   1      -0.382   0.236   1.934  0.00  0.00    -0.082 A 
ATOM      9  C7  UNL d   1      -1.026   0.627   3.132  0.00  0.00     0.045 A 
ENDROOT
TORSDOF 0
ENDMDL
