MODEL 1
REMARK minimizedAffinity 1.30665016
REMARK minimizedRMSD -1
REMARK  0 active torsions:
REMARK  status: ('A' for Active; 'I' for Inactive)
ROOT
ATOM      1  C   UNL d   1       1.493  -0.075   2.449  0.00  0.00    -0.002 A 
ATOM      2  C1  UNL d   1       0.384   0.722   2.692  0.00  0.00     0.010 A 
ATOM      3  C2  UNL d   1      -0.485   1.066   1.655  0.00  0.00     0.041 A 
ATOM      4  C3  UNL d   1      -0.219   0.588   0.357  0.00  0.00    -0.075 A 
ATOM      5  S   UNL d   1      -1.145   0.880  -1.068  0.00  0.00     0.015 SA
ATOM      6  C4  UNL d   1      -0.091  -0.049  -2.033  0.00  0.00     0.022 A 
ATOM      7  C5  UNL d   1       0.948  -0.575  -1.303  0.00  0.00     0.026 A 
ATOM      8  C6  UNL d   1       0.891  -0.217   0.087  0.00  0.00    -0.082 A 
ATOM      9  C7  UNL d   1       1.754  -0.547   1.160  0.00  0.00     0.045 A 
ENDROOT
TORSDOF 0
ENDMDL
