MODEL 1
REMARK minimizedAffinity -3.15840626
REMARK minimizedRMSD -1
REMARK  0 active torsions:
REMARK  status: ('A' for Active; 'I' for Inactive)
ROOT
ATOM      1  C   UNL d   1      -3.382   0.820   2.423  0.00  0.00    -0.002 A 
ATOM      2  C1  UNL d   1      -3.564   0.862   1.048  0.00  0.00     0.010 A 
ATOM      3  C2  UNL d   1      -2.488   0.652   0.183  0.00  0.00     0.041 A 
ATOM      4  C3  UNL d   1      -1.215   0.396   0.729  0.00  0.00    -0.075 A 
ATOM      5  S   UNL d   1       0.248   0.109  -0.137  0.00  0.00     0.015 SA
ATOM      6  C4  UNL d   1       1.149  -0.076   1.298  0.00  0.00     0.022 A 
ATOM      7  C5  UNL d   1       0.368   0.074   2.420  0.00  0.00     0.026 A 
ATOM      8  C6  UNL d   1      -1.007   0.348   2.110  0.00  0.00    -0.082 A 
ATOM      9  C7  UNL d   1      -2.118   0.566   2.961  0.00  0.00     0.045 A 
ENDROOT
TORSDOF 0
ENDMDL
