MODEL 1
REMARK minimizedAffinity -0.583840787
REMARK minimizedRMSD -1
REMARK  0 active torsions:
REMARK  status: ('A' for Active; 'I' for Inactive)
ROOT
ATOM      1  C   UNL d   1       1.004  -2.001  -4.206  0.00  0.00    -0.002 A 
ATOM      2  C1  UNL d   1       1.564  -0.754  -4.447  0.00  0.00     0.010 A 
ATOM      3  C2  UNL d   1       1.506   0.250  -3.479  0.00  0.00     0.041 A 
ATOM      4  C3  UNL d   1       0.871  -0.024  -2.251  0.00  0.00    -0.075 A 
ATOM      5  S   UNL d   1       0.680   1.052  -0.917  0.00  0.00     0.015 SA
ATOM      6  C4  UNL d   1      -0.148  -0.118   0.004  0.00  0.00     0.022 A 
ATOM      7  C5  UNL d   1      -0.286  -1.306  -0.674  0.00  0.00     0.026 A 
ATOM      8  C6  UNL d   1       0.300  -1.271  -1.985  0.00  0.00    -0.082 A 
ATOM      9  C7  UNL d   1       0.375  -2.268  -2.988  0.00  0.00     0.045 A 
ENDROOT
TORSDOF 0
ENDMDL
