MODEL 1
REMARK minimizedAffinity -0.998286664
REMARK minimizedRMSD -1
REMARK  0 active torsions:
REMARK  status: ('A' for Active; 'I' for Inactive)
ROOT
ATOM      1  C   UNL d   1      -2.608   0.749   2.494  0.00  0.00    -0.002 A 
ATOM      2  C1  UNL d   1      -3.106   0.754   1.199  0.00  0.00     0.010 A 
ATOM      3  C2  UNL d   1      -2.256   0.559   0.110  0.00  0.00     0.041 A 
ATOM      4  C3  UNL d   1      -0.882   0.353   0.346  0.00  0.00    -0.075 A 
ATOM      5  S   UNL d   1       0.348   0.092  -0.834  0.00  0.00     0.015 SA
ATOM      6  C4  UNL d   1       1.564  -0.035   0.354  0.00  0.00     0.022 A 
ATOM      7  C5  UNL d   1       1.062   0.117   1.624  0.00  0.00     0.026 A 
ATOM      8  C6  UNL d   1      -0.356   0.343   1.641  0.00  0.00    -0.082 A 
ATOM      9  C7  UNL d   1      -1.245   0.545   2.724  0.00  0.00     0.045 A 
ENDROOT
TORSDOF 0
ENDMDL
