MODEL 1
REMARK minimizedAffinity -2.95122361
REMARK minimizedRMSD -1
REMARK  0 active torsions:
REMARK  status: ('A' for Active; 'I' for Inactive)
ROOT
ATOM      1  C   UNL d   1      -3.198   0.739   2.595  0.00  0.00    -0.002 A 
ATOM      2  C1  UNL d   1      -3.496   0.733   1.240  0.00  0.00     0.010 A 
ATOM      3  C2  UNL d   1      -2.488   0.541   0.292  0.00  0.00     0.041 A 
ATOM      4  C3  UNL d   1      -1.164   0.350   0.734  0.00  0.00    -0.075 A 
ATOM      5  S   UNL d   1       0.232   0.095  -0.245  0.00  0.00     0.015 SA
ATOM      6  C4  UNL d   1       1.256  -0.013   1.113  0.00  0.00     0.022 A 
ATOM      7  C5  UNL d   1       0.566   0.140   2.292  0.00  0.00     0.026 A 
ATOM      8  C6  UNL d   1      -0.840   0.351   2.093  0.00  0.00    -0.082 A 
ATOM      9  C7  UNL d   1      -1.883   0.550   3.029  0.00  0.00     0.045 A 
ENDROOT
TORSDOF 0
ENDMDL
