MODEL 1
REMARK minimizedAffinity 2.01135802
REMARK minimizedRMSD -1
REMARK  1 active torsions:
REMARK  status: ('A' for Active; 'I' for Inactive)
REMARK    1  A    between atoms: C1_2  and  C2_3 
ROOT
ATOM      1  C2  UNL d   1       0.947   0.847   1.183  0.00  0.00    -0.076 A 
ATOM      2  C3  UNL d   1      -0.434   1.093   1.090  0.00  0.00     0.004 A 
ATOM      3  C4  UNL d   1      -1.347   0.350   1.836  0.00  0.00    -0.003 A 
ATOM      4  C5  UNL d   1      -0.894  -0.651   2.689  0.00  0.00     0.000 A 
ATOM      5  C6  UNL d   1       0.474  -0.896   2.807  0.00  0.00     0.000 A 
ATOM      6  C7  UNL d   1       1.409  -0.146   2.074  0.00  0.00    -0.073 A 
ATOM      7  C8  UNL d   1       2.871  -0.458   2.236  0.00  0.00     0.078 C 
ENDROOT
BRANCH   1   8
ATOM      8  C1  UNL d   1       1.888   1.666   0.329  0.00  0.00     0.053 C 
ATOM      9  C   UNL d   1       1.912   1.204  -1.120  0.00  0.00     0.018 C 
ENDBRANCH   1   8
TORSDOF 1
ENDMDL
