MODEL 1
REMARK minimizedAffinity -1.38201642
REMARK minimizedRMSD -1
REMARK  1 active torsions:
REMARK  status: ('A' for Active; 'I' for Inactive)
REMARK    1  A    between atoms: C1_2  and  C2_3 
ROOT
ATOM      1  C2  UNL d   1       5.729  -1.943   4.733  0.00  0.00    -0.076 A 
ATOM      2  C3  UNL d   1       5.992  -0.618   5.121  0.00  0.00     0.004 A 
ATOM      3  C4  UNL d   1       5.883   0.432   4.210  0.00  0.00    -0.003 A 
ATOM      4  C5  UNL d   1       5.507   0.173   2.896  0.00  0.00     0.000 A 
ATOM      5  C6  UNL d   1       5.225  -1.133   2.499  0.00  0.00     0.000 A 
ATOM      6  C7  UNL d   1       5.314  -2.201   3.409  0.00  0.00    -0.073 A 
ATOM      7  C8  UNL d   1       5.004  -3.590   2.924  0.00  0.00     0.078 C 
ENDROOT
BRANCH   1   8
ATOM      8  C1  UNL d   1       5.890  -3.043   5.757  0.00  0.00     0.053 C 
ATOM      9  C   UNL d   1       4.619  -3.856   5.945  0.00  0.00     0.018 C 
ENDBRANCH   1   8
TORSDOF 1
ENDMDL
