MODEL 1
REMARK minimizedAffinity 0.803878486
REMARK minimizedRMSD -1
REMARK  1 active torsions:
REMARK  status: ('A' for Active; 'I' for Inactive)
REMARK    1  A    between atoms: C1_2  and  C2_3 
ROOT
ATOM      1  C2  UNL d   1       5.757  -2.410   4.098  0.00  0.00    -0.076 A 
ATOM      2  C3  UNL d   1       5.999  -2.668   5.458  0.00  0.00     0.004 A 
ATOM      3  C4  UNL d   1       5.771  -3.932   6.000  0.00  0.00    -0.003 A 
ATOM      4  C5  UNL d   1       5.298  -4.959   5.190  0.00  0.00     0.000 A 
ATOM      5  C6  UNL d   1       5.069  -4.725   3.834  0.00  0.00     0.000 A 
ATOM      6  C7  UNL d   1       5.309  -3.461   3.269  0.00  0.00    -0.073 A 
ATOM      7  C8  UNL d   1       5.039  -3.263   1.802  0.00  0.00     0.078 C 
ENDROOT
BRANCH   1   8
ATOM      8  C1  UNL d   1       5.997  -1.013   3.572  0.00  0.00     0.053 C 
ATOM      9  C   UNL d   1       5.872   0.047   4.656  0.00  0.00     0.018 C 
ENDBRANCH   1   8
TORSDOF 1
ENDMDL
