MODEL 1
REMARK minimizedAffinity 2.3482914
REMARK minimizedRMSD -1
REMARK  1 active torsions:
REMARK  status: ('A' for Active; 'I' for Inactive)
REMARK    1  A    between atoms: C1_2  and  C2_3 
ROOT
ATOM      1  C2  UNL d   1       1.525   1.118  -2.982  0.00  0.00    -0.076 A 
ATOM      2  C3  UNL d   1       0.761   1.176  -4.161  0.00  0.00     0.004 A 
ATOM      3  C4  UNL d   1      -0.619   0.983  -4.131  0.00  0.00    -0.003 A 
ATOM      4  C5  UNL d   1      -1.258   0.729  -2.922  0.00  0.00     0.000 A 
ATOM      5  C6  UNL d   1      -0.518   0.686  -1.741  0.00  0.00     0.000 A 
ATOM      6  C7  UNL d   1       0.872   0.895  -1.751  0.00  0.00    -0.073 A 
ATOM      7  C8  UNL d   1       1.621   0.831  -0.448  0.00  0.00     0.078 C 
ENDROOT
BRANCH   1   8
ATOM      8  C1  UNL d   1       3.022   1.308  -3.079  0.00  0.00     0.053 C 
ATOM      9  C   UNL d   1       3.716   0.136  -3.755  0.00  0.00     0.018 C 
ENDBRANCH   1   8
TORSDOF 1
ENDMDL
