MODEL 1
REMARK minimizedAffinity 5.00716257
REMARK minimizedRMSD -1
REMARK  1 active torsions:
REMARK  status: ('A' for Active; 'I' for Inactive)
REMARK    1  A    between atoms: C1_2  and  C2_3 
ROOT
ATOM      1  C2  UNL d   1       0.436   0.425   0.408  0.00  0.00    -0.076 A 
ATOM      2  C3  UNL d   1       1.129   0.809   1.570  0.00  0.00     0.004 A 
ATOM      3  C4  UNL d   1       2.069   1.837   1.538  0.00  0.00    -0.003 A 
ATOM      4  C5  UNL d   1       2.332   2.499   0.343  0.00  0.00     0.000 A 
ATOM      5  C6  UNL d   1       1.642   2.143  -0.815  0.00  0.00     0.000 A 
ATOM      6  C7  UNL d   1       0.678   1.120  -0.796  0.00  0.00    -0.073 A 
ATOM      7  C8  UNL d   1      -0.032   0.773  -2.076  0.00  0.00     0.078 C 
ENDROOT
BRANCH   1   8
ATOM      8  C1  UNL d   1      -0.553  -0.715   0.498  0.00  0.00     0.053 C 
ATOM      9  C   UNL d   1      -1.405  -0.650   1.756  0.00  0.00     0.018 C 
ENDBRANCH   1   8
TORSDOF 1
ENDMDL
