MODEL 1
REMARK minimizedAffinity 8.65240288
REMARK minimizedRMSD -1
REMARK  1 active torsions:
REMARK  status: ('A' for Active; 'I' for Inactive)
REMARK    1  A    between atoms: C1_2  and  C2_3 
ROOT
ATOM      1  C2  UNL d   1      -1.005  -1.076  -0.794  0.00  0.00    -0.076 A 
ATOM      2  C3  UNL d   1      -0.787  -1.053   0.594  0.00  0.00     0.004 A 
ATOM      3  C4  UNL d   1      -0.051  -0.029   1.188  0.00  0.00    -0.003 A 
ATOM      4  C5  UNL d   1       0.478   0.989   0.403  0.00  0.00     0.000 A 
ATOM      5  C6  UNL d   1       0.257   0.993  -0.973  0.00  0.00     0.000 A 
ATOM      6  C7  UNL d   1      -0.497  -0.023  -1.586  0.00  0.00    -0.073 A 
ATOM      7  C8  UNL d   1      -0.699   0.026  -3.076  0.00  0.00     0.078 C 
ENDROOT
BRANCH   1   8
ATOM      8  C1  UNL d   1      -1.788  -2.226  -1.386  0.00  0.00     0.053 C 
ATOM      9  C   UNL d   1      -1.797  -3.450  -0.483  0.00  0.00     0.018 C 
ENDBRANCH   1   8
TORSDOF 1
ENDMDL
