MODEL 1
REMARK minimizedAffinity 0.21756953
REMARK minimizedRMSD -1
REMARK  1 active torsions:
REMARK  status: ('A' for Active; 'I' for Inactive)
REMARK    1  A    between atoms: C1_2  and  C2_3 
ROOT
ATOM      1  C2  UNL d   1       5.626  -2.958   5.200  0.00  0.00    -0.076 A 
ATOM      2  C3  UNL d   1       5.869  -1.754   5.883  0.00  0.00     0.004 A 
ATOM      3  C4  UNL d   1       5.996  -0.550   5.192  0.00  0.00    -0.003 A 
ATOM      4  C5  UNL d   1       5.882  -0.531   3.806  0.00  0.00     0.000 A 
ATOM      5  C6  UNL d   1       5.624  -1.714   3.114  0.00  0.00     0.000 A 
ATOM      6  C7  UNL d   1       5.476  -2.933   3.796  0.00  0.00    -0.073 A 
ATOM      7  C8  UNL d   1       5.204  -4.179   2.999  0.00  0.00     0.078 C 
ENDROOT
BRANCH   1   8
ATOM      8  C1  UNL d   1       5.524  -4.237   6.000  0.00  0.00     0.053 C 
ATOM      9  C   UNL d   1       4.124  -4.832   5.972  0.00  0.00     0.018 C 
ENDBRANCH   1   8
TORSDOF 1
ENDMDL
