MODEL 1
REMARK minimizedAffinity 2.51771665
REMARK minimizedRMSD -1
REMARK  1 active torsions:
REMARK  status: ('A' for Active; 'I' for Inactive)
REMARK    1  A    between atoms: C1_2  and  C2_3 
ROOT
ATOM      1  C2  UNL d   1      -0.505  -0.571  -1.148  0.00  0.00    -0.076 A 
ATOM      2  C3  UNL d   1      -1.142  -1.810  -0.963  0.00  0.00     0.004 A 
ATOM      3  C4  UNL d   1      -1.136  -2.441   0.280  0.00  0.00    -0.003 A 
ATOM      4  C5  UNL d   1      -0.494  -1.843   1.358  0.00  0.00     0.000 A 
ATOM      5  C6  UNL d   1       0.128  -0.605   1.197  0.00  0.00     0.000 A 
ATOM      6  C7  UNL d   1       0.117   0.052  -0.045  0.00  0.00    -0.073 A 
ATOM      7  C8  UNL d   1       0.809   1.383  -0.164  0.00  0.00     0.078 C 
ENDROOT
BRANCH   1   8
ATOM      8  C1  UNL d   1      -0.522   0.053  -2.525  0.00  0.00     0.053 C 
ATOM      9  C   UNL d   1      -1.842  -0.163  -3.247  0.00  0.00     0.018 C 
ENDBRANCH   1   8
TORSDOF 1
ENDMDL
