MODEL 1
REMARK minimizedAffinity 3.93714428
REMARK minimizedRMSD -1
REMARK  1 active torsions:
REMARK  status: ('A' for Active; 'I' for Inactive)
REMARK    1  A    between atoms: C1_2  and  C2_3 
ROOT
ATOM      1  C2  UNL d   1       3.717   1.565   1.116  0.00  0.00    -0.076 A 
ATOM      2  C3  UNL d   1       3.285   0.688   2.126  0.00  0.00     0.004 A 
ATOM      3  C4  UNL d   1       4.194   0.100   3.004  0.00  0.00    -0.003 A 
ATOM      4  C5  UNL d   1       5.551   0.379   2.886  0.00  0.00     0.000 A 
ATOM      5  C6  UNL d   1       5.996   1.260   1.901  0.00  0.00     0.000 A 
ATOM      6  C7  UNL d   1       5.091   1.875   1.018  0.00  0.00    -0.073 A 
ATOM      7  C8  UNL d   1       5.627   2.812  -0.029  0.00  0.00     0.078 C 
ENDROOT
BRANCH   1   8
ATOM      8  C1  UNL d   1       2.688   2.152   0.176  0.00  0.00     0.053 C 
ATOM      9  C   UNL d   1       2.296   1.188  -0.933  0.00  0.00     0.018 C 
ENDBRANCH   1   8
TORSDOF 1
ENDMDL
