MODEL 1
REMARK minimizedAffinity -1.25109446
REMARK minimizedRMSD -1
REMARK  1 active torsions:
REMARK  status: ('A' for Active; 'I' for Inactive)
REMARK    1  A    between atoms: C1_2  and  C2_3 
ROOT
ATOM      1  C2  UNL d   1       5.210  -3.749   4.560  0.00  0.00    -0.076 A 
ATOM      2  C3  UNL d   1       5.553  -2.894   5.622  0.00  0.00     0.004 A 
ATOM      3  C4  UNL d   1       5.946  -1.578   5.385  0.00  0.00    -0.003 A 
ATOM      4  C5  UNL d   1       6.000  -1.095   4.082  0.00  0.00     0.000 A 
ATOM      5  C6  UNL d   1       5.645  -1.924   3.018  0.00  0.00     0.000 A 
ATOM      6  C7  UNL d   1       5.232  -3.248   3.241  0.00  0.00    -0.073 A 
ATOM      7  C8  UNL d   1       4.867  -4.100   2.056  0.00  0.00     0.078 C 
ENDROOT
BRANCH   1   8
ATOM      8  C1  UNL d   1       4.818  -5.175   4.876  0.00  0.00     0.053 C 
ATOM      9  C   UNL d   1       3.774  -5.262   5.979  0.00  0.00     0.018 C 
ENDBRANCH   1   8
TORSDOF 1
ENDMDL
