MODEL 1
REMARK minimizedAffinity 6.74009371
REMARK minimizedRMSD -1
REMARK  1 active torsions:
REMARK  status: ('A' for Active; 'I' for Inactive)
REMARK    1  A    between atoms: C1_2  and  C2_3 
ROOT
ATOM      1  C2  UNL d   1      -3.396   0.564   1.352  0.00  0.00    -0.076 A 
ATOM      2  C3  UNL d   1      -3.972   1.668   2.005  0.00  0.00     0.004 A 
ATOM      3  C4  UNL d   1      -5.227   1.574   2.602  0.00  0.00    -0.003 A 
ATOM      4  C5  UNL d   1      -5.928   0.374   2.557  0.00  0.00     0.000 A 
ATOM      5  C6  UNL d   1      -5.365  -0.736   1.929  0.00  0.00     0.000 A 
ATOM      6  C7  UNL d   1      -4.093  -0.663   1.336  0.00  0.00    -0.073 A 
ATOM      7  C8  UNL d   1      -3.537  -1.890   0.667  0.00  0.00     0.078 C 
ENDROOT
BRANCH   1   8
ATOM      8  C1  UNL d   1      -2.043   0.733   0.698  0.00  0.00     0.053 C 
ATOM      9  C   UNL d   1      -0.902   0.285   1.598  0.00  0.00     0.018 C 
ENDBRANCH   1   8
TORSDOF 1
ENDMDL
