MODEL 1
REMARK minimizedAffinity 10.3603773
REMARK minimizedRMSD -1
REMARK  1 active torsions:
REMARK  status: ('A' for Active; 'I' for Inactive)
REMARK    1  A    between atoms: C1_2  and  C2_3 
ROOT
ATOM      1  C2  UNL d   1      -1.183   1.442   1.589  0.00  0.00    -0.076 A 
ATOM      2  C3  UNL d   1       0.163   1.629   1.949  0.00  0.00     0.004 A 
ATOM      3  C4  UNL d   1       0.526   2.584   2.897  0.00  0.00    -0.003 A 
ATOM      4  C5  UNL d   1      -0.451   3.368   3.501  0.00  0.00     0.000 A 
ATOM      5  C6  UNL d   1      -1.793   3.184   3.169  0.00  0.00     0.000 A 
ATOM      6  C7  UNL d   1      -2.178   2.214   2.227  0.00  0.00    -0.073 A 
ATOM      7  C8  UNL d   1      -3.638   2.063   1.902  0.00  0.00     0.078 C 
ENDROOT
BRANCH   1   8
ATOM      8  C1  UNL d   1      -1.514   0.410   0.535  0.00  0.00     0.053 C 
ATOM      9  C   UNL d   1      -2.253  -0.790   1.106  0.00  0.00     0.018 C 
ENDBRANCH   1   8
TORSDOF 1
ENDMDL
