MODEL 1
REMARK minimizedAffinity 10.07267
REMARK minimizedRMSD -1
REMARK  1 active torsions:
REMARK  status: ('A' for Active; 'I' for Inactive)
REMARK    1  A    between atoms: C1_2  and  C2_3 
ROOT
ATOM      1  C2  UNL d   1       3.827  -1.053  -4.544  0.00  0.00    -0.076 A 
ATOM      2  C3  UNL d   1       3.256  -1.978  -3.653  0.00  0.00     0.004 A 
ATOM      3  C4  UNL d   1       2.957  -1.619  -2.340  0.00  0.00    -0.003 A 
ATOM      4  C5  UNL d   1       3.223  -0.328  -1.897  0.00  0.00     0.000 A 
ATOM      5  C6  UNL d   1       3.772   0.608  -2.772  0.00  0.00     0.000 A 
ATOM      6  C7  UNL d   1       4.065   0.267  -4.104  0.00  0.00    -0.073 A 
ATOM      7  C8  UNL d   1       4.663   1.314  -5.003  0.00  0.00     0.078 C 
ENDROOT
BRANCH   1   8
ATOM      8  C1  UNL d   1       4.155  -1.507  -5.949  0.00  0.00     0.053 C 
ATOM      9  C   UNL d   1       5.363  -2.431  -5.995  0.00  0.00     0.018 C 
ENDBRANCH   1   8
TORSDOF 1
ENDMDL
