MODEL 1
REMARK minimizedAffinity 13.8547525
REMARK minimizedRMSD -1
REMARK  1 active torsions:
REMARK  status: ('A' for Active; 'I' for Inactive)
REMARK    1  A    between atoms: C1_2  and  C2_3 
ROOT
ATOM      1  C2  UNL d   1      -4.972  -0.035   4.771  0.00  0.00    -0.076 A 
ATOM      2  C3  UNL d   1      -5.526  -1.150   5.425  0.00  0.00     0.004 A 
ATOM      3  C4  UNL d   1      -5.901  -2.287   4.711  0.00  0.00    -0.003 A 
ATOM      4  C5  UNL d   1      -5.728  -2.328   3.332  0.00  0.00     0.000 A 
ATOM      5  C6  UNL d   1      -5.165  -1.238   2.669  0.00  0.00     0.000 A 
ATOM      6  C7  UNL d   1      -4.766  -0.090   3.376  0.00  0.00    -0.073 A 
ATOM      7  C8  UNL d   1      -4.169   1.058   2.610  0.00  0.00     0.078 C 
ENDROOT
BRANCH   1   8
ATOM      8  C1  UNL d   1      -4.609   1.180   5.594  0.00  0.00     0.053 C 
ATOM      9  C   UNL d   1      -3.144   1.193   5.999  0.00  0.00     0.018 C 
ENDBRANCH   1   8
TORSDOF 1
ENDMDL
