MODEL 1
REMARK minimizedAffinity 9.76950264
REMARK minimizedRMSD -1
REMARK  1 active torsions:
REMARK  status: ('A' for Active; 'I' for Inactive)
REMARK    1  A    between atoms: C1_2  and  C2_3 
ROOT
ATOM      1  C2  UNL d   1      -2.449  -1.997   1.412  0.00  0.00    -0.076 A 
ATOM      2  C3  UNL d   1      -1.921  -3.211   0.938  0.00  0.00     0.004 A 
ATOM      3  C4  UNL d   1      -0.544  -3.406   0.846  0.00  0.00    -0.003 A 
ATOM      4  C5  UNL d   1       0.327  -2.392   1.226  0.00  0.00     0.000 A 
ATOM      5  C6  UNL d   1      -0.179  -1.188   1.715  0.00  0.00     0.000 A 
ATOM      6  C7  UNL d   1      -1.564  -0.980   1.830  0.00  0.00    -0.073 A 
ATOM      7  C8  UNL d   1      -2.055   0.340   2.359  0.00  0.00     0.078 C 
ENDROOT
BRANCH   1   8
ATOM      8  C1  UNL d   1      -3.951  -1.832   1.464  0.00  0.00     0.053 C 
ATOM      9  C   UNL d   1      -4.671  -3.139   1.760  0.00  0.00     0.018 C 
ENDBRANCH   1   8
TORSDOF 1
ENDMDL
