MODEL 1
REMARK minimizedAffinity -4.32730293
REMARK minimizedRMSD -1
REMARK  1 active torsions:
REMARK  status: ('A' for Active; 'I' for Inactive)
REMARK    1  A    between atoms: C1_2  and  C2_3 
ROOT
ATOM      1  C2  UNL d   1       3.330  -4.568  -0.160  0.00  0.00    -0.076 A 
ATOM      2  C3  UNL d   1       3.790  -5.501   0.785  0.00  0.00     0.004 A 
ATOM      3  C4  UNL d   1       5.091  -5.998   0.728  0.00  0.00    -0.003 A 
ATOM      4  C5  UNL d   1       5.953  -5.570  -0.276  0.00  0.00     0.000 A 
ATOM      5  C6  UNL d   1       5.519  -4.632  -1.212  0.00  0.00     0.000 A 
ATOM      6  C7  UNL d   1       4.215  -4.109  -1.158  0.00  0.00    -0.073 A 
ATOM      7  C8  UNL d   1       3.798  -3.104  -2.197  0.00  0.00     0.078 C 
ENDROOT
BRANCH   1   8
ATOM      8  C1  UNL d   1       1.900  -4.085  -0.064  0.00  0.00     0.053 C 
ATOM      9  C   UNL d   1       1.807  -2.597   0.236  0.00  0.00     0.018 C 
ENDBRANCH   1   8
TORSDOF 1
ENDMDL
