MODEL 1
REMARK minimizedAffinity -1.41145933
REMARK minimizedRMSD -1
REMARK  1 active torsions:
REMARK  status: ('A' for Active; 'I' for Inactive)
REMARK    1  A    between atoms: C1_2  and  C2_3 
ROOT
ATOM      1  C2  UNL d   1       2.556  -3.263  -0.496  0.00  0.00    -0.076 A 
ATOM      2  C3  UNL d   1       2.054  -4.276   0.339  0.00  0.00     0.004 A 
ATOM      3  C4  UNL d   1       0.966  -4.042   1.178  0.00  0.00    -0.003 A 
ATOM      4  C5  UNL d   1       0.361  -2.790   1.194  0.00  0.00     0.000 A 
ATOM      5  C6  UNL d   1       0.834  -1.778   0.359  0.00  0.00     0.000 A 
ATOM      6  C7  UNL d   1       1.920  -2.003  -0.504  0.00  0.00    -0.073 A 
ATOM      7  C8  UNL d   1       2.394  -0.874  -1.378  0.00  0.00     0.078 C 
ENDROOT
BRANCH   1   8
ATOM      8  C1  UNL d   1       3.756  -3.568  -1.364  0.00  0.00     0.053 C 
ATOM      9  C   UNL d   1       4.630  -4.669  -0.784  0.00  0.00     0.018 C 
ENDBRANCH   1   8
TORSDOF 1
ENDMDL
