MODEL 1
REMARK minimizedAffinity -1.85387063
REMARK minimizedRMSD -1
REMARK  1 active torsions:
REMARK  status: ('A' for Active; 'I' for Inactive)
REMARK    1  A    between atoms: C1_2  and  C2_3 
ROOT
ATOM      1  C2  UNL d   1       2.882  -3.212  -0.232  0.00  0.00    -0.076 A 
ATOM      2  C3  UNL d   1       3.404  -4.292   0.501  0.00  0.00     0.004 A 
ATOM      3  C4  UNL d   1       4.535  -4.977   0.061  0.00  0.00    -0.003 A 
ATOM      4  C5  UNL d   1       5.163  -4.593  -1.119  0.00  0.00     0.000 A 
ATOM      5  C6  UNL d   1       4.669  -3.513  -1.849  0.00  0.00     0.000 A 
ATOM      6  C7  UNL d   1       3.539  -2.801  -1.411  0.00  0.00    -0.073 A 
ATOM      7  C8  UNL d   1       3.045  -1.648  -2.241  0.00  0.00     0.078 C 
ENDROOT
BRANCH   1   8
ATOM      8  C1  UNL d   1       1.636  -2.525   0.281  0.00  0.00     0.053 C 
ATOM      9  C   UNL d   1       0.760  -3.449   1.112  0.00  0.00     0.018 C 
ENDBRANCH   1   8
TORSDOF 1
ENDMDL
