MODEL 1
REMARK minimizedAffinity -3.07014108
REMARK minimizedRMSD -1
REMARK  1 active torsions:
REMARK  status: ('A' for Active; 'I' for Inactive)
REMARK    1  A    between atoms: C1_2  and  C2_3 
ROOT
ATOM      1  C2  UNL d   1       3.224  -3.727  -0.243  0.00  0.00    -0.076 A 
ATOM      2  C3  UNL d   1       3.570  -4.692   0.719  0.00  0.00     0.004 A 
ATOM      3  C4  UNL d   1       4.689  -5.506   0.549  0.00  0.00    -0.003 A 
ATOM      4  C5  UNL d   1       5.480  -5.368  -0.586  0.00  0.00     0.000 A 
ATOM      5  C6  UNL d   1       5.161  -4.405  -1.542  0.00  0.00     0.000 A 
ATOM      6  C7  UNL d   1       4.046  -3.565  -1.378  0.00  0.00    -0.073 A 
ATOM      7  C8  UNL d   1       3.746  -2.547  -2.445  0.00  0.00     0.078 C 
ENDROOT
BRANCH   1   8
ATOM      8  C1  UNL d   1       1.984  -2.892  -0.018  0.00  0.00     0.053 C 
ATOM      9  C   UNL d   1       1.152  -3.388   1.155  0.00  0.00     0.018 C 
ENDBRANCH   1   8
TORSDOF 1
ENDMDL
