MODEL 1
REMARK minimizedAffinity -1.99163556
REMARK minimizedRMSD -1
REMARK  1 active torsions:
REMARK  status: ('A' for Active; 'I' for Inactive)
REMARK    1  A    between atoms: C1_2  and  C2_3 
ROOT
ATOM      1  C2  UNL d   1       3.143  -3.518  -0.543  0.00  0.00    -0.076 A 
ATOM      2  C3  UNL d   1       3.814  -4.751  -0.621  0.00  0.00     0.004 A 
ATOM      3  C4  UNL d   1       5.157  -4.861  -0.265  0.00  0.00    -0.003 A 
ATOM      4  C5  UNL d   1       5.852  -3.739   0.174  0.00  0.00     0.000 A 
ATOM      5  C6  UNL d   1       5.197  -2.511   0.274  0.00  0.00     0.000 A 
ATOM      6  C7  UNL d   1       3.839  -2.387  -0.065  0.00  0.00    -0.073 A 
ATOM      7  C8  UNL d   1       3.185  -1.038   0.056  0.00  0.00     0.078 C 
ENDROOT
BRANCH   1   8
ATOM      8  C1  UNL d   1       1.694  -3.454  -0.968  0.00  0.00     0.053 C 
ATOM      9  C   UNL d   1       0.751  -4.004   0.091  0.00  0.00     0.018 C 
ENDBRANCH   1   8
TORSDOF 1
ENDMDL
