MODEL 1
REMARK minimizedAffinity 10.634285
REMARK minimizedRMSD -1
REMARK  1 active torsions:
REMARK  status: ('A' for Active; 'I' for Inactive)
REMARK    1  A    between atoms: C1_2  and  C2_3 
ROOT
ATOM      1  C2  UNL d   1      -1.366  -5.411  -3.525  0.00  0.00    -0.076 A 
ATOM      2  C3  UNL d   1      -0.084  -5.850  -3.900  0.00  0.00     0.004 A 
ATOM      3  C4  UNL d   1       0.469  -5.484  -5.125  0.00  0.00    -0.003 A 
ATOM      4  C5  UNL d   1      -0.250  -4.672  -5.996  0.00  0.00     0.000 A 
ATOM      5  C6  UNL d   1      -1.516  -4.213  -5.633  0.00  0.00     0.000 A 
ATOM      6  C7  UNL d   1      -2.082  -4.560  -4.394  0.00  0.00    -0.073 A 
ATOM      7  C8  UNL d   1      -3.453  -4.041  -4.056  0.00  0.00     0.078 C 
ENDROOT
BRANCH   1   8
ATOM      8  C1  UNL d   1      -1.926  -5.863  -2.195  0.00  0.00     0.053 C 
ATOM      9  C   UNL d   1      -1.016  -5.509  -1.029  0.00  0.00     0.018 C 
ENDBRANCH   1   8
TORSDOF 1
ENDMDL
