MODEL 1
REMARK minimizedAffinity 5.36460686
REMARK minimizedRMSD -1
REMARK  1 active torsions:
REMARK  status: ('A' for Active; 'I' for Inactive)
REMARK    1  A    between atoms: C1_2  and  C2_3 
ROOT
ATOM      1  C2  UNL d   1      -1.716  -1.109   1.122  0.00  0.00    -0.076 A 
ATOM      2  C3  UNL d   1      -2.067  -0.797  -0.203  0.00  0.00     0.004 A 
ATOM      3  C4  UNL d   1      -2.736   0.388  -0.507  0.00  0.00    -0.003 A 
ATOM      4  C5  UNL d   1      -3.063   1.280   0.508  0.00  0.00     0.000 A 
ATOM      5  C6  UNL d   1      -2.706   0.994   1.826  0.00  0.00     0.000 A 
ATOM      6  C7  UNL d   1      -2.018  -0.188   2.148  0.00  0.00    -0.073 A 
ATOM      7  C8  UNL d   1      -1.663  -0.448   3.586  0.00  0.00     0.078 C 
ENDROOT
BRANCH   1   8
ATOM      8  C1  UNL d   1      -1.016  -2.421   1.395  0.00  0.00     0.053 C 
ATOM      9  C   UNL d   1      -0.499  -3.081   0.126  0.00  0.00     0.018 C 
ENDBRANCH   1   8
TORSDOF 1
ENDMDL
