MODEL 1
REMARK minimizedAffinity -4.37239218
REMARK minimizedRMSD -1
REMARK  0 active torsions:
REMARK  status: ('A' for Active; 'I' for Inactive)
ROOT
ATOM      1  C   UNL d   1       1.356   0.527   0.728  0.00  0.00     0.077 C 
ATOM      2  C1  UNL d   1       0.141   0.208  -0.092  0.00  0.00    -0.074 A 
ATOM      3  C2  UNL d   1       0.192   0.225  -1.490  0.00  0.00    -0.005 A 
ATOM      4  C3  UNL d   1      -0.943  -0.083  -2.239  0.00  0.00     0.006 A 
ATOM      5  C4  UNL d   1      -2.139  -0.411  -1.599  0.00  0.00    -0.005 A 
ATOM      6  C5  UNL d   1      -2.209  -0.435  -0.202  0.00  0.00    -0.074 A 
ATOM      7  C6  UNL d   1      -3.484  -0.795   0.501  0.00  0.00     0.077 C 
ATOM      8  C7  UNL d   1      -1.062  -0.130   0.543  0.00  0.00    -0.001 A 
ENDROOT
TORSDOF 0
ENDMDL
