MODEL 1
REMARK minimizedAffinity -4.47763157
REMARK minimizedRMSD -1
REMARK  0 active torsions:
REMARK  status: ('A' for Active; 'I' for Inactive)
ROOT
ATOM      1  C   UNL d   1      -2.236  -1.541  -2.771  0.00  0.00     0.077 C 
ATOM      2  C1  UNL d   1      -1.964  -0.996  -1.400  0.00  0.00    -0.074 A 
ATOM      3  C2  UNL d   1      -2.904  -1.132  -0.373  0.00  0.00    -0.005 A 
ATOM      4  C3  UNL d   1      -2.633  -0.629   0.899  0.00  0.00     0.006 A 
ATOM      5  C4  UNL d   1      -1.421   0.013   1.158  0.00  0.00    -0.005 A 
ATOM      6  C5  UNL d   1      -0.469   0.157   0.144  0.00  0.00    -0.074 A 
ATOM      7  C6  UNL d   1       0.842   0.836   0.407  0.00  0.00     0.077 C 
ATOM      8  C7  UNL d   1      -0.746  -0.357  -1.130  0.00  0.00    -0.001 A 
ENDROOT
TORSDOF 0
ENDMDL
