MODEL 1
REMARK minimizedAffinity -3.53680015
REMARK minimizedRMSD -1
REMARK  0 active torsions:
REMARK  status: ('A' for Active; 'I' for Inactive)
ROOT
ATOM      1  C   UNL d   1       1.164   1.444  -0.744  0.00  0.00     0.077 C 
ATOM      2  C1  UNL d   1       0.328   0.445  -0.001  0.00  0.00    -0.074 A 
ATOM      3  C2  UNL d   1       0.897  -0.394   0.963  0.00  0.00    -0.005 A 
ATOM      4  C3  UNL d   1       0.104  -1.312   1.652  0.00  0.00     0.006 A 
ATOM      5  C4  UNL d   1      -1.263  -1.399   1.387  0.00  0.00    -0.005 A 
ATOM      6  C5  UNL d   1      -1.849  -0.568   0.428  0.00  0.00    -0.074 A 
ATOM      7  C6  UNL d   1      -3.319  -0.642   0.137  0.00  0.00     0.077 C 
ATOM      8  C7  UNL d   1      -1.048   0.357  -0.257  0.00  0.00    -0.001 A 
ENDROOT
TORSDOF 0
ENDMDL
