MODEL 1
REMARK minimizedAffinity -3.8611939
REMARK minimizedRMSD -1
REMARK  0 active torsions:
REMARK  status: ('A' for Active; 'I' for Inactive)
ROOT
ATOM      1  C   UNL d   1       1.181   0.207   0.369  0.00  0.00     0.077 C 
ATOM      2  C1  UNL d   1      -0.028   0.054  -0.505  0.00  0.00    -0.074 A 
ATOM      3  C2  UNL d   1       0.048   0.279  -1.883  0.00  0.00    -0.005 A 
ATOM      4  C3  UNL d   1      -1.083   0.124  -2.685  0.00  0.00     0.006 A 
ATOM      5  C4  UNL d   1      -2.299  -0.258  -2.118  0.00  0.00    -0.005 A 
ATOM      6  C5  UNL d   1      -2.394  -0.489  -0.742  0.00  0.00    -0.074 A 
ATOM      7  C6  UNL d   1      -3.691  -0.909  -0.117  0.00  0.00     0.077 C 
ATOM      8  C7  UNL d   1      -1.252  -0.337   0.056  0.00  0.00    -0.001 A 
ENDROOT
TORSDOF 0
ENDMDL
