MODEL 1
REMARK minimizedAffinity -0.238143459
REMARK minimizedRMSD -1
REMARK  0 active torsions:
REMARK  status: ('A' for Active; 'I' for Inactive)
ROOT
ATOM      1  C   UNL d   1      -2.917  -1.162  -0.233  0.00  0.00     0.077 C 
ATOM      2  C1  UNL d   1      -1.494  -1.022   0.218  0.00  0.00    -0.074 A 
ATOM      3  C2  UNL d   1      -0.971  -1.852   1.216  0.00  0.00    -0.005 A 
ATOM      4  C3  UNL d   1       0.357  -1.716   1.619  0.00  0.00     0.006 A 
ATOM      5  C4  UNL d   1       1.175  -0.752   1.029  0.00  0.00    -0.005 A 
ATOM      6  C5  UNL d   1       0.670   0.086   0.029  0.00  0.00    -0.074 A 
ATOM      7  C6  UNL d   1       1.539   1.121  -0.622  0.00  0.00     0.077 C 
ATOM      8  C7  UNL d   1      -0.663  -0.061  -0.375  0.00  0.00    -0.001 A 
ENDROOT
TORSDOF 0
ENDMDL
