MODEL 1
REMARK minimizedAffinity 3.92921066
REMARK minimizedRMSD -1
REMARK  0 active torsions:
REMARK  status: ('A' for Active; 'I' for Inactive)
ROOT
ATOM      1  C   UNL d   1      -2.448  -2.330  -3.450  0.00  0.00     0.077 C 
ATOM      2  C1  UNL d   1      -2.009  -1.646  -2.189  0.00  0.00    -0.074 A 
ATOM      3  C2  UNL d   1      -2.683  -1.860  -0.983  0.00  0.00    -0.005 A 
ATOM      4  C3  UNL d   1      -2.257  -1.224   0.183  0.00  0.00     0.006 A 
ATOM      5  C4  UNL d   1      -1.154  -0.369   0.155  0.00  0.00    -0.005 A 
ATOM      6  C5  UNL d   1      -0.467  -0.144  -1.042  0.00  0.00    -0.074 A 
ATOM      7  C6  UNL d   1       0.726   0.764  -1.089  0.00  0.00     0.077 C 
ATOM      8  C7  UNL d   1      -0.897  -0.792  -2.208  0.00  0.00    -0.001 A 
ENDROOT
TORSDOF 0
ENDMDL
