MODEL 1
REMARK minimizedAffinity -4.69507694
REMARK minimizedRMSD -1
REMARK  0 active torsions:
REMARK  status: ('A' for Active; 'I' for Inactive)
ROOT
ATOM      1  C   UNL d   1       3.691   4.196  -1.401  0.00  0.00     0.077 C 
ATOM      2  C1  UNL d   1       2.972   3.360  -0.385  0.00  0.00    -0.074 A 
ATOM      3  C2  UNL d   1       2.343   3.950   0.716  0.00  0.00    -0.005 A 
ATOM      4  C3  UNL d   1       1.670   3.160   1.648  0.00  0.00     0.006 A 
ATOM      5  C4  UNL d   1       1.618   1.775   1.488  0.00  0.00    -0.005 A 
ATOM      6  C5  UNL d   1       2.239   1.168   0.392  0.00  0.00    -0.074 A 
ATOM      7  C6  UNL d   1       2.185  -0.319   0.200  0.00  0.00     0.077 C 
ATOM      8  C7  UNL d   1       2.908   1.969  -0.543  0.00  0.00    -0.001 A 
ENDROOT
TORSDOF 0
ENDMDL
