MODEL 1
REMARK minimizedAffinity 1.89069152
REMARK minimizedRMSD -1
REMARK  0 active torsions:
REMARK  status: ('A' for Active; 'I' for Inactive)
ROOT
ATOM      1  C   UNL d   1       1.853   0.388  -0.809  0.00  0.00     0.077 C 
ATOM      2  C1  UNL d   1       0.938  -0.222   0.212  0.00  0.00    -0.074 A 
ATOM      3  C2  UNL d   1       1.444  -0.765   1.397  0.00  0.00    -0.005 A 
ATOM      4  C3  UNL d   1       0.581  -1.320   2.342  0.00  0.00     0.006 A 
ATOM      5  C4  UNL d   1      -0.795  -1.337   2.111  0.00  0.00    -0.005 A 
ATOM      6  C5  UNL d   1      -1.320  -0.797   0.932  0.00  0.00    -0.074 A 
ATOM      7  C6  UNL d   1      -2.797  -0.799   0.673  0.00  0.00     0.077 C 
ATOM      8  C7  UNL d   1      -0.446  -0.235  -0.009  0.00  0.00    -0.001 A 
ENDROOT
TORSDOF 0
ENDMDL
