MODEL 1
REMARK minimizedAffinity -2.48399854
REMARK minimizedRMSD -1
REMARK  0 active torsions:
REMARK  status: ('A' for Active; 'I' for Inactive)
ROOT
ATOM      1  C   UNL d   1      -0.033  -0.806   0.666  0.00  0.00     0.077 C 
ATOM      2  C1  UNL d   1       1.037   0.243   0.605  0.00  0.00    -0.074 A 
ATOM      3  C2  UNL d   1       1.922   0.305  -0.477  0.00  0.00    -0.005 A 
ATOM      4  C3  UNL d   1       2.906   1.292  -0.525  0.00  0.00     0.006 A 
ATOM      5  C4  UNL d   1       3.016   2.226   0.507  0.00  0.00    -0.005 A 
ATOM      6  C5  UNL d   1       2.139   2.180   1.596  0.00  0.00    -0.074 A 
ATOM      7  C6  UNL d   1       2.237   3.181   2.708  0.00  0.00     0.077 C 
ATOM      8  C7  UNL d   1       1.149   1.189   1.633  0.00  0.00    -0.001 A 
ENDROOT
TORSDOF 0
ENDMDL
