MODEL 1
REMARK minimizedAffinity -2.57160473
REMARK minimizedRMSD -1
REMARK  0 active torsions:
REMARK  status: ('A' for Active; 'I' for Inactive)
ROOT
ATOM      1  C   UNL d   1      -1.927  -0.333   1.055  0.00  0.00     0.077 C 
ATOM      2  C1  UNL d   1      -0.439  -0.324   0.871  0.00  0.00    -0.074 A 
ATOM      3  C2  UNL d   1       0.303  -1.507   0.958  0.00  0.00    -0.005 A 
ATOM      4  C3  UNL d   1       1.686  -1.485   0.775  0.00  0.00     0.006 A 
ATOM      5  C4  UNL d   1       2.340  -0.283   0.506  0.00  0.00    -0.005 A 
ATOM      6  C5  UNL d   1       1.615   0.910   0.415  0.00  0.00    -0.074 A 
ATOM      7  C6  UNL d   1       2.301   2.210   0.116  0.00  0.00     0.077 C 
ATOM      8  C7  UNL d   1       0.225   0.879   0.592  0.00  0.00    -0.001 A 
ENDROOT
TORSDOF 0
ENDMDL
