MODEL 1
REMARK minimizedAffinity -1.43268573
REMARK minimizedRMSD -1
REMARK  0 active torsions:
REMARK  status: ('A' for Active; 'I' for Inactive)
ROOT
ATOM      1  C   UNL d   1      -2.635   0.114   0.857  0.00  0.00     0.077 C 
ATOM      2  C1  UNL d   1      -1.206  -0.306   1.033  0.00  0.00    -0.074 A 
ATOM      3  C2  UNL d   1      -0.867  -1.364   1.882  0.00  0.00    -0.005 A 
ATOM      4  C3  UNL d   1       0.465  -1.750   2.029  0.00  0.00     0.006 A 
ATOM      5  C4  UNL d   1       1.471  -1.081   1.329  0.00  0.00    -0.005 A 
ATOM      6  C5  UNL d   1       1.151  -0.021   0.475  0.00  0.00    -0.074 A 
ATOM      7  C6  UNL d   1       2.219   0.702  -0.292  0.00  0.00     0.077 C 
ATOM      8  C7  UNL d   1      -0.191   0.356   0.328  0.00  0.00    -0.001 A 
ENDROOT
TORSDOF 0
ENDMDL
