MODEL 1
REMARK minimizedAffinity -4.90454578
REMARK minimizedRMSD -1
REMARK  0 active torsions:
REMARK  status: ('A' for Active; 'I' for Inactive)
ROOT
ATOM      1  C   UNL d   1      -3.035  -0.619   0.363  0.00  0.00     0.077 C 
ATOM      2  C1  UNL d   1      -1.588  -0.321   0.102  0.00  0.00    -0.074 A 
ATOM      3  C2  UNL d   1      -1.192   0.365  -1.050  0.00  0.00    -0.005 A 
ATOM      4  C3  UNL d   1       0.157   0.642  -1.275  0.00  0.00     0.006 A 
ATOM      5  C4  UNL d   1       1.121   0.237  -0.351  0.00  0.00    -0.005 A 
ATOM      6  C5  UNL d   1       0.743  -0.449   0.807  0.00  0.00    -0.074 A 
ATOM      7  C6  UNL d   1       1.766  -0.883   1.815  0.00  0.00     0.077 C 
ATOM      8  C7  UNL d   1      -0.614  -0.718   1.029  0.00  0.00    -0.001 A 
ENDROOT
TORSDOF 0
ENDMDL
