MODEL 1
REMARK minimizedAffinity -5.07329988
REMARK minimizedRMSD -1
REMARK  0 active torsions:
REMARK  status: ('A' for Active; 'I' for Inactive)
ROOT
ATOM      1  C   UNL d   1       1.411  -1.424   1.888  0.00  0.00     0.077 C 
ATOM      2  C1  UNL d   1       0.520  -0.862   0.820  0.00  0.00    -0.074 A 
ATOM      3  C2  UNL d   1       1.057  -0.224  -0.302  0.00  0.00    -0.005 A 
ATOM      4  C3  UNL d   1       0.216   0.286  -1.291  0.00  0.00     0.006 A 
ATOM      5  C4  UNL d   1      -1.168   0.163  -1.168  0.00  0.00    -0.005 A 
ATOM      6  C5  UNL d   1      -1.724  -0.472  -0.053  0.00  0.00    -0.074 A 
ATOM      7  C6  UNL d   1      -3.209  -0.621   0.091  0.00  0.00     0.077 C 
ATOM      8  C7  UNL d   1      -0.872  -0.988   0.934  0.00  0.00    -0.001 A 
ENDROOT
TORSDOF 0
ENDMDL
