MODEL 1
REMARK minimizedAffinity -2.12550759
REMARK minimizedRMSD -1
REMARK  0 active torsions:
REMARK  status: ('A' for Active; 'I' for Inactive)
ROOT
ATOM      1  C   UNL d   1       2.396   4.053   0.094  0.00  0.00     0.077 C 
ATOM      2  C1  UNL d   1       1.783   2.712   0.374  0.00  0.00    -0.074 A 
ATOM      3  C2  UNL d   1       1.803   2.168   1.662  0.00  0.00    -0.005 A 
ATOM      4  C3  UNL d   1       1.221   0.924   1.908  0.00  0.00     0.006 A 
ATOM      5  C4  UNL d   1       0.615   0.214   0.871  0.00  0.00    -0.005 A 
ATOM      6  C5  UNL d   1       0.585   0.743  -0.423  0.00  0.00    -0.074 A 
ATOM      7  C6  UNL d   1      -0.071  -0.003  -1.547  0.00  0.00     0.077 C 
ATOM      8  C7  UNL d   1       1.166   1.996  -0.661  0.00  0.00    -0.001 A 
ENDROOT
TORSDOF 0
ENDMDL
