MODEL 1
REMARK minimizedAffinity -2.61564732
REMARK minimizedRMSD -1
REMARK  0 active torsions:
REMARK  status: ('A' for Active; 'I' for Inactive)
ROOT
ATOM      1  C   UNL d   1       1.858   3.715   1.482  0.00  0.00     0.077 C 
ATOM      2  C1  UNL d   1       1.651   2.299   1.033  0.00  0.00    -0.074 A 
ATOM      3  C2  UNL d   1       2.660   1.342   1.186  0.00  0.00    -0.005 A 
ATOM      4  C3  UNL d   1       2.450   0.027   0.772  0.00  0.00     0.006 A 
ATOM      5  C4  UNL d   1       1.232  -0.344   0.201  0.00  0.00    -0.005 A 
ATOM      6  C5  UNL d   1       0.212   0.599   0.040  0.00  0.00    -0.074 A 
ATOM      7  C6  UNL d   1      -1.107   0.215  -0.563  0.00  0.00     0.077 C 
ATOM      8  C7  UNL d   1       0.428   1.917   0.465  0.00  0.00    -0.001 A 
ENDROOT
TORSDOF 0
ENDMDL
