MODEL 1
REMARK minimizedAffinity -3.95581126
REMARK minimizedRMSD -1
REMARK  0 active torsions:
REMARK  status: ('A' for Active; 'I' for Inactive)
ROOT
ATOM      1  C   UNL d   1       4.180   3.823  -0.963  0.00  0.00     0.077 C 
ATOM      2  C1  UNL d   1       3.368   3.089   0.063  0.00  0.00    -0.074 A 
ATOM      3  C2  UNL d   1       2.949   3.724   1.237  0.00  0.00    -0.005 A 
ATOM      4  C3  UNL d   1       2.187   3.032   2.177  0.00  0.00     0.006 A 
ATOM      5  C4  UNL d   1       1.837   1.700   1.955  0.00  0.00    -0.005 A 
ATOM      6  C5  UNL d   1       2.246   1.048   0.787  0.00  0.00    -0.074 A 
ATOM      7  C6  UNL d   1       1.869  -0.380   0.528  0.00  0.00     0.077 C 
ATOM      8  C7  UNL d   1       3.005   1.753  -0.157  0.00  0.00    -0.001 A 
ENDROOT
TORSDOF 0
ENDMDL
