MODEL 1
REMARK minimizedAffinity -5.75582647
REMARK minimizedRMSD -1
REMARK  0 active torsions:
REMARK  status: ('A' for Active; 'I' for Inactive)
ROOT
ATOM      1  C   UNL d   1       0.272   0.517   2.034  0.00  0.00     0.078 C 
ATOM      2  C1  UNL d   1      -0.433   1.777   1.629  0.00  0.00    -0.077 A 
ATOM      3  C2  UNL d   1      -0.447   2.198   0.293  0.00  0.00    -0.001 A 
ATOM      4  C3  UNL d   1      -1.099   3.378  -0.068  0.00  0.00     0.003 A 
ATOM      5  C4  UNL d   1      -1.741   4.148   0.900  0.00  0.00    -0.005 A 
ATOM      6  C5  UNL d   1      -1.731   3.738   2.232  0.00  0.00     0.003 A 
ATOM      7  C6  UNL d   1      -1.079   2.558   2.595  0.00  0.00    -0.001 A 
ENDROOT
TORSDOF 0
ENDMDL
