MODEL 1
REMARK minimizedAffinity 1.22365582
REMARK minimizedRMSD -1
REMARK  0 active torsions:
REMARK  status: ('A' for Active; 'I' for Inactive)
ROOT
ATOM      1  C   UNL d   1       0.546   0.157   2.907  0.00  0.00     0.078 C 
ATOM      2  C1  UNL d   1       0.043   1.200   1.955  0.00  0.00    -0.077 A 
ATOM      3  C2  UNL d   1      -0.032   0.944   0.580  0.00  0.00    -0.001 A 
ATOM      4  C3  UNL d   1      -0.493   1.928  -0.297  0.00  0.00     0.003 A 
ATOM      5  C4  UNL d   1      -0.880   3.175   0.192  0.00  0.00    -0.005 A 
ATOM      6  C5  UNL d   1      -0.806   3.439   1.558  0.00  0.00     0.003 A 
ATOM      7  C6  UNL d   1      -0.346   2.456   2.436  0.00  0.00    -0.001 A 
ENDROOT
TORSDOF 0
ENDMDL
