MODEL 1
REMARK minimizedAffinity 2.68755054
REMARK minimizedRMSD -1
REMARK  0 active torsions:
REMARK  status: ('A' for Active; 'I' for Inactive)
ROOT
ATOM      1  C   UNL d   1      -0.418   1.933   2.087  0.00  0.00     0.078 C 
ATOM      2  C1  UNL d   1      -0.486   2.286   0.631  0.00  0.00    -0.077 A 
ATOM      3  C2  UNL d   1      -0.555   1.290  -0.350  0.00  0.00    -0.001 A 
ATOM      4  C3  UNL d   1      -0.608   1.633  -1.702  0.00  0.00     0.003 A 
ATOM      5  C4  UNL d   1      -0.592   2.972  -2.085  0.00  0.00    -0.005 A 
ATOM      6  C5  UNL d   1      -0.522   3.971  -1.116  0.00  0.00     0.003 A 
ATOM      7  C6  UNL d   1      -0.469   3.630   0.237  0.00  0.00    -0.001 A 
ENDROOT
TORSDOF 0
ENDMDL
