MODEL 1
REMARK minimizedAffinity 4.42377758
REMARK minimizedRMSD -1
REMARK  0 active torsions:
REMARK  status: ('A' for Active; 'I' for Inactive)
ROOT
ATOM      1  C   UNL d   1      -1.122   3.901   0.863  0.00  0.00     0.078 C 
ATOM      2  C1  UNL d   1      -0.766   2.701   1.688  0.00  0.00    -0.077 A 
ATOM      3  C2  UNL d   1       0.537   2.189   1.691  0.00  0.00    -0.001 A 
ATOM      4  C3  UNL d   1       0.852   1.065   2.457  0.00  0.00     0.003 A 
ATOM      5  C4  UNL d   1      -0.131   0.443   3.224  0.00  0.00    -0.005 A 
ATOM      6  C5  UNL d   1      -1.431   0.944   3.225  0.00  0.00     0.003 A 
ATOM      7  C6  UNL d   1      -1.748   2.067   2.460  0.00  0.00    -0.001 A 
ENDROOT
TORSDOF 0
ENDMDL
