MODEL 1
REMARK minimizedAffinity 3.81326747
REMARK minimizedRMSD -1
REMARK  0 active torsions:
REMARK  status: ('A' for Active; 'I' for Inactive)
ROOT
ATOM      1  C   UNL d   1      -0.917   1.681   2.549  0.00  0.00     0.078 C 
ATOM      2  C1  UNL d   1       0.090   0.605   2.276  0.00  0.00    -0.077 A 
ATOM      3  C2  UNL d   1       0.662   0.457   1.006  0.00  0.00    -0.001 A 
ATOM      4  C3  UNL d   1       1.592  -0.555   0.764  0.00  0.00     0.003 A 
ATOM      5  C4  UNL d   1       1.957  -1.429   1.786  0.00  0.00    -0.005 A 
ATOM      6  C5  UNL d   1       1.391  -1.292   3.052  0.00  0.00     0.003 A 
ATOM      7  C6  UNL d   1       0.462  -0.280   3.296  0.00  0.00    -0.001 A 
ENDROOT
TORSDOF 0
ENDMDL
