MODEL 1
REMARK minimizedAffinity 1.31217265
REMARK minimizedRMSD -1
REMARK  0 active torsions:
REMARK  status: ('A' for Active; 'I' for Inactive)
ROOT
ATOM      1  C   UNL d   1       1.200  -0.621  -1.173  0.00  0.00     0.078 C 
ATOM      2  C1  UNL d   1       0.711   0.101   0.047  0.00  0.00    -0.077 A 
ATOM      3  C2  UNL d   1       0.679   1.500   0.093  0.00  0.00    -0.001 A 
ATOM      4  C3  UNL d   1       0.231   2.159   1.239  0.00  0.00     0.003 A 
ATOM      5  C4  UNL d   1      -0.187   1.427   2.348  0.00  0.00    -0.005 A 
ATOM      6  C5  UNL d   1      -0.157   0.034   2.313  0.00  0.00     0.003 A 
ATOM      7  C6  UNL d   1       0.291  -0.626   1.168  0.00  0.00    -0.001 A 
ENDROOT
TORSDOF 0
ENDMDL
