MODEL 1
REMARK minimizedAffinity 6.30412579
REMARK minimizedRMSD -1
REMARK  1 active torsions:
REMARK  status: ('A' for Active; 'I' for Inactive)
REMARK    1  A    between atoms: C1_2  and  C2_3 
ROOT
ATOM      1  C2  UNL d   1      -1.943   1.697  -2.026  0.00  0.00    -0.073 A 
ATOM      2  C3  UNL d   1      -2.886   0.774  -1.560  0.00  0.00    -0.002 A 
ATOM      3  C4  UNL d   1      -4.234   1.126  -1.475  0.00  0.00     0.004 A 
ATOM      4  C5  UNL d   1      -4.653   2.399  -1.860  0.00  0.00    -0.004 A 
ATOM      5  C6  UNL d   1      -3.727   3.332  -2.339  0.00  0.00    -0.075 A 
ATOM      6  C7  UNL d   1      -4.161   4.706  -2.756  0.00  0.00     0.076 C 
ATOM      7  C8  UNL d   1      -2.375   2.972  -2.420  0.00  0.00     0.001 A 
ENDROOT
BRANCH   1   8
ATOM      8  C1  UNL d   1      -0.488   1.320  -2.126  0.00  0.00     0.053 C 
ATOM      9  C   UNL d   1      -0.229   0.344  -3.263  0.00  0.00     0.018 C 
ENDBRANCH   1   8
TORSDOF 1
ENDMDL
