MODEL 1
REMARK minimizedAffinity 3.02051258
REMARK minimizedRMSD -1
REMARK  1 active torsions:
REMARK  status: ('A' for Active; 'I' for Inactive)
REMARK    1  A    between atoms: C1_2  and  C2_3 
ROOT
ATOM      1  C2  UNL d   1       0.344   1.442   0.149  0.00  0.00    -0.073 A 
ATOM      2  C3  UNL d   1      -0.068   2.729  -0.217  0.00  0.00    -0.002 A 
ATOM      3  C4  UNL d   1      -0.561   2.973  -1.500  0.00  0.00     0.004 A 
ATOM      4  C5  UNL d   1      -0.653   1.934  -2.426  0.00  0.00    -0.004 A 
ATOM      5  C6  UNL d   1      -0.257   0.639  -2.076  0.00  0.00    -0.075 A 
ATOM      6  C7  UNL d   1      -0.348  -0.488  -3.061  0.00  0.00     0.076 C 
ATOM      7  C8  UNL d   1       0.239   0.402  -0.787  0.00  0.00     0.001 A 
ENDROOT
BRANCH   1   8
ATOM      8  C1  UNL d   1       0.871   1.172   1.534  0.00  0.00     0.053 C 
ATOM      9  C   UNL d   1       0.076   1.910   2.600  0.00  0.00     0.018 C 
ENDBRANCH   1   8
TORSDOF 1
ENDMDL
