MODEL 1
REMARK minimizedAffinity 4.4965086
REMARK minimizedRMSD -1
REMARK  1 active torsions:
REMARK  status: ('A' for Active; 'I' for Inactive)
REMARK    1  A    between atoms: C1_2  and  C2_3 
ROOT
ATOM      1  C2  UNL d   1      -2.051   2.287  -2.248  0.00  0.00    -0.073 A 
ATOM      2  C3  UNL d   1      -3.052   1.523  -1.639  0.00  0.00    -0.002 A 
ATOM      3  C4  UNL d   1      -4.355   2.014  -1.542  0.00  0.00     0.004 A 
ATOM      4  C5  UNL d   1      -4.671   3.270  -2.060  0.00  0.00    -0.004 A 
ATOM      5  C6  UNL d   1      -3.687   4.044  -2.684  0.00  0.00    -0.075 A 
ATOM      6  C7  UNL d   1      -4.011   5.398  -3.244  0.00  0.00     0.076 C 
ATOM      7  C8  UNL d   1      -2.381   3.545  -2.774  0.00  0.00     0.001 A 
ENDROOT
BRANCH   1   8
ATOM      8  C1  UNL d   1      -0.645   1.758  -2.360  0.00  0.00     0.053 C 
ATOM      9  C   UNL d   1      -0.420   1.009  -3.664  0.00  0.00     0.018 C 
ENDBRANCH   1   8
TORSDOF 1
ENDMDL
