MODEL 1
REMARK minimizedAffinity 5.69021177
REMARK minimizedRMSD -1
REMARK  1 active torsions:
REMARK  status: ('A' for Active; 'I' for Inactive)
REMARK    1  A    between atoms: C1_2  and  C2_3 
ROOT
ATOM      1  C2  UNL d   1      -0.922   0.914  -1.286  0.00  0.00    -0.073 A 
ATOM      2  C3  UNL d   1      -2.275   1.032  -0.947  0.00  0.00    -0.002 A 
ATOM      3  C4  UNL d   1      -3.243   0.318  -1.653  0.00  0.00     0.004 A 
ATOM      4  C5  UNL d   1      -2.870  -0.526  -2.699  0.00  0.00    -0.004 A 
ATOM      5  C6  UNL d   1      -1.523  -0.666  -3.046  0.00  0.00    -0.075 A 
ATOM      6  C7  UNL d   1      -1.105  -1.568  -4.170  0.00  0.00     0.076 C 
ATOM      7  C8  UNL d   1      -0.556   0.056  -2.334  0.00  0.00     0.001 A 
ENDROOT
BRANCH   1   8
ATOM      8  C1  UNL d   1       0.128   1.678  -0.523  0.00  0.00     0.053 C 
ATOM      9  C   UNL d   1      -0.329   3.086  -0.178  0.00  0.00     0.018 C 
ENDBRANCH   1   8
TORSDOF 1
ENDMDL
