MODEL 1
REMARK minimizedAffinity 6.30821753
REMARK minimizedRMSD -1
REMARK  1 active torsions:
REMARK  status: ('A' for Active; 'I' for Inactive)
REMARK    1  A    between atoms: C1_2  and  C2_3 
ROOT
ATOM      1  C2  UNL d   1       0.705   1.395   1.900  0.00  0.00    -0.073 A 
ATOM      2  C3  UNL d   1       1.198   0.228   2.494  0.00  0.00    -0.002 A 
ATOM      3  C4  UNL d   1       1.188  -0.979   1.793  0.00  0.00     0.004 A 
ATOM      4  C5  UNL d   1       0.692  -1.030   0.491  0.00  0.00    -0.004 A 
ATOM      5  C6  UNL d   1       0.206   0.128  -0.125  0.00  0.00    -0.075 A 
ATOM      6  C7  UNL d   1      -0.334   0.089  -1.524  0.00  0.00     0.076 C 
ATOM      7  C8  UNL d   1       0.216   1.335   0.587  0.00  0.00     0.001 A 
ENDROOT
BRANCH   1   8
ATOM      8  C1  UNL d   1       0.719   2.701   2.650  0.00  0.00     0.053 C 
ATOM      9  C   UNL d   1       2.133   3.211   2.881  0.00  0.00     0.018 C 
ENDBRANCH   1   8
TORSDOF 1
ENDMDL
