MODEL 1
REMARK minimizedAffinity -0.507413328
REMARK minimizedRMSD -1
REMARK  1 active torsions:
REMARK  status: ('A' for Active; 'I' for Inactive)
REMARK    1  A    between atoms: C1_2  and  C2_3 
ROOT
ATOM      1  C2  UNL d   1       0.153   0.537   0.588  0.00  0.00    -0.073 A 
ATOM      2  C3  UNL d   1       0.243   0.541   1.985  0.00  0.00    -0.002 A 
ATOM      3  C4  UNL d   1       0.411   1.741   2.677  0.00  0.00     0.004 A 
ATOM      4  C5  UNL d   1       0.482   2.948   1.982  0.00  0.00    -0.004 A 
ATOM      5  C6  UNL d   1       0.382   2.966   0.587  0.00  0.00    -0.075 A 
ATOM      6  C7  UNL d   1       0.459   4.256  -0.175  0.00  0.00     0.076 C 
ATOM      7  C8  UNL d   1       0.217   1.756  -0.101  0.00  0.00     0.001 A 
ENDROOT
BRANCH   1   8
ATOM      8  C1  UNL d   1      -0.034  -0.756  -0.163  0.00  0.00     0.053 C 
ATOM      9  C   UNL d   1      -0.823  -0.559  -1.448  0.00  0.00     0.018 C 
ENDBRANCH   1   8
TORSDOF 1
ENDMDL
