MODEL 1
REMARK minimizedAffinity -2.05745769
REMARK minimizedRMSD -1
REMARK  1 active torsions:
REMARK  status: ('A' for Active; 'I' for Inactive)
REMARK    1  A    between atoms: C1_2  and  C2_3 
ROOT
ATOM      1  C2  UNL d   1       0.721   2.691   0.771  0.00  0.00    -0.073 A 
ATOM      2  C3  UNL d   1       0.697   1.779   1.833  0.00  0.00    -0.002 A 
ATOM      3  C4  UNL d   1       0.572   0.412   1.585  0.00  0.00     0.004 A 
ATOM      4  C5  UNL d   1       0.477  -0.059   0.275  0.00  0.00    -0.004 A 
ATOM      5  C6  UNL d   1       0.510   0.835  -0.800  0.00  0.00    -0.075 A 
ATOM      6  C7  UNL d   1       0.407   0.345  -2.214  0.00  0.00     0.076 C 
ATOM      7  C8  UNL d   1       0.633   2.207  -0.543  0.00  0.00     0.001 A 
ENDROOT
BRANCH   1   8
ATOM      8  C1  UNL d   1       0.862   4.168   1.033  0.00  0.00     0.053 C 
ATOM      9  C   UNL d   1       1.501   4.896  -0.139  0.00  0.00     0.018 C 
ENDBRANCH   1   8
TORSDOF 1
ENDMDL
