MODEL 1
REMARK minimizedAffinity 4.62855101
REMARK minimizedRMSD -1
REMARK  1 active torsions:
REMARK  status: ('A' for Active; 'I' for Inactive)
REMARK    1  A    between atoms: C1_2  and  C2_3 
ROOT
ATOM      1  C2  UNL d   1      -1.056   4.357  -0.845  0.00  0.00    -0.081 A 
ATOM      2  C3  UNL d   1       0.320   4.231  -1.075  0.00  0.00     0.006 A 
ATOM      3  C4  UNL d   1       1.127   3.532  -0.175  0.00  0.00     0.002 A 
ATOM      4  C5  UNL d   1       0.572   2.940   0.965  0.00  0.00    -0.080 A 
ATOM      5  C6  UNL d   1       1.423   2.161   1.923  0.00  0.00     0.076 C 
ATOM      6  C7  UNL d   1      -0.799   3.080   1.203  0.00  0.00     0.002 A 
ATOM      7  C8  UNL d   1      -1.607   3.780   0.304  0.00  0.00     0.006 A 
ENDROOT
BRANCH   1   8
ATOM      8  C1  UNL d   1      -1.939   5.055  -1.847  0.00  0.00     0.054 C 
ATOM      9  C   UNL d   1      -3.201   4.251  -2.128  0.00  0.00     0.018 C 
ENDBRANCH   1   8
TORSDOF 1
ENDMDL
