MODEL 1
REMARK minimizedAffinity 8.75767422
REMARK minimizedRMSD -1
REMARK  1 active torsions:
REMARK  status: ('A' for Active; 'I' for Inactive)
REMARK    1  A    between atoms: C1_2  and  C2_3 
ROOT
ATOM      1  C2  UNL d   1       2.826  -2.300  -0.795  0.00  0.00    -0.081 A 
ATOM      2  C3  UNL d   1       2.144  -3.504  -0.578  0.00  0.00     0.006 A 
ATOM      3  C4  UNL d   1       0.801  -3.631  -0.940  0.00  0.00     0.002 A 
ATOM      4  C5  UNL d   1       0.120  -2.562  -1.531  0.00  0.00    -0.080 A 
ATOM      5  C6  UNL d   1      -1.313  -2.695  -1.952  0.00  0.00     0.076 C 
ATOM      6  C7  UNL d   1       0.797  -1.354  -1.732  0.00  0.00     0.002 A 
ATOM      7  C8  UNL d   1       2.139  -1.225  -1.370  0.00  0.00     0.006 A 
ENDROOT
BRANCH   1   8
ATOM      8  C1  UNL d   1       4.292  -2.180  -0.466  0.00  0.00     0.054 C 
ATOM      9  C   UNL d   1       5.113  -3.226  -1.206  0.00  0.00     0.018 C 
ENDBRANCH   1   8
TORSDOF 1
ENDMDL
