MODEL 1
REMARK minimizedAffinity 3.11404824
REMARK minimizedRMSD -1
REMARK  1 active torsions:
REMARK  status: ('A' for Active; 'I' for Inactive)
REMARK    1  A    between atoms: C1_2  and  C2_3 
ROOT
ATOM      1  C2  UNL d   1      -0.355   3.753   1.376  0.00  0.00    -0.081 A 
ATOM      2  C3  UNL d   1      -0.543   5.141   1.362  0.00  0.00     0.006 A 
ATOM      3  C4  UNL d   1      -0.821   5.806   0.165  0.00  0.00     0.002 A 
ATOM      4  C5  UNL d   1      -0.922   5.094  -1.035  0.00  0.00    -0.080 A 
ATOM      5  C6  UNL d   1      -1.249   5.792  -2.322  0.00  0.00     0.076 C 
ATOM      6  C7  UNL d   1      -0.716   3.711  -1.024  0.00  0.00     0.002 A 
ATOM      7  C8  UNL d   1      -0.438   3.045   0.172  0.00  0.00     0.006 A 
ENDROOT
BRANCH   1   8
ATOM      8  C1  UNL d   1      -0.120   3.025   2.674  0.00  0.00     0.054 C 
ATOM      9  C   UNL d   1      -1.404   2.908   3.483  0.00  0.00     0.018 C 
ENDBRANCH   1   8
TORSDOF 1
ENDMDL
