MODEL 1
REMARK minimizedAffinity 4.75701046
REMARK minimizedRMSD -1
REMARK  1 active torsions:
REMARK  status: ('A' for Active; 'I' for Inactive)
REMARK    1  A    between atoms: C1_2  and  C2_3 
ROOT
ATOM      1  C2  UNL d   1      -1.034   4.327  -1.189  0.00  0.00    -0.081 A 
ATOM      2  C3  UNL d   1       0.336   4.561  -1.360  0.00  0.00     0.006 A 
ATOM      3  C4  UNL d   1       1.263   4.031  -0.460  0.00  0.00     0.002 A 
ATOM      4  C5  UNL d   1       0.837   3.253   0.622  0.00  0.00    -0.080 A 
ATOM      5  C6  UNL d   1       1.824   2.653   1.579  0.00  0.00     0.076 C 
ATOM      6  C7  UNL d   1      -0.533   3.034   0.803  0.00  0.00     0.002 A 
ATOM      7  C8  UNL d   1      -1.460   3.564  -0.097  0.00  0.00     0.006 A 
ENDROOT
BRANCH   1   8
ATOM      8  C1  UNL d   1      -2.031   4.843  -2.195  0.00  0.00     0.054 C 
ATOM      9  C   UNL d   1      -3.124   3.819  -2.465  0.00  0.00     0.018 C 
ENDBRANCH   1   8
TORSDOF 1
ENDMDL
