MODEL 1
REMARK minimizedAffinity 9.99799156
REMARK minimizedRMSD -1
REMARK  1 active torsions:
REMARK  status: ('A' for Active; 'I' for Inactive)
REMARK    1  A    between atoms: C1_2  and  C2_3 
ROOT
ATOM      1  C2  UNL d   1       4.517  -4.827  -1.919  0.00  0.00    -0.081 A 
ATOM      2  C3  UNL d   1       5.477  -5.016  -0.917  0.00  0.00     0.006 A 
ATOM      3  C4  UNL d   1       5.916  -3.937  -0.145  0.00  0.00     0.002 A 
ATOM      4  C5  UNL d   1       5.398  -2.655  -0.357  0.00  0.00    -0.080 A 
ATOM      5  C6  UNL d   1       5.839  -1.495   0.485  0.00  0.00     0.076 C 
ATOM      6  C7  UNL d   1       4.453  -2.463  -1.370  0.00  0.00     0.002 A 
ATOM      7  C8  UNL d   1       4.013  -3.541  -2.142  0.00  0.00     0.006 A 
ENDROOT
BRANCH   1   8
ATOM      8  C1  UNL d   1       3.994  -5.999  -2.710  0.00  0.00     0.054 C 
ATOM      9  C   UNL d   1       4.492  -5.963  -4.148  0.00  0.00     0.018 C 
ENDBRANCH   1   8
TORSDOF 1
ENDMDL
