MODEL 1
REMARK minimizedAffinity 6.7264142
REMARK minimizedRMSD -1
REMARK  1 active torsions:
REMARK  status: ('A' for Active; 'I' for Inactive)
REMARK    1  A    between atoms: C1_2  and  C2_3 
ROOT
ATOM      1  C2  UNL d   1       1.167   2.563   2.487  0.00  0.00    -0.081 A 
ATOM      2  C3  UNL d   1       1.961   3.261   1.570  0.00  0.00     0.006 A 
ATOM      3  C4  UNL d   1       1.423   3.702   0.358  0.00  0.00     0.002 A 
ATOM      4  C5  UNL d   1       0.081   3.459   0.047  0.00  0.00    -0.080 A 
ATOM      5  C6  UNL d   1      -0.517   3.952  -1.236  0.00  0.00     0.076 C 
ATOM      6  C7  UNL d   1      -0.708   2.746   0.956  0.00  0.00     0.002 A 
ATOM      7  C8  UNL d   1      -0.171   2.304   2.167  0.00  0.00     0.006 A 
ENDROOT
BRANCH   1   8
ATOM      8  C1  UNL d   1       1.727   2.143   3.822  0.00  0.00     0.054 C 
ATOM      9  C   UNL d   1       2.641   3.214   4.400  0.00  0.00     0.018 C 
ENDBRANCH   1   8
TORSDOF 1
ENDMDL
