MODEL 1
REMARK minimizedAffinity 2.4369173
REMARK minimizedRMSD -1
REMARK  1 active torsions:
REMARK  status: ('A' for Active; 'I' for Inactive)
REMARK    1  A    between atoms: C1_2  and  C2_3 
ROOT
ATOM      1  C2  UNL d   1       0.131   2.750   1.544  0.00  0.00    -0.081 A 
ATOM      2  C3  UNL d   1       0.950   3.722   0.957  0.00  0.00     0.006 A 
ATOM      3  C4  UNL d   1       0.633   4.253  -0.296  0.00  0.00     0.002 A 
ATOM      4  C5  UNL d   1      -0.511   3.826  -0.978  0.00  0.00    -0.080 A 
ATOM      5  C6  UNL d   1      -0.880   4.409  -2.310  0.00  0.00     0.076 C 
ATOM      6  C7  UNL d   1      -1.320   2.842  -0.400  0.00  0.00     0.002 A 
ATOM      7  C8  UNL d   1      -1.003   2.310   0.852  0.00  0.00     0.006 A 
ENDROOT
BRANCH   1   8
ATOM      8  C1  UNL d   1       0.435   2.223   2.923  0.00  0.00     0.054 C 
ATOM      9  C   UNL d   1      -0.837   2.040   3.738  0.00  0.00     0.018 C 
ENDBRANCH   1   8
TORSDOF 1
ENDMDL
