MODEL 1
REMARK minimizedAffinity 12.1221542
REMARK minimizedRMSD -1
REMARK  0 active torsions:
REMARK  status: ('A' for Active; 'I' for Inactive)
ROOT
ATOM      1  C   UNL d   1      -0.228   2.431   2.105  0.00  0.00     0.124 A 
ATOM      2  C1  UNL d   1       0.444   2.410   0.890  0.00  0.00     0.062 A 
ATOM      3  C2  UNL d   1       1.346   1.390   0.607  0.00  0.00     0.162 A 
ATOM      4  C3  UNL d   1       1.582   0.379   1.540  0.00  0.00    -0.034 A 
ATOM      5  C4  UNL d   1       0.903   0.407   2.759  0.00  0.00     0.162 A 
ATOM      6  C5  UNL d   1       0.002   1.430   3.038  0.00  0.00     0.062 A 
ATOM      7  F   UNL d   1      -0.647   1.448   4.211  0.00  0.00    -0.097 F 
ATOM      8  F1  UNL d   1       1.105  -0.548   3.678  0.00  0.00    -0.096 F 
ATOM      9  I   UNL d   1       2.930  -1.149   1.120  0.00  0.00    -0.060 I 
ATOM     10  F2  UNL d   1       1.981   1.395  -0.574  0.00  0.00    -0.096 F 
ATOM     11  F3  UNL d   1       0.224   3.377  -0.012  0.00  0.00    -0.097 F 
ATOM     12  F4  UNL d   1      -1.096   3.415   2.375  0.00  0.00    -0.092 F 
ENDROOT
TORSDOF 0
ENDMDL
