MODEL 1
REMARK minimizedAffinity 15.6849718
REMARK minimizedRMSD -1
REMARK  0 active torsions:
REMARK  status: ('A' for Active; 'I' for Inactive)
ROOT
ATOM      1  C   UNL d   1      -0.255   2.508   0.760  0.00  0.00     0.124 A 
ATOM      2  C1  UNL d   1       0.514   1.870  -0.203  0.00  0.00     0.062 A 
ATOM      3  C2  UNL d   1       1.327   0.796   0.148  0.00  0.00     0.162 A 
ATOM      4  C3  UNL d   1       1.375   0.352   1.469  0.00  0.00    -0.034 A 
ATOM      5  C4  UNL d   1       0.599   0.999   2.433  0.00  0.00     0.162 A 
ATOM      6  C5  UNL d   1      -0.212   2.072   2.077  0.00  0.00     0.062 A 
ATOM      7  F   UNL d   1      -0.954   2.687   3.010  0.00  0.00    -0.097 F 
ATOM      8  F1  UNL d   1       0.621   0.598   3.713  0.00  0.00    -0.096 F 
ATOM      9  I   UNL d   1       2.588  -1.253   1.998  0.00  0.00    -0.060 I 
ATOM     10  F2  UNL d   1       2.059   0.199  -0.804  0.00  0.00    -0.096 F 
ATOM     11  F3  UNL d   1       0.475   2.290  -1.476  0.00  0.00    -0.097 F 
ATOM     12  F4  UNL d   1      -1.035   3.542   0.420  0.00  0.00    -0.092 F 
ENDROOT
TORSDOF 0
ENDMDL
