MODEL 1
REMARK minimizedAffinity 5.59040022
REMARK minimizedRMSD -1
REMARK  0 active torsions:
REMARK  status: ('A' for Active; 'I' for Inactive)
ROOT
ATOM      1  C   UNL d   1      -2.172   2.278  -3.414  0.00  0.00     0.124 A 
ATOM      2  C1  UNL d   1      -3.114   2.858  -4.252  0.00  0.00     0.062 A 
ATOM      3  C2  UNL d   1      -4.207   2.119  -4.693  0.00  0.00     0.162 A 
ATOM      4  C3  UNL d   1      -4.366   0.792  -4.297  0.00  0.00    -0.034 A 
ATOM      5  C4  UNL d   1      -3.414   0.215  -3.454  0.00  0.00     0.162 A 
ATOM      6  C5  UNL d   1      -2.322   0.958  -3.016  0.00  0.00     0.062 A 
ATOM      7  F   UNL d   1      -1.413   0.395  -2.206  0.00  0.00    -0.097 F 
ATOM      8  F1  UNL d   1      -3.535  -1.059  -3.053  0.00  0.00    -0.096 F 
ATOM      9  I   UNL d   1      -6.000  -0.317  -4.954  0.00  0.00    -0.060 I 
ATOM     10  F2  UNL d   1      -5.102   2.706  -5.503  0.00  0.00    -0.096 F 
ATOM     11  F3  UNL d   1      -2.970   4.134  -4.639  0.00  0.00    -0.097 F 
ATOM     12  F4  UNL d   1      -1.120   2.991  -2.992  0.00  0.00    -0.092 F 
ENDROOT
TORSDOF 0
ENDMDL
