MODEL 1
REMARK minimizedAffinity 17.9656792
REMARK minimizedRMSD -1
REMARK  0 active torsions:
REMARK  status: ('A' for Active; 'I' for Inactive)
ROOT
ATOM      1  C   UNL d   1       1.928  -1.879  -0.402  0.00  0.00     0.124 A 
ATOM      2  C1  UNL d   1       2.374  -1.181   0.712  0.00  0.00     0.062 A 
ATOM      3  C2  UNL d   1       2.036   0.159   0.879  0.00  0.00     0.162 A 
ATOM      4  C3  UNL d   1       1.247   0.810  -0.069  0.00  0.00    -0.034 A 
ATOM      5  C4  UNL d   1       0.803   0.101  -1.187  0.00  0.00     0.162 A 
ATOM      6  C5  UNL d   1       1.143  -1.238  -1.350  0.00  0.00     0.062 A 
ATOM      7  F   UNL d   1       0.712  -1.911  -2.426  0.00  0.00    -0.097 F 
ATOM      8  F1  UNL d   1       0.043   0.696  -2.119  0.00  0.00    -0.096 F 
ATOM      9  I   UNL d   1       0.740   2.813   0.177  0.00  0.00    -0.060 I 
ATOM     10  F2  UNL d   1       2.481   0.809   1.965  0.00  0.00    -0.096 F 
ATOM     11  F3  UNL d   1       3.133  -1.798   1.629  0.00  0.00    -0.097 F 
ATOM     12  F4  UNL d   1       2.255  -3.168  -0.561  0.00  0.00    -0.092 F 
ENDROOT
TORSDOF 0
ENDMDL
