MODEL 1
REMARK minimizedAffinity 10.0804281
REMARK minimizedRMSD -1
REMARK  0 active torsions:
REMARK  status: ('A' for Active; 'I' for Inactive)
ROOT
ATOM      1  C   UNL d   1       3.499  -1.602   1.333  0.00  0.00     0.124 A 
ATOM      2  C1  UNL d   1       3.483  -0.405   2.035  0.00  0.00     0.062 A 
ATOM      3  C2  UNL d   1       2.675   0.645   1.610  0.00  0.00     0.162 A 
ATOM      4  C3  UNL d   1       1.874   0.503   0.477  0.00  0.00    -0.034 A 
ATOM      5  C4  UNL d   1       1.895  -0.704  -0.225  0.00  0.00     0.162 A 
ATOM      6  C5  UNL d   1       2.705  -1.751   0.204  0.00  0.00     0.062 A 
ATOM      7  F   UNL d   1       2.719  -2.907  -0.476  0.00  0.00    -0.097 F 
ATOM      8  F1  UNL d   1       1.138  -0.875  -1.318  0.00  0.00    -0.096 F 
ATOM      9  I   UNL d   1       0.663   2.071  -0.162  0.00  0.00    -0.060 I 
ATOM     10  F2  UNL d   1       2.680   1.790   2.308  0.00  0.00    -0.096 F 
ATOM     11  F3  UNL d   1       4.250  -0.259   3.125  0.00  0.00    -0.097 F 
ATOM     12  F4  UNL d   1       4.278  -2.611   1.743  0.00  0.00    -0.092 F 
ENDROOT
TORSDOF 0
ENDMDL
