MODEL 1
REMARK minimizedAffinity 4.7067399
REMARK minimizedRMSD -1
REMARK  0 active torsions:
REMARK  status: ('A' for Active; 'I' for Inactive)
ROOT
ATOM      1  C   UNL d   1       1.297  -0.685  -0.439  0.00  0.00     0.124 A 
ATOM      2  C1  UNL d   1       2.640  -0.783  -0.105  0.00  0.00     0.062 A 
ATOM      3  C2  UNL d   1       3.369   0.361   0.208  0.00  0.00     0.162 A 
ATOM      4  C3  UNL d   1       2.755   1.614   0.189  0.00  0.00    -0.034 A 
ATOM      5  C4  UNL d   1       1.403   1.704  -0.149  0.00  0.00     0.162 A 
ATOM      6  C5  UNL d   1       0.680   0.557  -0.461  0.00  0.00     0.062 A 
ATOM      7  F   UNL d   1      -0.618   0.654  -0.784  0.00  0.00    -0.097 F 
ATOM      8  F1  UNL d   1       0.781   2.892  -0.177  0.00  0.00    -0.096 F 
ATOM      9  I   UNL d   1       3.840   3.327   0.656  0.00  0.00    -0.060 I 
ATOM     10  F2  UNL d   1       4.666   0.238   0.527  0.00  0.00    -0.096 F 
ATOM     11  F3  UNL d   1       3.239  -1.982  -0.084  0.00  0.00    -0.097 F 
ATOM     12  F4  UNL d   1       0.599  -1.788  -0.740  0.00  0.00    -0.092 F 
ENDROOT
TORSDOF 0
ENDMDL
