MODEL 1
REMARK minimizedAffinity 3.27695727
REMARK minimizedRMSD -1
REMARK  0 active torsions:
REMARK  status: ('A' for Active; 'I' for Inactive)
ROOT
ATOM      1  C   UNL d   1       2.785   0.011   0.262  0.00  0.00     0.124 A 
ATOM      2  C1  UNL d   1       2.177   1.251   0.402  0.00  0.00     0.062 A 
ATOM      3  C2  UNL d   1       0.982   1.523  -0.258  0.00  0.00     0.162 A 
ATOM      4  C3  UNL d   1       0.387   0.552  -1.064  0.00  0.00    -0.034 A 
ATOM      5  C4  UNL d   1       1.005  -0.692  -1.200  0.00  0.00     0.162 A 
ATOM      6  C5  UNL d   1       2.199  -0.959  -0.538  0.00  0.00     0.062 A 
ATOM      7  F   UNL d   1       2.785  -2.158  -0.674  0.00  0.00    -0.097 F 
ATOM      8  F1  UNL d   1       0.459  -1.648  -1.967  0.00  0.00    -0.096 F 
ATOM      9  I   UNL d   1      -1.400   0.955  -2.053  0.00  0.00    -0.060 I 
ATOM     10  F2  UNL d   1       0.417   2.729  -0.105  0.00  0.00    -0.096 F 
ATOM     11  F3  UNL d   1       2.742   2.190   1.174  0.00  0.00    -0.097 F 
ATOM     12  F4  UNL d   1       3.935  -0.248   0.898  0.00  0.00    -0.092 F 
ENDROOT
TORSDOF 0
ENDMDL
