MODEL 1
REMARK minimizedAffinity 14.3078766
REMARK minimizedRMSD -1
REMARK  0 active torsions:
REMARK  status: ('A' for Active; 'I' for Inactive)
ROOT
ATOM      1  C   UNL d   1       2.575  -0.661   0.209  0.00  0.00     0.124 A 
ATOM      2  C1  UNL d   1       2.170  -1.405  -0.890  0.00  0.00     0.062 A 
ATOM      3  C2  UNL d   1       1.221  -0.894  -1.770  0.00  0.00     0.162 A 
ATOM      4  C3  UNL d   1       0.670   0.370  -1.555  0.00  0.00    -0.034 A 
ATOM      5  C4  UNL d   1       1.081   1.112  -0.447  0.00  0.00     0.162 A 
ATOM      6  C5  UNL d   1       2.030   0.596   0.430  0.00  0.00     0.062 A 
ATOM      7  F   UNL d   1       2.420   1.317   1.492  0.00  0.00    -0.097 F 
ATOM      8  F1  UNL d   1       0.572   2.330  -0.210  0.00  0.00    -0.096 F 
ATOM      9  I   UNL d   1      -0.750   1.138  -2.869  0.00  0.00    -0.060 I 
ATOM     10  F2  UNL d   1       0.848  -1.635  -2.825  0.00  0.00    -0.096 F 
ATOM     11  F3  UNL d   1       2.694  -2.620  -1.105  0.00  0.00    -0.097 F 
ATOM     12  F4  UNL d   1       3.488  -1.156   1.055  0.00  0.00    -0.092 F 
ENDROOT
TORSDOF 0
ENDMDL
