MODEL 1
REMARK minimizedAffinity 5.97553492
REMARK minimizedRMSD -1
REMARK  0 active torsions:
REMARK  status: ('A' for Active; 'I' for Inactive)
ROOT
ATOM      1  C   UNL d   1       3.658   1.446  -0.367  0.00  0.00     0.124 A 
ATOM      2  C1  UNL d   1       3.986   0.407  -1.226  0.00  0.00     0.062 A 
ATOM      3  C2  UNL d   1       3.177  -0.724  -1.298  0.00  0.00     0.162 A 
ATOM      4  C3  UNL d   1       2.032  -0.821  -0.509  0.00  0.00    -0.034 A 
ATOM      5  C4  UNL d   1       1.709   0.228   0.355  0.00  0.00     0.162 A 
ATOM      6  C5  UNL d   1       2.520   1.356   0.423  0.00  0.00     0.062 A 
ATOM      7  F   UNL d   1       2.201   2.358   1.254  0.00  0.00    -0.097 F 
ATOM      8  F1  UNL d   1       0.614   0.167   1.128  0.00  0.00    -0.096 F 
ATOM      9  I   UNL d   1       0.820  -2.510  -0.613  0.00  0.00    -0.060 I 
ATOM     10  F2  UNL d   1       3.518  -1.712  -2.138  0.00  0.00    -0.096 F 
ATOM     11  F3  UNL d   1       5.085   0.492  -1.989  0.00  0.00    -0.097 F 
ATOM     12  F4  UNL d   1       4.438   2.532  -0.299  0.00  0.00    -0.092 F 
ENDROOT
TORSDOF 0
ENDMDL
