MODEL 1
REMARK minimizedAffinity 5.82555199
REMARK minimizedRMSD -1
REMARK  0 active torsions:
REMARK  status: ('A' for Active; 'I' for Inactive)
ROOT
ATOM      1  O1  BZF d   1      -2.639  -2.931  -2.085  0.00  0.00    -0.204 OA
ATOM      2  C2  BZF d   1      -1.909  -1.862  -1.603  0.00  0.00     0.174 A 
ATOM      3  C3  BZF d   1      -1.196  -1.285  -2.592  0.00  0.00    -0.012 A 
ATOM      4  C3A BZF d   1      -1.571  -1.984  -3.783  0.00  0.00    -0.107 A 
ATOM      5  C4  BZF d   1      -1.214  -1.861  -5.095  0.00  0.00     0.055 A 
ATOM      6  C5  BZF d   1      -1.707  -2.748  -6.000  0.00  0.00    -0.016 A 
ATOM      7  C6  BZF d   1      -2.553  -3.771  -5.626  0.00  0.00     0.022 A 
ATOM      8  C7  BZF d   1      -2.939  -3.930  -4.337  0.00  0.00     0.029 A 
ATOM      9  C7A BZF d   1      -2.469  -3.016  -3.426  0.00  0.00     0.058 A 
ENDROOT
TORSDOF 0
ENDMDL
