MODEL 1
REMARK minimizedAffinity 13.7968178
REMARK minimizedRMSD -1
REMARK  0 active torsions:
REMARK  status: ('A' for Active; 'I' for Inactive)
ROOT
ATOM      1  O1  BZF d   1      -3.253  -3.539  -2.444  0.00  0.00    -0.204 OA
ATOM      2  C2  BZF d   1      -2.725  -2.552  -1.634  0.00  0.00     0.174 A 
ATOM      3  C3  BZF d   1      -1.910  -1.741  -2.339  0.00  0.00    -0.012 A 
ATOM      4  C3A BZF d   1      -2.002  -2.197  -3.692  0.00  0.00    -0.107 A 
ATOM      5  C4  BZF d   1      -1.436  -1.783  -4.863  0.00  0.00     0.055 A 
ATOM      6  C5  BZF d   1      -1.675  -2.489  -5.999  0.00  0.00    -0.016 A 
ATOM      7  C6  BZF d   1      -2.471  -3.616  -5.999  0.00  0.00     0.022 A 
ATOM      8  C7  BZF d   1      -3.059  -4.063  -4.863  0.00  0.00     0.029 A 
ATOM      9  C7A BZF d   1      -2.845  -3.332  -3.719  0.00  0.00     0.058 A 
ENDROOT
TORSDOF 0
ENDMDL
