MODEL 1
REMARK minimizedAffinity 11.6251888
REMARK minimizedRMSD -1
REMARK  0 active torsions:
REMARK  status: ('A' for Active; 'I' for Inactive)
ROOT
ATOM      1  O1  BZF d   1      -2.770  -0.945   1.121  0.00  0.00    -0.204 OA
ATOM      2  C2  BZF d   1      -2.340  -1.211   2.407  0.00  0.00     0.174 A 
ATOM      3  C3  BZF d   1      -1.273  -2.035   2.394  0.00  0.00    -0.012 A 
ATOM      4  C3A BZF d   1      -0.964  -2.228   1.010  0.00  0.00    -0.107 A 
ATOM      5  C4  BZF d   1       0.003  -2.935   0.354  0.00  0.00     0.055 A 
ATOM      6  C5  BZF d   1      -0.015  -2.975  -1.004  0.00  0.00    -0.016 A 
ATOM      7  C6  BZF d   1      -0.987  -2.325  -1.737  0.00  0.00     0.022 A 
ATOM      8  C7  BZF d   1      -1.963  -1.607  -1.131  0.00  0.00     0.029 A 
ATOM      9  C7A BZF d   1      -1.928  -1.538   0.241  0.00  0.00     0.058 A 
ENDROOT
TORSDOF 0
ENDMDL
