MODEL 1
REMARK minimizedAffinity 11.4346399
REMARK minimizedRMSD -1
REMARK  0 active torsions:
REMARK  status: ('A' for Active; 'I' for Inactive)
ROOT
ATOM      1  O1  BZF d   1      -2.611  -4.814  -4.714  0.00  0.00    -0.204 OA
ATOM      2  C2  BZF d   1      -2.486  -4.326  -6.000  0.00  0.00     0.174 A 
ATOM      3  C3  BZF d   1      -2.006  -3.066  -5.989  0.00  0.00    -0.012 A 
ATOM      4  C3A BZF d   1      -1.731  -2.780  -4.614  0.00  0.00    -0.107 A 
ATOM      5  C4  BZF d   1      -1.223  -1.691  -3.966  0.00  0.00     0.055 A 
ATOM      6  C5  BZF d   1      -1.150  -1.705  -2.609  0.00  0.00    -0.016 A 
ATOM      7  C6  BZF d   1      -1.581  -2.788  -1.870  0.00  0.00     0.022 A 
ATOM      8  C7  BZF d   1      -2.088  -3.893  -2.469  0.00  0.00     0.029 A 
ATOM      9  C7A BZF d   1      -2.132  -3.894  -3.842  0.00  0.00     0.058 A 
ENDROOT
TORSDOF 0
ENDMDL
