MODEL 1
REMARK minimizedAffinity 2.83788562
REMARK minimizedRMSD -1
REMARK  0 active torsions:
REMARK  status: ('A' for Active; 'I' for Inactive)
ROOT
ATOM      1  O1  BZF d   1       1.147   2.991  -5.928  0.00  0.00    -0.204 OA
ATOM      2  C2  BZF d   1       1.736   1.741  -5.926  0.00  0.00     0.174 A 
ATOM      3  C3  BZF d   1       3.079   1.846  -5.999  0.00  0.00    -0.012 A 
ATOM      4  C3A BZF d   1       3.350   3.250  -5.957  0.00  0.00    -0.107 A 
ATOM      5  C4  BZF d   1       4.500   3.986  -5.978  0.00  0.00     0.055 A 
ATOM      6  C5  BZF d   1       4.417   5.342  -5.996  0.00  0.00    -0.016 A 
ATOM      7  C6  BZF d   1       3.202   5.995  -6.000  0.00  0.00     0.022 A 
ATOM      8  C7  BZF d   1       2.033   5.308  -5.974  0.00  0.00     0.029 A 
ATOM      9  C7A BZF d   1       2.115   3.938  -5.922  0.00  0.00     0.058 A 
ENDROOT
TORSDOF 0
ENDMDL
