MODEL 1
REMARK minimizedAffinity 5.83843136
REMARK minimizedRMSD -1
REMARK  0 active torsions:
REMARK  status: ('A' for Active; 'I' for Inactive)
ROOT
ATOM      1  O1  BZF d   1      -0.306  -3.532   2.314  0.00  0.00    -0.204 OA
ATOM      2  C2  BZF d   1      -1.367  -3.271   3.159  0.00  0.00     0.174 A 
ATOM      3  C3  BZF d   1      -2.245  -2.427   2.578  0.00  0.00    -0.012 A 
ATOM      4  C3A BZF d   1      -1.744  -2.216   1.254  0.00  0.00    -0.107 A 
ATOM      5  C4  BZF d   1      -2.187  -1.486   0.188  0.00  0.00     0.055 A 
ATOM      6  C5  BZF d   1      -1.427  -1.434  -0.937  0.00  0.00    -0.016 A 
ATOM      7  C6  BZF d   1      -0.219  -2.094  -1.029  0.00  0.00     0.022 A 
ATOM      8  C7  BZF d   1       0.259  -2.834  -0.000  0.00  0.00     0.029 A 
ATOM      9  C7A BZF d   1      -0.522  -2.916   1.127  0.00  0.00     0.058 A 
ENDROOT
TORSDOF 0
ENDMDL
