MODEL 1
REMARK minimizedAffinity 12.9288387
REMARK minimizedRMSD -1
REMARK  0 active torsions:
REMARK  status: ('A' for Active; 'I' for Inactive)
ROOT
ATOM      1  O1  BZF d   1       2.963   2.130  -5.998  0.00  0.00    -0.204 OA
ATOM      2  C2  BZF d   1       2.375   2.929  -5.036  0.00  0.00     0.174 A 
ATOM      3  C3  BZF d   1       2.963   2.746  -3.837  0.00  0.00    -0.012 A 
ATOM      4  C3A BZF d   1       4.042   1.839  -4.081  0.00  0.00    -0.107 A 
ATOM      5  C4  BZF d   1       5.004   1.286  -3.284  0.00  0.00     0.055 A 
ATOM      6  C5  BZF d   1       5.864   0.381  -3.818  0.00  0.00    -0.016 A 
ATOM      7  C6  BZF d   1       5.789   0.001  -5.142  0.00  0.00     0.022 A 
ATOM      8  C7  BZF d   1       4.856   0.525  -5.973  0.00  0.00     0.029 A 
ATOM      9  C7A BZF d   1       4.006   1.465  -5.445  0.00  0.00     0.058 A 
ENDROOT
TORSDOF 0
ENDMDL
