MODEL 1
REMARK minimizedAffinity 11.4643888
REMARK minimizedRMSD -1
REMARK  0 active torsions:
REMARK  status: ('A' for Active; 'I' for Inactive)
ROOT
ATOM      1  O1  BZF d   1      -1.158  -1.520  -2.658  0.00  0.00    -0.204 OA
ATOM      2  C2  BZF d   1      -1.794  -2.073  -1.564  0.00  0.00     0.174 A 
ATOM      3  C3  BZF d   1      -2.637  -3.054  -1.946  0.00  0.00    -0.012 A 
ATOM      4  C3A BZF d   1      -2.452  -3.180  -3.359  0.00  0.00    -0.107 A 
ATOM      5  C4  BZF d   1      -2.997  -3.997  -4.308  0.00  0.00     0.055 A 
ATOM      6  C5  BZF d   1      -2.656  -3.815  -5.611  0.00  0.00    -0.016 A 
ATOM      7  C6  BZF d   1      -1.778  -2.824  -6.000  0.00  0.00     0.022 A 
ATOM      8  C7  BZF d   1      -1.208  -1.993  -5.094  0.00  0.00     0.029 A 
ATOM      9  C7A BZF d   1      -1.525  -2.196  -3.773  0.00  0.00     0.058 A 
ENDROOT
TORSDOF 0
ENDMDL
