MODEL 1
REMARK minimizedAffinity 10.8083811
REMARK minimizedRMSD -1
REMARK  0 active torsions:
REMARK  status: ('A' for Active; 'I' for Inactive)
ROOT
ATOM      1  O1  BZF d   1      -1.210  -2.802   2.468  0.00  0.00    -0.204 OA
ATOM      2  C2  BZF d   1      -2.178  -1.962   2.982  0.00  0.00     0.174 A 
ATOM      3  C3  BZF d   1      -2.627  -1.113   2.035  0.00  0.00    -0.012 A 
ATOM      4  C3A BZF d   1      -1.958  -1.504   0.832  0.00  0.00    -0.107 A 
ATOM      5  C4  BZF d   1      -1.999  -1.049  -0.455  0.00  0.00     0.055 A 
ATOM      6  C5  BZF d   1      -1.168  -1.602  -1.378  0.00  0.00    -0.016 A 
ATOM      7  C6  BZF d   1      -0.281  -2.606  -1.047  0.00  0.00     0.022 A 
ATOM      8  C7  BZF d   1      -0.209  -3.093   0.215  0.00  0.00     0.029 A 
ATOM      9  C7A BZF d   1      -1.070  -2.560   1.142  0.00  0.00     0.058 A 
ENDROOT
TORSDOF 0
ENDMDL
