MODEL 1
REMARK minimizedAffinity 0.358813405
REMARK minimizedRMSD -1
REMARK  0 active torsions:
REMARK  status: ('A' for Active; 'I' for Inactive)
ROOT
ATOM      1  O1  BZF d   1       4.732   1.523  -6.000  0.00  0.00    -0.204 OA
ATOM      2  C2  BZF d   1       5.597   0.460  -5.819  0.00  0.00     0.174 A 
ATOM      3  C3  BZF d   1       5.999   0.384  -4.534  0.00  0.00    -0.012 A 
ATOM      4  C3A BZF d   1       5.273   1.410  -3.851  0.00  0.00    -0.107 A 
ATOM      5  C4  BZF d   1       5.229   1.822  -2.550  0.00  0.00     0.055 A 
ATOM      6  C5  BZF d   1       4.471   2.901  -2.223  0.00  0.00    -0.016 A 
ATOM      7  C6  BZF d   1       3.749   3.595  -3.172  0.00  0.00     0.022 A 
ATOM      8  C7  BZF d   1       3.757   3.221  -4.475  0.00  0.00     0.029 A 
ATOM      9  C7A BZF d   1       4.496   2.111  -4.803  0.00  0.00     0.058 A 
ENDROOT
TORSDOF 0
ENDMDL
