MODEL 1
REMARK minimizedAffinity 2.21830678
REMARK minimizedRMSD -1
REMARK  0 active torsions:
REMARK  status: ('A' for Active; 'I' for Inactive)
ROOT
ATOM      1  O1  BZF d   1       4.749   3.755  -5.998  0.00  0.00    -0.204 OA
ATOM      2  C2  BZF d   1       5.464   4.937  -5.979  0.00  0.00     0.174 A 
ATOM      3  C3  BZF d   1       4.633   5.999  -5.998  0.00  0.00    -0.012 A 
ATOM      4  C3A BZF d   1       3.314   5.447  -5.938  0.00  0.00    -0.107 A 
ATOM      5  C4  BZF d   1       2.066   5.998  -5.910  0.00  0.00     0.055 A 
ATOM      6  C5  BZF d   1       0.981   5.179  -5.926  0.00  0.00    -0.016 A 
ATOM      7  C6  BZF d   1       1.109   3.807  -5.975  0.00  0.00     0.022 A 
ATOM      8  C7  BZF d   1       2.327   3.213  -5.999  0.00  0.00     0.029 A 
ATOM      9  C7A BZF d   1       3.425   4.037  -5.950  0.00  0.00     0.058 A 
ENDROOT
TORSDOF 0
ENDMDL
