MODEL 1
REMARK minimizedAffinity -3.08506989
REMARK minimizedRMSD -1
REMARK  0 active torsions:
REMARK  status: ('A' for Active; 'I' for Inactive)
ROOT
ATOM      1  O1  BZF d   1       5.448   3.932  -5.997  0.00  0.00    -0.204 OA
ATOM      2  C2  BZF d   1       5.993   5.143  -5.613  0.00  0.00     0.174 A 
ATOM      3  C3  BZF d   1       5.031   5.986  -5.185  0.00  0.00    -0.012 A 
ATOM      4  C3A BZF d   1       3.820   5.225  -5.221  0.00  0.00    -0.107 A 
ATOM      5  C4  BZF d   1       2.524   5.507  -4.897  0.00  0.00     0.055 A 
ATOM      6  C5  BZF d   1       1.568   4.566  -5.118  0.00  0.00    -0.016 A 
ATOM      7  C6  BZF d   1       1.872   3.337  -5.665  0.00  0.00     0.022 A 
ATOM      8  C7  BZF d   1       3.145   3.009  -5.997  0.00  0.00     0.029 A 
ATOM      9  C7A BZF d   1       4.117   3.945  -5.745  0.00  0.00     0.058 A 
ENDROOT
TORSDOF 0
ENDMDL
