MODEL 1
REMARK minimizedAffinity 11.4641151
REMARK minimizedRMSD -1
REMARK  0 active torsions:
REMARK  status: ('A' for Active; 'I' for Inactive)
ROOT
ATOM      1  O1  BZF d   1      -0.412  -1.762   1.324  0.00  0.00    -0.204 OA
ATOM      2  C2  BZF d   1      -1.377  -2.438   2.044  0.00  0.00     0.174 A 
ATOM      3  C3  BZF d   1      -1.519  -1.903   3.274  0.00  0.00    -0.012 A 
ATOM      4  C3A BZF d   1      -0.649  -0.767   3.292  0.00  0.00    -0.107 A 
ATOM      5  C4  BZF d   1      -0.362   0.180   4.233  0.00  0.00     0.055 A 
ATOM      6  C5  BZF d   1       0.589   1.113   3.962  0.00  0.00    -0.016 A 
ATOM      7  C6  BZF d   1       1.274   1.125   2.765  0.00  0.00     0.022 A 
ATOM      8  C7  BZF d   1       1.020   0.208   1.799  0.00  0.00     0.029 A 
ATOM      9  C7A BZF d   1       0.037  -0.715   2.057  0.00  0.00     0.058 A 
ENDROOT
TORSDOF 0
ENDMDL
