MODEL 1
REMARK minimizedAffinity 7.75598288
REMARK minimizedRMSD -1
REMARK  0 active torsions:
REMARK  status: ('A' for Active; 'I' for Inactive)
ROOT
ATOM      1  O1  BZF d   1       1.908   5.369  -3.758  0.00  0.00    -0.204 OA
ATOM      2  C2  BZF d   1       1.572   6.000  -4.941  0.00  0.00     0.174 A 
ATOM      3  C3  BZF d   1       1.871   5.221  -6.000  0.00  0.00    -0.012 A 
ATOM      4  C3A BZF d   1       2.344   3.991  -5.441  0.00  0.00    -0.107 A 
ATOM      5  C4  BZF d   1       2.779   2.818  -5.988  0.00  0.00     0.055 A 
ATOM      6  C5  BZF d   1       3.240   1.838  -5.167  0.00  0.00    -0.016 A 
ATOM      7  C6  BZF d   1       3.286   2.000  -3.798  0.00  0.00     0.022 A 
ATOM      8  C7  BZF d   1       2.860   3.144  -3.209  0.00  0.00     0.029 A 
ATOM      9  C7A BZF d   1       2.363   4.123  -4.034  0.00  0.00     0.058 A 
ENDROOT
TORSDOF 0
ENDMDL
