MODEL 1
REMARK minimizedAffinity -3.03860974
REMARK minimizedRMSD -1
REMARK  0 active torsions:
REMARK  status: ('A' for Active; 'I' for Inactive)
ROOT
ATOM      1  O1  BZF d   1       2.549   1.788   1.036  0.00  0.00    -0.204 OA
ATOM      2  C2  BZF d   1       3.024   2.892   0.355  0.00  0.00     0.174 A 
ATOM      3  C3  BZF d   1       4.361   3.001   0.494  0.00  0.00    -0.012 A 
ATOM      4  C3A BZF d   1       4.758   1.845   1.238  0.00  0.00    -0.107 A 
ATOM      5  C4  BZF d   1       5.964   1.380   1.679  0.00  0.00     0.055 A 
ATOM      6  C5  BZF d   1       6.000   0.257   2.442  0.00  0.00    -0.016 A 
ATOM      7  C6  BZF d   1       4.850  -0.424   2.787  0.00  0.00     0.022 A 
ATOM      8  C7  BZF d   1       3.631  -0.005   2.369  0.00  0.00     0.029 A 
ATOM      9  C7A BZF d   1       3.595   1.112   1.570  0.00  0.00     0.058 A 
ENDROOT
TORSDOF 0
ENDMDL
