MODEL 1
REMARK minimizedAffinity -1.86500227
REMARK minimizedRMSD -1
REMARK  0 active torsions:
REMARK  status: ('A' for Active; 'I' for Inactive)
ROOT
ATOM      1  O1  BZF d   1       4.765   6.000  -5.716  0.00  0.00    -0.204 OA
ATOM      2  C2  BZF d   1       5.994   5.398  -5.911  0.00  0.00     0.174 A 
ATOM      3  C3  BZF d   1       5.862   4.059  -6.000  0.00  0.00    -0.012 A 
ATOM      4  C3A BZF d   1       4.453   3.815  -5.943  0.00  0.00    -0.107 A 
ATOM      5  C4  BZF d   1       3.693   2.682  -5.999  0.00  0.00     0.055 A 
ATOM      6  C5  BZF d   1       2.347   2.780  -5.842  0.00  0.00    -0.016 A 
ATOM      7  C6  BZF d   1       1.729   3.993  -5.622  0.00  0.00     0.022 A 
ATOM      8  C7  BZF d   1       2.440   5.146  -5.563  0.00  0.00     0.029 A 
ATOM      9  C7A BZF d   1       3.797   5.053  -5.755  0.00  0.00     0.058 A 
ENDROOT
TORSDOF 0
ENDMDL
