MODEL 1
REMARK minimizedAffinity 1.75381708
REMARK minimizedRMSD -1
REMARK  0 active torsions:
REMARK  status: ('A' for Active; 'I' for Inactive)
ROOT
ATOM      1  O1  BZF d   1       5.439   3.464  -6.000  0.00  0.00    -0.204 OA
ATOM      2  C2  BZF d   1       5.880   4.481  -5.176  0.00  0.00     0.174 A 
ATOM      3  C3  BZF d   1       6.000   4.049  -3.904  0.00  0.00    -0.012 A 
ATOM      4  C3A BZF d   1       5.697   2.651  -3.951  0.00  0.00    -0.107 A 
ATOM      5  C4  BZF d   1       5.661   1.666  -3.007  0.00  0.00     0.055 A 
ATOM      6  C5  BZF d   1       5.256   0.420  -3.367  0.00  0.00    -0.016 A 
ATOM      7  C6  BZF d   1       4.876   0.126  -4.660  0.00  0.00     0.022 A 
ATOM      8  C7  BZF d   1       4.900   1.069  -5.633  0.00  0.00     0.029 A 
ATOM      9  C7A BZF d   1       5.340   2.321  -5.279  0.00  0.00     0.058 A 
ENDROOT
TORSDOF 0
ENDMDL
