MODEL 1
REMARK minimizedAffinity -3.90788198
REMARK minimizedRMSD -1
REMARK  0 active torsions:
REMARK  status: ('A' for Active; 'I' for Inactive)
ROOT
ATOM      1  O1  BZF d   1       6.000   2.998  -5.754  0.00  0.00    -0.204 OA
ATOM      2  C2  BZF d   1       5.484   1.721  -5.653  0.00  0.00     0.174 A 
ATOM      3  C3  BZF d   1       4.162   1.758  -5.391  0.00  0.00    -0.012 A 
ATOM      4  C3A BZF d   1       3.812   3.146  -5.415  0.00  0.00    -0.107 A 
ATOM      5  C4  BZF d   1       2.638   3.821  -5.241  0.00  0.00     0.055 A 
ATOM      6  C5  BZF d   1       2.650   5.180  -5.255  0.00  0.00    -0.016 A 
ATOM      7  C6  BZF d   1       3.817   5.894  -5.434  0.00  0.00     0.022 A 
ATOM      8  C7  BZF d   1       5.005   5.268  -5.616  0.00  0.00     0.029 A 
ATOM      9  C7A BZF d   1       4.991   3.895  -5.636  0.00  0.00     0.058 A 
ENDROOT
TORSDOF 0
ENDMDL
