MODEL 1
REMARK minimizedAffinity -1.29793501
REMARK minimizedRMSD -1
REMARK  0 active torsions:
REMARK  status: ('A' for Active; 'I' for Inactive)
ROOT
ATOM      1  O1  BZF d   1       4.305  -0.417   2.683  0.00  0.00    -0.204 OA
ATOM      2  C2  BZF d   1       5.675  -0.245   2.640  0.00  0.00     0.174 A 
ATOM      3  C3  BZF d   1       5.993   0.903   2.007  0.00  0.00    -0.012 A 
ATOM      4  C3A BZF d   1       4.741   1.530   1.712  0.00  0.00    -0.107 A 
ATOM      5  C4  BZF d   1       4.398   2.704   1.106  0.00  0.00     0.055 A 
ATOM      6  C5  BZF d   1       3.084   2.987   0.909  0.00  0.00    -0.016 A 
ATOM      7  C6  BZF d   1       2.087   2.118   1.301  0.00  0.00     0.022 A 
ATOM      8  C7  BZF d   1       2.377   0.943   1.911  0.00  0.00     0.029 A 
ATOM      9  C7A BZF d   1       3.704   0.669   2.141  0.00  0.00     0.058 A 
ENDROOT
TORSDOF 0
ENDMDL
