MODEL 1
REMARK minimizedAffinity 0.364663154
REMARK minimizedRMSD -1
REMARK  0 active torsions:
REMARK  status: ('A' for Active; 'I' for Inactive)
ROOT
ATOM      1  O1  BZF d   1       3.854   3.637  -5.846  0.00  0.00    -0.204 OA
ATOM      2  C2  BZF d   1       4.997   4.354  -5.551  0.00  0.00     0.174 A 
ATOM      3  C3  BZF d   1       6.000   3.528  -5.188  0.00  0.00    -0.012 A 
ATOM      4  C3A BZF d   1       5.476   2.207  -5.349  0.00  0.00    -0.107 A 
ATOM      5  C4  BZF d   1       6.000   0.960  -5.162  0.00  0.00     0.055 A 
ATOM      6  C5  BZF d   1       5.201  -0.126  -5.338  0.00  0.00    -0.016 A 
ATOM      7  C6  BZF d   1       3.875  -0.001  -5.696  0.00  0.00     0.022 A 
ATOM      8  C7  BZF d   1       3.312   1.215  -5.898  0.00  0.00     0.029 A 
ATOM      9  C7A BZF d   1       4.125   2.313  -5.753  0.00  0.00     0.058 A 
ENDROOT
TORSDOF 0
ENDMDL
