MODEL 1
REMARK minimizedAffinity -3.59776974
REMARK minimizedRMSD -1
REMARK  0 active torsions:
REMARK  status: ('A' for Active; 'I' for Inactive)
ROOT
ATOM      1  C4' PXY d   1       0.737  -5.611  -5.513  0.00  0.00     0.077 C 
ATOM      2  C1' PXY d   1      -4.755  -5.994  -3.750  0.00  0.00     0.077 C 
ATOM      3  C1  PXY d   1      -3.317  -5.901  -4.223  0.00  0.00    -0.082 A 
ATOM      4  C2  PXY d   1      -2.349  -5.714  -3.341  0.00  0.00     0.003 A 
ATOM      5  C3  PXY d   1      -1.047  -5.594  -3.754  0.00  0.00     0.003 A 
ATOM      6  C4  PXY d   1      -0.727  -5.721  -5.080  0.00  0.00    -0.082 A 
ATOM      7  C5  PXY d   1      -1.708  -5.923  -5.985  0.00  0.00     0.003 A 
ATOM      8  C6  PXY d   1      -3.028  -6.000  -5.549  0.00  0.00     0.003 A 
ENDROOT
TORSDOF 0
ENDMDL
