MODEL 1
REMARK minimizedAffinity 1.75236249
REMARK minimizedRMSD -1
REMARK  0 active torsions:
REMARK  status: ('A' for Active; 'I' for Inactive)
ROOT
ATOM      1  C4' PXY d   1       3.279  -0.118  -1.432  0.00  0.00     0.077 C 
ATOM      2  C1' PXY d   1       1.064  -1.398   3.752  0.00  0.00     0.077 C 
ATOM      3  C1  PXY d   1       1.633  -1.058   2.388  0.00  0.00    -0.082 A 
ATOM      4  C2  PXY d   1       2.713  -1.688   1.954  0.00  0.00     0.003 A 
ATOM      5  C3  PXY d   1       3.259  -1.371   0.738  0.00  0.00     0.003 A 
ATOM      6  C4  PXY d   1       2.664  -0.436  -0.066  0.00  0.00    -0.082 A 
ATOM      7  C5  PXY d   1       1.557   0.204   0.365  0.00  0.00     0.003 A 
ATOM      8  C6  PXY d   1       1.041  -0.103   1.620  0.00  0.00     0.003 A 
ENDROOT
TORSDOF 0
ENDMDL
