MODEL 1
REMARK minimizedAffinity -1.92052913
REMARK minimizedRMSD -1
REMARK  0 active torsions:
REMARK  status: ('A' for Active; 'I' for Inactive)
ROOT
ATOM      1  C4' PXY d   1       0.265  -1.495   2.117  0.00  0.00     0.077 C 
ATOM      2  C1' PXY d   1       5.851  -0.825   3.446  0.00  0.00     0.077 C 
ATOM      3  C1  PXY d   1       4.384  -1.008   3.108  0.00  0.00    -0.082 A 
ATOM      4  C2  PXY d   1       3.985  -0.908   1.850  0.00  0.00     0.003 A 
ATOM      5  C3  PXY d   1       2.658  -1.038   1.531  0.00  0.00     0.003 A 
ATOM      6  C4  PXY d   1       1.737  -1.327   2.503  0.00  0.00    -0.082 A 
ATOM      7  C5  PXY d   1       2.138  -1.441   3.787  0.00  0.00     0.003 A 
ATOM      8  C6  PXY d   1       3.483  -1.264   4.095  0.00  0.00     0.003 A 
ENDROOT
TORSDOF 0
ENDMDL
