MODEL 1
REMARK minimizedAffinity 1.53189433
REMARK minimizedRMSD -1
REMARK  0 active torsions:
REMARK  status: ('A' for Active; 'I' for Inactive)
ROOT
ATOM      1  C4' PXY d   1      -2.003  -5.997  -5.060  0.00  0.00     0.077 C 
ATOM      2  C1' PXY d   1       3.731  -5.450  -4.571  0.00  0.00     0.077 C 
ATOM      3  C1  PXY d   1       2.227  -5.596  -4.687  0.00  0.00    -0.082 A 
ATOM      4  C2  PXY d   1       1.686  -5.891  -5.858  0.00  0.00     0.003 A 
ATOM      5  C3  PXY d   1       0.325  -5.996  -5.987  0.00  0.00     0.003 A 
ATOM      6  C4  PXY d   1      -0.488  -5.849  -4.895  0.00  0.00    -0.082 A 
ATOM      7  C5  PXY d   1       0.057  -5.558  -3.695  0.00  0.00     0.003 A 
ATOM      8  C6  PXY d   1       1.438  -5.416  -3.593  0.00  0.00     0.003 A 
ENDROOT
TORSDOF 0
ENDMDL
