MODEL 1
REMARK minimizedAffinity 1.23884571
REMARK minimizedRMSD -1
REMARK  0 active torsions:
REMARK  status: ('A' for Active; 'I' for Inactive)
ROOT
ATOM      1  C4' PXY d   1       3.772  -4.892  -4.520  0.00  0.00     0.077 C 
ATOM      2  C1' PXY d   1      -1.874  -5.997  -5.088  0.00  0.00     0.077 C 
ATOM      3  C1  PXY d   1      -0.395  -5.701  -4.927  0.00  0.00    -0.082 A 
ATOM      4  C2  PXY d   1       0.375  -5.615  -6.000  0.00  0.00     0.003 A 
ATOM      5  C3  PXY d   1       1.719  -5.380  -5.871  0.00  0.00     0.003 A 
ATOM      6  C4  PXY d   1       2.272  -5.179  -4.635  0.00  0.00    -0.082 A 
ATOM      7  C5  PXY d   1       1.491  -5.255  -3.536  0.00  0.00     0.003 A 
ATOM      8  C6  PXY d   1       0.136  -5.535  -3.686  0.00  0.00     0.003 A 
ENDROOT
TORSDOF 0
ENDMDL
