MODEL 1
REMARK minimizedAffinity 0.235197917
REMARK minimizedRMSD -1
REMARK  0 active torsions:
REMARK  status: ('A' for Active; 'I' for Inactive)
ROOT
ATOM      1  C4' PXY d   1       4.753  -1.119   2.621  0.00  0.00     0.077 C 
ATOM      2  C1' PXY d   1      -0.277  -0.068  -0.026  0.00  0.00     0.077 C 
ATOM      3  C1  PXY d   1       1.036  -0.341   0.680  0.00  0.00    -0.082 A 
ATOM      4  C2  PXY d   1       2.175  -0.197   0.021  0.00  0.00     0.003 A 
ATOM      5  C3  PXY d   1       3.370  -0.471   0.635  0.00  0.00     0.003 A 
ATOM      6  C4  PXY d   1       3.404  -0.845   1.951  0.00  0.00    -0.082 A 
ATOM      7  C5  PXY d   1       2.247  -0.984   2.633  0.00  0.00     0.003 A 
ATOM      8  C6  PXY d   1       1.042  -0.741   1.980  0.00  0.00     0.003 A 
ENDROOT
TORSDOF 0
ENDMDL
