MODEL 1
REMARK minimizedAffinity 6.07286692
REMARK minimizedRMSD -1
REMARK  0 active torsions:
REMARK  status: ('A' for Active; 'I' for Inactive)
ROOT
ATOM      1  C4' PXY d   1      -2.319  -4.103   0.563  0.00  0.00     0.077 C 
ATOM      2  C1' PXY d   1       1.356   0.307  -0.119  0.00  0.00     0.077 C 
ATOM      3  C1  PXY d   1       0.383  -0.841   0.065  0.00  0.00    -0.082 A 
ATOM      4  C2  PXY d   1       0.843  -2.077   0.177  0.00  0.00     0.003 A 
ATOM      5  C3  PXY d   1      -0.024  -3.130   0.312  0.00  0.00     0.003 A 
ATOM      6  C4  PXY d   1      -1.373  -2.912   0.385  0.00  0.00    -0.082 A 
ATOM      7  C5  PXY d   1      -1.850  -1.653   0.282  0.00  0.00     0.003 A 
ATOM      8  C6  PXY d   1      -0.955  -0.602   0.105  0.00  0.00     0.003 A 
ENDROOT
TORSDOF 0
ENDMDL
