MODEL 1
REMARK minimizedAffinity 4.14537621
REMARK minimizedRMSD -1
REMARK  0 active torsions:
REMARK  status: ('A' for Active; 'I' for Inactive)
ROOT
ATOM      1  C4' PXY d   1      -0.936   0.458  -0.105  0.00  0.00     0.077 C 
ATOM      2  C1' PXY d   1       4.069  -1.316   2.179  0.00  0.00     0.077 C 
ATOM      3  C1  PXY d   1       2.763  -0.842   1.573  0.00  0.00    -0.082 A 
ATOM      4  C2  PXY d   1       1.635  -0.992   2.249  0.00  0.00     0.003 A 
ATOM      5  C3  PXY d   1       0.441  -0.598   1.702  0.00  0.00     0.003 A 
ATOM      6  C4  PXY d   1       0.407   0.003   0.473  0.00  0.00    -0.082 A 
ATOM      7  C5  PXY d   1       1.554   0.169  -0.219  0.00  0.00     0.003 A 
ATOM      8  C6  PXY d   1       2.751  -0.275   0.336  0.00  0.00     0.003 A 
ENDROOT
TORSDOF 0
ENDMDL
