MODEL 1
REMARK minimizedAffinity 5.1213603
REMARK minimizedRMSD -1
REMARK  0 active torsions:
REMARK  status: ('A' for Active; 'I' for Inactive)
ROOT
ATOM      1  C4' PXY d   1       5.123  -1.055   3.901  0.00  0.00     0.077 C 
ATOM      2  C1' PXY d   1       1.072  -0.862  -0.219  0.00  0.00     0.077 C 
ATOM      3  C1  PXY d   1       2.126  -0.907   0.870  0.00  0.00    -0.082 A 
ATOM      4  C2  PXY d   1       3.406  -0.958   0.540  0.00  0.00     0.003 A 
ATOM      5  C3  PXY d   1       4.371  -1.032   1.511  0.00  0.00     0.003 A 
ATOM      6  C4  PXY d   1       4.025  -0.999   2.835  0.00  0.00    -0.082 A 
ATOM      7  C5  PXY d   1       2.721  -0.935   3.181  0.00  0.00     0.003 A 
ATOM      8  C6  PXY d   1       1.755  -0.903   2.179  0.00  0.00     0.003 A 
ENDROOT
TORSDOF 0
ENDMDL
