MODEL 1
REMARK minimizedAffinity 10.1226635
REMARK minimizedRMSD -1
REMARK  0 active torsions:
REMARK  status: ('A' for Active; 'I' for Inactive)
ROOT
ATOM      1  C4' PXY d   1       4.133   3.731  -0.568  0.00  0.00     0.077 C 
ATOM      2  C1' PXY d   1      -0.705   0.684   0.282  0.00  0.00     0.077 C 
ATOM      3  C1  PXY d   1       0.556   1.493   0.055  0.00  0.00    -0.082 A 
ATOM      4  C2  PXY d   1       1.709   0.870  -0.131  0.00  0.00     0.003 A 
ATOM      5  C3  PXY d   1       2.864   1.586  -0.306  0.00  0.00     0.003 A 
ATOM      6  C4  PXY d   1       2.832   2.954  -0.344  0.00  0.00    -0.082 A 
ATOM      7  C5  PXY d   1       1.659   3.598  -0.166  0.00  0.00     0.003 A 
ATOM      8  C6  PXY d   1       0.503   2.852   0.051  0.00  0.00     0.003 A 
ENDROOT
TORSDOF 0
ENDMDL
