MODEL 1
REMARK minimizedAffinity 5.79014397
REMARK minimizedRMSD -1
REMARK  0 active torsions:
REMARK  status: ('A' for Active; 'I' for Inactive)
ROOT
ATOM      1  C4' PXY d   1       0.025   0.031   0.374  0.00  0.00     0.077 C 
ATOM      2  C1' PXY d   1      -2.452  -5.117  -0.504  0.00  0.00     0.077 C 
ATOM      3  C1  PXY d   1      -1.791  -3.773  -0.274  0.00  0.00    -0.082 A 
ATOM      4  C2  PXY d   1      -2.469  -2.802   0.316  0.00  0.00     0.003 A 
ATOM      5  C3  PXY d   1      -1.897  -1.570   0.503  0.00  0.00     0.003 A 
ATOM      6  C4  PXY d   1      -0.599  -1.345   0.130  0.00  0.00    -0.082 A 
ATOM      7  C5  PXY d   1       0.103  -2.334  -0.463  0.00  0.00     0.003 A 
ATOM      8  C6  PXY d   1      -0.509  -3.564  -0.681  0.00  0.00     0.003 A 
ENDROOT
TORSDOF 0
ENDMDL
