MODEL 1
REMARK minimizedAffinity 6.03655148
REMARK minimizedRMSD -1
REMARK  0 active torsions:
REMARK  status: ('A' for Active; 'I' for Inactive)
ROOT
ATOM      1  C4' PXY d   1      -2.467  -4.432   0.422  0.00  0.00     0.077 C 
ATOM      2  C1' PXY d   1       1.291  -0.073  -0.118  0.00  0.00     0.077 C 
ATOM      3  C1  PXY d   1       0.299  -1.210   0.033  0.00  0.00    -0.082 A 
ATOM      4  C2  PXY d   1       0.628  -2.424  -0.378  0.00  0.00     0.003 A 
ATOM      5  C3  PXY d   1      -0.268  -3.456  -0.278  0.00  0.00     0.003 A 
ATOM      6  C4  PXY d   1      -1.494  -3.256   0.298  0.00  0.00    -0.082 A 
ATOM      7  C5  PXY d   1      -1.833  -2.023   0.730  0.00  0.00     0.003 A 
ATOM      8  C6  PXY d   1      -0.925  -0.979   0.581  0.00  0.00     0.003 A 
ENDROOT
TORSDOF 0
ENDMDL
