MODEL 1
REMARK minimizedAffinity 0.773319781
REMARK minimizedRMSD -1
REMARK  0 active torsions:
REMARK  status: ('A' for Active; 'I' for Inactive)
ROOT
ATOM      1  C4' PXY d   1      -4.281   0.470  -3.024  0.00  0.00     0.077 C 
ATOM      2  C1' PXY d   1      -0.057   4.180  -4.370  0.00  0.00     0.077 C 
ATOM      3  C1  PXY d   1      -1.156   3.197  -4.017  0.00  0.00    -0.082 A 
ATOM      4  C2  PXY d   1      -2.412   3.483  -4.320  0.00  0.00     0.003 A 
ATOM      5  C3  PXY d   1      -3.422   2.621  -3.979  0.00  0.00     0.003 A 
ATOM      6  C4  PXY d   1      -3.137   1.428  -3.370  0.00  0.00    -0.082 A 
ATOM      7  C5  PXY d   1      -1.858   1.124  -3.067  0.00  0.00     0.003 A 
ATOM      8  C6  PXY d   1      -0.852   2.032  -3.384  0.00  0.00     0.003 A 
ENDROOT
TORSDOF 0
ENDMDL
