MODEL 1
REMARK minimizedAffinity 1.8577956
REMARK minimizedRMSD -1
REMARK  0 active torsions:
REMARK  status: ('A' for Active; 'I' for Inactive)
ROOT
ATOM      1  C4' PXY d   1      -3.049  -4.946  -4.457  0.00  0.00     0.077 C 
ATOM      2  C1' PXY d   1       2.613  -5.382  -5.533  0.00  0.00     0.077 C 
ATOM      3  C1  PXY d   1       1.126  -5.272  -5.263  0.00  0.00    -0.082 A 
ATOM      4  C2  PXY d   1       0.693  -4.470  -4.303  0.00  0.00     0.003 A 
ATOM      5  C3  PXY d   1      -0.647  -4.383  -4.025  0.00  0.00     0.003 A 
ATOM      6  C4  PXY d   1      -1.557  -5.082  -4.771  0.00  0.00    -0.082 A 
ATOM      7  C5  PXY d   1      -1.124  -5.893  -5.759  0.00  0.00     0.003 A 
ATOM      8  C6  PXY d   1       0.243  -6.000  -5.999  0.00  0.00     0.003 A 
ENDROOT
TORSDOF 0
ENDMDL
