MODEL 1
REMARK minimizedAffinity 10.7571545
REMARK minimizedRMSD -1
REMARK  0 active torsions:
REMARK  status: ('A' for Active; 'I' for Inactive)
ROOT
ATOM      1  C4' PXY d   1       2.987  -1.748   3.685  0.00  0.00     0.077 C 
ATOM      2  C1' PXY d   1       0.971  -0.176  -1.499  0.00  0.00     0.077 C 
ATOM      3  C1  PXY d   1       1.509  -0.595  -0.146  0.00  0.00    -0.082 A 
ATOM      4  C2  PXY d   1       0.699  -0.622   0.900  0.00  0.00     0.003 A 
ATOM      5  C3  PXY d   1       1.177  -0.967   2.138  0.00  0.00     0.003 A 
ATOM      6  C4  PXY d   1       2.485  -1.340   2.297  0.00  0.00    -0.082 A 
ATOM      7  C5  PXY d   1       3.315  -1.325   1.233  0.00  0.00     0.003 A 
ATOM      8  C6  PXY d   1       2.820  -0.932  -0.007  0.00  0.00     0.003 A 
ENDROOT
TORSDOF 0
ENDMDL
