MODEL 1
REMARK minimizedAffinity 7.93583727
REMARK minimizedRMSD -1
REMARK  0 active torsions:
REMARK  status: ('A' for Active; 'I' for Inactive)
ROOT
ATOM      1  C4' PXY d   1       1.877   0.033  -1.292  0.00  0.00     0.077 C 
ATOM      2  C1' PXY d   1       3.617  -1.580   3.979  0.00  0.00     0.077 C 
ATOM      3  C1  PXY d   1       3.150  -1.163   2.599  0.00  0.00    -0.082 A 
ATOM      4  C2  PXY d   1       4.042  -0.886   1.662  0.00  0.00     0.003 A 
ATOM      5  C3  PXY d   1       3.636  -0.476   0.417  0.00  0.00     0.003 A 
ATOM      6  C4  PXY d   1       2.303  -0.401   0.113  0.00  0.00    -0.082 A 
ATOM      7  C5  PXY d   1       1.387  -0.692   1.060  0.00  0.00     0.003 A 
ATOM      8  C6  PXY d   1       1.819  -1.066   2.330  0.00  0.00     0.003 A 
ENDROOT
TORSDOF 0
ENDMDL
