MODEL 1
REMARK minimizedAffinity 1.34262168
REMARK minimizedRMSD -1
REMARK  0 active torsions:
REMARK  status: ('A' for Active; 'I' for Inactive)
ROOT
ATOM      1  C4' PXY d   1      -1.902  -5.989  -4.902  0.00  0.00     0.077 C 
ATOM      2  C1' PXY d   1       3.800  -5.037  -4.950  0.00  0.00     0.077 C 
ATOM      3  C1  PXY d   1       2.305  -5.288  -4.924  0.00  0.00    -0.082 A 
ATOM      4  C2  PXY d   1       1.707  -5.787  -5.994  0.00  0.00     0.003 A 
ATOM      5  C3  PXY d   1       0.351  -5.990  -5.999  0.00  0.00     0.003 A 
ATOM      6  C4  PXY d   1      -0.393  -5.729  -4.880  0.00  0.00    -0.082 A 
ATOM      7  C5  PXY d   1       0.212  -5.230  -3.781  0.00  0.00     0.003 A 
ATOM      8  C6  PXY d   1       1.583  -4.992  -3.810  0.00  0.00     0.003 A 
ENDROOT
TORSDOF 0
ENDMDL
