MODEL 1
REMARK minimizedAffinity -3.367383
REMARK minimizedRMSD -1
REMARK  0 active torsions:
REMARK  status: ('A' for Active; 'I' for Inactive)
ROOT
ATOM      1  C4' PXY d   1      -4.499  -5.999  -2.576  0.00  0.00     0.077 C 
ATOM      2  C1' PXY d   1      -2.886  -5.973   2.975  0.00  0.00     0.077 C 
ATOM      3  C1  PXY d   1      -3.320  -5.985   1.522  0.00  0.00    -0.082 A 
ATOM      4  C2  PXY d   1      -2.406  -5.992   0.566  0.00  0.00     0.003 A 
ATOM      5  C3  PXY d   1      -2.781  -5.971  -0.753  0.00  0.00     0.003 A 
ATOM      6  C4  PXY d   1      -4.106  -5.996  -1.096  0.00  0.00    -0.082 A 
ATOM      7  C5  PXY d   1      -5.045  -6.000  -0.126  0.00  0.00     0.003 A 
ATOM      8  C6  PXY d   1      -4.644  -5.979   1.206  0.00  0.00     0.003 A 
ENDROOT
TORSDOF 0
ENDMDL
