MODEL 1
REMARK minimizedAffinity -1.73434877
REMARK minimizedRMSD -1
REMARK  0 active torsions:
REMARK  status: ('A' for Active; 'I' for Inactive)
ROOT
ATOM      1  C4' PXY d   1       1.507  -5.949  -5.916  0.00  0.00     0.077 C 
ATOM      2  C1' PXY d   1      -3.242  -6.000  -2.621  0.00  0.00     0.077 C 
ATOM      3  C1  PXY d   1      -2.003  -5.992  -3.495  0.00  0.00    -0.082 A 
ATOM      4  C2  PXY d   1      -0.806  -5.997  -2.933  0.00  0.00     0.003 A 
ATOM      5  C3  PXY d   1       0.325  -5.958  -3.707  0.00  0.00     0.003 A 
ATOM      6  C4  PXY d   1       0.229  -5.967  -5.073  0.00  0.00    -0.082 A 
ATOM      7  C5  PXY d   1      -0.989  -5.972  -5.655  0.00  0.00     0.003 A 
ATOM      8  C6  PXY d   1      -2.125  -5.970  -4.850  0.00  0.00     0.003 A 
ENDROOT
TORSDOF 0
ENDMDL
