MODEL 1
REMARK minimizedAffinity -4.54908276
REMARK minimizedRMSD -1
REMARK  1 active torsions:
REMARK  status: ('A' for Active; 'I' for Inactive)
REMARK    1  A    between atoms: N_2  and  C1_3 
ROOT
ATOM      1  C1  UNL d   1      -0.018   0.988  -0.250  0.00  0.00     0.143 A 
ATOM      2  C2  UNL d   1       0.072   0.901   1.143  0.00  0.00    -0.057 A 
ATOM      3  C3  UNL d   1      -0.270   1.983   1.962  0.00  0.00     0.033 A 
ATOM      4  C4  UNL d   1      -0.682   3.186   1.399  0.00  0.00    -0.042 A 
ATOM      5  C5  UNL d   1      -0.756   3.304   0.015  0.00  0.00     0.033 A 
ATOM      6  C6  UNL d   1      -0.419   2.217  -0.797  0.00  0.00    -0.057 A 
ENDROOT
BRANCH   1   7
ATOM      7  N   UNL d   1       0.401  -0.020  -1.122  0.00  0.00    -0.732 N 
ATOM      8  C   UNL d   1       0.126  -1.410  -0.828  0.00  0.00     0.284 C 
ATOM      9  H3  UNL d   1       0.271   0.232  -2.099  0.00  0.00     0.395 HD
ENDBRANCH   1   7
TORSDOF 1
ENDMDL
