MODEL 1
REMARK minimizedAffinity -3.83202672
REMARK minimizedRMSD -1
REMARK  1 active torsions:
REMARK  status: ('A' for Active; 'I' for Inactive)
REMARK    1  A    between atoms: N_2  and  C1_3 
ROOT
ATOM      1  C1  UNL d   1       0.429  -0.519  -0.472  0.00  0.00     0.143 A 
ATOM      2  C2  UNL d   1      -0.522   0.502  -0.381  0.00  0.00    -0.057 A 
ATOM      3  C3  UNL d   1      -0.751   1.176   0.825  0.00  0.00     0.033 A 
ATOM      4  C4  UNL d   1      -0.049   0.819   1.972  0.00  0.00    -0.042 A 
ATOM      5  C5  UNL d   1       0.883  -0.210   1.911  0.00  0.00     0.033 A 
ATOM      6  C6  UNL d   1       1.111  -0.875   0.702  0.00  0.00    -0.057 A 
ENDROOT
BRANCH   1   7
ATOM      7  N   UNL d   1       0.632  -1.293  -1.618  0.00  0.00    -0.732 N 
ATOM      8  C   UNL d   1       0.570  -2.737  -1.552  0.00  0.00     0.284 C 
ATOM      9  H3  UNL d   1       0.184  -0.895  -2.440  0.00  0.00     0.395 HD
ENDBRANCH   1   7
TORSDOF 1
ENDMDL
