MODEL 1
REMARK minimizedAffinity -4.91159534
REMARK minimizedRMSD -1
REMARK  1 active torsions:
REMARK  status: ('A' for Active; 'I' for Inactive)
REMARK    1  A    between atoms: N_2  and  C1_3 
ROOT
ATOM      1  C1  UNL d   1      -0.236   1.192   1.360  0.00  0.00     0.143 A 
ATOM      2  C2  UNL d   1       0.508   1.960   2.262  0.00  0.00    -0.057 A 
ATOM      3  C3  UNL d   1       0.552   3.356   2.164  0.00  0.00     0.033 A 
ATOM      4  C4  UNL d   1      -0.126   4.009   1.140  0.00  0.00    -0.042 A 
ATOM      5  C5  UNL d   1      -0.851   3.264   0.216  0.00  0.00     0.033 A 
ATOM      6  C6  UNL d   1      -0.897   1.871   0.324  0.00  0.00    -0.057 A 
ENDROOT
BRANCH   1   7
ATOM      7  N   UNL d   1      -0.240  -0.205   1.345  0.00  0.00    -0.732 N 
ATOM      8  C   UNL d   1       0.197  -0.931   0.173  0.00  0.00     0.284 C 
ATOM      9  H3  UNL d   1       0.081  -0.603   2.225  0.00  0.00     0.395 HD
ENDBRANCH   1   7
TORSDOF 1
ENDMDL
