MODEL 1
REMARK minimizedAffinity -3.70174646
REMARK minimizedRMSD -1
REMARK  1 active torsions:
REMARK  status: ('A' for Active; 'I' for Inactive)
REMARK    1  A    between atoms: N_2  and  C1_3 
ROOT
ATOM      1  C1  UNL d   1       0.728  -0.400   0.332  0.00  0.00     0.143 A 
ATOM      2  C2  UNL d   1       0.022   0.805   0.403  0.00  0.00    -0.057 A 
ATOM      3  C3  UNL d   1      -0.315   1.378   1.636  0.00  0.00     0.033 A 
ATOM      4  C4  UNL d   1       0.024   0.737   2.823  0.00  0.00    -0.042 A 
ATOM      5  C5  UNL d   1       0.704  -0.475   2.776  0.00  0.00     0.033 A 
ATOM      6  C6  UNL d   1       1.044  -1.038   1.542  0.00  0.00    -0.057 A 
ENDROOT
BRANCH   1   7
ATOM      7  N   UNL d   1       1.006  -1.070  -0.862  0.00  0.00    -0.732 N 
ATOM      8  C   UNL d   1       0.691  -2.474  -1.010  0.00  0.00     0.284 C 
ATOM      9  H3  UNL d   1       0.791  -0.507  -1.682  0.00  0.00     0.395 HD
ENDBRANCH   1   7
TORSDOF 1
ENDMDL
