MODEL 1
REMARK minimizedAffinity -3.15486741
REMARK minimizedRMSD -1
REMARK  1 active torsions:
REMARK  status: ('A' for Active; 'I' for Inactive)
REMARK    1  A    between atoms: N_2  and  C1_3 
ROOT
ATOM      1  C1  UNL d   1       0.160   0.230  -0.009  0.00  0.00     0.143 A 
ATOM      2  C2  UNL d   1      -0.758   0.988  -0.743  0.00  0.00    -0.057 A 
ATOM      3  C3  UNL d   1      -1.473   2.036  -0.151  0.00  0.00     0.033 A 
ATOM      4  C4  UNL d   1      -1.303   2.326   1.199  0.00  0.00    -0.042 A 
ATOM      5  C5  UNL d   1      -0.414   1.570   1.954  0.00  0.00     0.033 A 
ATOM      6  C6  UNL d   1       0.302   0.529   1.355  0.00  0.00    -0.057 A 
ENDROOT
BRANCH   1   7
ATOM      7  N   UNL d   1       0.829  -0.887  -0.516  0.00  0.00    -0.732 N 
ATOM      8  C   UNL d   1       0.097  -2.079  -0.885  0.00  0.00     0.284 C 
ATOM      9  H3  UNL d   1       1.568  -0.634  -1.169  0.00  0.00     0.395 HD
ENDBRANCH   1   7
TORSDOF 1
ENDMDL
