MODEL 1
REMARK minimizedAffinity 2.71605897
REMARK minimizedRMSD -1
REMARK  3 active torsions:
REMARK  status: ('A' for Active; 'I' for Inactive)
REMARK    1  A    between atoms: C3'_2  and  C2'_3 
REMARK    2  A    between atoms: C2'_3  and  C1'_4 
REMARK    3  A    between atoms: C1'_4  and  C1_5 
ROOT
ATOM      1  C1  N4B d   1       1.133   2.235  -0.953  0.00  0.00    -0.075 A 
ATOM      2  C2  N4B d   1       0.652   1.307  -0.003  0.00  0.00     0.002 A 
ATOM      3  C3  N4B d   1       1.112   0.013  -0.015  0.00  0.00     0.002 A 
ATOM      4  C4  N4B d   1       2.035  -0.379  -0.973  0.00  0.00    -0.004 A 
ATOM      5  C5  N4B d   1       2.513   0.531  -1.871  0.00  0.00     0.002 A 
ATOM      6  C6  N4B d   1       2.062   1.835  -1.869  0.00  0.00     0.002 A 
ENDROOT
BRANCH   1   7
ATOM      7  C1' N4B d   1       0.596   3.638  -1.035  0.00  0.00     0.057 C 
BRANCH   7   8
ATOM      8  C2' N4B d   1       1.268   4.495   0.034  0.00  0.00     0.009 C 
BRANCH   8   9
ATOM      9  C3' N4B d   1       1.522   5.912  -0.451  0.00  0.00     0.004 C 
ATOM     10  C4' N4B d   1       2.668   6.000  -1.414  0.00  0.00     0.003 C 
ENDBRANCH   8   9
ENDBRANCH   7   8
ENDBRANCH   1   7
TORSDOF 3
ENDMDL
