MODEL 1
REMARK minimizedAffinity -1.61422074
REMARK minimizedRMSD -1
REMARK  3 active torsions:
REMARK  status: ('A' for Active; 'I' for Inactive)
REMARK    1  A    between atoms: C3'_2  and  C2'_3 
REMARK    2  A    between atoms: C2'_3  and  C1'_4 
REMARK    3  A    between atoms: C1'_4  and  C1_5 
ROOT
ATOM      1  C1  N4B d   1       1.120   2.105  -0.840  0.00  0.00    -0.075 A 
ATOM      2  C2  N4B d   1       0.324   1.048  -1.334  0.00  0.00     0.002 A 
ATOM      3  C3  N4B d   1       0.413  -0.200  -0.768  0.00  0.00     0.002 A 
ATOM      4  C4  N4B d   1       1.301  -0.418   0.275  0.00  0.00    -0.004 A 
ATOM      5  C5  N4B d   1       2.047   0.614   0.763  0.00  0.00     0.002 A 
ATOM      6  C6  N4B d   1       1.965   1.875   0.206  0.00  0.00     0.002 A 
ENDROOT
BRANCH   1   7
ATOM      7  C1' N4B d   1       1.120   3.466  -1.483  0.00  0.00     0.057 C 
BRANCH   7   8
ATOM      8  C2' N4B d   1       1.499   4.512  -0.439  0.00  0.00     0.009 C 
BRANCH   8   9
ATOM      9  C3' N4B d   1       1.857   5.845  -1.074  0.00  0.00     0.004 C 
ATOM     10  C4' N4B d   1       3.331   6.000  -1.307  0.00  0.00     0.003 C 
ENDBRANCH   8   9
ENDBRANCH   7   8
ENDBRANCH   1   7
TORSDOF 3
ENDMDL
