MODEL 1
REMARK minimizedAffinity -0.151676387
REMARK minimizedRMSD -1
REMARK  3 active torsions:
REMARK  status: ('A' for Active; 'I' for Inactive)
REMARK    1  A    between atoms: C3'_2  and  C2'_3 
REMARK    2  A    between atoms: C2'_3  and  C1'_4 
REMARK    3  A    between atoms: C1'_4  and  C1_5 
ROOT
ATOM      1  C1  N4B d   1       1.311   2.249  -0.752  0.00  0.00    -0.075 A 
ATOM      2  C2  N4B d   1       0.749   1.232  -1.554  0.00  0.00     0.002 A 
ATOM      3  C3  N4B d   1       0.767  -0.072  -1.124  0.00  0.00     0.002 A 
ATOM      4  C4  N4B d   1       1.356  -0.384   0.092  0.00  0.00    -0.004 A 
ATOM      5  C5  N4B d   1       1.874   0.607   0.873  0.00  0.00     0.002 A 
ATOM      6  C6  N4B d   1       1.860   1.922   0.455  0.00  0.00     0.002 A 
ENDROOT
BRANCH   1   7
ATOM      7  C1' N4B d   1       1.392   3.676  -1.219  0.00  0.00     0.057 C 
BRANCH   7   8
ATOM      8  C2' N4B d   1       1.511   4.594  -0.006  0.00  0.00     0.009 C 
BRANCH   8   9
ATOM      9  C3' N4B d   1       1.960   5.993  -0.394  0.00  0.00     0.004 C 
ATOM     10  C4' N4B d   1       3.263   6.000  -1.136  0.00  0.00     0.003 C 
ENDBRANCH   8   9
ENDBRANCH   7   8
ENDBRANCH   1   7
TORSDOF 3
ENDMDL
