MODEL 1
REMARK minimizedAffinity 6.82239676
REMARK minimizedRMSD -1
REMARK  3 active torsions:
REMARK  status: ('A' for Active; 'I' for Inactive)
REMARK    1  A    between atoms: C3'_2  and  C2'_3 
REMARK    2  A    between atoms: C2'_3  and  C1'_4 
REMARK    3  A    between atoms: C1'_4  and  C1_5 
ROOT
ATOM      1  C1  N4B d   1      -0.870   2.624  -2.235  0.00  0.00    -0.075 A 
ATOM      2  C2  N4B d   1      -0.490   1.290  -1.969  0.00  0.00     0.002 A 
ATOM      3  C3  N4B d   1       0.776   1.015  -1.514  0.00  0.00     0.002 A 
ATOM      4  C4  N4B d   1       1.682   2.050  -1.338  0.00  0.00    -0.004 A 
ATOM      5  C5  N4B d   1       1.300   3.338  -1.573  0.00  0.00     0.002 A 
ATOM      6  C6  N4B d   1       0.029   3.630  -2.026  0.00  0.00     0.002 A 
ENDROOT
BRANCH   1   7
ATOM      7  C1' N4B d   1      -2.215   2.966  -2.814  0.00  0.00     0.057 C 
BRANCH   7   8
ATOM      8  C2' N4B d   1      -2.876   1.692  -3.331  0.00  0.00     0.009 C 
BRANCH   8   9
ATOM      9  C3' N4B d   1      -3.969   1.990  -4.344  0.00  0.00     0.004 C 
ATOM     10  C4' N4B d   1      -3.850   1.159  -5.587  0.00  0.00     0.003 C 
ENDBRANCH   8   9
ENDBRANCH   7   8
ENDBRANCH   1   7
TORSDOF 3
ENDMDL
