MODEL 1
REMARK minimizedAffinity -0.113691963
REMARK minimizedRMSD -1
REMARK  3 active torsions:
REMARK  status: ('A' for Active; 'I' for Inactive)
REMARK    1  A    between atoms: C3'_2  and  C2'_3 
REMARK    2  A    between atoms: C2'_3  and  C1'_4 
REMARK    3  A    between atoms: C1'_4  and  C1_5 
ROOT
ATOM      1  C1  N4B d   1       1.188   1.206  -0.634  0.00  0.00    -0.075 A 
ATOM      2  C2  N4B d   1       1.225   2.396   0.125  0.00  0.00     0.002 A 
ATOM      3  C3  N4B d   1       1.316   3.611  -0.508  0.00  0.00     0.002 A 
ATOM      4  C4  N4B d   1       1.390   3.660  -1.892  0.00  0.00    -0.004 A 
ATOM      5  C5  N4B d   1       1.328   2.507  -2.619  0.00  0.00     0.002 A 
ATOM      6  C6  N4B d   1       1.232   1.279  -1.996  0.00  0.00     0.002 A 
ENDROOT
BRANCH   1   7
ATOM      7  C1' N4B d   1       1.175  -0.151   0.016  0.00  0.00     0.057 C 
BRANCH   7   8
ATOM      8  C2' N4B d   1       2.135  -0.147   1.202  0.00  0.00     0.009 C 
BRANCH   8   9
ATOM      9  C3' N4B d   1       3.559  -0.467   0.781  0.00  0.00     0.004 C 
ATOM     10  C4' N4B d   1       3.837  -1.940   0.745  0.00  0.00     0.003 C 
ENDBRANCH   8   9
ENDBRANCH   7   8
ENDBRANCH   1   7
TORSDOF 3
ENDMDL
