MODEL 1
REMARK minimizedAffinity 3.59538341
REMARK minimizedRMSD -1
REMARK  3 active torsions:
REMARK  status: ('A' for Active; 'I' for Inactive)
REMARK    1  A    between atoms: C3'_2  and  C2'_3 
REMARK    2  A    between atoms: C2'_3  and  C1'_4 
REMARK    3  A    between atoms: C1'_4  and  C1_5 
ROOT
ATOM      1  C1  N4B d   1       1.590   2.955  -0.683  0.00  0.00    -0.075 A 
ATOM      2  C2  N4B d   1       1.692   4.346  -0.903  0.00  0.00     0.002 A 
ATOM      3  C3  N4B d   1       1.749   5.208   0.165  0.00  0.00     0.002 A 
ATOM      4  C4  N4B d   1       1.687   4.705   1.456  0.00  0.00    -0.004 A 
ATOM      5  C5  N4B d   1       1.615   3.359   1.660  0.00  0.00     0.002 A 
ATOM      6  C6  N4B d   1       1.560   2.480   0.596  0.00  0.00     0.002 A 
ENDROOT
BRANCH   1   7
ATOM      7  C1' N4B d   1       1.437   1.980  -1.818  0.00  0.00     0.057 C 
BRANCH   7   8
ATOM      8  C2' N4B d   1       1.746   0.573  -1.316  0.00  0.00     0.009 C 
BRANCH   8   9
ATOM      9  C3' N4B d   1       1.087  -0.494  -2.172  0.00  0.00     0.004 C 
ATOM     10  C4' N4B d   1       1.045  -1.834  -1.500  0.00  0.00     0.003 C 
ENDBRANCH   8   9
ENDBRANCH   7   8
ENDBRANCH   1   7
TORSDOF 3
ENDMDL
