MODEL 1
REMARK minimizedAffinity -2.99361801
REMARK minimizedRMSD -1
REMARK  3 active torsions:
REMARK  status: ('A' for Active; 'I' for Inactive)
REMARK    1  A    between atoms: C3'_2  and  C2'_3 
REMARK    2  A    between atoms: C2'_3  and  C1'_4 
REMARK    3  A    between atoms: C1'_4  and  C1_5 
ROOT
ATOM      1  C1  N4B d   1       1.238   3.268  -0.901  0.00  0.00    -0.075 A 
ATOM      2  C2  N4B d   1       1.356   4.094  -2.040  0.00  0.00     0.002 A 
ATOM      3  C3  N4B d   1       1.617   5.434  -1.892  0.00  0.00     0.002 A 
ATOM      4  C4  N4B d   1       1.743   5.972  -0.620  0.00  0.00    -0.004 A 
ATOM      5  C5  N4B d   1       1.652   5.163   0.474  0.00  0.00     0.002 A 
ATOM      6  C6  N4B d   1       1.395   3.814   0.341  0.00  0.00     0.002 A 
ENDROOT
BRANCH   1   7
ATOM      7  C1' N4B d   1       0.869   1.814  -1.009  0.00  0.00     0.057 C 
BRANCH   7   8
ATOM      8  C2' N4B d   1       1.150   1.125   0.324  0.00  0.00     0.009 C 
BRANCH   8   9
ATOM      9  C3' N4B d   1       1.017  -0.384   0.222  0.00  0.00     0.004 C 
ATOM     10  C4' N4B d   1       0.184  -0.817  -0.947  0.00  0.00     0.003 C 
ENDBRANCH   8   9
ENDBRANCH   7   8
ENDBRANCH   1   7
TORSDOF 3
ENDMDL
