MODEL 1
REMARK minimizedAffinity 0.28457728
REMARK minimizedRMSD -1
REMARK  3 active torsions:
REMARK  status: ('A' for Active; 'I' for Inactive)
REMARK    1  A    between atoms: C3'_2  and  C2'_3 
REMARK    2  A    between atoms: C2'_3  and  C1'_4 
REMARK    3  A    between atoms: C1'_4  and  C1_5 
ROOT
ATOM      1  C1  N4B d   1       1.502   2.676  -0.857  0.00  0.00    -0.075 A 
ATOM      2  C2  N4B d   1       1.340   2.794   0.541  0.00  0.00     0.002 A 
ATOM      3  C3  N4B d   1       1.487   4.017   1.148  0.00  0.00     0.002 A 
ATOM      4  C4  N4B d   1       1.814   5.127   0.383  0.00  0.00    -0.004 A 
ATOM      5  C5  N4B d   1       1.944   5.009  -0.970  0.00  0.00     0.002 A 
ATOM      6  C6  N4B d   1       1.794   3.787  -1.594  0.00  0.00     0.002 A 
ENDROOT
BRANCH   1   7
ATOM      7  C1' N4B d   1       1.435   1.344  -1.554  0.00  0.00     0.057 C 
BRANCH   7   8
ATOM      8  C2' N4B d   1       2.109   0.288  -0.683  0.00  0.00     0.009 C 
BRANCH   8   9
ATOM      9  C3' N4B d   1       3.528   0.681  -0.309  0.00  0.00     0.004 C 
ATOM     10  C4' N4B d   1       4.097  -0.171   0.785  0.00  0.00     0.003 C 
ENDBRANCH   8   9
ENDBRANCH   7   8
ENDBRANCH   1   7
TORSDOF 3
ENDMDL
