MODEL 1
REMARK minimizedAffinity 0.83990097
REMARK minimizedRMSD -1
REMARK  0 active torsions:
REMARK  status: ('A' for Active; 'I' for Inactive)
ROOT
ATOM      1  C   UNL d   1       4.854  -5.132   6.000  0.00  0.00     0.023 A 
ATOM      2  C1  UNL d   1       4.440  -5.999   4.988  0.00  0.00     0.003 A 
ATOM      3  C2  UNL d   1       3.652  -5.522   3.939  0.00  0.00     0.048 A 
ATOM      4  C3  UNL d   1       3.283  -4.178   3.906  0.00  0.00     0.023 A 
ATOM      5  C4  UNL d   1       3.696  -3.307   4.916  0.00  0.00     0.048 A 
ATOM      6  C5  UNL d   1       4.483  -3.788   5.964  0.00  0.00     0.003 A 
ATOM      7  I   UNL d   1       2.110  -3.466   2.345  0.00  0.00    -0.146 I 
ENDROOT
TORSDOF 0
ENDMDL
