MODEL 1
REMARK minimizedAffinity 0.235053137
REMARK minimizedRMSD -1
REMARK  0 active torsions:
REMARK  status: ('A' for Active; 'I' for Inactive)
ROOT
ATOM      1  C   UNL d   1       4.247  -4.993   5.999  0.00  0.00     0.023 A 
ATOM      2  C1  UNL d   1       3.751  -3.726   5.691  0.00  0.00     0.003 A 
ATOM      3  C2  UNL d   1       3.251  -3.462   4.414  0.00  0.00     0.048 A 
ATOM      4  C3  UNL d   1       3.248  -4.470   3.451  0.00  0.00     0.023 A 
ATOM      5  C4  UNL d   1       3.743  -5.739   3.754  0.00  0.00     0.048 A 
ATOM      6  C5  UNL d   1       4.243  -5.999   5.032  0.00  0.00     0.003 A 
ATOM      7  I   UNL d   1       2.504  -4.079   1.550  0.00  0.00    -0.146 I 
ENDROOT
TORSDOF 0
ENDMDL
