MODEL 1
REMARK minimizedAffinity 15.8287334
REMARK minimizedRMSD -1
REMARK  0 active torsions:
REMARK  status: ('A' for Active; 'I' for Inactive)
ROOT
ATOM      1  C   UNL d   1      -4.798  -2.698  -3.785  0.00  0.00     0.023 A 
ATOM      2  C1  UNL d   1      -5.383  -1.459  -4.049  0.00  0.00     0.003 A 
ATOM      3  C2  UNL d   1      -5.244  -0.411  -3.137  0.00  0.00     0.048 A 
ATOM      4  C3  UNL d   1      -4.517  -0.608  -1.963  0.00  0.00     0.023 A 
ATOM      5  C4  UNL d   1      -3.929  -1.845  -1.695  0.00  0.00     0.048 A 
ATOM      6  C5  UNL d   1      -4.072  -2.890  -2.610  0.00  0.00     0.003 A 
ATOM      7  I   UNL d   1      -4.308   0.951  -0.604  0.00  0.00    -0.146 I 
ENDROOT
TORSDOF 0
ENDMDL
