MODEL 1
REMARK minimizedAffinity 8.79352093
REMARK minimizedRMSD -1
REMARK  0 active torsions:
REMARK  status: ('A' for Active; 'I' for Inactive)
ROOT
ATOM      1  C   UNL d   1       1.106   1.188  -0.747  0.00  0.00     0.023 A 
ATOM      2  C1  UNL d   1       1.983   1.114   0.335  0.00  0.00     0.003 A 
ATOM      3  C2  UNL d   1       2.072  -0.061   1.084  0.00  0.00     0.048 A 
ATOM      4  C3  UNL d   1       1.282  -1.159   0.745  0.00  0.00     0.023 A 
ATOM      5  C4  UNL d   1       0.404  -1.090  -0.338  0.00  0.00     0.048 A 
ATOM      6  C5  UNL d   1       0.317   0.087  -1.083  0.00  0.00     0.003 A 
ATOM      7  I   UNL d   1       1.413  -2.909   1.858  0.00  0.00    -0.146 I 
ENDROOT
TORSDOF 0
ENDMDL
