MODEL 1
REMARK minimizedAffinity 13.1949863
REMARK minimizedRMSD -1
REMARK  1 active torsions:
REMARK  status: ('A' for Active; 'I' for Inactive)
REMARK    1  A    between atoms: N_2  and  C1_3 
ROOT
ATOM      1  C1  UNL d   1      -4.105   3.766  -4.942  0.00  0.00     0.143 A 
ATOM      2  C2  UNL d   1      -3.932   4.899  -4.140  0.00  0.00    -0.057 A 
ATOM      3  C3  UNL d   1      -4.790   6.000  -4.243  0.00  0.00     0.033 A 
ATOM      4  C4  UNL d   1      -5.824   5.999  -5.174  0.00  0.00    -0.042 A 
ATOM      5  C5  UNL d   1      -6.000   4.893  -5.999  0.00  0.00     0.033 A 
ATOM      6  C6  UNL d   1      -5.143   3.794  -5.887  0.00  0.00    -0.057 A 
ENDROOT
BRANCH   1   7
ATOM      7  N   UNL d   1      -3.226   2.680  -4.955  0.00  0.00    -0.732 N 
ATOM      8  C   UNL d   1      -2.050   2.674  -4.112  0.00  0.00     0.284 C 
ATOM      9  H3  UNL d   1      -3.712   1.787  -4.997  0.00  0.00     0.395 HD
ENDBRANCH   1   7
TORSDOF 1
ENDMDL
