MODEL 1
REMARK minimizedAffinity 6.78056955
REMARK minimizedRMSD -1
REMARK  1 active torsions:
REMARK  status: ('A' for Active; 'I' for Inactive)
REMARK    1  A    between atoms: N_2  and  C1_3 
ROOT
ATOM      1  C1  UNL d   1      -2.116  -0.953   5.494  0.00  0.00     0.143 A 
ATOM      2  C2  UNL d   1      -1.134  -1.814   5.997  0.00  0.00    -0.057 A 
ATOM      3  C3  UNL d   1      -1.003  -3.123   5.518  0.00  0.00     0.033 A 
ATOM      4  C4  UNL d   1      -1.873  -3.605   4.545  0.00  0.00    -0.042 A 
ATOM      5  C5  UNL d   1      -2.872  -2.775   4.050  0.00  0.00     0.033 A 
ATOM      6  C6  UNL d   1      -2.994  -1.466   4.527  0.00  0.00    -0.057 A 
ENDROOT
BRANCH   1   7
ATOM      7  N   UNL d   1      -2.360   0.327   5.999  0.00  0.00    -0.732 N 
ATOM      8  C   UNL d   1      -3.699   0.876   5.999  0.00  0.00     0.284 C 
ATOM      9  H3  UNL d   1      -1.833   0.516   6.849  0.00  0.00     0.395 HD
ENDBRANCH   1   7
TORSDOF 1
ENDMDL
