MODEL 1
REMARK minimizedAffinity 16.05583
REMARK minimizedRMSD -1
REMARK  1 active torsions:
REMARK  status: ('A' for Active; 'I' for Inactive)
REMARK    1  A    between atoms: N_2  and  C1_3 
ROOT
ATOM      1  C1  UNL d   1      -1.211  -3.528   0.700  0.00  0.00     0.143 A 
ATOM      2  C2  UNL d   1      -0.953  -2.623  -0.335  0.00  0.00    -0.057 A 
ATOM      3  C3  UNL d   1      -1.686  -1.437  -0.462  0.00  0.00     0.033 A 
ATOM      4  C4  UNL d   1      -2.713  -1.147   0.431  0.00  0.00    -0.042 A 
ATOM      5  C5  UNL d   1      -3.004  -2.044   1.452  0.00  0.00     0.033 A 
ATOM      6  C6  UNL d   1      -2.264  -3.224   1.578  0.00  0.00    -0.057 A 
ENDROOT
BRANCH   1   7
ATOM      7  N   UNL d   1      -0.584  -4.770   0.822  0.00  0.00    -0.732 N 
ATOM      8  C   UNL d   1      -1.149  -5.946   0.193  0.00  0.00     0.284 C 
ATOM      9  H3  UNL d   1       0.428  -4.704   0.745  0.00  0.00     0.395 HD
ENDBRANCH   1   7
TORSDOF 1
ENDMDL
