MODEL 1
REMARK minimizedAffinity 6.8828001
REMARK minimizedRMSD -1
REMARK  1 active torsions:
REMARK  status: ('A' for Active; 'I' for Inactive)
REMARK    1  A    between atoms: N_2  and  C1_3 
ROOT
ATOM      1  C1  UNL d   1      -1.059  -4.323   1.493  0.00  0.00     0.143 A 
ATOM      2  C2  UNL d   1      -1.455  -3.228   0.717  0.00  0.00    -0.057 A 
ATOM      3  C3  UNL d   1      -2.224  -2.193   1.263  0.00  0.00     0.033 A 
ATOM      4  C4  UNL d   1      -2.636  -2.249   2.590  0.00  0.00    -0.042 A 
ATOM      5  C5  UNL d   1      -2.275  -3.340   3.372  0.00  0.00     0.033 A 
ATOM      6  C6  UNL d   1      -1.502  -4.368   2.824  0.00  0.00    -0.057 A 
ENDROOT
BRANCH   1   7
ATOM      7  N   UNL d   1      -0.378  -5.432   0.983  0.00  0.00    -0.732 N 
ATOM      8  C   UNL d   1      -0.748  -6.000  -0.296  0.00  0.00     0.284 C 
ATOM      9  H3  UNL d   1       0.626  -5.376   1.138  0.00  0.00     0.395 HD
ENDBRANCH   1   7
TORSDOF 1
ENDMDL
