MODEL 1
REMARK minimizedAffinity 7.37043715
REMARK minimizedRMSD -1
REMARK  1 active torsions:
REMARK  status: ('A' for Active; 'I' for Inactive)
REMARK    1  A    between atoms: N_2  and  C1_3 
ROOT
ATOM      1  C1  UNL d   1      -2.396   2.489  -4.076  0.00  0.00     0.143 A 
ATOM      2  C2  UNL d   1      -1.011   2.289  -4.084  0.00  0.00    -0.057 A 
ATOM      3  C3  UNL d   1      -0.188   2.944  -5.008  0.00  0.00     0.033 A 
ATOM      4  C4  UNL d   1      -0.742   3.791  -5.963  0.00  0.00    -0.042 A 
ATOM      5  C5  UNL d   1      -2.118   3.985  -5.990  0.00  0.00     0.033 A 
ATOM      6  C6  UNL d   1      -2.934   3.333  -5.060  0.00  0.00    -0.057 A 
ENDROOT
BRANCH   1   7
ATOM      7  N   UNL d   1      -3.277   1.792  -3.246  0.00  0.00    -0.732 N 
ATOM      8  C   UNL d   1      -2.987   0.434  -2.838  0.00  0.00     0.284 C 
ATOM      9  H3  UNL d   1      -3.658   2.376  -2.505  0.00  0.00     0.395 HD
ENDBRANCH   1   7
TORSDOF 1
ENDMDL
