MODEL 1
REMARK minimizedAffinity 9.26260853
REMARK minimizedRMSD -1
REMARK  1 active torsions:
REMARK  status: ('A' for Active; 'I' for Inactive)
REMARK    1  A    between atoms: N_2  and  C1_3 
ROOT
ATOM      1  C1  UNL d   1      -1.290  -0.885  -2.245  0.00  0.00     0.143 A 
ATOM      2  C2  UNL d   1      -2.357  -0.012  -2.479  0.00  0.00    -0.057 A 
ATOM      3  C3  UNL d   1      -3.485  -0.004  -1.648  0.00  0.00     0.033 A 
ATOM      4  C4  UNL d   1      -3.577  -0.893  -0.582  0.00  0.00    -0.042 A 
ATOM      5  C5  UNL d   1      -2.539  -1.787  -0.346  0.00  0.00     0.033 A 
ATOM      6  C6  UNL d   1      -1.413  -1.785  -1.175  0.00  0.00    -0.057 A 
ENDROOT
BRANCH   1   7
ATOM      7  N   UNL d   1      -0.186  -1.009  -3.092  0.00  0.00    -0.732 N 
ATOM      8  C   UNL d   1       1.004  -0.215  -2.873  0.00  0.00     0.284 C 
ATOM      9  H3  UNL d   1       0.000  -1.976  -3.348  0.00  0.00     0.395 HD
ENDBRANCH   1   7
TORSDOF 1
ENDMDL
