MODEL 1
REMARK minimizedAffinity 19.1685658
REMARK minimizedRMSD -1
REMARK  1 active torsions:
REMARK  status: ('A' for Active; 'I' for Inactive)
REMARK    1  A    between atoms: N_2  and  C1_3 
ROOT
ATOM      1  C1  UNL d   1      -4.545   5.366  -3.574  0.00  0.00     0.143 A 
ATOM      2  C2  UNL d   1      -4.037   4.148  -4.036  0.00  0.00    -0.057 A 
ATOM      3  C3  UNL d   1      -4.478   3.586  -5.240  0.00  0.00     0.033 A 
ATOM      4  C4  UNL d   1      -5.461   4.222  -5.992  0.00  0.00    -0.042 A 
ATOM      5  C5  UNL d   1      -5.999   5.422  -5.540  0.00  0.00     0.033 A 
ATOM      6  C6  UNL d   1      -5.549   5.981  -4.340  0.00  0.00    -0.057 A 
ENDROOT
BRANCH   1   7
ATOM      7  N   UNL d   1      -4.218   5.927  -2.337  0.00  0.00    -0.732 N 
ATOM      8  C   UNL d   1      -4.534   5.233  -1.107  0.00  0.00     0.284 C 
ATOM      9  H3  UNL d   1      -3.302   6.370  -2.341  0.00  0.00     0.395 HD
ENDBRANCH   1   7
TORSDOF 1
ENDMDL
