MODEL 1
REMARK minimizedAffinity 7.06763268
REMARK minimizedRMSD -1
REMARK  1 active torsions:
REMARK  status: ('A' for Active; 'I' for Inactive)
REMARK    1  A    between atoms: N_2  and  C1_3 
ROOT
ATOM      1  C1  UNL d   1      -4.503   5.407  -1.442  0.00  0.00     0.143 A 
ATOM      2  C2  UNL d   1      -5.524   5.934  -0.644  0.00  0.00    -0.057 A 
ATOM      3  C3  UNL d   1      -6.000   5.243   0.477  0.00  0.00     0.033 A 
ATOM      4  C4  UNL d   1      -5.482   3.994   0.803  0.00  0.00    -0.042 A 
ATOM      5  C5  UNL d   1      -4.484   3.439   0.010  0.00  0.00     0.033 A 
ATOM      6  C6  UNL d   1      -4.007   4.137  -1.104  0.00  0.00    -0.057 A 
ENDROOT
BRANCH   1   7
ATOM      7  N   UNL d   1      -4.055   6.000  -2.625  0.00  0.00    -0.732 N 
ATOM      8  C   UNL d   1      -4.855   5.940  -3.829  0.00  0.00     0.284 C 
ATOM      9  H3  UNL d   1      -3.613   6.902  -2.464  0.00  0.00     0.395 HD
ENDBRANCH   1   7
TORSDOF 1
ENDMDL
