MODEL 1
REMARK minimizedAffinity 4.12478018
REMARK minimizedRMSD -1
REMARK  1 active torsions:
REMARK  status: ('A' for Active; 'I' for Inactive)
REMARK    1  A    between atoms: N_2  and  C1_3 
ROOT
ATOM      1  C1  UNL d   1      -3.515   0.892   5.899  0.00  0.00     0.143 A 
ATOM      2  C2  UNL d   1      -4.762   0.262   5.967  0.00  0.00    -0.057 A 
ATOM      3  C3  UNL d   1      -5.950   1.003   5.998  0.00  0.00     0.033 A 
ATOM      4  C4  UNL d   1      -5.910   2.393   5.990  0.00  0.00    -0.042 A 
ATOM      5  C5  UNL d   1      -4.680   3.042   5.948  0.00  0.00     0.033 A 
ATOM      6  C6  UNL d   1      -3.498   2.296   5.911  0.00  0.00    -0.057 A 
ENDROOT
BRANCH   1   7
ATOM      7  N   UNL d   1      -2.296   0.214   5.965  0.00  0.00    -0.732 N 
ATOM      8  C   UNL d   1      -2.246  -1.227   5.843  0.00  0.00     0.284 C 
ATOM      9  H3  UNL d   1      -1.553   0.699   5.466  0.00  0.00     0.395 HD
ENDBRANCH   1   7
TORSDOF 1
ENDMDL
