MODEL 1
REMARK minimizedAffinity 9.17296982
REMARK minimizedRMSD -1
REMARK  1 active torsions:
REMARK  status: ('A' for Active; 'I' for Inactive)
REMARK    1  A    between atoms: N_2  and  C1_3 
ROOT
ATOM      1  C1  UNL d   1      -1.036  -3.711  -0.235  0.00  0.00     0.143 A 
ATOM      2  C2  UNL d   1      -0.918  -2.802  -1.292  0.00  0.00    -0.057 A 
ATOM      3  C3  UNL d   1      -1.665  -1.618  -1.319  0.00  0.00     0.033 A 
ATOM      4  C4  UNL d   1      -2.568  -1.335  -0.299  0.00  0.00    -0.042 A 
ATOM      5  C5  UNL d   1      -2.720  -2.236   0.749  0.00  0.00     0.033 A 
ATOM      6  C6  UNL d   1      -1.966  -3.413   0.773  0.00  0.00    -0.057 A 
ENDROOT
BRANCH   1   7
ATOM      7  N   UNL d   1      -0.394  -4.951  -0.200  0.00  0.00    -0.732 N 
ATOM      8  C   UNL d   1      -0.766  -6.000  -1.126  0.00  0.00     0.284 C 
ATOM      9  H3  UNL d   1       0.609  -4.865  -0.050  0.00  0.00     0.395 HD
ENDBRANCH   1   7
TORSDOF 1
ENDMDL
