MODEL 1
REMARK minimizedAffinity 10.5246248
REMARK minimizedRMSD -1
REMARK  1 active torsions:
REMARK  status: ('A' for Active; 'I' for Inactive)
REMARK    1  A    between atoms: N_2  and  C1_3 
ROOT
ATOM      1  C1  UNL d   1      -3.058  -0.832   5.620  0.00  0.00     0.143 A 
ATOM      2  C2  UNL d   1      -2.387   0.385   5.787  0.00  0.00    -0.057 A 
ATOM      3  C3  UNL d   1      -3.089   1.579   5.989  0.00  0.00     0.033 A 
ATOM      4  C4  UNL d   1      -4.480   1.582   5.998  0.00  0.00    -0.042 A 
ATOM      5  C5  UNL d   1      -5.168   0.389   5.809  0.00  0.00     0.033 A 
ATOM      6  C6  UNL d   1      -4.461  -0.802   5.614  0.00  0.00    -0.057 A 
ENDROOT
BRANCH   1   7
ATOM      7  N   UNL d   1      -2.419  -2.037   5.317  0.00  0.00    -0.732 N 
ATOM      8  C   UNL d   1      -3.027  -2.985   4.408  0.00  0.00     0.284 C 
ATOM      9  H3  UNL d   1      -1.416  -1.924   5.190  0.00  0.00     0.395 HD
ENDBRANCH   1   7
TORSDOF 1
ENDMDL
