MODEL 1
REMARK minimizedAffinity -4.44287872
REMARK minimizedRMSD -1
REMARK  1 active torsions:
REMARK  status: ('A' for Active; 'I' for Inactive)
REMARK    1  A    between atoms: C3_4  and  O_7 
ROOT
ATOM      1  C   UNL d   1      -0.646  -0.698   0.411  0.00  0.00    -0.033 A 
ATOM      2  C1  UNL d   1      -1.490   0.359   0.757  0.00  0.00     0.039 A 
ATOM      3  C2  UNL d   1      -1.054   1.678   0.617  0.00  0.00    -0.080 A 
ATOM      4  C3  UNL d   1       0.226   1.926   0.130  0.00  0.00     0.150 A 
ATOM      5  C4  UNL d   1       1.071   0.878  -0.220  0.00  0.00    -0.007 A 
ATOM      6  C5  UNL d   1       0.635  -0.438  -0.079  0.00  0.00     0.039 A 
ENDROOT
BRANCH   4   7
ATOM      7  O   UNL d   1       0.697   3.197  -0.019  0.00  0.00    -0.526 OA
ATOM      8  H5  UNL d   1       0.015   3.816   0.289  0.00  0.00     0.418 HD
ENDBRANCH   4   7
TORSDOF 1
ENDMDL
