MODEL 1
REMARK minimizedAffinity -4.74895191
REMARK minimizedRMSD -1
REMARK  1 active torsions:
REMARK  status: ('A' for Active; 'I' for Inactive)
REMARK    1  A    between atoms: C3_4  and  O_7 
ROOT
ATOM      1  C   UNL d   1      -0.798  -0.215   0.498  0.00  0.00    -0.033 A 
ATOM      2  C1  UNL d   1      -1.598   0.835   0.953  0.00  0.00     0.039 A 
ATOM      3  C2  UNL d   1      -1.258   2.156   0.652  0.00  0.00    -0.080 A 
ATOM      4  C3  UNL d   1      -0.118   2.412  -0.105  0.00  0.00     0.150 A 
ATOM      5  C4  UNL d   1       0.681   1.371  -0.565  0.00  0.00    -0.007 A 
ATOM      6  C5  UNL d   1       0.341   0.053  -0.263  0.00  0.00     0.039 A 
ENDROOT
BRANCH   4   7
ATOM      7  O   UNL d   1       0.257   3.684  -0.420  0.00  0.00    -0.526 OA
ATOM      8  H5  UNL d   1      -0.373   4.301  -0.011  0.00  0.00     0.418 HD
ENDBRANCH   4   7
TORSDOF 1
ENDMDL
