MODEL 1
REMARK minimizedAffinity -4.82539272
REMARK minimizedRMSD -1
REMARK  1 active torsions:
REMARK  status: ('A' for Active; 'I' for Inactive)
REMARK    1  A    between atoms: C3_4  and  O_7 
ROOT
ATOM      1  C   UNL d   1       1.363  -0.412   0.456  0.00  0.00    -0.033 A 
ATOM      2  C1  UNL d   1      -0.031  -0.355   0.505  0.00  0.00     0.039 A 
ATOM      3  C2  UNL d   1      -0.682   0.880   0.487  0.00  0.00    -0.080 A 
ATOM      4  C3  UNL d   1       0.071   2.049   0.419  0.00  0.00     0.150 A 
ATOM      5  C4  UNL d   1       1.460   1.999   0.366  0.00  0.00    -0.007 A 
ATOM      6  C5  UNL d   1       2.109   0.765   0.386  0.00  0.00     0.039 A 
ENDROOT
BRANCH   4   7
ATOM      7  O   UNL d   1      -0.519   3.277   0.403  0.00  0.00    -0.526 OA
ATOM      8  H5  UNL d   1      -1.481   3.158   0.474  0.00  0.00     0.418 HD
ENDBRANCH   4   7
TORSDOF 1
ENDMDL
