MODEL 1
REMARK minimizedAffinity -4.16753054
REMARK minimizedRMSD -1
REMARK  1 active torsions:
REMARK  status: ('A' for Active; 'I' for Inactive)
REMARK    1  A    between atoms: C3_4  and  O_7 
ROOT
ATOM      1  C   UNL d   1      -0.776  -0.199   0.475  0.00  0.00    -0.033 A 
ATOM      2  C1  UNL d   1      -1.584   0.833   0.956  0.00  0.00     0.039 A 
ATOM      3  C2  UNL d   1      -1.249   2.164   0.697  0.00  0.00    -0.080 A 
ATOM      4  C3  UNL d   1      -0.106   2.448  -0.044  0.00  0.00     0.150 A 
ATOM      5  C4  UNL d   1       0.702   1.425  -0.529  0.00  0.00    -0.007 A 
ATOM      6  C5  UNL d   1       0.367   0.097  -0.268  0.00  0.00     0.039 A 
ENDROOT
BRANCH   4   7
ATOM      7  O   UNL d   1       0.265   3.731  -0.318  0.00  0.00    -0.526 OA
ATOM      8  H5  UNL d   1      -0.371   4.332   0.105  0.00  0.00     0.418 HD
ENDBRANCH   4   7
TORSDOF 1
ENDMDL
