MODEL 1
REMARK minimizedAffinity -4.28375673
REMARK minimizedRMSD -1
REMARK  1 active torsions:
REMARK  status: ('A' for Active; 'I' for Inactive)
REMARK    1  A    between atoms: C3_4  and  O_7 
ROOT
ATOM      1  C   UNL d   1      -0.110  -0.393   0.656  0.00  0.00    -0.033 A 
ATOM      2  C1  UNL d   1      -1.335   0.267   0.541  0.00  0.00     0.039 A 
ATOM      3  C2  UNL d   1      -1.376   1.602   0.134  0.00  0.00    -0.080 A 
ATOM      4  C3  UNL d   1      -0.187   2.265  -0.155  0.00  0.00     0.150 A 
ATOM      5  C4  UNL d   1       1.037   1.613  -0.047  0.00  0.00    -0.007 A 
ATOM      6  C5  UNL d   1       1.076   0.280   0.361  0.00  0.00     0.039 A 
ENDROOT
BRANCH   4   7
ATOM      7  O   UNL d   1      -0.176   3.569  -0.551  0.00  0.00    -0.526 OA
ATOM      8  H5  UNL d   1      -1.091   3.898  -0.554  0.00  0.00     0.418 HD
ENDBRANCH   4   7
TORSDOF 1
ENDMDL
