MODEL 1
REMARK minimizedAffinity -3.56373954
REMARK minimizedRMSD -1
REMARK  1 active torsions:
REMARK  status: ('A' for Active; 'I' for Inactive)
REMARK    1  A    between atoms: C3_4  and  O_7 
ROOT
ATOM      1  C   UNL d   1      -0.089   2.796   0.353  0.00  0.00    -0.033 A 
ATOM      2  C1  UNL d   1      -1.278   2.215   0.798  0.00  0.00     0.039 A 
ATOM      3  C2  UNL d   1      -1.469   0.837   0.682  0.00  0.00    -0.080 A 
ATOM      4  C3  UNL d   1      -0.465   0.052   0.121  0.00  0.00     0.150 A 
ATOM      5  C4  UNL d   1       0.723   0.624  -0.321  0.00  0.00    -0.007 A 
ATOM      6  C5  UNL d   1       0.912   2.000  -0.205  0.00  0.00     0.039 A 
ENDROOT
BRANCH   4   7
ATOM      7  O   UNL d   1      -0.609  -1.297  -0.017  0.00  0.00    -0.526 OA
ATOM      8  H5  UNL d   1      -1.491  -1.547   0.304  0.00  0.00     0.418 HD
ENDBRANCH   4   7
TORSDOF 1
ENDMDL
