MODEL 1
REMARK minimizedAffinity -4.02611876
REMARK minimizedRMSD -1
REMARK  1 active torsions:
REMARK  status: ('A' for Active; 'I' for Inactive)
REMARK    1  A    between atoms: C3_4  and  O_7 
ROOT
ATOM      1  C   UNL d   1      -0.348  -0.599   0.013  0.00  0.00    -0.033 A 
ATOM      2  C1  UNL d   1       0.824  -0.024  -0.481  0.00  0.00     0.039 A 
ATOM      3  C2  UNL d   1       0.937   1.364  -0.579  0.00  0.00    -0.080 A 
ATOM      4  C3  UNL d   1      -0.129   2.165  -0.178  0.00  0.00     0.150 A 
ATOM      5  C4  UNL d   1      -1.298   1.600   0.319  0.00  0.00    -0.007 A 
ATOM      6  C5  UNL d   1      -1.409   0.214   0.415  0.00  0.00     0.039 A 
ENDROOT
BRANCH   4   7
ATOM      7  O   UNL d   1      -0.067   3.525  -0.259  0.00  0.00    -0.526 OA
ATOM      8  H5  UNL d   1       0.788   3.772  -0.647  0.00  0.00     0.418 HD
ENDBRANCH   4   7
TORSDOF 1
ENDMDL
