MODEL 1
REMARK minimizedAffinity -2.59396744
REMARK minimizedRMSD -1
REMARK  1 active torsions:
REMARK  status: ('A' for Active; 'I' for Inactive)
REMARK    1  A    between atoms: C3_4  and  O_7 
ROOT
ATOM      1  C   UNL d   1       0.252   3.559   0.319  0.00  0.00    -0.033 A 
ATOM      2  C1  UNL d   1      -0.465   2.822   1.263  0.00  0.00     0.039 A 
ATOM      3  C2  UNL d   1      -0.700   1.461   1.058  0.00  0.00    -0.080 A 
ATOM      4  C3  UNL d   1      -0.212   0.850  -0.094  0.00  0.00     0.150 A 
ATOM      5  C4  UNL d   1       0.507   1.578  -1.037  0.00  0.00    -0.007 A 
ATOM      6  C5  UNL d   1       0.739   2.937  -0.830  0.00  0.00     0.039 A 
ENDROOT
BRANCH   4   7
ATOM      7  O   UNL d   1      -0.420  -0.475  -0.341  0.00  0.00    -0.526 OA
ATOM      8  H5  UNL d   1      -0.955  -0.842   0.382  0.00  0.00     0.418 HD
ENDBRANCH   4   7
TORSDOF 1
ENDMDL
