MODEL 1
REMARK minimizedAffinity -4.65015125
REMARK minimizedRMSD -1
REMARK  1 active torsions:
REMARK  status: ('A' for Active; 'I' for Inactive)
REMARK    1  A    between atoms: C3_4  and  O_7 
ROOT
ATOM      1  C   UNL d   1       0.349   0.086   0.395  0.00  0.00    -0.033 A 
ATOM      2  C1  UNL d   1      -0.969   0.540   0.323  0.00  0.00     0.039 A 
ATOM      3  C2  UNL d   1      -1.234   1.876   0.017  0.00  0.00    -0.080 A 
ATOM      4  C3  UNL d   1      -0.173   2.747  -0.215  0.00  0.00     0.150 A 
ATOM      5  C4  UNL d   1       1.143   2.301  -0.149  0.00  0.00    -0.007 A 
ATOM      6  C5  UNL d   1       1.405   0.967   0.158  0.00  0.00     0.039 A 
ENDROOT
BRANCH   4   7
ATOM      7  O   UNL d   1      -0.382   4.061  -0.512  0.00  0.00    -0.526 OA
ATOM      8  H5  UNL d   1      -1.338   4.232  -0.496  0.00  0.00     0.418 HD
ENDBRANCH   4   7
TORSDOF 1
ENDMDL
