MODEL 1
REMARK minimizedAffinity -3.64930773
REMARK minimizedRMSD -1
REMARK  1 active torsions:
REMARK  status: ('A' for Active; 'I' for Inactive)
REMARK    1  A    between atoms: C3_4  and  O_7 
ROOT
ATOM      1  C   UNL d   1      -0.755   2.646   0.602  0.00  0.00    -0.033 A 
ATOM      2  C1  UNL d   1       0.590   2.283   0.503  0.00  0.00     0.039 A 
ATOM      3  C2  UNL d   1       0.939   0.971   0.177  0.00  0.00    -0.080 A 
ATOM      4  C3  UNL d   1      -0.064   0.033  -0.048  0.00  0.00     0.150 A 
ATOM      5  C4  UNL d   1      -1.406   0.388   0.045  0.00  0.00    -0.007 A 
ATOM      6  C5  UNL d   1      -1.753   1.698   0.372  0.00  0.00     0.039 A 
ENDROOT
BRANCH   4   7
ATOM      7  O   UNL d   1       0.228  -1.261  -0.364  0.00  0.00    -0.526 OA
ATOM      8  H5  UNL d   1       1.194  -1.367  -0.365  0.00  0.00     0.418 HD
ENDBRANCH   4   7
TORSDOF 1
ENDMDL
