MODEL 1
REMARK minimizedAffinity -4.08221292
REMARK minimizedRMSD -1
REMARK  1 active torsions:
REMARK  status: ('A' for Active; 'I' for Inactive)
REMARK    1  A    between atoms: C3_4  and  O_7 
ROOT
ATOM      1  C   UNL d   1      -0.456  -0.203   0.643  0.00  0.00    -0.033 A 
ATOM      2  C1  UNL d   1      -1.596   0.602   0.674  0.00  0.00     0.039 A 
ATOM      3  C2  UNL d   1      -1.551   1.899   0.159  0.00  0.00    -0.080 A 
ATOM      4  C3  UNL d   1      -0.362   2.377  -0.385  0.00  0.00     0.150 A 
ATOM      5  C4  UNL d   1       0.777   1.579  -0.422  0.00  0.00    -0.007 A 
ATOM      6  C5  UNL d   1       0.730   0.285   0.094  0.00  0.00     0.039 A 
ENDROOT
BRANCH   4   7
ATOM      7  O   UNL d   1      -0.268   3.638  -0.895  0.00  0.00    -0.526 OA
ATOM      8  H5  UNL d   1      -1.124   4.083  -0.775  0.00  0.00     0.418 HD
ENDBRANCH   4   7
TORSDOF 1
ENDMDL
