MODEL 1
REMARK minimizedAffinity 5.56369543
REMARK minimizedRMSD -1
REMARK  1 active torsions:
REMARK  status: ('A' for Active; 'I' for Inactive)
REMARK    1  A    between atoms: C3_4  and  O_7 
ROOT
ATOM      1  C   UNL d   1      -1.703   0.175   0.502  0.00  0.00    -0.033 A 
ATOM      2  C1  UNL d   1      -1.153  -0.968  -0.082  0.00  0.00     0.039 A 
ATOM      3  C2  UNL d   1       0.232  -1.137  -0.121  0.00  0.00    -0.080 A 
ATOM      4  C3  UNL d   1       1.056  -0.158   0.428  0.00  0.00     0.150 A 
ATOM      5  C4  UNL d   1       0.515   0.981   1.015  0.00  0.00    -0.007 A 
ATOM      6  C5  UNL d   1      -0.869   1.149   1.052  0.00  0.00     0.039 A 
ENDROOT
BRANCH   4   7
ATOM      7  O   UNL d   1       2.414  -0.277   0.409  0.00  0.00    -0.526 OA
ATOM      8  H5  UNL d   1       2.644  -1.100  -0.054  0.00  0.00     0.418 HD
ENDBRANCH   4   7
TORSDOF 1
ENDMDL
