MODEL 1
REMARK minimizedAffinity -4.5629487
REMARK minimizedRMSD -1
REMARK  1 active torsions:
REMARK  status: ('A' for Active; 'I' for Inactive)
REMARK    1  A    between atoms: C3_4  and  O_7 
ROOT
ATOM      1  C   UNL d   1       0.291   3.139   0.174  0.00  0.00    -0.033 A 
ATOM      2  C1  UNL d   1       1.068   2.334  -0.661  0.00  0.00     0.039 A 
ATOM      3  C2  UNL d   1       0.909   0.947  -0.641  0.00  0.00    -0.080 A 
ATOM      4  C3  UNL d   1      -0.029   0.378   0.216  0.00  0.00     0.150 A 
ATOM      5  C4  UNL d   1      -0.809   1.175   1.047  0.00  0.00    -0.007 A 
ATOM      6  C5  UNL d   1      -0.649   2.559   1.027  0.00  0.00     0.039 A 
ENDROOT
BRANCH   4   7
ATOM      7  O   UNL d   1      -0.216  -0.971   0.273  0.00  0.00    -0.526 OA
ATOM      8  H5  UNL d   1       0.412  -1.395  -0.335  0.00  0.00     0.418 HD
ENDBRANCH   4   7
TORSDOF 1
ENDMDL
