MODEL 1
REMARK minimizedAffinity -0.18032442
REMARK minimizedRMSD -1
REMARK  1 active torsions:
REMARK  status: ('A' for Active; 'I' for Inactive)
REMARK    1  A    between atoms: C3_4  and  O_7 
ROOT
ATOM      1  C   UNL d   1      -1.554  -3.055  -0.599  0.00  0.00    -0.033 A 
ATOM      2  C1  UNL d   1      -1.514  -3.848  -1.748  0.00  0.00     0.039 A 
ATOM      3  C2  UNL d   1      -0.541  -3.620  -2.723  0.00  0.00    -0.080 A 
ATOM      4  C3  UNL d   1       0.385  -2.598  -2.537  0.00  0.00     0.150 A 
ATOM      5  C4  UNL d   1       0.354  -1.806  -1.394  0.00  0.00    -0.007 A 
ATOM      6  C5  UNL d   1      -0.619  -2.035  -0.422  0.00  0.00     0.039 A 
ENDROOT
BRANCH   4   7
ATOM      7  O   UNL d   1       1.351  -2.334  -3.463  0.00  0.00    -0.526 OA
ATOM      8  H5  UNL d   1       1.232  -2.941  -4.212  0.00  0.00     0.418 HD
ENDBRANCH   4   7
TORSDOF 1
ENDMDL
