MODEL 1
REMARK minimizedAffinity -3.94638777
REMARK minimizedRMSD -1
REMARK  0 active torsions:
REMARK  status: ('A' for Active; 'I' for Inactive)
ROOT
ATOM      1  C4' PXY d   1      -0.800   2.201  -1.138  0.00  0.00     0.077 C 
ATOM      2  C1' PXY d   1       1.848  -2.462   1.021  0.00  0.00     0.077 C 
ATOM      3  C1  PXY d   1       1.142  -1.245   0.456  0.00  0.00    -0.082 A 
ATOM      4  C2  PXY d   1       1.794  -0.428  -0.355  0.00  0.00     0.003 A 
ATOM      5  C3  PXY d   1       1.181   0.694  -0.849  0.00  0.00     0.003 A 
ATOM      6  C4  PXY d   1      -0.130   0.955  -0.552  0.00  0.00    -0.082 A 
ATOM      7  C5  PXY d   1      -0.805   0.121   0.267  0.00  0.00     0.003 A 
ATOM      8  C6  PXY d   1      -0.152  -0.990   0.791  0.00  0.00     0.003 A 
ENDROOT
TORSDOF 0
ENDMDL
