MODEL 1
REMARK minimizedAffinity -3.451828
REMARK minimizedRMSD -1
REMARK  0 active torsions:
REMARK  status: ('A' for Active; 'I' for Inactive)
ROOT
ATOM      1  C4' PXY d   1       3.891   0.058  -1.581  0.00  0.00     0.077 C 
ATOM      2  C1' PXY d   1      -1.237  -0.082   1.084  0.00  0.00     0.077 C 
ATOM      3  C1  PXY d   1       0.113  -0.052   0.395  0.00  0.00    -0.082 A 
ATOM      4  C2  PXY d   1       0.388   0.916  -0.464  0.00  0.00     0.003 A 
ATOM      5  C3  PXY d   1       1.592   0.940  -1.120  0.00  0.00     0.003 A 
ATOM      6  C4  PXY d   1       2.545  -0.007  -0.855  0.00  0.00    -0.082 A 
ATOM      7  C5  PXY d   1       2.276  -0.992   0.028  0.00  0.00     0.003 A 
ATOM      8  C6  PXY d   1       1.032  -1.022   0.653  0.00  0.00     0.003 A 
ENDROOT
TORSDOF 0
ENDMDL
