MODEL 1
REMARK minimizedAffinity -2.36514235
REMARK minimizedRMSD -1
REMARK  0 active torsions:
REMARK  status: ('A' for Active; 'I' for Inactive)
ROOT
ATOM      1  C4' PXY d   1      -0.896   2.528  -1.442  0.00  0.00     0.077 C 
ATOM      2  C1' PXY d   1       1.652  -1.763   1.476  0.00  0.00     0.077 C 
ATOM      3  C1  PXY d   1       0.972  -0.642   0.714  0.00  0.00    -0.082 A 
ATOM      4  C2  PXY d   1       1.615  -0.036  -0.271  0.00  0.00     0.003 A 
ATOM      5  C3  PXY d   1       1.027   1.000  -0.950  0.00  0.00     0.003 A 
ATOM      6  C4  PXY d   1      -0.252   1.386  -0.652  0.00  0.00    -0.082 A 
ATOM      7  C5  PXY d   1      -0.919   0.766   0.344  0.00  0.00     0.003 A 
ATOM      8  C6  PXY d   1      -0.290  -0.257   1.048  0.00  0.00     0.003 A 
ENDROOT
TORSDOF 0
ENDMDL
