MODEL 1
REMARK minimizedAffinity -1.19901228
REMARK minimizedRMSD -1
REMARK  0 active torsions:
REMARK  status: ('A' for Active; 'I' for Inactive)
ROOT
ATOM      1  C4' PXY d   1      -1.106   1.876  -1.764  0.00  0.00     0.077 C 
ATOM      2  C1' PXY d   1       2.247  -1.461   1.557  0.00  0.00     0.077 C 
ATOM      3  C1  PXY d   1       1.358  -0.594   0.689  0.00  0.00    -0.082 A 
ATOM      4  C2  PXY d   1       1.892   0.117  -0.290  0.00  0.00     0.003 A 
ATOM      5  C3  PXY d   1       1.107   0.932  -1.065  0.00  0.00     0.003 A 
ATOM      6  C4  PXY d   1      -0.248   0.979  -0.869  0.00  0.00    -0.082 A 
ATOM      7  C5  PXY d   1      -0.802   0.248   0.122  0.00  0.00     0.003 A 
ATOM      8  C6  PXY d   1       0.018  -0.541   0.923  0.00  0.00     0.003 A 
ENDROOT
TORSDOF 0
ENDMDL
