MODEL 1
REMARK minimizedAffinity -3.01607323
REMARK minimizedRMSD -1
REMARK  0 active torsions:
REMARK  status: ('A' for Active; 'I' for Inactive)
ROOT
ATOM      1  C4' PXY d   1       1.493  -1.119   1.151  0.00  0.00     0.077 C 
ATOM      2  C1' PXY d   1      -2.577   0.919  -2.411  0.00  0.00     0.077 C 
ATOM      3  C1  PXY d   1      -1.507   0.397  -1.473  0.00  0.00    -0.082 A 
ATOM      4  C2  PXY d   1      -0.951  -0.781  -1.706  0.00  0.00     0.003 A 
ATOM      5  C3  PXY d   1      -0.005  -1.283  -0.850  0.00  0.00     0.003 A 
ATOM      6  C4  PXY d   1       0.416  -0.548   0.226  0.00  0.00    -0.082 A 
ATOM      7  C5  PXY d   1      -0.139   0.660   0.464  0.00  0.00     0.003 A 
ATOM      8  C6  PXY d   1      -1.128   1.133  -0.393  0.00  0.00     0.003 A 
ENDROOT
TORSDOF 0
ENDMDL
