MODEL 1
REMARK minimizedAffinity -3.53374195
REMARK minimizedRMSD -1
REMARK  0 active torsions:
REMARK  status: ('A' for Active; 'I' for Inactive)
ROOT
ATOM      1  C4' PXY d   1      -0.742  -1.039   3.397  0.00  0.00     0.077 C 
ATOM      2  C1' PXY d   1       2.785  -0.640  -1.165  0.00  0.00     0.077 C 
ATOM      3  C1  PXY d   1       1.866  -0.756   0.035  0.00  0.00    -0.082 A 
ATOM      4  C2  PXY d   1       0.669  -0.192  -0.000  0.00  0.00     0.003 A 
ATOM      5  C3  PXY d   1      -0.162  -0.260   1.088  0.00  0.00     0.003 A 
ATOM      6  C4  PXY d   1       0.215  -0.956   2.205  0.00  0.00    -0.082 A 
ATOM      7  C5  PXY d   1       1.430  -1.543   2.245  0.00  0.00     0.003 A 
ATOM      8  C6  PXY d   1       2.275  -1.428   1.146  0.00  0.00     0.003 A 
ENDROOT
TORSDOF 0
ENDMDL
