MODEL 1
REMARK minimizedAffinity -4.04362774
REMARK minimizedRMSD -1
REMARK  0 active torsions:
REMARK  status: ('A' for Active; 'I' for Inactive)
ROOT
ATOM      1  C4' PXY d   1      -1.842   1.068  -1.953  0.00  0.00     0.077 C 
ATOM      2  C1' PXY d   1       2.652  -1.564   0.556  0.00  0.00     0.077 C 
ATOM      3  C1  PXY d   1       1.465  -0.878  -0.092  0.00  0.00    -0.082 A 
ATOM      4  C2  PXY d   1       1.484  -0.627  -1.391  0.00  0.00     0.003 A 
ATOM      5  C3  PXY d   1       0.434   0.021  -1.988  0.00  0.00     0.003 A 
ATOM      6  C4  PXY d   1      -0.671   0.369  -1.257  0.00  0.00    -0.082 A 
ATOM      7  C5  PXY d   1      -0.702   0.107   0.067  0.00  0.00     0.003 A 
ATOM      8  C6  PXY d   1       0.392  -0.515   0.661  0.00  0.00     0.003 A 
ENDROOT
TORSDOF 0
ENDMDL
