MODEL 1
REMARK minimizedAffinity -2.53651977
REMARK minimizedRMSD -1
REMARK  0 active torsions:
REMARK  status: ('A' for Active; 'I' for Inactive)
ROOT
ATOM      1  C4' PXY d   1       2.945  -1.237   1.609  0.00  0.00     0.077 C 
ATOM      2  C1' PXY d   1      -1.600   0.855  -1.287  0.00  0.00     0.077 C 
ATOM      3  C1  PXY d   1      -0.415   0.305  -0.516  0.00  0.00    -0.082 A 
ATOM      4  C2  PXY d   1       0.814   0.566  -0.932  0.00  0.00     0.003 A 
ATOM      5  C3  PXY d   1       1.896   0.051  -0.266  0.00  0.00     0.003 A 
ATOM      6  C4  PXY d   1       1.720  -0.695   0.868  0.00  0.00    -0.082 A 
ATOM      7  C5  PXY d   1       0.470  -0.957   1.305  0.00  0.00     0.003 A 
ATOM      8  C6  PXY d   1      -0.616  -0.459   0.591  0.00  0.00     0.003 A 
ENDROOT
TORSDOF 0
ENDMDL
