MODEL 1
REMARK minimizedAffinity -2.30038404
REMARK minimizedRMSD -1
REMARK  0 active torsions:
REMARK  status: ('A' for Active; 'I' for Inactive)
ROOT
ATOM      1  C4' PXY d   1       3.684   0.549  -1.330  0.00  0.00     0.077 C 
ATOM      2  C1' PXY d   1      -1.248  -0.118   1.610  0.00  0.00     0.077 C 
ATOM      3  C1  PXY d   1       0.052   0.051   0.848  0.00  0.00    -0.082 A 
ATOM      4  C2  PXY d   1       0.148   0.987  -0.082  0.00  0.00     0.003 A 
ATOM      5  C3  PXY d   1       1.306   1.133  -0.802  0.00  0.00     0.003 A 
ATOM      6  C4  PXY d   1       2.395   0.348  -0.530  0.00  0.00    -0.082 A 
ATOM      7  C5  PXY d   1       2.308  -0.601   0.425  0.00  0.00     0.003 A 
ATOM      8  C6  PXY d   1       1.111  -0.761   1.116  0.00  0.00     0.003 A 
ENDROOT
TORSDOF 0
ENDMDL
