MODEL 1
REMARK minimizedAffinity -4.21862173
REMARK minimizedRMSD -1
REMARK  0 active torsions:
REMARK  status: ('A' for Active; 'I' for Inactive)
ROOT
ATOM      1  C4' PXY d   1      -1.183   2.149  -1.403  0.00  0.00     0.077 C 
ATOM      2  C1' PXY d   1       1.933  -2.151   0.882  0.00  0.00     0.077 C 
ATOM      3  C1  PXY d   1       1.105  -1.031   0.284  0.00  0.00    -0.082 A 
ATOM      4  C2  PXY d   1       1.684  -0.136  -0.500  0.00  0.00     0.003 A 
ATOM      5  C3  PXY d   1       0.957   0.902  -1.023  0.00  0.00     0.003 A 
ATOM      6  C4  PXY d   1      -0.388   0.995  -0.785  0.00  0.00    -0.082 A 
ATOM      7  C5  PXY d   1      -0.989   0.080   0.005  0.00  0.00     0.003 A 
ATOM      8  C6  PXY d   1      -0.224  -0.943   0.560  0.00  0.00     0.003 A 
ENDROOT
TORSDOF 0
ENDMDL
