MODEL 1
REMARK minimizedAffinity -4.75702906
REMARK minimizedRMSD -1
REMARK  0 active torsions:
REMARK  status: ('A' for Active; 'I' for Inactive)
ROOT
ATOM      1  C4' PXY d   1      -2.648   2.025  -1.701  0.00  0.00     0.077 C 
ATOM      2  C1' PXY d   1       1.827  -1.229  -0.027  0.00  0.00     0.077 C 
ATOM      3  C1  PXY d   1       0.654  -0.381  -0.478  0.00  0.00    -0.082 A 
ATOM      4  C2  PXY d   1       0.409   0.771   0.125  0.00  0.00     0.003 A 
ATOM      5  C3  PXY d   1      -0.666   1.535  -0.248  0.00  0.00     0.003 A 
ATOM      6  C4  PXY d   1      -1.469   1.141  -1.285  0.00  0.00    -0.082 A 
ATOM      7  C5  PXY d   1      -1.220  -0.028  -1.913  0.00  0.00     0.003 A 
ATOM      8  C6  PXY d   1      -0.147  -0.809  -1.491  0.00  0.00     0.003 A 
ENDROOT
TORSDOF 0
ENDMDL
