MODEL 1
REMARK minimizedAffinity -4.35082102
REMARK minimizedRMSD -1
REMARK  0 active torsions:
REMARK  status: ('A' for Active; 'I' for Inactive)
ROOT
ATOM      1  C4' PXY d   1       3.223   0.281  -1.351  0.00  0.00     0.077 C 
ATOM      2  C1' PXY d   1      -1.157  -1.345   2.052  0.00  0.00     0.077 C 
ATOM      3  C1  PXY d   1      -0.000  -0.924   1.168  0.00  0.00    -0.082 A 
ATOM      4  C2  PXY d   1      -0.138   0.114   0.360  0.00  0.00     0.003 A 
ATOM      5  C3  PXY d   1       0.887   0.489  -0.470  0.00  0.00     0.003 A 
ATOM      6  C4  PXY d   1       2.085  -0.174  -0.434  0.00  0.00    -0.082 A 
ATOM      7  C5  PXY d   1       2.237  -1.227   0.396  0.00  0.00     0.003 A 
ATOM      8  C6  PXY d   1       1.170  -1.617   1.200  0.00  0.00     0.003 A 
ENDROOT
TORSDOF 0
ENDMDL
