MODEL 1
REMARK minimizedAffinity -3.62420487
REMARK minimizedRMSD -1
REMARK  0 active torsions:
REMARK  status: ('A' for Active; 'I' for Inactive)
ROOT
ATOM      1  C4' PXY d   1       4.267   0.394  -0.948  0.00  0.00     0.077 C 
ATOM      2  C1' PXY d   1      -0.754  -0.804   1.655  0.00  0.00     0.077 C 
ATOM      3  C1  PXY d   1       0.569  -0.496   0.981  0.00  0.00    -0.082 A 
ATOM      4  C2  PXY d   1       0.674   0.567   0.200  0.00  0.00     0.003 A 
ATOM      5  C3  PXY d   1       1.854   0.842  -0.442  0.00  0.00     0.003 A 
ATOM      6  C4  PXY d   1       2.953   0.050  -0.241  0.00  0.00    -0.082 A 
ATOM      7  C5  PXY d   1       2.857  -1.030   0.563  0.00  0.00     0.003 A 
ATOM      8  C6  PXY d   1       1.639  -1.315   1.173  0.00  0.00     0.003 A 
ENDROOT
TORSDOF 0
ENDMDL
