MODEL 1
REMARK minimizedAffinity -1.75318646
REMARK minimizedRMSD -1
REMARK  0 active torsions:
REMARK  status: ('A' for Active; 'I' for Inactive)
ROOT
ATOM      1  C4' PXY d   1      -1.080  -0.947   2.197  0.00  0.00     0.077 C 
ATOM      2  C1' PXY d   1       3.125   1.126  -1.186  0.00  0.00     0.077 C 
ATOM      3  C1  PXY d   1       2.029   0.571  -0.297  0.00  0.00    -0.082 A 
ATOM      4  C2  PXY d   1       0.806   1.072  -0.376  0.00  0.00     0.003 A 
ATOM      5  C3  PXY d   1      -0.189   0.604   0.442  0.00  0.00     0.003 A 
ATOM      6  C4  PXY d   1       0.056  -0.424   1.313  0.00  0.00    -0.082 A 
ATOM      7  C5  PXY d   1       1.298  -0.948   1.391  0.00  0.00     0.003 A 
ATOM      8  C6  PXY d   1       2.304  -0.431   0.581  0.00  0.00     0.003 A 
ENDROOT
TORSDOF 0
ENDMDL
