MODEL 1
REMARK minimizedAffinity -1.18507349
REMARK minimizedRMSD -1
REMARK  0 active torsions:
REMARK  status: ('A' for Active; 'I' for Inactive)
ROOT
ATOM      1  C4' PXY d   1      -3.724   0.325  -2.446  0.00  0.00     0.077 C 
ATOM      2  C1' PXY d   1       1.346   0.517   0.325  0.00  0.00     0.077 C 
ATOM      3  C1  PXY d   1       0.018   0.479  -0.405  0.00  0.00    -0.082 A 
ATOM      4  C2  PXY d   1      -0.895  -0.413  -0.057  0.00  0.00     0.003 A 
ATOM      5  C3  PXY d   1      -2.089  -0.482  -0.727  0.00  0.00     0.003 A 
ATOM      6  C4  PXY d   1      -2.373   0.406  -1.730  0.00  0.00    -0.082 A 
ATOM      7  C5  PXY d   1      -1.451   1.326  -2.084  0.00  0.00     0.003 A 
ATOM      8  C6  PXY d   1      -0.229   1.353  -1.418  0.00  0.00     0.003 A 
ENDROOT
TORSDOF 0
ENDMDL
