MODEL 1
REMARK minimizedAffinity -3.22250056
REMARK minimizedRMSD -1
REMARK  0 active torsions:
REMARK  status: ('A' for Active; 'I' for Inactive)
ROOT
ATOM      1  C4' PXY d   1      -2.013   1.315  -3.621  0.00  0.00     0.077 C 
ATOM      2  C1' PXY d   1      -1.697  -0.356   1.904  0.00  0.00     0.077 C 
ATOM      3  C1  PXY d   1      -1.788   0.072   0.453  0.00  0.00    -0.082 A 
ATOM      4  C2  PXY d   1      -0.811   0.788  -0.081  0.00  0.00     0.003 A 
ATOM      5  C3  PXY d   1      -0.892   1.211  -1.383  0.00  0.00     0.003 A 
ATOM      6  C4  PXY d   1      -1.959   0.852  -2.162  0.00  0.00    -0.082 A 
ATOM      7  C5  PXY d   1      -2.955   0.113  -1.628  0.00  0.00     0.003 A 
ATOM      8  C6  PXY d   1      -2.873  -0.271  -0.293  0.00  0.00     0.003 A 
ENDROOT
TORSDOF 0
ENDMDL
