MODEL 1
REMARK minimizedAffinity 10.0247669
REMARK minimizedRMSD -1
REMARK  0 active torsions:
REMARK  status: ('A' for Active; 'I' for Inactive)
ROOT
ATOM      1  C4' PXY d   1      -0.808   1.475  -1.875  0.00  0.00     0.077 C 
ATOM      2  C1' PXY d   1       3.323  -0.798   1.470  0.00  0.00     0.077 C 
ATOM      3  C1  PXY d   1       2.231  -0.204   0.602  0.00  0.00    -0.082 A 
ATOM      4  C2  PXY d   1       2.366  -0.208  -0.714  0.00  0.00     0.003 A 
ATOM      5  C3  PXY d   1       1.403   0.354  -1.512  0.00  0.00     0.003 A 
ATOM      6  C4  PXY d   1       0.265   0.878  -0.960  0.00  0.00    -0.082 A 
ATOM      7  C5  PXY d   1       0.115   0.877   0.381  0.00  0.00     0.003 A 
ATOM      8  C6  PXY d   1       1.123   0.338   1.176  0.00  0.00     0.003 A 
ENDROOT
TORSDOF 0
ENDMDL
