MODEL 1
REMARK minimizedAffinity -2.45231462
REMARK minimizedRMSD -1
REMARK  0 active torsions:
REMARK  status: ('A' for Active; 'I' for Inactive)
ROOT
ATOM      1  C4' PXY d   1      -1.384   2.184  -2.729  0.00  0.00     0.077 C 
ATOM      2  C1' PXY d   1      -3.086  -0.666   2.003  0.00  0.00     0.077 C 
ATOM      3  C1  PXY d   1      -2.647   0.073   0.754  0.00  0.00    -0.082 A 
ATOM      4  C2  PXY d   1      -1.501   0.735   0.755  0.00  0.00     0.003 A 
ATOM      5  C3  PXY d   1      -1.104   1.436  -0.355  0.00  0.00     0.003 A 
ATOM      6  C4  PXY d   1      -1.862   1.416  -1.495  0.00  0.00    -0.082 A 
ATOM      7  C5  PXY d   1      -3.027   0.734  -1.507  0.00  0.00     0.003 A 
ATOM      8  C6  PXY d   1      -3.432   0.063  -0.356  0.00  0.00     0.003 A 
ENDROOT
TORSDOF 0
ENDMDL
