MODEL 1
REMARK minimizedAffinity -4.76374912
REMARK minimizedRMSD -1
REMARK  0 active torsions:
REMARK  status: ('A' for Active; 'I' for Inactive)
ROOT
ATOM      1  C4' PXY d   1      -1.211   1.689  -0.602  0.00  0.00     0.077 C 
ATOM      2  C1' PXY d   1       1.385  -2.882   1.802  0.00  0.00     0.077 C 
ATOM      3  C1  PXY d   1       0.693  -1.688   1.176  0.00  0.00    -0.082 A 
ATOM      4  C2  PXY d   1       1.249  -1.076   0.143  0.00  0.00     0.003 A 
ATOM      5  C3  PXY d   1       0.653   0.025  -0.415  0.00  0.00     0.003 A 
ATOM      6  C4  PXY d   1      -0.552   0.473   0.056  0.00  0.00    -0.082 A 
ATOM      7  C5  PXY d   1      -1.132  -0.152   1.103  0.00  0.00     0.003 A 
ATOM      8  C6  PXY d   1      -0.490  -1.243   1.681  0.00  0.00     0.003 A 
ENDROOT
TORSDOF 0
ENDMDL
