MODEL 1
REMARK minimizedAffinity 8.051157
REMARK minimizedRMSD -1
REMARK  1 active torsions:
REMARK  status: ('A' for Active; 'I' for Inactive)
REMARK    1  A    between atoms: C1_2  and  C2_3 
ROOT
ATOM      1  C2  UNL d   1       1.197   1.221   0.319  0.00  0.00    -0.081 A 
ATOM      2  C3  UNL d   1       0.507   0.038   0.029  0.00  0.00     0.006 A 
ATOM      3  C4  UNL d   1       0.419  -0.427  -1.286  0.00  0.00     0.002 A 
ATOM      4  C5  UNL d   1       1.028   0.278  -2.330  0.00  0.00    -0.080 A 
ATOM      5  C6  UNL d   1       0.967  -0.226  -3.741  0.00  0.00     0.076 C 
ATOM      6  C7  UNL d   1       1.703   1.469  -2.042  0.00  0.00     0.002 A 
ATOM      7  C8  UNL d   1       1.790   1.935  -0.729  0.00  0.00     0.006 A 
ENDROOT
BRANCH   1   8
ATOM      8  C1  UNL d   1       1.348   1.691   1.743  0.00  0.00     0.054 C 
ATOM      9  C   UNL d   1       2.756   1.436   2.264  0.00  0.00     0.018 C 
ENDBRANCH   1   8
TORSDOF 1
ENDMDL
