MODEL 1
REMARK minimizedAffinity 1.32038176
REMARK minimizedRMSD -1
REMARK  1 active torsions:
REMARK  status: ('A' for Active; 'I' for Inactive)
REMARK    1  A    between atoms: C1_2  and  C2_3 
ROOT
ATOM      1  C2  UNL d   1       0.392  -1.069  -1.273  0.00  0.00    -0.081 A 
ATOM      2  C3  UNL d   1       1.092  -1.342  -0.092  0.00  0.00     0.006 A 
ATOM      3  C4  UNL d   1       1.486  -0.303   0.754  0.00  0.00     0.002 A 
ATOM      4  C5  UNL d   1       1.180   1.025   0.438  0.00  0.00    -0.080 A 
ATOM      5  C6  UNL d   1       1.571   2.147   1.353  0.00  0.00     0.076 C 
ATOM      6  C7  UNL d   1       0.496   1.300  -0.751  0.00  0.00     0.002 A 
ATOM      7  C8  UNL d   1       0.102   0.261  -1.598  0.00  0.00     0.006 A 
ENDROOT
BRANCH   1   8
ATOM      8  C1  UNL d   1      -0.091  -2.192  -2.155  0.00  0.00     0.054 C 
ATOM      9  C   UNL d   1      -1.177  -3.007  -1.469  0.00  0.00     0.018 C 
ENDBRANCH   1   8
TORSDOF 1
ENDMDL
