MODEL 1
REMARK minimizedAffinity 2.22963023
REMARK minimizedRMSD -1
REMARK  1 active torsions:
REMARK  status: ('A' for Active; 'I' for Inactive)
REMARK    1  A    between atoms: C1_2  and  C2_3 
ROOT
ATOM      1  C2  UNL d   1       0.851   1.031   0.195  0.00  0.00    -0.081 A 
ATOM      2  C3  UNL d   1       0.378  -0.255  -0.093  0.00  0.00     0.006 A 
ATOM      3  C4  UNL d   1       0.550  -0.805  -1.365  0.00  0.00     0.002 A 
ATOM      4  C5  UNL d   1       1.205  -0.082  -2.368  0.00  0.00    -0.080 A 
ATOM      5  C6  UNL d   1       1.423  -0.673  -3.730  0.00  0.00     0.076 C 
ATOM      6  C7  UNL d   1       1.662   1.209  -2.086  0.00  0.00     0.002 A 
ATOM      7  C8  UNL d   1       1.490   1.760  -0.815  0.00  0.00     0.006 A 
ENDROOT
BRANCH   1   8
ATOM      8  C1  UNL d   1       0.725   1.601   1.584  0.00  0.00     0.054 C 
ATOM      9  C   UNL d   1       1.502   0.771   2.596  0.00  0.00     0.018 C 
ENDBRANCH   1   8
TORSDOF 1
ENDMDL
