MODEL 1
REMARK minimizedAffinity 5.97214651
REMARK minimizedRMSD -1
REMARK  1 active torsions:
REMARK  status: ('A' for Active; 'I' for Inactive)
REMARK    1  A    between atoms: C1_2  and  C2_3 
ROOT
ATOM      1  C2  UNL d   1       2.487   0.329  -0.187  0.00  0.00    -0.081 A 
ATOM      2  C3  UNL d   1       2.003  -0.195  -1.392  0.00  0.00     0.006 A 
ATOM      3  C4  UNL d   1       0.787   0.249  -1.919  0.00  0.00     0.002 A 
ATOM      4  C5  UNL d   1       0.041   1.228  -1.255  0.00  0.00    -0.080 A 
ATOM      5  C6  UNL d   1      -1.251   1.734  -1.825  0.00  0.00     0.076 C 
ATOM      6  C7  UNL d   1       0.516   1.739  -0.042  0.00  0.00     0.002 A 
ATOM      7  C8  UNL d   1       1.731   1.295   0.485  0.00  0.00     0.006 A 
ENDROOT
BRANCH   1   8
ATOM      8  C1  UNL d   1       3.829  -0.100   0.351  0.00  0.00     0.054 C 
ATOM      9  C   UNL d   1       3.953  -1.617   0.382  0.00  0.00     0.018 C 
ENDBRANCH   1   8
TORSDOF 1
ENDMDL
