MODEL 1
REMARK minimizedAffinity 0.622151911
REMARK minimizedRMSD -1
REMARK  1 active torsions:
REMARK  status: ('A' for Active; 'I' for Inactive)
REMARK    1  A    between atoms: C1_2  and  C2_3 
ROOT
ATOM      1  C2  UNL d   1       1.702  -0.076  -0.254  0.00  0.00    -0.081 A 
ATOM      2  C3  UNL d   1       0.648   0.722   0.209  0.00  0.00     0.006 A 
ATOM      3  C4  UNL d   1       0.900   1.811   1.048  0.00  0.00     0.002 A 
ATOM      4  C5  UNL d   1       2.209   2.123   1.431  0.00  0.00    -0.080 A 
ATOM      5  C6  UNL d   1       2.496   3.307   2.307  0.00  0.00     0.076 C 
ATOM      6  C7  UNL d   1       3.260   1.315   0.983  0.00  0.00     0.002 A 
ATOM      7  C8  UNL d   1       3.008   0.227   0.145  0.00  0.00     0.006 A 
ENDROOT
BRANCH   1   8
ATOM      8  C1  UNL d   1       1.440  -1.211  -1.211  0.00  0.00     0.054 C 
ATOM      9  C   UNL d   1       0.235  -2.033  -0.777  0.00  0.00     0.018 C 
ENDBRANCH   1   8
TORSDOF 1
ENDMDL
