MODEL 1
REMARK minimizedAffinity 7.3404088
REMARK minimizedRMSD -1
REMARK  1 active torsions:
REMARK  status: ('A' for Active; 'I' for Inactive)
REMARK    1  A    between atoms: C1_2  and  C2_3 
ROOT
ATOM      1  C2  UNL d   1      -3.055   1.956   3.380  0.00  0.00    -0.081 A 
ATOM      2  C3  UNL d   1      -2.288   3.026   2.902  0.00  0.00     0.006 A 
ATOM      3  C4  UNL d   1      -2.337   3.384   1.553  0.00  0.00     0.002 A 
ATOM      4  C5  UNL d   1      -3.157   2.685   0.662  0.00  0.00    -0.080 A 
ATOM      5  C6  UNL d   1      -3.242   3.080  -0.783  0.00  0.00     0.076 C 
ATOM      6  C7  UNL d   1      -3.910   1.606   1.136  0.00  0.00     0.002 A 
ATOM      7  C8  UNL d   1      -3.862   1.246   2.484  0.00  0.00     0.006 A 
ENDROOT
BRANCH   1   8
ATOM      8  C1  UNL d   1      -3.054   1.608   4.847  0.00  0.00     0.054 C 
ATOM      9  C   UNL d   1      -2.167   0.404   5.129  0.00  0.00     0.018 C 
ENDBRANCH   1   8
TORSDOF 1
ENDMDL
