MODEL 1
REMARK minimizedAffinity 5.7973609
REMARK minimizedRMSD -1
REMARK  1 active torsions:
REMARK  status: ('A' for Active; 'I' for Inactive)
REMARK    1  A    between atoms: C1_2  and  C2_3 
ROOT
ATOM      1  C2  UNL d   1       2.117   1.564   1.796  0.00  0.00    -0.081 A 
ATOM      2  C3  UNL d   1       2.989   0.789   1.021  0.00  0.00     0.006 A 
ATOM      3  C4  UNL d   1       2.551   0.212  -0.173  0.00  0.00     0.002 A 
ATOM      4  C5  UNL d   1       1.239   0.407  -0.617  0.00  0.00    -0.080 A 
ATOM      5  C6  UNL d   1       0.765  -0.181  -1.912  0.00  0.00     0.076 C 
ATOM      6  C7  UNL d   1       0.363   1.167   0.166  0.00  0.00     0.002 A 
ATOM      7  C8  UNL d   1       0.800   1.744   1.361  0.00  0.00     0.006 A 
ENDROOT
BRANCH   1   8
ATOM      8  C1  UNL d   1       2.605   2.241   3.052  0.00  0.00     0.054 C 
ATOM      9  C   UNL d   1       2.796   3.735   2.837  0.00  0.00     0.018 C 
ENDBRANCH   1   8
TORSDOF 1
ENDMDL
