MODEL 1
REMARK minimizedAffinity 4.71075535
REMARK minimizedRMSD -1
REMARK  1 active torsions:
REMARK  status: ('A' for Active; 'I' for Inactive)
REMARK    1  A    between atoms: C1_2  and  C2_3 
ROOT
ATOM      1  C2  UNL d   1       1.275   2.384  -1.137  0.00  0.00    -0.081 A 
ATOM      2  C3  UNL d   1       1.121   2.251   0.248  0.00  0.00     0.006 A 
ATOM      3  C4  UNL d   1       1.083   0.986   0.839  0.00  0.00     0.002 A 
ATOM      4  C5  UNL d   1       1.207  -0.167   0.056  0.00  0.00    -0.080 A 
ATOM      5  C6  UNL d   1       1.199  -1.531   0.680  0.00  0.00     0.076 C 
ATOM      6  C7  UNL d   1       1.344  -0.035  -1.330  0.00  0.00     0.002 A 
ATOM      7  C8  UNL d   1       1.381   1.230  -1.921  0.00  0.00     0.006 A 
ENDROOT
BRANCH   1   8
ATOM      8  C1  UNL d   1       1.381   3.748  -1.769  0.00  0.00     0.054 C 
ATOM      9  C   UNL d   1       1.728   4.811  -0.736  0.00  0.00     0.018 C 
ENDBRANCH   1   8
TORSDOF 1
ENDMDL
