MODEL 1
REMARK minimizedAffinity -0.998132765
REMARK minimizedRMSD -1
REMARK  1 active torsions:
REMARK  status: ('A' for Active; 'I' for Inactive)
REMARK    1  A    between atoms: C1_2  and  C2_3 
ROOT
ATOM      1  C2  UNL d   1       2.692   1.948   1.611  0.00  0.00    -0.081 A 
ATOM      2  C3  UNL d   1       3.580   1.053   1.002  0.00  0.00     0.006 A 
ATOM      3  C4  UNL d   1       3.165   0.262  -0.072  0.00  0.00     0.002 A 
ATOM      4  C5  UNL d   1       1.857   0.358  -0.560  0.00  0.00    -0.080 A 
ATOM      5  C6  UNL d   1       1.407  -0.463  -1.731  0.00  0.00     0.076 C 
ATOM      6  C7  UNL d   1       0.964   1.239   0.060  0.00  0.00     0.002 A 
ATOM      7  C8  UNL d   1       1.379   2.030   1.134  0.00  0.00     0.006 A 
ENDROOT
BRANCH   1   8
ATOM      8  C1  UNL d   1       3.155   2.848   2.727  0.00  0.00     0.054 C 
ATOM      9  C   UNL d   1       2.409   4.175   2.713  0.00  0.00     0.018 C 
ENDBRANCH   1   8
TORSDOF 1
ENDMDL
