MODEL 1
REMARK minimizedAffinity -0.987085998
REMARK minimizedRMSD -1
REMARK  1 active torsions:
REMARK  status: ('A' for Active; 'I' for Inactive)
REMARK    1  A    between atoms: C3_4  and  O_7 
ROOT
ATOM      1  C   UNL d   1       5.743   6.000   5.147  0.00  0.00    -0.033 A 
ATOM      2  C1  UNL d   1       5.210   5.999   3.857  0.00  0.00     0.039 A 
ATOM      3  C2  UNL d   1       4.449   4.915   3.414  0.00  0.00    -0.080 A 
ATOM      4  C3  UNL d   1       4.226   3.841   4.272  0.00  0.00     0.150 A 
ATOM      5  C4  UNL d   1       4.751   3.837   5.560  0.00  0.00    -0.007 A 
ATOM      6  C5  UNL d   1       5.512   4.919   6.000  0.00  0.00     0.039 A 
ENDROOT
BRANCH   4   7
ATOM      7  O   UNL d   1       3.493   2.759   3.883  0.00  0.00    -0.526 OA
ATOM      8  H5  UNL d   1       3.220   2.888   2.960  0.00  0.00     0.418 HD
ENDBRANCH   4   7
TORSDOF 1
ENDMDL
