MODEL 1
REMARK minimizedAffinity 3.97040677
REMARK minimizedRMSD -1
REMARK  1 active torsions:
REMARK  status: ('A' for Active; 'I' for Inactive)
REMARK    1  A    between atoms: C3_4  and  O_7 
ROOT
ATOM      1  C   UNL d   1       2.631   0.630  -0.206  0.00  0.00    -0.033 A 
ATOM      2  C1  UNL d   1       3.294   1.720   0.363  0.00  0.00     0.039 A 
ATOM      3  C2  UNL d   1       2.776   2.336   1.504  0.00  0.00    -0.080 A 
ATOM      4  C3  UNL d   1       1.598   1.853   2.066  0.00  0.00     0.150 A 
ATOM      5  C4  UNL d   1       0.935   0.765   1.508  0.00  0.00    -0.007 A 
ATOM      6  C5  UNL d   1       1.452   0.152   0.368  0.00  0.00     0.039 A 
ENDROOT
BRANCH   4   7
ATOM      7  O   UNL d   1       1.052   2.425   3.177  0.00  0.00    -0.526 OA
ATOM      8  H5  UNL d   1       1.603   3.183   3.435  0.00  0.00     0.418 HD
ENDBRANCH   4   7
TORSDOF 1
ENDMDL
