MODEL 1
REMARK minimizedAffinity 9.22174454
REMARK minimizedRMSD -1
REMARK  1 active torsions:
REMARK  status: ('A' for Active; 'I' for Inactive)
REMARK    1  A    between atoms: C3_4  and  O_7 
ROOT
ATOM      1  C   UNL d   1      -0.243  -4.135   5.287  0.00  0.00    -0.033 A 
ATOM      2  C1  UNL d   1       0.421  -3.129   5.992  0.00  0.00     0.039 A 
ATOM      3  C2  UNL d   1       0.580  -1.864   5.424  0.00  0.00    -0.080 A 
ATOM      4  C3  UNL d   1       0.070  -1.617   4.152  0.00  0.00     0.150 A 
ATOM      5  C4  UNL d   1      -0.595  -2.613   3.445  0.00  0.00    -0.007 A 
ATOM      6  C5  UNL d   1      -0.752  -3.876   4.014  0.00  0.00     0.039 A 
ENDROOT
BRANCH   4   7
ATOM      7  O   UNL d   1       0.205  -0.399   3.554  0.00  0.00    -0.526 OA
ATOM      8  H5  UNL d   1       0.711   0.180   4.147  0.00  0.00     0.418 HD
ENDBRANCH   4   7
TORSDOF 1
ENDMDL
