MODEL 1
REMARK minimizedAffinity 5.42457533
REMARK minimizedRMSD -1
REMARK  1 active torsions:
REMARK  status: ('A' for Active; 'I' for Inactive)
REMARK    1  A    between atoms: C3_4  and  O_7 
ROOT
ATOM      1  C   UNL d   1      -5.815   5.999   3.856  0.00  0.00    -0.033 A 
ATOM      2  C1  UNL d   1      -5.998   5.892   5.236  0.00  0.00     0.039 A 
ATOM      3  C2  UNL d   1      -6.000   4.636   5.846  0.00  0.00    -0.080 A 
ATOM      4  C3  UNL d   1      -5.816   3.497   5.066  0.00  0.00     0.150 A 
ATOM      5  C4  UNL d   1      -5.629   3.597   3.692  0.00  0.00    -0.007 A 
ATOM      6  C5  UNL d   1      -5.628   4.852   3.084  0.00  0.00     0.039 A 
ENDROOT
BRANCH   4   7
ATOM      7  O   UNL d   1      -5.815   2.250   5.616  0.00  0.00    -0.526 OA
ATOM      8  H5  UNL d   1      -5.984   2.333   6.569  0.00  0.00     0.418 HD
ENDBRANCH   4   7
TORSDOF 1
ENDMDL
