MODEL 1
REMARK minimizedAffinity 5.88606644
REMARK minimizedRMSD -1
REMARK  1 active torsions:
REMARK  status: ('A' for Active; 'I' for Inactive)
REMARK    1  A    between atoms: C3_4  and  O_7 
ROOT
ATOM      1  C   UNL d   1       2.813   2.793   0.280  0.00  0.00    -0.033 A 
ATOM      2  C1  UNL d   1       3.611   2.403  -0.797  0.00  0.00     0.039 A 
ATOM      3  C2  UNL d   1       3.548   1.094  -1.277  0.00  0.00    -0.080 A 
ATOM      4  C3  UNL d   1       2.683   0.185  -0.673  0.00  0.00     0.150 A 
ATOM      5  C4  UNL d   1       1.882   0.568   0.398  0.00  0.00    -0.007 A 
ATOM      6  C5  UNL d   1       1.947   1.876   0.876  0.00  0.00     0.039 A 
ENDROOT
BRANCH   4   7
ATOM      7  O   UNL d   1       2.590  -1.105  -1.103  0.00  0.00    -0.526 OA
ATOM      8  H5  UNL d   1       3.223  -1.233  -1.830  0.00  0.00     0.418 HD
ENDBRANCH   4   7
TORSDOF 1
ENDMDL
