MODEL 1
REMARK minimizedAffinity 8.70228958
REMARK minimizedRMSD -1
REMARK  1 active torsions:
REMARK  status: ('A' for Active; 'I' for Inactive)
REMARK    1  A    between atoms: C3_4  and  O_7 
ROOT
ATOM      1  C   UNL d   1       2.941   0.717  -0.611  0.00  0.00    -0.033 A 
ATOM      2  C1  UNL d   1       2.618  -0.073   0.494  0.00  0.00     0.039 A 
ATOM      3  C2  UNL d   1       2.337   0.526   1.724  0.00  0.00    -0.080 A 
ATOM      4  C3  UNL d   1       2.382   1.913   1.835  0.00  0.00     0.150 A 
ATOM      5  C4  UNL d   1       2.699   2.706   0.738  0.00  0.00    -0.007 A 
ATOM      6  C5  UNL d   1       2.980   2.107  -0.489  0.00  0.00     0.039 A 
ENDROOT
BRANCH   4   7
ATOM      7  O   UNL d   1       2.120   2.542   3.016  0.00  0.00    -0.526 OA
ATOM      8  H5  UNL d   1       1.945   1.866   3.693  0.00  0.00     0.418 HD
ENDBRANCH   4   7
TORSDOF 1
ENDMDL
