MODEL 1
REMARK minimizedAffinity 4.05076885
REMARK minimizedRMSD -1
REMARK  1 active torsions:
REMARK  status: ('A' for Active; 'I' for Inactive)
REMARK    1  A    between atoms: C3_4  and  O_7 
ROOT
ATOM      1  C   UNL d   1       4.134   5.444   4.477  0.00  0.00    -0.033 A 
ATOM      2  C1  UNL d   1       4.214   4.654   3.328  0.00  0.00     0.039 A 
ATOM      3  C2  UNL d   1       4.834   3.405   3.379  0.00  0.00    -0.080 A 
ATOM      4  C3  UNL d   1       5.368   2.956   4.584  0.00  0.00     0.150 A 
ATOM      5  C4  UNL d   1       5.289   3.735   5.733  0.00  0.00    -0.007 A 
ATOM      6  C5  UNL d   1       4.670   4.984   5.680  0.00  0.00     0.039 A 
ENDROOT
BRANCH   4   7
ATOM      7  O   UNL d   1       5.987   1.745   4.682  0.00  0.00    -0.526 OA
ATOM      8  H5  UNL d   1       5.993   1.330   3.803  0.00  0.00     0.418 HD
ENDBRANCH   4   7
TORSDOF 1
ENDMDL
