MODEL 1
REMARK minimizedAffinity 3.32419395
REMARK minimizedRMSD -1
REMARK  1 active torsions:
REMARK  status: ('A' for Active; 'I' for Inactive)
REMARK    1  A    between atoms: C3_4  and  O_7 
ROOT
ATOM      1  C   UNL d   1      -6.000   5.226   4.253  0.00  0.00    -0.033 A 
ATOM      2  C1  UNL d   1      -5.668   5.721   5.516  0.00  0.00     0.039 A 
ATOM      3  C2  UNL d   1      -4.335   5.988   5.835  0.00  0.00    -0.080 A 
ATOM      4  C3  UNL d   1      -3.346   5.758   4.884  0.00  0.00     0.150 A 
ATOM      5  C4  UNL d   1      -3.669   5.269   3.622  0.00  0.00    -0.007 A 
ATOM      6  C5  UNL d   1      -5.000   5.002   3.306  0.00  0.00     0.039 A 
ENDROOT
BRANCH   4   7
ATOM      7  O   UNL d   1      -2.031   6.000   5.151  0.00  0.00    -0.526 OA
ATOM      8  H5  UNL d   1      -1.955   6.307   6.069  0.00  0.00     0.418 HD
ENDBRANCH   4   7
TORSDOF 1
ENDMDL
