MODEL 1
REMARK minimizedAffinity 7.84096432
REMARK minimizedRMSD -1
REMARK  1 active torsions:
REMARK  status: ('A' for Active; 'I' for Inactive)
REMARK    1  A    between atoms: C3_4  and  O_7 
ROOT
ATOM      1  C   UNL d   1       2.511   0.779  -1.002  0.00  0.00    -0.033 A 
ATOM      2  C1  UNL d   1       3.656   1.520  -1.299  0.00  0.00     0.039 A 
ATOM      3  C2  UNL d   1       4.838   1.295  -0.590  0.00  0.00    -0.080 A 
ATOM      4  C3  UNL d   1       4.862   0.328   0.410  0.00  0.00     0.150 A 
ATOM      5  C4  UNL d   1       3.726  -0.417   0.709  0.00  0.00    -0.007 A 
ATOM      6  C5  UNL d   1       2.546  -0.191   0.001  0.00  0.00     0.039 A 
ENDROOT
BRANCH   4   7
ATOM      7  O   UNL d   1       5.991   0.076   1.132  0.00  0.00    -0.526 OA
ATOM      8  H5  UNL d   1       6.688   0.686   0.836  0.00  0.00     0.418 HD
ENDBRANCH   4   7
TORSDOF 1
ENDMDL
