MODEL 1
REMARK minimizedAffinity 14.2010193
REMARK minimizedRMSD -1
REMARK  1 active torsions:
REMARK  status: ('A' for Active; 'I' for Inactive)
REMARK    1  A    between atoms: C3_4  and  O_7 
ROOT
ATOM      1  C   UNL d   1      -4.881   0.367  -5.397  0.00  0.00    -0.033 A 
ATOM      2  C1  UNL d   1      -3.763   1.039  -5.896  0.00  0.00     0.039 A 
ATOM      3  C2  UNL d   1      -3.762   2.433  -5.973  0.00  0.00    -0.080 A 
ATOM      4  C3  UNL d   1      -4.882   3.142  -5.548  0.00  0.00     0.150 A 
ATOM      5  C4  UNL d   1      -5.997   2.479  -5.046  0.00  0.00    -0.007 A 
ATOM      6  C5  UNL d   1      -5.997   1.087  -4.970  0.00  0.00     0.039 A 
ENDROOT
BRANCH   4   7
ATOM      7  O   UNL d   1      -4.929   4.503  -5.608  0.00  0.00    -0.526 OA
ATOM      8  H5  UNL d   1      -4.101   4.823  -6.003  0.00  0.00     0.418 HD
ENDBRANCH   4   7
TORSDOF 1
ENDMDL
