MODEL 1
REMARK minimizedAffinity 4.25615454
REMARK minimizedRMSD -1
REMARK  1 active torsions:
REMARK  status: ('A' for Active; 'I' for Inactive)
REMARK    1  A    between atoms: C3_4  and  O_7 
ROOT
ATOM      1  C   UNL d   1      -3.648   1.268  -4.970  0.00  0.00    -0.033 A 
ATOM      2  C1  UNL d   1      -4.932   1.178  -4.430  0.00  0.00     0.039 A 
ATOM      3  C2  UNL d   1      -5.106   0.794  -3.099  0.00  0.00    -0.080 A 
ATOM      4  C3  UNL d   1      -3.989   0.503  -2.320  0.00  0.00     0.150 A 
ATOM      5  C4  UNL d   1      -2.707   0.595  -2.851  0.00  0.00    -0.007 A 
ATOM      6  C5  UNL d   1      -2.535   0.978  -4.180  0.00  0.00     0.039 A 
ENDROOT
BRANCH   4   7
ATOM      7  O   UNL d   1      -4.109   0.120  -1.017  0.00  0.00    -0.526 OA
ATOM      8  H5  UNL d   1      -5.054   0.073  -0.796  0.00  0.00     0.418 HD
ENDBRANCH   4   7
TORSDOF 1
ENDMDL
