MODEL 1
REMARK minimizedAffinity 1.45192766
REMARK minimizedRMSD -1
REMARK  1 active torsions:
REMARK  status: ('A' for Active; 'I' for Inactive)
REMARK    1  A    between atoms: C3_4  and  O_7 
ROOT
ATOM      1  C   UNL d   1      -2.837  -4.177  -0.293  0.00  0.00    -0.033 A 
ATOM      2  C1  UNL d   1      -1.838  -3.840  -1.208  0.00  0.00     0.039 A 
ATOM      3  C2  UNL d   1      -2.113  -2.948  -2.247  0.00  0.00    -0.080 A 
ATOM      4  C3  UNL d   1      -3.388  -2.402  -2.359  0.00  0.00     0.150 A 
ATOM      5  C4  UNL d   1      -4.387  -2.730  -1.448  0.00  0.00    -0.007 A 
ATOM      6  C5  UNL d   1      -4.111  -3.621  -0.412  0.00  0.00     0.039 A 
ENDROOT
BRANCH   4   7
ATOM      7  O   UNL d   1      -3.705  -1.531  -3.359  0.00  0.00    -0.526 OA
ATOM      8  H5  UNL d   1      -2.926  -1.419  -3.928  0.00  0.00     0.418 HD
ENDBRANCH   4   7
TORSDOF 1
ENDMDL
