MODEL 1
REMARK minimizedAffinity 2.15989804
REMARK minimizedRMSD -1
REMARK  1 active torsions:
REMARK  status: ('A' for Active; 'I' for Inactive)
REMARK    1  A    between atoms: C3_4  and  O_7 
ROOT
ATOM      1  C   UNL d   1       4.852   5.668   5.993  0.00  0.00    -0.033 A 
ATOM      2  C1  UNL d   1       3.591   5.808   5.412  0.00  0.00     0.039 A 
ATOM      3  C2  UNL d   1       3.467   5.920   4.025  0.00  0.00    -0.080 A 
ATOM      4  C3  UNL d   1       4.611   5.888   3.233  0.00  0.00     0.150 A 
ATOM      5  C4  UNL d   1       5.871   5.745   3.805  0.00  0.00    -0.007 A 
ATOM      6  C5  UNL d   1       5.992   5.635   5.190  0.00  0.00     0.039 A 
ENDROOT
BRANCH   4   7
ATOM      7  O   UNL d   1       4.541   5.998   1.876  0.00  0.00    -0.526 OA
ATOM      8  H5  UNL d   1       3.611   6.121   1.625  0.00  0.00     0.418 HD
ENDBRANCH   4   7
TORSDOF 1
ENDMDL
