MODEL 1
REMARK minimizedAffinity 5.56090117
REMARK minimizedRMSD -1
REMARK  1 active torsions:
REMARK  status: ('A' for Active; 'I' for Inactive)
REMARK    1  A    between atoms: C3_4  and  O_7 
ROOT
ATOM      1  C   UNL d   1       3.885   5.706   5.979  0.00  0.00    -0.033 A 
ATOM      2  C1  UNL d   1       5.275   5.579   5.934  0.00  0.00     0.039 A 
ATOM      3  C2  UNL d   1       5.945   5.655   4.711  0.00  0.00    -0.080 A 
ATOM      4  C3  UNL d   1       5.215   5.859   3.544  0.00  0.00     0.150 A 
ATOM      5  C4  UNL d   1       3.831   5.990   3.582  0.00  0.00    -0.007 A 
ATOM      6  C5  UNL d   1       3.164   5.913   4.804  0.00  0.00     0.039 A 
ENDROOT
BRANCH   4   7
ATOM      7  O   UNL d   1       5.825   5.936   2.326  0.00  0.00    -0.526 OA
ATOM      8  H5  UNL d   1       6.779   5.799   2.451  0.00  0.00     0.418 HD
ENDBRANCH   4   7
TORSDOF 1
ENDMDL
