MODEL 1
REMARK minimizedAffinity 1.44277561
REMARK minimizedRMSD -1
REMARK  1 active torsions:
REMARK  status: ('A' for Active; 'I' for Inactive)
REMARK    1  A    between atoms: C3_4  and  O_7 
ROOT
ATOM      1  C   UNL d   1      -6.000  -2.254   3.382  0.00  0.00    -0.033 A 
ATOM      2  C1  UNL d   1      -5.447  -1.633   2.260  0.00  0.00     0.039 A 
ATOM      3  C2  UNL d   1      -4.106  -1.245   2.265  0.00  0.00    -0.080 A 
ATOM      4  C3  UNL d   1      -3.330  -1.483   3.396  0.00  0.00     0.150 A 
ATOM      5  C4  UNL d   1      -3.873  -2.104   4.516  0.00  0.00    -0.007 A 
ATOM      6  C5  UNL d   1      -5.213  -2.490   4.509  0.00  0.00     0.039 A 
ENDROOT
BRANCH   4   7
ATOM      7  O   UNL d   1      -2.017  -1.117   3.450  0.00  0.00    -0.526 OA
ATOM      8  H5  UNL d   1      -1.787  -0.674   2.617  0.00  0.00     0.418 HD
ENDBRANCH   4   7
TORSDOF 1
ENDMDL
