MODEL 1
REMARK minimizedAffinity -1.35904014
REMARK minimizedRMSD -1
REMARK  1 active torsions:
REMARK  status: ('A' for Active; 'I' for Inactive)
REMARK    1  A    between atoms: C3_4  and  O_7 
ROOT
ATOM      1  C   UNL d   1      -1.100  -2.537   1.103  0.00  0.00    -0.033 A 
ATOM      2  C1  UNL d   1      -1.502  -2.620  -0.232  0.00  0.00     0.039 A 
ATOM      3  C2  UNL d   1      -0.551  -2.801  -1.238  0.00  0.00    -0.080 A 
ATOM      4  C3  UNL d   1       0.795  -2.900  -0.897  0.00  0.00     0.150 A 
ATOM      5  C4  UNL d   1       1.201  -2.822   0.431  0.00  0.00    -0.007 A 
ATOM      6  C5  UNL d   1       0.251  -2.640   1.435  0.00  0.00     0.039 A 
ENDROOT
BRANCH   4   7
ATOM      7  O   UNL d   1       1.759  -3.073  -1.845  0.00  0.00    -0.526 OA
ATOM      8  H5  UNL d   1       1.334  -3.080  -2.719  0.00  0.00     0.418 HD
ENDBRANCH   4   7
TORSDOF 1
ENDMDL
