MODEL 1
REMARK minimizedAffinity 3.59455967
REMARK minimizedRMSD -1
REMARK  1 active torsions:
REMARK  status: ('A' for Active; 'I' for Inactive)
REMARK    1  A    between atoms: C3_4  and  O_7 
ROOT
ATOM      1  C   UNL d   1      -2.889  -3.192   0.286  0.00  0.00    -0.033 A 
ATOM      2  C1  UNL d   1      -3.376  -4.500   0.252  0.00  0.00     0.039 A 
ATOM      3  C2  UNL d   1      -2.867  -5.459   1.129  0.00  0.00    -0.080 A 
ATOM      4  C3  UNL d   1      -1.873  -5.097   2.035  0.00  0.00     0.150 A 
ATOM      5  C4  UNL d   1      -1.387  -3.795   2.077  0.00  0.00    -0.007 A 
ATOM      6  C5  UNL d   1      -1.895  -2.839   1.200  0.00  0.00     0.039 A 
ENDROOT
BRANCH   4   7
ATOM      7  O   UNL d   1      -1.342  -6.000   2.908  0.00  0.00    -0.526 OA
ATOM      8  H5  UNL d   1      -1.754  -6.865   2.745  0.00  0.00     0.418 HD
ENDBRANCH   4   7
TORSDOF 1
ENDMDL
