MODEL 1
REMARK minimizedAffinity 2.93056703
REMARK minimizedRMSD -1
REMARK  1 active torsions:
REMARK  status: ('A' for Active; 'I' for Inactive)
REMARK    1  A    between atoms: C3_4  and  O_7 
ROOT
ATOM      1  C   UNL d   1       5.045   5.996   2.253  0.00  0.00    -0.033 A 
ATOM      2  C1  UNL d   1       5.827   5.996   3.409  0.00  0.00     0.039 A 
ATOM      3  C2  UNL d   1       5.218   5.994   4.666  0.00  0.00    -0.080 A 
ATOM      4  C3  UNL d   1       3.829   5.992   4.752  0.00  0.00     0.150 A 
ATOM      5  C4  UNL d   1       3.044   5.988   3.603  0.00  0.00    -0.007 A 
ATOM      6  C5  UNL d   1       3.653   5.991   2.350  0.00  0.00     0.039 A 
ENDROOT
BRANCH   4   7
ATOM      7  O   UNL d   1       3.189   5.995   5.956  0.00  0.00    -0.526 OA
ATOM      8  H5  UNL d   1       3.858   6.027   6.659  0.00  0.00     0.418 HD
ENDBRANCH   4   7
TORSDOF 1
ENDMDL
