MODEL 1
REMARK minimizedAffinity 3.18613935
REMARK minimizedRMSD -1
REMARK  1 active torsions:
REMARK  status: ('A' for Active; 'I' for Inactive)
REMARK    1  A    between atoms: C3_4  and  O_7 
ROOT
ATOM      1  C   UNL d   1       4.777   5.977   5.948  0.00  0.00    -0.033 A 
ATOM      2  C1  UNL d   1       5.709   5.973   4.908  0.00  0.00     0.039 A 
ATOM      3  C2  UNL d   1       5.276   5.977   3.580  0.00  0.00    -0.080 A 
ATOM      4  C3  UNL d   1       3.911   5.986   3.307  0.00  0.00     0.150 A 
ATOM      5  C4  UNL d   1       2.977   5.995   4.338  0.00  0.00    -0.007 A 
ATOM      6  C5  UNL d   1       3.412   5.990   5.663  0.00  0.00     0.039 A 
ENDROOT
BRANCH   4   7
ATOM      7  O   UNL d   1       3.440   5.986   2.027  0.00  0.00    -0.526 OA
ATOM      8  H5  UNL d   1       4.199   5.951   1.421  0.00  0.00     0.418 HD
ENDBRANCH   4   7
TORSDOF 1
ENDMDL
