MODEL 1
REMARK minimizedAffinity -1.94200683
REMARK minimizedRMSD -1
REMARK  1 active torsions:
REMARK  status: ('A' for Active; 'I' for Inactive)
REMARK    1  A    between atoms: C3_4  and  O_7 
ROOT
ATOM      1  C   UNL d   1       0.088   0.037   1.189  0.00  0.00    -0.033 A 
ATOM      2  C1  UNL d   1      -0.635  -1.135   0.958  0.00  0.00     0.039 A 
ATOM      3  C2  UNL d   1      -0.001  -2.253   0.415  0.00  0.00    -0.080 A 
ATOM      4  C3  UNL d   1       1.356  -2.187   0.108  0.00  0.00     0.150 A 
ATOM      5  C4  UNL d   1       2.083  -1.024   0.338  0.00  0.00    -0.007 A 
ATOM      6  C5  UNL d   1       1.447   0.092   0.880  0.00  0.00     0.039 A 
ENDROOT
BRANCH   4   7
ATOM      7  O   UNL d   1       2.017  -3.251  -0.429  0.00  0.00    -0.526 OA
ATOM      8  H5  UNL d   1       1.382  -3.975  -0.560  0.00  0.00     0.418 HD
ENDBRANCH   4   7
TORSDOF 1
ENDMDL
