MODEL 1
REMARK minimizedAffinity 1.41982424
REMARK minimizedRMSD -1
REMARK  1 active torsions:
REMARK  status: ('A' for Active; 'I' for Inactive)
REMARK    1  A    between atoms: C3_4  and  O_7 
ROOT
ATOM      1  C   UNL d   1       5.985   5.953   3.903  0.00  0.00    -0.033 A 
ATOM      2  C1  UNL d   1       4.779   5.882   3.204  0.00  0.00     0.039 A 
ATOM      3  C2  UNL d   1       3.582   5.672   3.891  0.00  0.00    -0.080 A 
ATOM      4  C3  UNL d   1       3.605   5.538   5.277  0.00  0.00     0.150 A 
ATOM      5  C4  UNL d   1       4.802   5.612   5.981  0.00  0.00    -0.007 A 
ATOM      6  C5  UNL d   1       5.996   5.820   5.292  0.00  0.00     0.039 A 
ENDROOT
BRANCH   4   7
ATOM      7  O   UNL d   1       2.463   5.327   5.991  0.00  0.00    -0.526 OA
ATOM      8  H5  UNL d   1       1.717   5.270   5.370  0.00  0.00     0.418 HD
ENDBRANCH   4   7
TORSDOF 1
ENDMDL
