MODEL 1
REMARK minimizedAffinity 3.47288275
REMARK minimizedRMSD -1
REMARK  1 active torsions:
REMARK  status: ('A' for Active; 'I' for Inactive)
REMARK    1  A    between atoms: C3_4  and  O_7 
ROOT
ATOM      1  C   UNL d   1      -2.414   3.365  -5.567  0.00  0.00    -0.033 A 
ATOM      2  C1  UNL d   1      -2.422   2.157  -4.867  0.00  0.00     0.039 A 
ATOM      3  C2  UNL d   1      -1.222   1.495  -4.600  0.00  0.00    -0.080 A 
ATOM      4  C3  UNL d   1      -0.023   2.051  -5.037  0.00  0.00     0.150 A 
ATOM      5  C4  UNL d   1      -0.008   3.256  -5.731  0.00  0.00    -0.007 A 
ATOM      6  C5  UNL d   1      -1.207   3.916  -5.998  0.00  0.00     0.039 A 
ENDROOT
BRANCH   4   7
ATOM      7  O   UNL d   1       1.172   1.439  -4.804  0.00  0.00    -0.526 OA
ATOM      8  H5  UNL d   1       1.005   0.602  -4.340  0.00  0.00     0.418 HD
ENDBRANCH   4   7
TORSDOF 1
ENDMDL
