MODEL 1
REMARK minimizedAffinity 1.49966478
REMARK minimizedRMSD -1
REMARK  1 active torsions:
REMARK  status: ('A' for Active; 'I' for Inactive)
REMARK    1  A    between atoms: C3_4  and  O_7 
ROOT
ATOM      1  C   UNL d   1       0.981   2.624  -5.999  0.00  0.00    -0.033 A 
ATOM      2  C1  UNL d   1       1.451   2.060  -4.811  0.00  0.00     0.039 A 
ATOM      3  C2  UNL d   1       0.747   2.249  -3.621  0.00  0.00    -0.080 A 
ATOM      4  C3  UNL d   1      -0.425   3.000  -3.632  0.00  0.00     0.150 A 
ATOM      5  C4  UNL d   1      -0.901   3.561  -4.812  0.00  0.00    -0.007 A 
ATOM      6  C5  UNL d   1      -0.196   3.373  -6.000  0.00  0.00     0.039 A 
ENDROOT
BRANCH   4   7
ATOM      7  O   UNL d   1      -1.145   3.215  -2.494  0.00  0.00    -0.526 OA
ATOM      8  H5  UNL d   1      -0.681   2.792  -1.752  0.00  0.00     0.418 HD
ENDBRANCH   4   7
TORSDOF 1
ENDMDL
