MODEL 1
REMARK minimizedAffinity 0.700423241
REMARK minimizedRMSD -1
REMARK  1 active torsions:
REMARK  status: ('A' for Active; 'I' for Inactive)
REMARK    1  A    between atoms: C3_4  and  O_7 
ROOT
ATOM      1  C   UNL d   1      -2.258   2.639  -4.166  0.00  0.00    -0.033 A 
ATOM      2  C1  UNL d   1      -2.030   3.018  -5.491  0.00  0.00     0.039 A 
ATOM      3  C2  UNL d   1      -0.730   3.036  -6.000  0.00  0.00    -0.080 A 
ATOM      4  C3  UNL d   1       0.331   2.671  -5.176  0.00  0.00     0.150 A 
ATOM      5  C4  UNL d   1       0.111   2.289  -3.857  0.00  0.00    -0.007 A 
ATOM      6  C5  UNL d   1      -1.188   2.273  -3.350  0.00  0.00     0.039 A 
ENDROOT
BRANCH   4   7
ATOM      7  O   UNL d   1       1.618   2.678  -5.627  0.00  0.00    -0.526 OA
ATOM      8  H5  UNL d   1       1.620   2.991  -6.547  0.00  0.00     0.418 HD
ENDBRANCH   4   7
TORSDOF 1
ENDMDL
