MODEL 1
REMARK minimizedAffinity -1.25140429
REMARK minimizedRMSD -1
REMARK  1 active torsions:
REMARK  status: ('A' for Active; 'I' for Inactive)
REMARK    1  A    between atoms: C3_4  and  O_7 
ROOT
ATOM      1  C   UNL d   1       1.872  -4.133  -0.018  0.00  0.00    -0.033 A 
ATOM      2  C1  UNL d   1       1.146  -3.532   1.013  0.00  0.00     0.039 A 
ATOM      3  C2  UNL d   1       1.297  -2.169   1.273  0.00  0.00    -0.080 A 
ATOM      4  C3  UNL d   1       2.174  -1.418   0.496  0.00  0.00     0.150 A 
ATOM      5  C4  UNL d   1       2.898  -2.009  -0.535  0.00  0.00    -0.007 A 
ATOM      6  C5  UNL d   1       2.747  -3.370  -0.793  0.00  0.00     0.039 A 
ENDROOT
BRANCH   4   7
ATOM      7  O   UNL d   1       2.358  -0.085   0.716  0.00  0.00    -0.526 OA
ATOM      8  H5  UNL d   1       1.815   0.179   1.477  0.00  0.00     0.418 HD
ENDBRANCH   4   7
TORSDOF 1
ENDMDL
