MODEL 1
REMARK minimizedAffinity -2.57492805
REMARK minimizedRMSD -1
REMARK  1 active torsions:
REMARK  status: ('A' for Active; 'I' for Inactive)
REMARK    1  A    between atoms: C3_4  and  O_7 
ROOT
ATOM      1  C   UNL d   1      -2.407   1.394   2.218  0.00  0.00    -0.033 A 
ATOM      2  C1  UNL d   1      -2.934   2.462   1.490  0.00  0.00     0.039 A 
ATOM      3  C2  UNL d   1      -4.089   2.286   0.726  0.00  0.00    -0.080 A 
ATOM      4  C3  UNL d   1      -4.707   1.039   0.699  0.00  0.00     0.150 A 
ATOM      5  C4  UNL d   1      -4.190  -0.029   1.425  0.00  0.00    -0.007 A 
ATOM      6  C5  UNL d   1      -3.036   0.149   2.187  0.00  0.00     0.039 A 
ENDROOT
BRANCH   4   7
ATOM      7  O   UNL d   1      -5.834   0.818  -0.036  0.00  0.00    -0.526 OA
ATOM      8  H5  UNL d   1      -6.059   1.637  -0.507  0.00  0.00     0.418 HD
ENDBRANCH   4   7
TORSDOF 1
ENDMDL
