MODEL 1
REMARK minimizedAffinity 0.0326127075
REMARK minimizedRMSD -1
REMARK  1 active torsions:
REMARK  status: ('A' for Active; 'I' for Inactive)
REMARK    1  A    between atoms: C3_4  and  O_7 
ROOT
ATOM      1  C   UNL d   1      -3.974   2.090   1.373  0.00  0.00    -0.033 A 
ATOM      2  C1  UNL d   1      -2.647   2.226   1.784  0.00  0.00     0.039 A 
ATOM      3  C2  UNL d   1      -1.837   1.096   1.919  0.00  0.00    -0.080 A 
ATOM      4  C3  UNL d   1      -2.365  -0.161   1.638  0.00  0.00     0.150 A 
ATOM      5  C4  UNL d   1      -3.686  -0.303   1.225  0.00  0.00    -0.007 A 
ATOM      6  C5  UNL d   1      -4.493   0.826   1.092  0.00  0.00     0.039 A 
ENDROOT
BRANCH   4   7
ATOM      7  O   UNL d   1      -1.614  -1.292   1.760  0.00  0.00    -0.526 OA
ATOM      8  H5  UNL d   1      -0.732  -1.043   2.081  0.00  0.00     0.418 HD
ENDBRANCH   4   7
TORSDOF 1
ENDMDL
