MODEL 1
REMARK minimizedAffinity -4.59622335
REMARK minimizedRMSD -1
REMARK  1 active torsions:
REMARK  status: ('A' for Active; 'I' for Inactive)
REMARK    1  A    between atoms: C3_4  and  O_7 
ROOT
ATOM      1  C   UNL d   1      -1.504  -2.758   0.286  0.00  0.00    -0.033 A 
ATOM      2  C1  UNL d   1      -0.301  -2.549   0.964  0.00  0.00     0.039 A 
ATOM      3  C2  UNL d   1       0.911  -2.882   0.357  0.00  0.00    -0.080 A 
ATOM      4  C3  UNL d   1       0.908  -3.422  -0.926  0.00  0.00     0.150 A 
ATOM      5  C4  UNL d   1      -0.286  -3.630  -1.609  0.00  0.00    -0.007 A 
ATOM      6  C5  UNL d   1      -1.496  -3.297  -1.001  0.00  0.00     0.039 A 
ENDROOT
BRANCH   4   7
ATOM      7  O   UNL d   1       2.066  -3.767  -1.557  0.00  0.00    -0.526 OA
ATOM      8  H5  UNL d   1       2.808  -3.595  -0.954  0.00  0.00     0.418 HD
ENDBRANCH   4   7
TORSDOF 1
ENDMDL
