MODEL 1
REMARK minimizedAffinity 1.35065711
REMARK minimizedRMSD -1
REMARK  1 active torsions:
REMARK  status: ('A' for Active; 'I' for Inactive)
REMARK    1  A    between atoms: C3_4  and  O_7 
ROOT
ATOM      1  C   UNL d   1      -1.992   4.499  -4.893  0.00  0.00    -0.033 A 
ATOM      2  C1  UNL d   1      -1.096   4.485  -3.822  0.00  0.00     0.039 A 
ATOM      3  C2  UNL d   1      -0.000   3.621  -3.837  0.00  0.00    -0.080 A 
ATOM      4  C3  UNL d   1       0.189   2.777  -4.928  0.00  0.00     0.150 A 
ATOM      5  C4  UNL d   1      -0.697   2.787  -6.000  0.00  0.00    -0.007 A 
ATOM      6  C5  UNL d   1      -1.791   3.651  -5.983  0.00  0.00     0.039 A 
ENDROOT
BRANCH   4   7
ATOM      7  O   UNL d   1       1.242   1.912  -4.985  0.00  0.00    -0.526 OA
ATOM      8  H5  UNL d   1       1.753   1.995  -4.163  0.00  0.00     0.418 HD
ENDBRANCH   4   7
TORSDOF 1
ENDMDL
