MODEL 1
REMARK minimizedAffinity -0.0708452687
REMARK minimizedRMSD -1
REMARK  1 active torsions:
REMARK  status: ('A' for Active; 'I' for Inactive)
REMARK    1  A    between atoms: C3_4  and  O_7 
ROOT
ATOM      1  C   UNL d   1      -4.143   3.548  -5.997  0.00  0.00    -0.033 A 
ATOM      2  C1  UNL d   1      -3.088   2.633  -5.991  0.00  0.00     0.039 A 
ATOM      3  C2  UNL d   1      -1.768   3.086  -5.991  0.00  0.00    -0.080 A 
ATOM      4  C3  UNL d   1      -1.516   4.455  -5.995  0.00  0.00     0.150 A 
ATOM      5  C4  UNL d   1      -2.562   5.373  -5.997  0.00  0.00    -0.007 A 
ATOM      6  C5  UNL d   1      -3.880   4.918  -5.999  0.00  0.00     0.039 A 
ENDROOT
BRANCH   4   7
ATOM      7  O   UNL d   1      -0.244   4.946  -6.000  0.00  0.00    -0.526 OA
ATOM      8  H5  UNL d   1       0.375   4.197  -6.027  0.00  0.00     0.418 HD
ENDBRANCH   4   7
TORSDOF 1
ENDMDL
