MODEL 1
REMARK minimizedAffinity -4.94344664
REMARK minimizedRMSD -1
REMARK  1 active torsions:
REMARK  status: ('A' for Active; 'I' for Inactive)
REMARK    1  A    between atoms: C3_4  and  O_7 
ROOT
ATOM      1  C   UNL d   1       1.438  -2.780   1.903  0.00  0.00    -0.033 A 
ATOM      2  C1  UNL d   1       0.160  -2.370   2.285  0.00  0.00     0.039 A 
ATOM      3  C2  UNL d   1      -0.540  -1.444   1.508  0.00  0.00    -0.080 A 
ATOM      4  C3  UNL d   1       0.048  -0.939   0.352  0.00  0.00     0.150 A 
ATOM      5  C4  UNL d   1       1.320  -1.347  -0.037  0.00  0.00    -0.007 A 
ATOM      6  C5  UNL d   1       2.018  -2.270   0.741  0.00  0.00     0.039 A 
ENDROOT
BRANCH   4   7
ATOM      7  O   UNL d   1      -0.594  -0.030  -0.435  0.00  0.00    -0.526 OA
ATOM      8  H5  UNL d   1      -1.450   0.180  -0.027  0.00  0.00     0.418 HD
ENDBRANCH   4   7
TORSDOF 1
ENDMDL
