MODEL 1
REMARK minimizedAffinity -3.20819068
REMARK minimizedRMSD -1
REMARK  1 active torsions:
REMARK  status: ('A' for Active; 'I' for Inactive)
REMARK    1  A    between atoms: C3_4  and  O_7 
ROOT
ATOM      1  C   UNL d   1      -0.394  -0.459   0.173  0.00  0.00    -0.033 A 
ATOM      2  C1  UNL d   1       0.978  -0.307  -0.037  0.00  0.00     0.039 A 
ATOM      3  C2  UNL d   1       1.865  -1.301   0.380  0.00  0.00    -0.080 A 
ATOM      4  C3  UNL d   1       1.368  -2.442   1.003  0.00  0.00     0.150 A 
ATOM      5  C4  UNL d   1       0.002  -2.603   1.212  0.00  0.00    -0.007 A 
ATOM      6  C5  UNL d   1      -0.882  -1.608   0.796  0.00  0.00     0.039 A 
ENDROOT
BRANCH   4   7
ATOM      7  O   UNL d   1       2.195  -3.438   1.432  0.00  0.00    -0.526 OA
ATOM      8  H5  UNL d   1       3.113  -3.177   1.246  0.00  0.00     0.418 HD
ENDBRANCH   4   7
TORSDOF 1
ENDMDL
