MODEL 1
REMARK minimizedAffinity -5.21927166
REMARK minimizedRMSD -1
REMARK  1 active torsions:
REMARK  status: ('A' for Active; 'I' for Inactive)
REMARK    1  A    between atoms: C3_4  and  O_7 
ROOT
ATOM      1  C   UNL d   1      -0.000   0.278  -0.214  0.00  0.00    -0.033 A 
ATOM      2  C1  UNL d   1       1.359  -0.001  -0.375  0.00  0.00     0.039 A 
ATOM      3  C2  UNL d   1       1.881  -1.217   0.069  0.00  0.00    -0.080 A 
ATOM      4  C3  UNL d   1       1.035  -2.145   0.671  0.00  0.00     0.150 A 
ATOM      5  C4  UNL d   1      -0.320  -1.875   0.831  0.00  0.00    -0.007 A 
ATOM      6  C5  UNL d   1      -0.840  -0.660   0.387  0.00  0.00     0.039 A 
ENDROOT
BRANCH   4   7
ATOM      7  O   UNL d   1       1.500  -3.343   1.125  0.00  0.00    -0.526 OA
ATOM      8  H5  UNL d   1       2.459  -3.379   0.973  0.00  0.00     0.418 HD
ENDBRANCH   4   7
TORSDOF 1
ENDMDL
