MODEL 1
REMARK minimizedAffinity -5.11484528
REMARK minimizedRMSD -1
REMARK  1 active torsions:
REMARK  status: ('A' for Active; 'I' for Inactive)
REMARK    1  A    between atoms: C3_4  and  O_7 
ROOT
ATOM      1  C   UNL d   1       0.745   0.295  -0.233  0.00  0.00    -0.033 A 
ATOM      2  C1  UNL d   1       2.092  -0.049  -0.099  0.00  0.00     0.039 A 
ATOM      3  C2  UNL d   1       2.448  -1.278   0.460  0.00  0.00    -0.080 A 
ATOM      4  C3  UNL d   1       1.449  -2.153   0.879  0.00  0.00     0.150 A 
ATOM      5  C4  UNL d   1       0.106  -1.818   0.745  0.00  0.00    -0.007 A 
ATOM      6  C5  UNL d   1      -0.248  -0.590   0.187  0.00  0.00     0.039 A 
ENDROOT
BRANCH   4   7
ATOM      7  O   UNL d   1       1.748  -3.361   1.435  0.00  0.00    -0.526 OA
ATOM      8  H5  UNL d   1       2.715  -3.444   1.491  0.00  0.00     0.418 HD
ENDBRANCH   4   7
TORSDOF 1
ENDMDL
