MODEL 1
REMARK minimizedAffinity -3.56132102
REMARK minimizedRMSD -1
REMARK  1 active torsions:
REMARK  status: ('A' for Active; 'I' for Inactive)
REMARK    1  A    between atoms: C3_4  and  O_7 
ROOT
ATOM      1  C   UNL d   1       0.677   0.289  -0.173  0.00  0.00    -0.033 A 
ATOM      2  C1  UNL d   1       2.016  -0.104  -0.213  0.00  0.00     0.039 A 
ATOM      3  C2  UNL d   1       2.387  -1.372   0.237  0.00  0.00    -0.080 A 
ATOM      4  C3  UNL d   1       1.410  -2.237   0.724  0.00  0.00     0.150 A 
ATOM      5  C4  UNL d   1       0.074  -1.853   0.763  0.00  0.00    -0.007 A 
ATOM      6  C5  UNL d   1      -0.294  -0.586   0.314  0.00  0.00     0.039 A 
ENDROOT
BRANCH   4   7
ATOM      7  O   UNL d   1       1.724  -3.483   1.179  0.00  0.00    -0.526 OA
ATOM      8  H5  UNL d   1       2.687  -3.599   1.118  0.00  0.00     0.418 HD
ENDBRANCH   4   7
TORSDOF 1
ENDMDL
