MODEL 1
REMARK minimizedAffinity -1.88886344
REMARK minimizedRMSD -1
REMARK  1 active torsions:
REMARK  status: ('A' for Active; 'I' for Inactive)
REMARK    1  A    between atoms: C3_4  and  O_7 
ROOT
ATOM      1  C   UNL d   1       0.193   0.088  -0.382  0.00  0.00    -0.033 A 
ATOM      2  C1  UNL d   1       1.411   0.636  -0.789  0.00  0.00     0.039 A 
ATOM      3  C2  UNL d   1       2.603   0.207  -0.202  0.00  0.00    -0.080 A 
ATOM      4  C3  UNL d   1       2.563  -0.769   0.790  0.00  0.00     0.150 A 
ATOM      5  C4  UNL d   1       1.354  -1.322   1.198  0.00  0.00    -0.007 A 
ATOM      6  C5  UNL d   1       0.165  -0.892   0.610  0.00  0.00     0.039 A 
ENDROOT
BRANCH   4   7
ATOM      7  O   UNL d   1       3.700  -1.216   1.396  0.00  0.00    -0.526 OA
ATOM      8  H5  UNL d   1       4.455  -0.724   1.034  0.00  0.00     0.418 HD
ENDBRANCH   4   7
TORSDOF 1
ENDMDL
