MODEL 1
REMARK minimizedAffinity -2.6276834
REMARK minimizedRMSD -1
REMARK  1 active torsions:
REMARK  status: ('A' for Active; 'I' for Inactive)
REMARK    1  A    between atoms: C3_4  and  O_7 
ROOT
ATOM      1  C   UNL d   1      -1.172   0.305   0.392  0.00  0.00    -0.033 A 
ATOM      2  C1  UNL d   1      -1.626  -0.549   1.400  0.00  0.00     0.039 A 
ATOM      3  C2  UNL d   1      -0.951  -1.742   1.663  0.00  0.00    -0.080 A 
ATOM      4  C3  UNL d   1       0.175  -2.070   0.914  0.00  0.00     0.150 A 
ATOM      5  C4  UNL d   1       0.635  -1.223  -0.089  0.00  0.00    -0.007 A 
ATOM      6  C5  UNL d   1      -0.040  -0.032  -0.351  0.00  0.00     0.039 A 
ENDROOT
BRANCH   4   7
ATOM      7  O   UNL d   1       0.864  -3.226   1.131  0.00  0.00    -0.526 OA
ATOM      8  H5  UNL d   1       0.414  -3.725   1.833  0.00  0.00     0.418 HD
ENDBRANCH   4   7
TORSDOF 1
ENDMDL
