MODEL 1
REMARK minimizedAffinity -4.83319759
REMARK minimizedRMSD -1
REMARK  1 active torsions:
REMARK  status: ('A' for Active; 'I' for Inactive)
REMARK    1  A    between atoms: C3_4  and  O_7 
ROOT
ATOM      1  C   UNL d   1       1.572  -2.035   1.314  0.00  0.00    -0.033 A 
ATOM      2  C1  UNL d   1       0.303  -2.474   0.933  0.00  0.00     0.039 A 
ATOM      3  C2  UNL d   1      -0.531  -1.641   0.184  0.00  0.00    -0.080 A 
ATOM      4  C3  UNL d   1      -0.082  -0.374  -0.179  0.00  0.00     0.150 A 
ATOM      5  C4  UNL d   1       1.183   0.068   0.193  0.00  0.00    -0.007 A 
ATOM      6  C5  UNL d   1       2.013  -0.765   0.943  0.00  0.00     0.039 A 
ENDROOT
BRANCH   4   7
ATOM      7  O   UNL d   1      -0.862   0.476  -0.906  0.00  0.00    -0.526 OA
ATOM      8  H5  UNL d   1      -1.719   0.047  -1.066  0.00  0.00     0.418 HD
ENDBRANCH   4   7
TORSDOF 1
ENDMDL
