MODEL 1
REMARK minimizedAffinity -4.78801298
REMARK minimizedRMSD -1
REMARK  1 active torsions:
REMARK  status: ('A' for Active; 'I' for Inactive)
REMARK    1  A    between atoms: C3_4  and  O_7 
ROOT
ATOM      1  C   UNL d   1       0.179   0.904  -0.231  0.00  0.00    -0.033 A 
ATOM      2  C1  UNL d   1      -0.694  -0.081   0.234  0.00  0.00     0.039 A 
ATOM      3  C2  UNL d   1      -0.205  -1.340   0.586  0.00  0.00    -0.080 A 
ATOM      4  C3  UNL d   1       1.157  -1.602   0.469  0.00  0.00     0.150 A 
ATOM      5  C4  UNL d   1       2.034  -0.624   0.010  0.00  0.00    -0.007 A 
ATOM      6  C5  UNL d   1       1.544   0.633  -0.341  0.00  0.00     0.039 A 
ENDROOT
BRANCH   4   7
ATOM      7  O   UNL d   1       1.680  -2.817   0.796  0.00  0.00    -0.526 OA
ATOM      8  H5  UNL d   1       0.953  -3.402   1.070  0.00  0.00     0.418 HD
ENDBRANCH   4   7
TORSDOF 1
ENDMDL
