MODEL 1
REMARK minimizedAffinity -3.68677783
REMARK minimizedRMSD -1
REMARK  1 active torsions:
REMARK  status: ('A' for Active; 'I' for Inactive)
REMARK    1  A    between atoms: C3_4  and  O_7 
ROOT
ATOM      1  C   UNL d   1       0.553   0.128  -0.102  0.00  0.00    -0.033 A 
ATOM      2  C1  UNL d   1      -0.330  -0.951  -0.037  0.00  0.00     0.039 A 
ATOM      3  C2  UNL d   1       0.113  -2.191   0.428  0.00  0.00    -0.080 A 
ATOM      4  C3  UNL d   1       1.439  -2.338   0.825  0.00  0.00     0.150 A 
ATOM      5  C4  UNL d   1       2.323  -1.266   0.766  0.00  0.00    -0.007 A 
ATOM      6  C5  UNL d   1       1.880  -0.029   0.301  0.00  0.00     0.039 A 
ENDROOT
BRANCH   4   7
ATOM      7  O   UNL d   1       1.918  -3.530   1.281  0.00  0.00    -0.526 OA
ATOM      8  H5  UNL d   1       1.203  -4.186   1.239  0.00  0.00     0.418 HD
ENDBRANCH   4   7
TORSDOF 1
ENDMDL
