MODEL 1
REMARK minimizedAffinity -3.67553806
REMARK minimizedRMSD -1
REMARK  1 active torsions:
REMARK  status: ('A' for Active; 'I' for Inactive)
REMARK    1  A    between atoms: C3_4  and  O_7 
ROOT
ATOM      1  C   UNL d   1       1.330  -2.432   1.281  0.00  0.00    -0.033 A 
ATOM      2  C1  UNL d   1       1.992  -1.532   0.444  0.00  0.00     0.039 A 
ATOM      3  C2  UNL d   1       1.269  -0.552  -0.240  0.00  0.00    -0.080 A 
ATOM      4  C3  UNL d   1      -0.112  -0.483  -0.078  0.00  0.00     0.150 A 
ATOM      5  C4  UNL d   1      -0.777  -1.375   0.757  0.00  0.00    -0.007 A 
ATOM      6  C5  UNL d   1      -0.054  -2.353   1.439  0.00  0.00     0.039 A 
ENDROOT
BRANCH   4   7
ATOM      7  O   UNL d   1      -0.859   0.452  -0.729  0.00  0.00    -0.526 OA
ATOM      8  H5  UNL d   1      -0.269   0.980  -1.293  0.00  0.00     0.418 HD
ENDBRANCH   4   7
TORSDOF 1
ENDMDL
