MODEL 1
REMARK minimizedAffinity -2.54655957
REMARK minimizedRMSD -1
REMARK  1 active torsions:
REMARK  status: ('A' for Active; 'I' for Inactive)
REMARK    1  A    between atoms: C3_4  and  O_7 
ROOT
ATOM      1  C   UNL d   1       1.416  -1.697   0.549  0.00  0.00    -0.033 A 
ATOM      2  C1  UNL d   1       1.941  -0.586  -0.114  0.00  0.00     0.039 A 
ATOM      3  C2  UNL d   1       1.095   0.439  -0.542  0.00  0.00    -0.080 A 
ATOM      4  C3  UNL d   1      -0.272   0.341  -0.300  0.00  0.00     0.150 A 
ATOM      5  C4  UNL d   1      -0.802  -0.761   0.364  0.00  0.00    -0.007 A 
ATOM      6  C5  UNL d   1       0.045  -1.783   0.789  0.00  0.00     0.039 A 
ENDROOT
BRANCH   4   7
ATOM      7  O   UNL d   1      -1.139   1.314  -0.702  0.00  0.00    -0.526 OA
ATOM      8  H5  UNL d   1      -0.635   2.000  -1.172  0.00  0.00     0.418 HD
ENDBRANCH   4   7
TORSDOF 1
ENDMDL
