MODEL 1
REMARK minimizedAffinity -4.80009794
REMARK minimizedRMSD -1
REMARK  1 active torsions:
REMARK  status: ('A' for Active; 'I' for Inactive)
REMARK    1  A    between atoms: C3_4  and  O_7 
ROOT
ATOM      1  C   UNL d   1      -0.033   0.570   0.033  0.00  0.00    -0.033 A 
ATOM      2  C1  UNL d   1       1.327   0.402  -0.238  0.00  0.00     0.039 A 
ATOM      3  C2  UNL d   1       1.953  -0.813   0.046  0.00  0.00    -0.080 A 
ATOM      4  C3  UNL d   1       1.210  -1.851   0.600  0.00  0.00     0.150 A 
ATOM      5  C4  UNL d   1      -0.146  -1.693   0.870  0.00  0.00    -0.007 A 
ATOM      6  C5  UNL d   1      -0.769  -0.479   0.586  0.00  0.00     0.039 A 
ENDROOT
BRANCH   4   7
ATOM      7  O   UNL d   1       1.778  -3.054   0.899  0.00  0.00    -0.526 OA
ATOM      8  H5  UNL d   1       2.725  -3.008   0.685  0.00  0.00     0.418 HD
ENDBRANCH   4   7
TORSDOF 1
ENDMDL
