MODEL 1
REMARK minimizedAffinity -3.65727806
REMARK minimizedRMSD -1
REMARK  1 active torsions:
REMARK  status: ('A' for Active; 'I' for Inactive)
REMARK    1  A    between atoms: C3_4  and  O_7 
ROOT
ATOM      1  C   UNL d   1      -2.732   1.019  -2.386  0.00  0.00    -0.033 A 
ATOM      2  C1  UNL d   1      -1.744   1.491  -1.519  0.00  0.00     0.039 A 
ATOM      3  C2  UNL d   1      -0.789   2.401  -1.976  0.00  0.00    -0.080 A 
ATOM      4  C3  UNL d   1      -0.833   2.831  -3.300  0.00  0.00     0.150 A 
ATOM      5  C4  UNL d   1      -1.816   2.368  -4.167  0.00  0.00    -0.007 A 
ATOM      6  C5  UNL d   1      -2.769   1.459  -3.710  0.00  0.00     0.039 A 
ENDROOT
BRANCH   4   7
ATOM      7  O   UNL d   1       0.081   3.715  -3.793  0.00  0.00    -0.526 OA
ATOM      8  H5  UNL d   1       0.716   3.925  -3.088  0.00  0.00     0.418 HD
ENDBRANCH   4   7
TORSDOF 1
ENDMDL
