MODEL 1
REMARK minimizedAffinity -2.21634865
REMARK minimizedRMSD -1
REMARK  1 active torsions:
REMARK  status: ('A' for Active; 'I' for Inactive)
REMARK    1  A    between atoms: C3_4  and  O_7 
ROOT
ATOM      1  C   UNL d   1      -1.389  -1.066   1.641  0.00  0.00    -0.033 A 
ATOM      2  C1  UNL d   1      -0.468  -1.112   0.593  0.00  0.00     0.039 A 
ATOM      3  C2  UNL d   1       0.705  -1.857   0.725  0.00  0.00    -0.080 A 
ATOM      4  C3  UNL d   1       0.945  -2.551   1.908  0.00  0.00     0.150 A 
ATOM      5  C4  UNL d   1       0.030  -2.512   2.955  0.00  0.00    -0.007 A 
ATOM      6  C5  UNL d   1      -1.141  -1.767   2.821  0.00  0.00     0.039 A 
ENDROOT
BRANCH   4   7
ATOM      7  O   UNL d   1       2.078  -3.288   2.085  0.00  0.00    -0.526 OA
ATOM      8  H5  UNL d   1       2.630  -3.199   1.290  0.00  0.00     0.418 HD
ENDBRANCH   4   7
TORSDOF 1
ENDMDL
