MODEL 1
REMARK minimizedAffinity 24.7193089
REMARK minimizedRMSD -1
REMARK  0 active torsions:
REMARK  status: ('A' for Active; 'I' for Inactive)
ROOT
ATOM      1  C1  DEN d   1      -2.278   3.442  -0.030  0.00  0.00     0.130 A 
ATOM      2  C2  DEN d   1      -3.102   3.904   1.083  0.00  0.00    -0.031 A 
ATOM      3  C3  DEN d   1      -4.174   2.912   1.300  0.00  0.00     0.027 A 
ATOM      4  C4  DEN d   1      -4.633   0.714   0.030  0.00  0.00     0.027 A 
ATOM      5  C5  DEN d   1      -4.210  -0.095  -1.001  0.00  0.00    -0.003 A 
ATOM      6  C6  DEN d   1      -3.143   0.231  -1.796  0.00  0.00     0.001 A 
ATOM      7  C7  DEN d   1      -2.434   1.376  -1.544  0.00  0.00     0.017 A 
ATOM      8  C8  DEN d   1      -2.859   2.201  -0.511  0.00  0.00    -0.094 A 
ATOM      9  C9  DEN d   1      -3.932   1.847   0.289  0.00  0.00    -0.072 A 
ENDROOT
TORSDOF 0
ENDMDL
