MODEL 1
REMARK minimizedAffinity 15.5420856
REMARK minimizedRMSD -1
REMARK  0 active torsions:
REMARK  status: ('A' for Active; 'I' for Inactive)
ROOT
ATOM      1  C1  DEN d   1      -3.221  -0.194  -3.474  0.00  0.00     0.130 A 
ATOM      2  C2  DEN d   1      -1.841  -0.210  -2.998  0.00  0.00    -0.031 A 
ATOM      3  C3  DEN d   1      -1.844   0.177  -1.573  0.00  0.00     0.027 A 
ATOM      4  C4  DEN d   1      -3.844   0.793  -0.064  0.00  0.00     0.027 A 
ATOM      5  C5  DEN d   1      -5.210   0.959  -0.024  0.00  0.00    -0.003 A 
ATOM      6  C6  DEN d   1      -6.000   0.787  -1.130  0.00  0.00     0.001 A 
ATOM      7  C7  DEN d   1      -5.433   0.394  -2.314  0.00  0.00     0.017 A 
ATOM      8  C8  DEN d   1      -4.055   0.232  -2.364  0.00  0.00    -0.094 A 
ATOM      9  C9  DEN d   1      -3.275   0.398  -1.232  0.00  0.00    -0.072 A 
ENDROOT
TORSDOF 0
ENDMDL
