MODEL 1
REMARK minimizedAffinity 2.88368845
REMARK minimizedRMSD -1
REMARK  0 active torsions:
REMARK  status: ('A' for Active; 'I' for Inactive)
ROOT
ATOM      1  C1  DEN d   1       2.555  -2.245  -1.170  0.00  0.00     0.130 A 
ATOM      2  C2  DEN d   1       2.072  -2.224   0.208  0.00  0.00    -0.031 A 
ATOM      3  C3  DEN d   1       2.307  -0.872   0.753  0.00  0.00     0.027 A 
ATOM      4  C4  DEN d   1       3.361   1.181  -0.398  0.00  0.00     0.027 A 
ATOM      5  C5  DEN d   1       3.933   1.645  -1.562  0.00  0.00    -0.003 A 
ATOM      6  C6  DEN d   1       4.115   0.842  -2.656  0.00  0.00     0.001 A 
ATOM      7  C7  DEN d   1       3.680  -0.456  -2.625  0.00  0.00     0.017 A 
ATOM      8  C8  DEN d   1       3.109  -0.934  -1.453  0.00  0.00    -0.094 A 
ATOM      9  C9  DEN d   1       2.923  -0.103  -0.361  0.00  0.00    -0.072 A 
ENDROOT
TORSDOF 0
ENDMDL
