MODEL 1
REMARK minimizedAffinity 17.7924786
REMARK minimizedRMSD -1
REMARK  0 active torsions:
REMARK  status: ('A' for Active; 'I' for Inactive)
ROOT
ATOM      1  C1  DEN d   1      -5.740   3.055  -3.162  0.00  0.00     0.130 A 
ATOM      2  C2  DEN d   1      -6.000   1.872  -3.977  0.00  0.00    -0.031 A 
ATOM      3  C3  DEN d   1      -5.684   0.680  -3.165  0.00  0.00     0.027 A 
ATOM      4  C4  DEN d   1      -4.828   0.552  -0.735  0.00  0.00     0.027 A 
ATOM      5  C5  DEN d   1      -4.446   1.294   0.361  0.00  0.00    -0.003 A 
ATOM      6  C6  DEN d   1      -4.437   2.664   0.348  0.00  0.00     0.001 A 
ATOM      7  C7  DEN d   1      -4.860   3.335  -0.768  0.00  0.00     0.017 A 
ATOM      8  C8  DEN d   1      -5.239   2.594  -1.880  0.00  0.00    -0.094 A 
ATOM      9  C9  DEN d   1      -5.253   1.210  -1.844  0.00  0.00    -0.072 A 
ENDROOT
TORSDOF 0
ENDMDL
