MODEL 1
REMARK minimizedAffinity 5.30873632
REMARK minimizedRMSD -1
REMARK  2 active torsions:
REMARK  status: ('A' for Active; 'I' for Inactive)
REMARK    1  A    between atoms: C1_2  and  C2_3 
REMARK    2  A    between atoms: C2_3  and  C3_4 
ROOT
ATOM      1  C3  UNL d   1       1.781   5.107   5.760  0.00  0.00    -0.075 A 
ATOM      2  C4  UNL d   1       3.012   5.750   5.562  0.00  0.00     0.002 A 
ATOM      3  C5  UNL d   1       4.200   5.019   5.557  0.00  0.00     0.002 A 
ATOM      4  C6  UNL d   1       4.174   3.641   5.760  0.00  0.00    -0.004 A 
ATOM      5  C7  UNL d   1       2.959   2.994   5.974  0.00  0.00     0.002 A 
ATOM      6  C8  UNL d   1       1.768   3.723   5.975  0.00  0.00     0.002 A 
ENDROOT
BRANCH   1   7
ATOM      7  C2  UNL d   1       0.489   5.889   5.737  0.00  0.00     0.056 C 
BRANCH   7   8
ATOM      8  C1  UNL d   1      -0.572   5.312   4.794  0.00  0.00     0.007 C 
ATOM      9  C   UNL d   1      -0.600   5.995   3.433  0.00  0.00     0.009 C 
ENDBRANCH   7   8
ENDBRANCH   1   7
TORSDOF 2
ENDMDL
