MODEL 1
REMARK minimizedAffinity -0.817868412
REMARK minimizedRMSD -1
REMARK  2 active torsions:
REMARK  status: ('A' for Active; 'I' for Inactive)
REMARK    1  A    between atoms: C1_2  and  C2_3 
REMARK    2  A    between atoms: C2_3  and  C3_4 
ROOT
ATOM      1  C3  UNL d   1       0.075  -2.527   4.535  0.00  0.00    -0.075 A 
ATOM      2  C4  UNL d   1       0.284  -1.897   5.771  0.00  0.00     0.002 A 
ATOM      3  C5  UNL d   1       1.443  -1.154   6.000  0.00  0.00     0.002 A 
ATOM      4  C6  UNL d   1       2.409  -1.039   5.003  0.00  0.00    -0.004 A 
ATOM      5  C7  UNL d   1       2.219  -1.674   3.777  0.00  0.00     0.002 A 
ATOM      6  C8  UNL d   1       1.059  -2.415   3.544  0.00  0.00     0.002 A 
ENDROOT
BRANCH   1   7
ATOM      7  C2  UNL d   1      -1.190  -3.308   4.271  0.00  0.00     0.056 C 
BRANCH   7   8
ATOM      8  C1  UNL d   1      -1.110  -4.782   4.684  0.00  0.00     0.007 C 
ATOM      9  C   UNL d   1      -0.374  -4.998   6.000  0.00  0.00     0.009 C 
ENDBRANCH   7   8
ENDBRANCH   1   7
TORSDOF 2
ENDMDL
