MODEL 1
REMARK minimizedAffinity -0.209664315
REMARK minimizedRMSD -1
REMARK  2 active torsions:
REMARK  status: ('A' for Active; 'I' for Inactive)
REMARK    1  A    between atoms: C1_2  and  C2_3 
REMARK    2  A    between atoms: C2_3  and  C3_4 
ROOT
ATOM      1  C3  UNL d   1       4.102   1.488   5.971  0.00  0.00    -0.075 A 
ATOM      2  C4  UNL d   1       5.442   1.901   5.966  0.00  0.00     0.002 A 
ATOM      3  C5  UNL d   1       5.764   3.258   5.983  0.00  0.00     0.002 A 
ATOM      4  C6  UNL d   1       4.754   4.217   5.995  0.00  0.00    -0.004 A 
ATOM      5  C7  UNL d   1       3.419   3.818   5.984  0.00  0.00     0.002 A 
ATOM      6  C8  UNL d   1       3.094   2.461   5.971  0.00  0.00     0.002 A 
ENDROOT
BRANCH   1   7
ATOM      7  C2  UNL d   1       3.746   0.020   5.982  0.00  0.00     0.056 C 
BRANCH   7   8
ATOM      8  C1  UNL d   1       3.122  -0.480   4.675  0.00  0.00     0.007 C 
ATOM      9  C   UNL d   1       2.384  -1.803   4.830  0.00  0.00     0.009 C 
ENDBRANCH   7   8
ENDBRANCH   1   7
TORSDOF 2
ENDMDL
