MODEL 1
REMARK minimizedAffinity -3.34766436
REMARK minimizedRMSD -1
REMARK  2 active torsions:
REMARK  status: ('A' for Active; 'I' for Inactive)
REMARK    1  A    between atoms: C1_2  and  C2_3 
REMARK    2  A    between atoms: C2_3  and  C3_4 
ROOT
ATOM      1  C3  UNL d   1       2.681   3.765   5.228  0.00  0.00    -0.075 A 
ATOM      2  C4  UNL d   1       2.072   2.765   6.000  0.00  0.00     0.002 A 
ATOM      3  C5  UNL d   1       2.576   1.464   5.999  0.00  0.00     0.002 A 
ATOM      4  C6  UNL d   1       3.686   1.145   5.221  0.00  0.00    -0.004 A 
ATOM      5  C7  UNL d   1       4.289   2.126   4.437  0.00  0.00     0.002 A 
ATOM      6  C8  UNL d   1       3.789   3.430   4.439  0.00  0.00     0.002 A 
ENDROOT
BRANCH   1   7
ATOM      7  C2  UNL d   1       2.158   5.182   5.247  0.00  0.00     0.056 C 
BRANCH   7   8
ATOM      8  C1  UNL d   1       0.629   5.282   5.255  0.00  0.00     0.007 C 
ATOM      9  C   UNL d   1       0.067   6.000   4.035  0.00  0.00     0.009 C 
ENDBRANCH   7   8
ENDBRANCH   1   7
TORSDOF 2
ENDMDL
