MODEL 1
REMARK minimizedAffinity 4.58966255
REMARK minimizedRMSD -1
REMARK  2 active torsions:
REMARK  status: ('A' for Active; 'I' for Inactive)
REMARK    1  A    between atoms: C1_2  and  C2_3 
REMARK    2  A    between atoms: C2_3  and  C3_4 
ROOT
ATOM      1  C3  UNL d   1      -3.526   0.334  -0.336  0.00  0.00    -0.075 A 
ATOM      2  C4  UNL d   1      -4.740  -0.181  -0.815  0.00  0.00     0.002 A 
ATOM      3  C5  UNL d   1      -5.914  -0.026  -0.078  0.00  0.00     0.002 A 
ATOM      4  C6  UNL d   1      -5.889   0.634   1.148  0.00  0.00    -0.004 A 
ATOM      5  C7  UNL d   1      -4.686   1.135   1.641  0.00  0.00     0.002 A 
ATOM      6  C8  UNL d   1      -3.510   0.986   0.904  0.00  0.00     0.002 A 
ENDROOT
BRANCH   1   7
ATOM      7  C2  UNL d   1      -2.257   0.197  -1.143  0.00  0.00     0.056 C 
BRANCH   7   8
ATOM      8  C1  UNL d   1      -2.463  -0.421  -2.530  0.00  0.00     0.007 C 
ATOM      9  C   UNL d   1      -2.917   0.590  -3.575  0.00  0.00     0.009 C 
ENDBRANCH   7   8
ENDBRANCH   1   7
TORSDOF 2
ENDMDL
