MODEL 1
REMARK minimizedAffinity 7.1340003
REMARK minimizedRMSD -1
REMARK  2 active torsions:
REMARK  status: ('A' for Active; 'I' for Inactive)
REMARK    1  A    between atoms: C1_2  and  C2_3 
REMARK    2  A    between atoms: C2_3  and  C3_4 
ROOT
ATOM      1  C3  UNL d   1       3.698   0.668  -0.448  0.00  0.00    -0.075 A 
ATOM      2  C4  UNL d   1       3.268   1.887   0.096  0.00  0.00     0.002 A 
ATOM      3  C5  UNL d   1       4.194   2.866   0.460  0.00  0.00     0.002 A 
ATOM      4  C6  UNL d   1       5.558   2.635   0.295  0.00  0.00    -0.004 A 
ATOM      5  C7  UNL d   1       5.996   1.420  -0.229  0.00  0.00     0.002 A 
ATOM      6  C8  UNL d   1       5.072   0.441  -0.598  0.00  0.00     0.002 A 
ENDROOT
BRANCH   1   7
ATOM      7  C2  UNL d   1       2.700  -0.383  -0.871  0.00  0.00     0.056 C 
BRANCH   7   8
ATOM      8  C1  UNL d   1       2.938  -1.759  -0.241  0.00  0.00     0.007 C 
ATOM      9  C   UNL d   1       2.380  -2.906  -1.074  0.00  0.00     0.009 C 
ENDBRANCH   7   8
ENDBRANCH   1   7
TORSDOF 2
ENDMDL
