MODEL 1
REMARK minimizedAffinity 1.86554766
REMARK minimizedRMSD -1
REMARK  2 active torsions:
REMARK  status: ('A' for Active; 'I' for Inactive)
REMARK    1  A    between atoms: C1_2  and  C2_3 
REMARK    2  A    between atoms: C2_3  and  C3_4 
ROOT
ATOM      1  C3  UNL d   1       4.965   2.818   3.246  0.00  0.00    -0.075 A 
ATOM      2  C4  UNL d   1       4.802   1.653   4.009  0.00  0.00     0.002 A 
ATOM      3  C5  UNL d   1       4.417   1.730   5.348  0.00  0.00     0.002 A 
ATOM      4  C6  UNL d   1       4.201   2.971   5.943  0.00  0.00    -0.004 A 
ATOM      5  C7  UNL d   1       4.376   4.136   5.199  0.00  0.00     0.002 A 
ATOM      6  C8  UNL d   1       4.757   4.061   3.858  0.00  0.00     0.002 A 
ENDROOT
BRANCH   1   7
ATOM      7  C2  UNL d   1       5.352   2.740   1.789  0.00  0.00     0.056 C 
BRANCH   7   8
ATOM      8  C1  UNL d   1       4.161   2.624   0.832  0.00  0.00     0.007 C 
ATOM      9  C   UNL d   1       4.353   1.561  -0.241  0.00  0.00     0.009 C 
ENDBRANCH   7   8
ENDBRANCH   1   7
TORSDOF 2
ENDMDL
