MODEL 1
REMARK minimizedAffinity 7.19764233
REMARK minimizedRMSD -1
REMARK  2 active torsions:
REMARK  status: ('A' for Active; 'I' for Inactive)
REMARK    1  A    between atoms: C2'_3  and  C1'_4 
REMARK    2  A    between atoms: C1'_4  and  C1_5 
ROOT
ATOM      1  C1  I4B d   1      -3.471   2.179  -2.601  0.00  0.00    -0.075 A 
ATOM      2  C2  I4B d   1      -4.041   2.825  -1.532  0.00  0.00     0.003 A 
ATOM      3  C3  I4B d   1      -4.821   3.989  -1.736  0.00  0.00     0.002 A 
ATOM      4  C4  I4B d   1      -4.963   4.498  -3.011  0.00  0.00    -0.004 A 
ATOM      5  C5  I4B d   1      -4.403   3.829  -4.096  0.00  0.00     0.002 A 
ATOM      6  C6  I4B d   1      -3.663   2.655  -3.891  0.00  0.00     0.003 A 
ENDROOT
BRANCH   1   7
ATOM      7  C1' I4B d   1      -2.627   0.971  -2.346  0.00  0.00     0.060 C 
BRANCH   7   8
ATOM      8  C2' I4B d   1      -2.822   0.013  -3.503  0.00  0.00    -0.013 C 
ATOM      9  C4' I4B d   1      -1.732  -1.025  -3.541  0.00  0.00     0.013 C 
ATOM     10  C3' I4B d   1      -4.172  -0.625  -3.353  0.00  0.00     0.013 C 
ENDBRANCH   7   8
ENDBRANCH   1   7
TORSDOF 2
ENDMDL
