MODEL 1
REMARK minimizedAffinity 10.6102896
REMARK minimizedRMSD -1
REMARK  2 active torsions:
REMARK  status: ('A' for Active; 'I' for Inactive)
REMARK    1  A    between atoms: C2'_3  and  C1'_4 
REMARK    2  A    between atoms: C1'_4  and  C1_5 
ROOT
ATOM      1  C1  I4B d   1       2.222  -0.896   2.771  0.00  0.00    -0.075 A 
ATOM      2  C2  I4B d   1       2.915  -2.051   2.507  0.00  0.00     0.003 A 
ATOM      3  C3  I4B d   1       3.157  -2.989   3.540  0.00  0.00     0.002 A 
ATOM      4  C4  I4B d   1       2.736  -2.710   4.824  0.00  0.00    -0.004 A 
ATOM      5  C5  I4B d   1       2.014  -1.549   5.085  0.00  0.00     0.002 A 
ATOM      6  C6  I4B d   1       1.744  -0.642   4.050  0.00  0.00     0.003 A 
ENDROOT
BRANCH   1   7
ATOM      7  C1' I4B d   1       2.013   0.088   1.664  0.00  0.00     0.060 C 
BRANCH   7   8
ATOM      8  C2' I4B d   1       3.305   0.856   1.472  0.00  0.00    -0.013 C 
ATOM      9  C4' I4B d   1       3.798   0.748   0.053  0.00  0.00     0.013 C 
ATOM     10  C3' I4B d   1       3.054   2.286   1.851  0.00  0.00     0.013 C 
ENDBRANCH   7   8
ENDBRANCH   1   7
TORSDOF 2
ENDMDL
