MODEL 1
REMARK minimizedAffinity 9.26409912
REMARK minimizedRMSD -1
REMARK  2 active torsions:
REMARK  status: ('A' for Active; 'I' for Inactive)
REMARK    1  A    between atoms: C2'_3  and  C1'_4 
REMARK    2  A    between atoms: C1'_4  and  C1_5 
ROOT
ATOM      1  C1  I4B d   1      -5.885   1.502  -1.442  0.00  0.00    -0.075 A 
ATOM      2  C2  I4B d   1      -5.996   0.702  -0.332  0.00  0.00     0.003 A 
ATOM      3  C3  I4B d   1      -5.996   1.275   0.963  0.00  0.00     0.002 A 
ATOM      4  C4  I4B d   1      -5.833   2.638   1.103  0.00  0.00    -0.004 A 
ATOM      5  C5  I4B d   1      -5.743   3.450  -0.024  0.00  0.00     0.002 A 
ATOM      6  C6  I4B d   1      -5.781   2.880  -1.305  0.00  0.00     0.003 A 
ENDROOT
BRANCH   1   7
ATOM      7  C1' I4B d   1      -5.855   0.860  -2.793  0.00  0.00     0.060 C 
BRANCH   7   8
ATOM      8  C2' I4B d   1      -5.498   1.927  -3.808  0.00  0.00    -0.013 C 
ATOM      9  C4' I4B d   1      -4.012   2.174  -3.839  0.00  0.00     0.013 C 
ATOM     10  C3' I4B d   1      -5.999   1.477  -5.148  0.00  0.00     0.013 C 
ENDBRANCH   7   8
ENDBRANCH   1   7
TORSDOF 2
ENDMDL
