MODEL 1
REMARK minimizedAffinity -1.67965639
REMARK minimizedRMSD -1
REMARK  0 active torsions:
REMARK  status: ('A' for Active; 'I' for Inactive)
ROOT
ATOM      1  C4' PXY d   1       2.734  -1.592   3.883  0.00  0.00     0.077 C 
ATOM      2  C1' PXY d   1      -1.263  -0.003   0.021  0.00  0.00     0.077 C 
ATOM      3  C1  PXY d   1      -0.205  -0.417   1.025  0.00  0.00    -0.082 A 
ATOM      4  C2  PXY d   1      -0.513  -1.278   1.982  0.00  0.00     0.003 A 
ATOM      5  C3  PXY d   1       0.423  -1.638   2.917  0.00  0.00     0.003 A 
ATOM      6  C4  PXY d   1       1.701  -1.153   2.842  0.00  0.00    -0.082 A 
ATOM      7  C5  PXY d   1       2.025  -0.282   1.863  0.00  0.00     0.003 A 
ATOM      8  C6  PXY d   1       1.050   0.103   0.947  0.00  0.00     0.003 A 
ENDROOT
TORSDOF 0
ENDMDL
