MODEL 1
REMARK minimizedAffinity -2.44791508
REMARK minimizedRMSD -1
REMARK  0 active torsions:
REMARK  status: ('A' for Active; 'I' for Inactive)
ROOT
ATOM      1  C4' PXY d   1      -2.566  -0.198   1.768  0.00  0.00     0.077 C 
ATOM      2  C1' PXY d   1       3.052  -0.829   0.564  0.00  0.00     0.077 C 
ATOM      3  C1  PXY d   1       1.579  -0.676   0.885  0.00  0.00    -0.082 A 
ATOM      4  C2  PXY d   1       0.838   0.158   0.174  0.00  0.00     0.003 A 
ATOM      5  C3  PXY d   1      -0.489   0.334   0.471  0.00  0.00     0.003 A 
ATOM      6  C4  PXY d   1      -1.076  -0.392   1.473  0.00  0.00    -0.082 A 
ATOM      7  C5  PXY d   1      -0.330  -1.253   2.196  0.00  0.00     0.003 A 
ATOM      8  C6  PXY d   1       1.025  -1.386   1.905  0.00  0.00     0.003 A 
ENDROOT
TORSDOF 0
ENDMDL
