MODEL 1
REMARK minimizedAffinity 0.332068294
REMARK minimizedRMSD -1
REMARK  0 active torsions:
REMARK  status: ('A' for Active; 'I' for Inactive)
ROOT
ATOM      1  C4' PXY d   1       5.999   4.730   0.218  0.00  0.00     0.077 C 
ATOM      2  C1' PXY d   1       2.323   5.794   4.550  0.00  0.00     0.077 C 
ATOM      3  C1  PXY d   1       3.296   5.513   3.423  0.00  0.00    -0.082 A 
ATOM      4  C2  PXY d   1       3.058   6.000   2.216  0.00  0.00     0.003 A 
ATOM      5  C3  PXY d   1       3.911   5.728   1.177  0.00  0.00     0.003 A 
ATOM      6  C4  PXY d   1       5.049   4.996   1.389  0.00  0.00    -0.082 A 
ATOM      7  C5  PXY d   1       5.305   4.505   2.620  0.00  0.00     0.003 A 
ATOM      8  C6  PXY d   1       4.404   4.757   3.651  0.00  0.00     0.003 A 
ENDROOT
TORSDOF 0
ENDMDL
