MODEL 1
REMARK minimizedAffinity -5.35638094
REMARK minimizedRMSD -1
REMARK  0 active torsions:
REMARK  status: ('A' for Active; 'I' for Inactive)
ROOT
ATOM      1  C4' PXY d   1       1.853  -1.086   4.023  0.00  0.00     0.077 C 
ATOM      2  C1' PXY d   1       0.161  -0.942  -1.503  0.00  0.00     0.077 C 
ATOM      3  C1  PXY d   1       0.613  -0.990  -0.056  0.00  0.00    -0.082 A 
ATOM      4  C2  PXY d   1      -0.179  -0.517   0.892  0.00  0.00     0.003 A 
ATOM      5  C3  PXY d   1       0.227  -0.523   2.202  0.00  0.00     0.003 A 
ATOM      6  C4  PXY d   1       1.434  -1.067   2.550  0.00  0.00    -0.082 A 
ATOM      7  C5  PXY d   1       2.244  -1.560   1.590  0.00  0.00     0.003 A 
ATOM      8  C6  PXY d   1       1.831  -1.507   0.262  0.00  0.00     0.003 A 
ENDROOT
TORSDOF 0
ENDMDL
