MODEL 1
REMARK minimizedAffinity -3.81472278
REMARK minimizedRMSD -1
REMARK  0 active torsions:
REMARK  status: ('A' for Active; 'I' for Inactive)
ROOT
ATOM      1  C4' PXY d   1      -0.011   2.062  -2.034  0.00  0.00     0.077 C 
ATOM      2  C1' PXY d   1       0.583  -1.493   2.486  0.00  0.00     0.077 C 
ATOM      3  C1  PXY d   1       0.425  -0.571   1.293  0.00  0.00    -0.082 A 
ATOM      4  C2  PXY d   1       1.010   0.615   1.301  0.00  0.00     0.003 A 
ATOM      5  C3  PXY d   1       0.851   1.474   0.244  0.00  0.00     0.003 A 
ATOM      6  C4  PXY d   1       0.129   1.094  -0.856  0.00  0.00    -0.082 A 
ATOM      7  C5  PXY d   1      -0.462  -0.119  -0.876  0.00  0.00     0.003 A 
ATOM      8  C6  PXY d   1      -0.323  -0.960   0.224  0.00  0.00     0.003 A 
ENDROOT
TORSDOF 0
ENDMDL
