MODEL 1
REMARK minimizedAffinity -4.57268047
REMARK minimizedRMSD -1
REMARK  0 active torsions:
REMARK  status: ('A' for Active; 'I' for Inactive)
ROOT
ATOM      1  C4' PXY d   1      -1.110   0.923  -2.000  0.00  0.00     0.077 C 
ATOM      2  C1' PXY d   1       1.382  -1.288   2.724  0.00  0.00     0.077 C 
ATOM      3  C1  PXY d   1       0.717  -0.713   1.489  0.00  0.00    -0.082 A 
ATOM      4  C2  PXY d   1       1.442  -0.468   0.409  0.00  0.00     0.003 A 
ATOM      5  C3  PXY d   1       0.863   0.082  -0.705  0.00  0.00     0.003 A 
ATOM      6  C4  PXY d   1      -0.483   0.334  -0.734  0.00  0.00    -0.082 A 
ATOM      7  C5  PXY d   1      -1.231   0.077   0.359  0.00  0.00     0.003 A 
ATOM      8  C6  PXY d   1      -0.617  -0.443   1.495  0.00  0.00     0.003 A 
ENDROOT
TORSDOF 0
ENDMDL
