MODEL 1
REMARK minimizedAffinity -3.62369895
REMARK minimizedRMSD -1
REMARK  0 active torsions:
REMARK  status: ('A' for Active; 'I' for Inactive)
ROOT
ATOM      1  C4' PXY d   1      -0.242   1.721  -2.206  0.00  0.00     0.077 C 
ATOM      2  C1' PXY d   1       0.268  -1.310   2.689  0.00  0.00     0.077 C 
ATOM      3  C1  PXY d   1       0.124  -0.522   1.402  0.00  0.00    -0.082 A 
ATOM      4  C2  PXY d   1       1.193   0.024   0.846  0.00  0.00     0.003 A 
ATOM      5  C3  PXY d   1       1.075   0.767  -0.300  0.00  0.00     0.003 A 
ATOM      6  C4  PXY d   1      -0.142   0.909  -0.912  0.00  0.00    -0.082 A 
ATOM      7  C5  PXY d   1      -1.235   0.346  -0.357  0.00  0.00     0.003 A 
ATOM      8  C6  PXY d   1      -1.101  -0.370   0.829  0.00  0.00     0.003 A 
ENDROOT
TORSDOF 0
ENDMDL
