MODEL 1
REMARK minimizedAffinity -5.29701471
REMARK minimizedRMSD -1
REMARK  0 active torsions:
REMARK  status: ('A' for Active; 'I' for Inactive)
ROOT
ATOM      1  C4' PXY d   1      -0.770   0.334  -1.464  0.00  0.00     0.077 C 
ATOM      2  C1' PXY d   1       2.382  -1.484   3.027  0.00  0.00     0.077 C 
ATOM      3  C1  PXY d   1       1.567  -1.006   1.842  0.00  0.00    -0.082 A 
ATOM      4  C2  PXY d   1       0.378  -0.462   2.044  0.00  0.00     0.003 A 
ATOM      5  C3  PXY d   1      -0.387  -0.053   0.982  0.00  0.00     0.003 A 
ATOM      6  C4  PXY d   1       0.092  -0.154  -0.297  0.00  0.00    -0.082 A 
ATOM      7  C5  PXY d   1       1.309  -0.699  -0.510  0.00  0.00     0.003 A 
ATOM      8  C6  PXY d   1       2.052  -1.145   0.579  0.00  0.00     0.003 A 
ENDROOT
TORSDOF 0
ENDMDL
