MODEL 1
REMARK minimizedAffinity -2.01356077
REMARK minimizedRMSD -1
REMARK  0 active torsions:
REMARK  status: ('A' for Active; 'I' for Inactive)
ROOT
ATOM      1  C4' PXY d   1       0.015   3.458  -2.504  0.00  0.00     0.077 C 
ATOM      2  C1' PXY d   1      -1.591  -1.526  -0.057  0.00  0.00     0.077 C 
ATOM      3  C1  PXY d   1      -1.178  -0.221  -0.708  0.00  0.00    -0.082 A 
ATOM      4  C2  PXY d   1       0.011   0.295  -0.443  0.00  0.00     0.003 A 
ATOM      5  C3  PXY d   1       0.388   1.491  -0.999  0.00  0.00     0.003 A 
ATOM      6  C4  PXY d   1      -0.440   2.138  -1.877  0.00  0.00    -0.082 A 
ATOM      7  C5  PXY d   1      -1.651   1.612  -2.160  0.00  0.00     0.003 A 
ATOM      8  C6  PXY d   1      -2.031   0.419  -1.554  0.00  0.00     0.003 A 
ENDROOT
TORSDOF 0
ENDMDL
