MODEL 1
REMARK minimizedAffinity -5.06592417
REMARK minimizedRMSD -1
REMARK  0 active torsions:
REMARK  status: ('A' for Active; 'I' for Inactive)
ROOT
ATOM      1  C4' PXY d   1      -0.912   0.408  -1.694  0.00  0.00     0.077 C 
ATOM      2  C1' PXY d   1       1.523  -1.711   3.101  0.00  0.00     0.077 C 
ATOM      3  C1  PXY d   1       0.896  -1.154   1.838  0.00  0.00    -0.082 A 
ATOM      4  C2  PXY d   1      -0.284  -0.559   1.901  0.00  0.00     0.003 A 
ATOM      5  C3  PXY d   1      -0.880  -0.078   0.763  0.00  0.00     0.003 A 
ATOM      6  C4  PXY d   1      -0.237  -0.160  -0.443  0.00  0.00    -0.082 A 
ATOM      7  C5  PXY d   1       0.971  -0.757  -0.514  0.00  0.00     0.003 A 
ATOM      8  C6  PXY d   1       1.541  -1.275   0.646  0.00  0.00     0.003 A 
ENDROOT
TORSDOF 0
ENDMDL
