MODEL 1
REMARK minimizedAffinity -2.51554441
REMARK minimizedRMSD -1
REMARK  0 active torsions:
REMARK  status: ('A' for Active; 'I' for Inactive)
ROOT
ATOM      1  C4' PXY d   1      -2.667  -0.345   0.803  0.00  0.00     0.077 C 
ATOM      2  C1' PXY d   1       3.018  -1.382   0.650  0.00  0.00     0.077 C 
ATOM      3  C1  PXY d   1       1.526  -1.121   0.697  0.00  0.00    -0.082 A 
ATOM      4  C2  PXY d   1       0.955  -0.409  -0.261  0.00  0.00     0.003 A 
ATOM      5  C3  PXY d   1      -0.388  -0.136  -0.217  0.00  0.00     0.003 A 
ATOM      6  C4  PXY d   1      -1.164  -0.641   0.791  0.00  0.00    -0.082 A 
ATOM      7  C5  PXY d   1      -0.592  -1.377   1.767  0.00  0.00     0.003 A 
ATOM      8  C6  PXY d   1       0.780  -1.608   1.726  0.00  0.00     0.003 A 
ENDROOT
TORSDOF 0
ENDMDL
