MODEL 1
REMARK minimizedAffinity -5.31929874
REMARK minimizedRMSD -1
REMARK  0 active torsions:
REMARK  status: ('A' for Active; 'I' for Inactive)
ROOT
ATOM      1  C4' PXY d   1      -0.750  -1.466  -1.995  0.00  0.00     0.077 C 
ATOM      2  C1' PXY d   1       1.890  -0.257   3.004  0.00  0.00     0.077 C 
ATOM      3  C1  PXY d   1       1.188  -0.580   1.700  0.00  0.00    -0.082 A 
ATOM      4  C2  PXY d   1       1.892  -0.671   0.583  0.00  0.00     0.003 A 
ATOM      5  C3  PXY d   1       1.269  -0.930  -0.611  0.00  0.00     0.003 A 
ATOM      6  C4  PXY d   1      -0.082  -1.151  -0.653  0.00  0.00    -0.082 A 
ATOM      7  C5  PXY d   1      -0.806  -1.071   0.483  0.00  0.00     0.003 A 
ATOM      8  C6  PXY d   1      -0.160  -0.766   1.678  0.00  0.00     0.003 A 
ENDROOT
TORSDOF 0
ENDMDL
