MODEL 1
REMARK minimizedAffinity -1.58731866
REMARK minimizedRMSD -1
REMARK  0 active torsions:
REMARK  status: ('A' for Active; 'I' for Inactive)
ROOT
ATOM      1  C4' PXY d   1      -0.473   0.991  -2.413  0.00  0.00     0.077 C 
ATOM      2  C1' PXY d   1       0.496  -1.840   2.533  0.00  0.00     0.077 C 
ATOM      3  C1  PXY d   1       0.254  -1.098   1.233  0.00  0.00    -0.082 A 
ATOM      4  C2  PXY d   1      -0.839  -0.366   1.091  0.00  0.00     0.003 A 
ATOM      5  C3  PXY d   1      -1.088   0.286  -0.089  0.00  0.00     0.003 A 
ATOM      6  C4  PXY d   1      -0.184   0.232  -1.115  0.00  0.00    -0.082 A 
ATOM      7  C5  PXY d   1       0.939  -0.504  -0.974  0.00  0.00     0.003 A 
ATOM      8  C6  PXY d   1       1.154  -1.192   0.217  0.00  0.00     0.003 A 
ENDROOT
TORSDOF 0
ENDMDL
