MODEL 1
REMARK minimizedAffinity -5.09725046
REMARK minimizedRMSD -1
REMARK  0 active torsions:
REMARK  status: ('A' for Active; 'I' for Inactive)
ROOT
ATOM      1  C   UNL d   1      -0.800   0.988   2.551  0.00  0.00     0.020 A 
ATOM      2  C1  UNL d   1       0.488   1.077   2.024  0.00  0.00     0.020 A 
ATOM      3  C2  UNL d   1       0.734   0.681   0.708  0.00  0.00     0.034 A 
ATOM      4  C3  UNL d   1      -0.310   0.194  -0.087  0.00  0.00     0.017 A 
ATOM      5  C4  UNL d   1      -1.603   0.105   0.442  0.00  0.00     0.017 A 
ATOM      6  C5  UNL d   1      -1.843   0.503   1.761  0.00  0.00     0.034 A 
ATOM      7 Cl   UNL d   1      -2.942  -0.485  -0.477  0.00  0.00    -0.070 Cl
ATOM      8 Cl1  UNL d   1       0.065  -0.277  -1.706  0.00  0.00    -0.070 Cl
ENDROOT
TORSDOF 0
ENDMDL
