MODEL 1
REMARK minimizedAffinity -3.76048422
REMARK minimizedRMSD -1
REMARK  0 active torsions:
REMARK  status: ('A' for Active; 'I' for Inactive)
ROOT
ATOM      1  C   UNL d   1      -0.135   0.710   3.425  0.00  0.00     0.020 A 
ATOM      2  C1  UNL d   1       1.162   0.430   2.996  0.00  0.00     0.020 A 
ATOM      3  C2  UNL d   1       1.392   0.049   1.673  0.00  0.00     0.034 A 
ATOM      4  C3  UNL d   1       0.325  -0.053   0.773  0.00  0.00     0.017 A 
ATOM      5  C4  UNL d   1      -0.976   0.229   1.204  0.00  0.00     0.017 A 
ATOM      6  C5  UNL d   1      -1.202   0.610   2.531  0.00  0.00     0.034 A 
ATOM      7 Cl   UNL d   1      -2.344   0.126   0.153  0.00  0.00    -0.070 Cl
ATOM      8 Cl1  UNL d   1       0.684  -0.529  -0.849  0.00  0.00    -0.070 Cl
ENDROOT
TORSDOF 0
ENDMDL
