MODEL 1
REMARK minimizedAffinity -1.38667834
REMARK minimizedRMSD -1
REMARK  0 active torsions:
REMARK  status: ('A' for Active; 'I' for Inactive)
ROOT
ATOM      1  C   UNL d   1      -1.887   1.001   1.993  0.00  0.00     0.020 A 
ATOM      2  C1  UNL d   1      -2.471   0.748   0.752  0.00  0.00     0.020 A 
ATOM      3  C2  UNL d   1      -1.710   0.189  -0.276  0.00  0.00     0.034 A 
ATOM      4  C3  UNL d   1      -0.360  -0.119  -0.066  0.00  0.00     0.017 A 
ATOM      5  C4  UNL d   1       0.224   0.135   1.180  0.00  0.00     0.017 A 
ATOM      6  C5  UNL d   1      -0.542   0.695   2.206  0.00  0.00     0.034 A 
ATOM      7 Cl   UNL d   1       1.883  -0.218   1.514  0.00  0.00    -0.070 Cl
ATOM      8 Cl1  UNL d   1       0.521  -0.809  -1.383  0.00  0.00    -0.070 Cl
ENDROOT
TORSDOF 0
ENDMDL
