MODEL 1
REMARK minimizedAffinity -1.29802728
REMARK minimizedRMSD -1
REMARK  0 active torsions:
REMARK  status: ('A' for Active; 'I' for Inactive)
ROOT
ATOM      1  C   UNL d   1      -1.237  -0.174  -0.708  0.00  0.00     0.020 A 
ATOM      2  C1  UNL d   1       0.068  -0.565  -1.008  0.00  0.00     0.020 A 
ATOM      3  C2  UNL d   1       1.111  -0.242  -0.138  0.00  0.00     0.034 A 
ATOM      4  C3  UNL d   1       0.852   0.473   1.037  0.00  0.00     0.017 A 
ATOM      5  C4  UNL d   1      -0.457   0.866   1.337  0.00  0.00     0.017 A 
ATOM      6  C5  UNL d   1      -1.498   0.540   0.463  0.00  0.00     0.034 A 
ATOM      7 Cl   UNL d   1      -0.854   1.751   2.768  0.00  0.00    -0.070 Cl
ATOM      8 Cl1  UNL d   1       2.191   0.837   2.067  0.00  0.00    -0.070 Cl
ENDROOT
TORSDOF 0
ENDMDL
