MODEL 1
REMARK minimizedAffinity -3.9311378
REMARK minimizedRMSD -1
REMARK  0 active torsions:
REMARK  status: ('A' for Active; 'I' for Inactive)
ROOT
ATOM      1  C   UNL d   1      -0.190  -0.977  -0.734  0.00  0.00     0.020 A 
ATOM      2  C1  UNL d   1      -1.432  -0.447  -0.389  0.00  0.00     0.020 A 
ATOM      3  C2  UNL d   1      -1.569   0.310   0.777  0.00  0.00     0.034 A 
ATOM      4  C3  UNL d   1      -0.461   0.538   1.602  0.00  0.00     0.017 A 
ATOM      5  C4  UNL d   1       0.785   0.005   1.255  0.00  0.00     0.017 A 
ATOM      6  C5  UNL d   1       0.917  -0.752   0.086  0.00  0.00     0.034 A 
ATOM      7 Cl   UNL d   1       2.198   0.244   2.222  0.00  0.00    -0.070 Cl
ATOM      8 Cl1  UNL d   1      -0.703   1.483   3.028  0.00  0.00    -0.070 Cl
ENDROOT
TORSDOF 0
ENDMDL
