MODEL 1
REMARK minimizedAffinity 14.3428431
REMARK minimizedRMSD -1
REMARK  1 active torsions:
REMARK  status: ('A' for Active; 'I' for Inactive)
REMARK    1  A    between atoms: C1_2  and  C2_3 
ROOT
ATOM      1  C2  UNL d   1      -3.547  -3.855   1.605  0.00  0.00    -0.076 A 
ATOM      2  C3  UNL d   1      -2.419  -4.547   2.079  0.00  0.00     0.004 A 
ATOM      3  C4  UNL d   1      -1.799  -4.178   3.271  0.00  0.00    -0.003 A 
ATOM      4  C5  UNL d   1      -2.296  -3.110   4.009  0.00  0.00     0.000 A 
ATOM      5  C6  UNL d   1      -3.425  -2.422   3.563  0.00  0.00     0.000 A 
ATOM      6  C7  UNL d   1      -4.072  -2.792   2.372  0.00  0.00    -0.073 A 
ATOM      7  C8  UNL d   1      -5.282  -2.012   1.935  0.00  0.00     0.078 C 
ENDROOT
BRANCH   1   8
ATOM      8  C1  UNL d   1      -4.162  -4.284   0.292  0.00  0.00     0.053 C 
ATOM      9  C   UNL d   1      -3.475  -5.504  -0.301  0.00  0.00     0.018 C 
ENDBRANCH   1   8
TORSDOF 1
ENDMDL
