MODEL 1
REMARK minimizedAffinity 13.8897276
REMARK minimizedRMSD -1
REMARK  1 active torsions:
REMARK  status: ('A' for Active; 'I' for Inactive)
REMARK    1  A    between atoms: C1_2  and  C2_3 
ROOT
ATOM      1  C2  UNL d   1       2.313  -0.495   1.030  0.00  0.00    -0.076 A 
ATOM      2  C3  UNL d   1       1.032  -0.746   1.553  0.00  0.00     0.004 A 
ATOM      3  C4  UNL d   1       0.590  -2.050   1.774  0.00  0.00    -0.003 A 
ATOM      4  C5  UNL d   1       1.422  -3.123   1.476  0.00  0.00     0.000 A 
ATOM      5  C6  UNL d   1       2.703  -2.892   0.974  0.00  0.00     0.000 A 
ATOM      6  C7  UNL d   1       3.169  -1.584   0.761  0.00  0.00    -0.073 A 
ATOM      7  C8  UNL d   1       4.557  -1.393   0.211  0.00  0.00     0.078 C 
ENDROOT
BRANCH   1   8
ATOM      8  C1  UNL d   1       2.727   0.938   0.786  0.00  0.00     0.053 C 
ATOM      9  C   UNL d   1       1.662   1.735   0.049  0.00  0.00     0.018 C 
ENDBRANCH   1   8
TORSDOF 1
ENDMDL
