MODEL 1
REMARK minimizedAffinity 3.71632004
REMARK minimizedRMSD -1
REMARK  1 active torsions:
REMARK  status: ('A' for Active; 'I' for Inactive)
REMARK    1  A    between atoms: C1_2  and  C2_3 
ROOT
ATOM      1  C2  UNL d   1       0.319  -1.892   3.414  0.00  0.00    -0.076 A 
ATOM      2  C3  UNL d   1      -0.789  -2.749   3.294  0.00  0.00     0.004 A 
ATOM      3  C4  UNL d   1      -1.745  -2.830   4.305  0.00  0.00    -0.003 A 
ATOM      4  C5  UNL d   1      -1.610  -2.056   5.452  0.00  0.00     0.000 A 
ATOM      5  C6  UNL d   1      -0.527  -1.187   5.580  0.00  0.00     0.000 A 
ATOM      6  C7  UNL d   1       0.438  -1.081   4.563  0.00  0.00    -0.073 A 
ATOM      7  C8  UNL d   1       1.589  -0.132   4.757  0.00  0.00     0.078 C 
ENDROOT
BRANCH   1   8
ATOM      8  C1  UNL d   1       1.339  -1.865   2.298  0.00  0.00     0.053 C 
ATOM      9  C   UNL d   1       1.168  -0.664   1.381  0.00  0.00     0.018 C 
ENDBRANCH   1   8
TORSDOF 1
ENDMDL
