MODEL 1
REMARK minimizedAffinity 13.6123304
REMARK minimizedRMSD -1
REMARK  1 active torsions:
REMARK  status: ('A' for Active; 'I' for Inactive)
REMARK    1  A    between atoms: C1_2  and  C2_3 
ROOT
ATOM      1  C2  UNL d   1      -2.562   2.800  -1.705  0.00  0.00    -0.076 A 
ATOM      2  C3  UNL d   1      -1.940   2.563  -0.467  0.00  0.00     0.004 A 
ATOM      3  C4  UNL d   1      -0.554   2.453  -0.369  0.00  0.00    -0.003 A 
ATOM      4  C5  UNL d   1       0.233   2.580  -1.508  0.00  0.00     0.000 A 
ATOM      5  C6  UNL d   1      -0.365   2.834  -2.742  0.00  0.00     0.000 A 
ATOM      6  C7  UNL d   1      -1.760   2.963  -2.855  0.00  0.00    -0.073 A 
ATOM      7  C8  UNL d   1      -2.353   3.230  -4.211  0.00  0.00     0.078 C 
ENDROOT
BRANCH   1   8
ATOM      8  C1  UNL d   1      -4.071   2.882  -1.754  0.00  0.00     0.053 C 
ATOM      9  C   UNL d   1      -4.601   4.196  -1.200  0.00  0.00     0.018 C 
ENDBRANCH   1   8
TORSDOF 1
ENDMDL
