MODEL 1
REMARK minimizedAffinity 12.502594
REMARK minimizedRMSD -1
REMARK  1 active torsions:
REMARK  status: ('A' for Active; 'I' for Inactive)
REMARK    1  A    between atoms: C1_2  and  C2_3 
ROOT
ATOM      1  C2  UNL d   1       0.148  -0.798   3.654  0.00  0.00    -0.076 A 
ATOM      2  C3  UNL d   1      -1.040  -1.509   3.416  0.00  0.00     0.004 A 
ATOM      3  C4  UNL d   1      -1.924  -1.798   4.454  0.00  0.00    -0.003 A 
ATOM      4  C5  UNL d   1      -1.634  -1.379   5.748  0.00  0.00     0.000 A 
ATOM      5  C6  UNL d   1      -0.468  -0.657   6.000  0.00  0.00     0.000 A 
ATOM      6  C7  UNL d   1       0.426  -0.343   4.962  0.00  0.00    -0.073 A 
ATOM      7  C8  UNL d   1       1.672   0.433   5.291  0.00  0.00     0.078 C 
ENDROOT
BRANCH   1   8
ATOM      8  C1  UNL d   1       1.082  -0.537   2.494  0.00  0.00     0.053 C 
ATOM      9  C   UNL d   1       1.189  -1.728   1.554  0.00  0.00     0.018 C 
ENDBRANCH   1   8
TORSDOF 1
ENDMDL
