MODEL 1
REMARK minimizedAffinity 15.8731165
REMARK minimizedRMSD -1
REMARK  1 active torsions:
REMARK  status: ('A' for Active; 'I' for Inactive)
REMARK    1  A    between atoms: C1_2  and  C2_3 
ROOT
ATOM      1  C2  UNL d   1      -0.599  -1.942   3.249  0.00  0.00    -0.076 A 
ATOM      2  C3  UNL d   1       0.083  -2.224   2.052  0.00  0.00     0.004 A 
ATOM      3  C4  UNL d   1       1.054  -1.354   1.559  0.00  0.00    -0.003 A 
ATOM      4  C5  UNL d   1       1.361  -0.190   2.255  0.00  0.00     0.000 A 
ATOM      5  C6  UNL d   1       0.707   0.096   3.453  0.00  0.00     0.000 A 
ATOM      6  C7  UNL d   1      -0.264  -0.778   3.972  0.00  0.00    -0.073 A 
ATOM      7  C8  UNL d   1      -0.942  -0.417   5.265  0.00  0.00     0.078 C 
ENDROOT
BRANCH   1   8
ATOM      8  C1  UNL d   1      -1.663  -2.908   3.720  0.00  0.00     0.053 C 
ATOM      9  C   UNL d   1      -2.660  -3.256   2.626  0.00  0.00     0.018 C 
ENDBRANCH   1   8
TORSDOF 1
ENDMDL
