MODEL 1
REMARK minimizedAffinity 16.6432629
REMARK minimizedRMSD -1
REMARK  1 active torsions:
REMARK  status: ('A' for Active; 'I' for Inactive)
REMARK    1  A    between atoms: C1_2  and  C2_3 
ROOT
ATOM      1  C2  UNL d   1      -0.080   3.490  -0.815  0.00  0.00    -0.076 A 
ATOM      2  C3  UNL d   1      -0.761   4.453  -0.050  0.00  0.00     0.004 A 
ATOM      3  C4  UNL d   1      -0.081   5.525   0.524  0.00  0.00    -0.003 A 
ATOM      4  C5  UNL d   1       1.292   5.652   0.342  0.00  0.00     0.000 A 
ATOM      5  C6  UNL d   1       1.981   4.716  -0.429  0.00  0.00     0.000 A 
ATOM      6  C7  UNL d   1       1.307   3.638  -1.028  0.00  0.00    -0.073 A 
ATOM      7  C8  UNL d   1       2.100   2.655  -1.844  0.00  0.00     0.078 C 
ENDROOT
BRANCH   1   8
ATOM      8  C1  UNL d   1      -0.867   2.333  -1.390  0.00  0.00     0.053 C 
ATOM      9  C   UNL d   1      -1.934   2.787  -2.374  0.00  0.00     0.018 C 
ENDBRANCH   1   8
TORSDOF 1
ENDMDL
