MODEL 1
REMARK minimizedAffinity 15.9015465
REMARK minimizedRMSD -1
REMARK  1 active torsions:
REMARK  status: ('A' for Active; 'I' for Inactive)
REMARK    1  A    between atoms: C1_2  and  C2_3 
ROOT
ATOM      1  C2  UNL d   1      -0.447  -2.017   3.002  0.00  0.00    -0.076 A 
ATOM      2  C3  UNL d   1       0.149  -2.332   1.768  0.00  0.00     0.004 A 
ATOM      3  C4  UNL d   1       1.019  -1.440   1.143  0.00  0.00    -0.003 A 
ATOM      4  C5  UNL d   1       1.307  -0.219   1.742  0.00  0.00     0.000 A 
ATOM      5  C6  UNL d   1       0.739   0.102   2.974  0.00  0.00     0.000 A 
ATOM      6  C7  UNL d   1      -0.127  -0.792   3.626  0.00  0.00    -0.073 A 
ATOM      7  C8  UNL d   1      -0.716  -0.392   4.950  0.00  0.00     0.078 C 
ENDROOT
BRANCH   1   8
ATOM      8  C1  UNL d   1      -1.404  -3.012   3.619  0.00  0.00     0.053 C 
ATOM      9  C   UNL d   1      -2.848  -2.762   3.212  0.00  0.00     0.018 C 
ENDBRANCH   1   8
TORSDOF 1
ENDMDL
