MODEL 1
REMARK minimizedAffinity 5.0738759
REMARK minimizedRMSD -1
REMARK  1 active torsions:
REMARK  status: ('A' for Active; 'I' for Inactive)
REMARK    1  A    between atoms: C1_2  and  C2_3 
ROOT
ATOM      1  C2  UNL d   1      -4.890  -4.758   1.517  0.00  0.00    -0.076 A 
ATOM      2  C3  UNL d   1      -5.718  -5.775   2.023  0.00  0.00     0.004 A 
ATOM      3  C4  UNL d   1      -5.822  -6.000   3.395  0.00  0.00    -0.003 A 
ATOM      4  C5  UNL d   1      -5.100  -5.211   4.283  0.00  0.00     0.000 A 
ATOM      5  C6  UNL d   1      -4.287  -4.186   3.800  0.00  0.00     0.000 A 
ATOM      6  C7  UNL d   1      -4.184  -3.935   2.421  0.00  0.00    -0.073 A 
ATOM      7  C8  UNL d   1      -3.288  -2.821   1.955  0.00  0.00     0.078 C 
ENDROOT
BRANCH   1   8
ATOM      8  C1  UNL d   1      -4.796  -4.579   0.019  0.00  0.00     0.053 C 
ATOM      9  C   UNL d   1      -4.906  -5.896  -0.733  0.00  0.00     0.018 C 
ENDBRANCH   1   8
TORSDOF 1
ENDMDL
