MODEL 1
REMARK minimizedAffinity 12.3524256
REMARK minimizedRMSD -1
REMARK  1 active torsions:
REMARK  status: ('A' for Active; 'I' for Inactive)
REMARK    1  A    between atoms: C1_2  and  C2_3 
ROOT
ATOM      1  C2  UNL d   1       4.523  -1.433  -4.044  0.00  0.00    -0.076 A 
ATOM      2  C3  UNL d   1       4.215  -1.758  -5.377  0.00  0.00     0.004 A 
ATOM      3  C4  UNL d   1       4.797  -2.861  -5.999  0.00  0.00    -0.003 A 
ATOM      4  C5  UNL d   1       5.696  -3.657  -5.299  0.00  0.00     0.000 A 
ATOM      5  C6  UNL d   1       5.999  -3.360  -3.971  0.00  0.00     0.000 A 
ATOM      6  C7  UNL d   1       5.409  -2.261  -3.323  0.00  0.00    -0.073 A 
ATOM      7  C8  UNL d   1       5.778  -1.984  -1.892  0.00  0.00     0.078 C 
ENDROOT
BRANCH   1   8
ATOM      8  C1  UNL d   1       3.882  -0.209  -3.431  0.00  0.00     0.053 C 
ATOM      9  C   UNL d   1       4.876   0.645  -2.660  0.00  0.00     0.018 C 
ENDBRANCH   1   8
TORSDOF 1
ENDMDL
