MODEL 1
REMARK minimizedAffinity -3.13919783
REMARK minimizedRMSD -1
REMARK  1 active torsions:
REMARK  status: ('A' for Active; 'I' for Inactive)
REMARK    1  A    between atoms: C1_2  and  C2_3 
ROOT
ATOM      1  C2  UNL d   1       1.698  -1.198   2.211  0.00  0.00    -0.076 A 
ATOM      2  C3  UNL d   1       2.719  -1.881   1.527  0.00  0.00     0.004 A 
ATOM      3  C4  UNL d   1       2.467  -3.094   0.888  0.00  0.00    -0.003 A 
ATOM      4  C5  UNL d   1       1.190  -3.643   0.921  0.00  0.00     0.000 A 
ATOM      5  C6  UNL d   1       0.161  -2.971   1.580  0.00  0.00     0.000 A 
ATOM      6  C7  UNL d   1       0.395  -1.739   2.216  0.00  0.00    -0.073 A 
ATOM      7  C8  UNL d   1      -0.750  -1.060   2.916  0.00  0.00     0.078 C 
ENDROOT
BRANCH   1   8
ATOM      8  C1  UNL d   1       2.037   0.100   2.908  0.00  0.00     0.053 C 
ATOM      9  C   UNL d   1       2.123  -0.056   4.419  0.00  0.00     0.018 C 
ENDBRANCH   1   8
TORSDOF 1
ENDMDL
