MODEL 1
REMARK minimizedAffinity 15.9148216
REMARK minimizedRMSD -1
REMARK  1 active torsions:
REMARK  status: ('A' for Active; 'I' for Inactive)
REMARK    1  A    between atoms: C1_2  and  C2_3 
ROOT
ATOM      1  C2  UNL d   1       0.026   3.458  -1.860  0.00  0.00    -0.076 A 
ATOM      2  C3  UNL d   1      -0.544   2.245  -2.285  0.00  0.00     0.004 A 
ATOM      3  C4  UNL d   1      -1.516   2.221  -3.284  0.00  0.00    -0.003 A 
ATOM      4  C5  UNL d   1      -1.933   3.409  -3.874  0.00  0.00     0.000 A 
ATOM      5  C6  UNL d   1      -1.366   4.619  -3.476  0.00  0.00     0.000 A 
ATOM      6  C7  UNL d   1      -0.373   4.660  -2.483  0.00  0.00    -0.073 A 
ATOM      7  C8  UNL d   1       0.200   5.993  -2.089  0.00  0.00     0.078 C 
ENDROOT
BRANCH   1   8
ATOM      8  C1  UNL d   1       1.057   3.425  -0.754  0.00  0.00     0.053 C 
ATOM      9  C   UNL d   1       1.071   2.099  -0.009  0.00  0.00     0.018 C 
ENDBRANCH   1   8
TORSDOF 1
ENDMDL
