MODEL 1
REMARK minimizedAffinity 17.3592587
REMARK minimizedRMSD -1
REMARK  1 active torsions:
REMARK  status: ('A' for Active; 'I' for Inactive)
REMARK    1  A    between atoms: C1_2  and  C2_3 
ROOT
ATOM      1  C2  UNL d   1       2.323  -1.626   1.029  0.00  0.00    -0.076 A 
ATOM      2  C3  UNL d   1       1.786  -1.244   2.270  0.00  0.00     0.004 A 
ATOM      3  C4  UNL d   1       2.327  -0.180   2.990  0.00  0.00    -0.003 A 
ATOM      4  C5  UNL d   1       3.414   0.521   2.478  0.00  0.00     0.000 A 
ATOM      5  C6  UNL d   1       3.948   0.167   1.240  0.00  0.00     0.000 A 
ATOM      6  C7  UNL d   1       3.404  -0.893   0.494  0.00  0.00    -0.073 A 
ATOM      7  C8  UNL d   1       4.024  -1.236  -0.833  0.00  0.00     0.078 C 
ENDROOT
BRANCH   1   8
ATOM      8  C1  UNL d   1       1.711  -2.806   0.307  0.00  0.00     0.053 C 
ATOM      9  C   UNL d   1       0.941  -3.725   1.242  0.00  0.00     0.018 C 
ENDBRANCH   1   8
TORSDOF 1
ENDMDL
