MODEL 1
REMARK minimizedAffinity 17.220314
REMARK minimizedRMSD -1
REMARK  1 active torsions:
REMARK  status: ('A' for Active; 'I' for Inactive)
REMARK    1  A    between atoms: C1_2  and  C2_3 
ROOT
ATOM      1  C2  UNL d   1      -3.346   3.336  -3.853  0.00  0.00    -0.076 A 
ATOM      2  C3  UNL d   1      -3.822   3.799  -5.092  0.00  0.00     0.004 A 
ATOM      3  C4  UNL d   1      -2.969   4.425  -6.000  0.00  0.00    -0.003 A 
ATOM      4  C5  UNL d   1      -1.626   4.597  -5.684  0.00  0.00     0.000 A 
ATOM      5  C6  UNL d   1      -1.133   4.128  -4.467  0.00  0.00     0.000 A 
ATOM      6  C7  UNL d   1      -1.976   3.480  -3.547  0.00  0.00    -0.073 A 
ATOM      7  C8  UNL d   1      -1.392   3.000  -2.247  0.00  0.00     0.078 C 
ENDROOT
BRANCH   1   8
ATOM      8  C1  UNL d   1      -4.323   2.690  -2.898  0.00  0.00     0.053 C 
ATOM      9  C   UNL d   1      -5.713   2.540  -3.498  0.00  0.00     0.018 C 
ENDBRANCH   1   8
TORSDOF 1
ENDMDL
