MODEL 1
REMARK minimizedAffinity 11.5199728
REMARK minimizedRMSD -1
REMARK  1 active torsions:
REMARK  status: ('A' for Active; 'I' for Inactive)
REMARK    1  A    between atoms: C1_2  and  C2_3 
ROOT
ATOM      1  C2  UNL d   1       1.301   3.293   0.259  0.00  0.00    -0.076 A 
ATOM      2  C3  UNL d   1       1.755   4.302   1.125  0.00  0.00     0.004 A 
ATOM      3  C4  UNL d   1       1.486   5.645   0.865  0.00  0.00    -0.003 A 
ATOM      4  C5  UNL d   1       0.757   6.000  -0.264  0.00  0.00     0.000 A 
ATOM      5  C6  UNL d   1       0.283   5.010  -1.125  0.00  0.00     0.000 A 
ATOM      6  C7  UNL d   1       0.532   3.651  -0.869  0.00  0.00    -0.073 A 
ATOM      7  C8  UNL d   1       0.002   2.626  -1.834  0.00  0.00     0.078 C 
ENDROOT
BRANCH   1   8
ATOM      8  C1  UNL d   1       1.647   1.856   0.577  0.00  0.00     0.053 C 
ATOM      9  C   UNL d   1       3.058   1.703   1.123  0.00  0.00     0.018 C 
ENDBRANCH   1   8
TORSDOF 1
ENDMDL
