MODEL 1
REMARK minimizedAffinity -2.72406363
REMARK minimizedRMSD -1
REMARK  1 active torsions:
REMARK  status: ('A' for Active; 'I' for Inactive)
REMARK    1  A    between atoms: C1_2  and  C2_3 
ROOT
ATOM      1  C2  UNL d   1      -0.434  -0.535  -1.668  0.00  0.00    -0.081 A 
ATOM      2  C3  UNL d   1      -0.303   0.409  -0.642  0.00  0.00     0.006 A 
ATOM      3  C4  UNL d   1       0.645   0.230   0.368  0.00  0.00     0.002 A 
ATOM      4  C5  UNL d   1       1.483  -0.890   0.365  0.00  0.00    -0.080 A 
ATOM      5  C6  UNL d   1       2.525  -1.079   1.426  0.00  0.00     0.076 C 
ATOM      6  C7  UNL d   1       1.340  -1.842  -0.651  0.00  0.00     0.002 A 
ATOM      7  C8  UNL d   1       0.391  -1.664  -1.660  0.00  0.00     0.006 A 
ENDROOT
BRANCH   1   8
ATOM      8  C1  UNL d   1      -1.412  -0.312  -2.794  0.00  0.00     0.054 C 
ATOM      9  C   UNL d   1      -0.963  -1.020  -4.064  0.00  0.00     0.018 C 
ENDBRANCH   1   8
TORSDOF 1
ENDMDL
