MODEL 1
REMARK minimizedAffinity 1.5555017
REMARK minimizedRMSD -1
REMARK  1 active torsions:
REMARK  status: ('A' for Active; 'I' for Inactive)
REMARK    1  A    between atoms: C1_2  and  C2_3 
ROOT
ATOM      1  C2  UNL d   1      -0.521  -0.374  -1.505  0.00  0.00    -0.081 A 
ATOM      2  C3  UNL d   1      -0.824   0.311  -2.688  0.00  0.00     0.006 A 
ATOM      3  C4  UNL d   1      -1.113  -0.392  -3.860  0.00  0.00     0.002 A 
ATOM      4  C5  UNL d   1      -1.110  -1.791  -3.867  0.00  0.00    -0.080 A 
ATOM      5  C6  UNL d   1      -1.447  -2.558  -5.111  0.00  0.00     0.076 C 
ATOM      6  C7  UNL d   1      -0.789  -2.476  -2.690  0.00  0.00     0.002 A 
ATOM      7  C8  UNL d   1      -0.500  -1.773  -1.518  0.00  0.00     0.006 A 
ENDROOT
BRANCH   1   8
ATOM      8  C1  UNL d   1      -0.273   0.380  -0.224  0.00  0.00     0.054 C 
ATOM      9  C   UNL d   1       0.994   1.219  -0.312  0.00  0.00     0.018 C 
ENDBRANCH   1   8
TORSDOF 1
ENDMDL
