MODEL 1
REMARK minimizedAffinity -2.64160419
REMARK minimizedRMSD -1
REMARK  1 active torsions:
REMARK  status: ('A' for Active; 'I' for Inactive)
REMARK    1  A    between atoms: C1_2  and  C2_3 
ROOT
ATOM      1  C2  UNL d   1      -0.679   0.231  -1.390  0.00  0.00    -0.081 A 
ATOM      2  C3  UNL d   1      -0.255   1.265  -0.546  0.00  0.00     0.006 A 
ATOM      3  C4  UNL d   1       0.761   1.045   0.388  0.00  0.00     0.002 A 
ATOM      4  C5  UNL d   1       1.374  -0.208   0.488  0.00  0.00    -0.080 A 
ATOM      5  C6  UNL d   1       2.487  -0.448   1.465  0.00  0.00     0.076 C 
ATOM      6  C7  UNL d   1       0.939  -1.246  -0.343  0.00  0.00     0.002 A 
ATOM      7  C8  UNL d   1      -0.077  -1.027  -1.276  0.00  0.00     0.006 A 
ENDROOT
BRANCH   1   8
ATOM      8  C1  UNL d   1      -1.729   0.482  -2.442  0.00  0.00     0.054 C 
ATOM      9  C   UNL d   1      -1.437  -0.303  -3.713  0.00  0.00     0.018 C 
ENDBRANCH   1   8
TORSDOF 1
ENDMDL
