MODEL 1
REMARK minimizedAffinity 0.779990077
REMARK minimizedRMSD -1
REMARK  1 active torsions:
REMARK  status: ('A' for Active; 'I' for Inactive)
REMARK    1  A    between atoms: C1_2  and  C2_3 
ROOT
ATOM      1  C2  UNL d   1      -2.006   0.092   0.678  0.00  0.00    -0.081 A 
ATOM      2  C3  UNL d   1      -1.357  -1.037   0.164  0.00  0.00     0.006 A 
ATOM      3  C4  UNL d   1       0.034  -1.057   0.035  0.00  0.00     0.002 A 
ATOM      4  C5  UNL d   1       0.798   0.047   0.425  0.00  0.00    -0.080 A 
ATOM      5  C6  UNL d   1       2.295   0.027   0.320  0.00  0.00     0.076 C 
ATOM      6  C7  UNL d   1       0.149   1.182   0.922  0.00  0.00     0.002 A 
ATOM      7  C8  UNL d   1      -1.242   1.203   1.050  0.00  0.00     0.006 A 
ENDROOT
BRANCH   1   8
ATOM      8  C1  UNL d   1      -3.500   0.092   0.878  0.00  0.00     0.054 C 
ATOM      9  C   UNL d   1      -3.936   1.231   1.790  0.00  0.00     0.018 C 
ENDBRANCH   1   8
TORSDOF 1
ENDMDL
