MODEL 1
REMARK minimizedAffinity 0.853217006
REMARK minimizedRMSD -1
REMARK  1 active torsions:
REMARK  status: ('A' for Active; 'I' for Inactive)
REMARK    1  A    between atoms: C1_2  and  C2_3 
ROOT
ATOM      1  C2  UNL d   1      -4.064   1.558   1.515  0.00  0.00    -0.081 A 
ATOM      2  C3  UNL d   1      -5.445   1.326   1.524  0.00  0.00     0.006 A 
ATOM      3  C4  UNL d   1      -5.996   0.301   0.752  0.00  0.00     0.002 A 
ATOM      4  C5  UNL d   1      -5.176  -0.514  -0.035  0.00  0.00    -0.080 A 
ATOM      5  C6  UNL d   1      -5.751  -1.638  -0.845  0.00  0.00     0.076 C 
ATOM      6  C7  UNL d   1      -3.798  -0.272  -0.058  0.00  0.00     0.002 A 
ATOM      7  C8  UNL d   1      -3.247   0.754   0.713  0.00  0.00     0.006 A 
ENDROOT
BRANCH   1   8
ATOM      8  C1  UNL d   1      -3.460   2.621   2.396  0.00  0.00     0.054 C 
ATOM      9  C   UNL d   1      -3.451   3.976   1.702  0.00  0.00     0.018 C 
ENDBRANCH   1   8
TORSDOF 1
ENDMDL
