MODEL 1
REMARK minimizedAffinity -3.77126622
REMARK minimizedRMSD -1
REMARK  1 active torsions:
REMARK  status: ('A' for Active; 'I' for Inactive)
REMARK    1  A    between atoms: C1_2  and  C2_3 
ROOT
ATOM      1  C2  UNL d   1      -0.178  -0.871  -1.529  0.00  0.00    -0.081 A 
ATOM      2  C3  UNL d   1       0.161   0.161  -0.645  0.00  0.00     0.006 A 
ATOM      3  C4  UNL d   1       1.172  -0.021   0.301  0.00  0.00     0.002 A 
ATOM      4  C5  UNL d   1       1.866  -1.233   0.375  0.00  0.00    -0.080 A 
ATOM      5  C6  UNL d   1       2.975  -1.431   1.366  0.00  0.00     0.076 C 
ATOM      6  C7  UNL d   1       1.516  -2.270  -0.496  0.00  0.00     0.002 A 
ATOM      7  C8  UNL d   1       0.505  -2.090  -1.442  0.00  0.00     0.006 A 
ENDROOT
BRANCH   1   8
ATOM      8  C1  UNL d   1      -1.224  -0.657  -2.593  0.00  0.00     0.054 C 
ATOM      9  C   UNL d   1      -0.884  -1.420  -3.865  0.00  0.00     0.018 C 
ENDBRANCH   1   8
TORSDOF 1
ENDMDL
