MODEL 1
REMARK minimizedAffinity -2.01300287
REMARK minimizedRMSD -1
REMARK  1 active torsions:
REMARK  status: ('A' for Active; 'I' for Inactive)
REMARK    1  A    between atoms: C1_2  and  C2_3 
ROOT
ATOM      1  C2  UNL d   1      -0.802  -0.451  -1.199  0.00  0.00    -0.081 A 
ATOM      2  C3  UNL d   1      -0.587   0.310  -0.044  0.00  0.00     0.006 A 
ATOM      3  C4  UNL d   1       0.486   0.024   0.803  0.00  0.00     0.002 A 
ATOM      4  C5  UNL d   1       1.367  -1.021   0.505  0.00  0.00    -0.080 A 
ATOM      5  C6  UNL d   1       2.541  -1.319   1.390  0.00  0.00     0.076 C 
ATOM      6  C7  UNL d   1       1.143  -1.793  -0.640  0.00  0.00     0.002 A 
ATOM      7  C8  UNL d   1       0.069  -1.508  -1.487  0.00  0.00     0.006 A 
ENDROOT
BRANCH   1   8
ATOM      8  C1  UNL d   1      -1.920  -0.105  -2.149  0.00  0.00     0.054 C 
ATOM      9  C   UNL d   1      -1.515  -0.353  -3.595  0.00  0.00     0.018 C 
ENDBRANCH   1   8
TORSDOF 1
ENDMDL
