MODEL 1
REMARK minimizedAffinity -1.41687214
REMARK minimizedRMSD -1
REMARK  1 active torsions:
REMARK  status: ('A' for Active; 'I' for Inactive)
REMARK    1  A    between atoms: C1_2  and  C2_3 
ROOT
ATOM      1  C2  UNL d   1      -0.201   0.450  -0.232  0.00  0.00    -0.081 A 
ATOM      2  C3  UNL d   1      -0.031  -0.920  -0.466  0.00  0.00     0.006 A 
ATOM      3  C4  UNL d   1       1.070  -1.597   0.064  0.00  0.00     0.002 A 
ATOM      4  C5  UNL d   1       2.014  -0.919   0.842  0.00  0.00    -0.080 A 
ATOM      5  C6  UNL d   1       3.184  -1.640   1.442  0.00  0.00     0.076 C 
ATOM      6  C7  UNL d   1       1.853   0.454   1.062  0.00  0.00     0.002 A 
ATOM      7  C8  UNL d   1       0.753   1.131   0.532  0.00  0.00     0.006 A 
ENDROOT
BRANCH   1   8
ATOM      8  C1  UNL d   1      -1.421   1.170  -0.748  0.00  0.00     0.054 C 
ATOM      9  C   UNL d   1      -1.950   0.521  -2.019  0.00  0.00     0.018 C 
ENDBRANCH   1   8
TORSDOF 1
ENDMDL
