MODEL 1
REMARK minimizedAffinity 0.947496831
REMARK minimizedRMSD -1
REMARK  1 active torsions:
REMARK  status: ('A' for Active; 'I' for Inactive)
REMARK    1  A    between atoms: C1_2  and  C2_3 
ROOT
ATOM      1  C2  UNL d   1      -0.706   0.347   0.058  0.00  0.00    -0.081 A 
ATOM      2  C3  UNL d   1       0.094  -0.624   0.673  0.00  0.00     0.006 A 
ATOM      3  C4  UNL d   1       1.371  -0.300   1.136  0.00  0.00     0.002 A 
ATOM      4  C5  UNL d   1       1.867   1.001   1.001  0.00  0.00    -0.080 A 
ATOM      5  C6  UNL d   1       3.224   1.369   1.521  0.00  0.00     0.076 C 
ATOM      6  C7  UNL d   1       1.075   1.967   0.371  0.00  0.00     0.002 A 
ATOM      7  C8  UNL d   1      -0.202   1.644  -0.093  0.00  0.00     0.006 A 
ENDROOT
BRANCH   1   8
ATOM      8  C1  UNL d   1      -2.108   0.017  -0.384  0.00  0.00     0.054 C 
ATOM      9  C   UNL d   1      -3.122   0.336   0.705  0.00  0.00     0.018 C 
ENDBRANCH   1   8
TORSDOF 1
ENDMDL
