MODEL 1
REMARK minimizedAffinity -2.11446238
REMARK minimizedRMSD -1
REMARK  1 active torsions:
REMARK  status: ('A' for Active; 'I' for Inactive)
REMARK    1  A    between atoms: C1_2  and  C2_3 
ROOT
ATOM      1  C2  UNL d   1      -0.673   0.007  -1.520  0.00  0.00    -0.081 A 
ATOM      2  C3  UNL d   1      -0.371   0.973  -0.553  0.00  0.00     0.006 A 
ATOM      3  C4  UNL d   1       0.599   0.721   0.421  0.00  0.00     0.002 A 
ATOM      4  C5  UNL d   1       1.287  -0.497   0.439  0.00  0.00    -0.080 A 
ATOM      5  C6  UNL d   1       2.352  -0.768   1.460  0.00  0.00     0.076 C 
ATOM      6  C7  UNL d   1       0.973  -1.469  -0.518  0.00  0.00     0.002 A 
ATOM      7  C8  UNL d   1       0.004  -1.218  -1.491  0.00  0.00     0.006 A 
ENDROOT
BRANCH   1   8
ATOM      8  C1  UNL d   1      -1.671   0.300  -2.611  0.00  0.00     0.054 C 
ATOM      9  C   UNL d   1      -1.415  -0.558  -3.841  0.00  0.00     0.018 C 
ENDBRANCH   1   8
TORSDOF 1
ENDMDL
