MODEL 1
REMARK minimizedAffinity -4.03840733
REMARK minimizedRMSD -1
REMARK  1 active torsions:
REMARK  status: ('A' for Active; 'I' for Inactive)
REMARK    1  A    between atoms: C1_2  and  C2_3 
ROOT
ATOM      1  C2  UNL d   1      -1.927   2.915   0.320  0.00  0.00    -0.081 A 
ATOM      2  C3  UNL d   1      -2.209   1.593   0.685  0.00  0.00     0.006 A 
ATOM      3  C4  UNL d   1      -1.208   0.619   0.645  0.00  0.00     0.002 A 
ATOM      4  C5  UNL d   1       0.091   0.952   0.248  0.00  0.00    -0.080 A 
ATOM      5  C6  UNL d   1       1.182  -0.077   0.230  0.00  0.00     0.076 C 
ATOM      6  C7  UNL d   1       0.369   2.270  -0.133  0.00  0.00     0.002 A 
ATOM      7  C8  UNL d   1      -0.632   3.244  -0.094  0.00  0.00     0.006 A 
ENDROOT
BRANCH   1   8
ATOM      8  C1  UNL d   1      -2.988   3.981   0.424  0.00  0.00     0.054 C 
ATOM      9  C   UNL d   1      -2.387   5.374   0.294  0.00  0.00     0.018 C 
ENDBRANCH   1   8
TORSDOF 1
ENDMDL
