MODEL 1
REMARK minimizedAffinity -3.1906755
REMARK minimizedRMSD -1
REMARK  3 active torsions:
REMARK  status: ('A' for Active; 'I' for Inactive)
REMARK    1  A    between atoms: C3'_2  and  C2'_3 
REMARK    2  A    between atoms: C2'_3  and  C1'_4 
REMARK    3  A    between atoms: C1'_4  and  C1_5 
ROOT
ATOM      1  C1  N4B d   1      -0.104   0.028   0.332  0.00  0.00    -0.075 A 
ATOM      2  C2  N4B d   1       0.460   0.033   1.627  0.00  0.00     0.002 A 
ATOM      3  C3  N4B d   1      -0.344   0.218   2.725  0.00  0.00     0.002 A 
ATOM      4  C4  N4B d   1      -1.705   0.420   2.552  0.00  0.00    -0.004 A 
ATOM      5  C5  N4B d   1      -2.246   0.389   1.300  0.00  0.00     0.002 A 
ATOM      6  C6  N4B d   1      -1.450   0.199   0.188  0.00  0.00     0.002 A 
ENDROOT
BRANCH   1   7
ATOM      7  C1' N4B d   1       0.746  -0.085  -0.903  0.00  0.00     0.057 C 
BRANCH   7   8
ATOM      8  C2' N4B d   1      -0.099  -0.647  -2.043  0.00  0.00     0.009 C 
BRANCH   8   9
ATOM      9  C3' N4B d   1       0.452  -0.258  -3.404  0.00  0.00     0.004 C 
ATOM     10  C4' N4B d   1       1.813   0.368  -3.323  0.00  0.00     0.003 C 
ENDBRANCH   8   9
ENDBRANCH   7   8
ENDBRANCH   1   7
TORSDOF 3
ENDMDL
