MODEL 1
REMARK minimizedAffinity 0.361022294
REMARK minimizedRMSD -1
REMARK  3 active torsions:
REMARK  status: ('A' for Active; 'I' for Inactive)
REMARK    1  A    between atoms: C3'_2  and  C2'_3 
REMARK    2  A    between atoms: C2'_3  and  C1'_4 
REMARK    3  A    between atoms: C1'_4  and  C1_5 
ROOT
ATOM      1  C1  N4B d   1      -0.105  -0.075   0.853  0.00  0.00    -0.075 A 
ATOM      2  C2  N4B d   1      -0.884   0.143   2.011  0.00  0.00     0.002 A 
ATOM      3  C3  N4B d   1      -0.308   0.052   3.254  0.00  0.00     0.002 A 
ATOM      4  C4  N4B d   1       1.036  -0.273   3.365  0.00  0.00    -0.004 A 
ATOM      5  C5  N4B d   1       1.787  -0.458   2.241  0.00  0.00     0.002 A 
ATOM      6  C6  N4B d   1       1.222  -0.365   0.985  0.00  0.00     0.002 A 
ENDROOT
BRANCH   1   7
ATOM      7  C1' N4B d   1      -0.710  -0.071  -0.524  0.00  0.00     0.057 C 
BRANCH   7   8
ATOM      8  C2' N4B d   1       0.408  -0.036  -1.562  0.00  0.00     0.009 C 
BRANCH   8   9
ATOM      9  C3' N4B d   1      -0.077  -0.472  -2.934  0.00  0.00     0.004 C 
ATOM     10  C4' N4B d   1       0.217   0.540  -4.002  0.00  0.00     0.003 C 
ENDBRANCH   8   9
ENDBRANCH   7   8
ENDBRANCH   1   7
TORSDOF 3
ENDMDL
