MODEL 1
REMARK minimizedAffinity -5.61056423
REMARK minimizedRMSD -1
REMARK  3 active torsions:
REMARK  status: ('A' for Active; 'I' for Inactive)
REMARK    1  A    between atoms: C3'_2  and  C2'_3 
REMARK    2  A    between atoms: C2'_3  and  C1'_4 
REMARK    3  A    between atoms: C1'_4  and  C1_5 
ROOT
ATOM      1  C1  N4B d   1      -0.327   0.188   0.956  0.00  0.00    -0.075 A 
ATOM      2  C2  N4B d   1      -1.167   0.960   1.788  0.00  0.00     0.002 A 
ATOM      3  C3  N4B d   1      -0.761   1.286   3.059  0.00  0.00     0.002 A 
ATOM      4  C4  N4B d   1       0.465   0.837   3.524  0.00  0.00    -0.004 A 
ATOM      5  C5  N4B d   1       1.281   0.113   2.705  0.00  0.00     0.002 A 
ATOM      6  C6  N4B d   1       0.889  -0.219   1.424  0.00  0.00     0.002 A 
ENDROOT
BRANCH   1   7
ATOM      7  C1' N4B d   1      -0.763  -0.266  -0.411  0.00  0.00     0.057 C 
BRANCH   7   8
ATOM      8  C2' N4B d   1       0.422  -0.179  -1.369  0.00  0.00     0.009 C 
BRANCH   8   9
ATOM      9  C3' N4B d   1      -0.022  -0.172  -2.822  0.00  0.00     0.004 C 
ATOM     10  C4' N4B d   1       0.688   0.864  -3.641  0.00  0.00     0.003 C 
ENDBRANCH   8   9
ENDBRANCH   7   8
ENDBRANCH   1   7
TORSDOF 3
ENDMDL
