MODEL 1
REMARK minimizedAffinity -4.42502737
REMARK minimizedRMSD -1
REMARK  3 active torsions:
REMARK  status: ('A' for Active; 'I' for Inactive)
REMARK    1  A    between atoms: C3'_2  and  C2'_3 
REMARK    2  A    between atoms: C2'_3  and  C1'_4 
REMARK    3  A    between atoms: C1'_4  and  C1_5 
ROOT
ATOM      1  C1  N4B d   1      -0.504  -0.237   0.376  0.00  0.00    -0.075 A 
ATOM      2  C2  N4B d   1       0.729  -0.608   0.956  0.00  0.00     0.002 A 
ATOM      3  C3  N4B d   1       0.853  -0.672   2.323  0.00  0.00     0.002 A 
ATOM      4  C4  N4B d   1      -0.232  -0.352   3.125  0.00  0.00    -0.004 A 
ATOM      5  C5  N4B d   1      -1.426  -0.019   2.557  0.00  0.00     0.002 A 
ATOM      6  C6  N4B d   1      -1.566   0.045   1.185  0.00  0.00     0.002 A 
ENDROOT
BRANCH   1   7
ATOM      7  C1' N4B d   1      -0.664  -0.070  -1.111  0.00  0.00     0.057 C 
BRANCH   7   8
ATOM      8  C2' N4B d   1       0.675  -0.341  -1.791  0.00  0.00     0.009 C 
BRANCH   8   9
ATOM      9  C3' N4B d   1       0.519  -0.551  -3.288  0.00  0.00     0.004 C 
ATOM     10  C4' N4B d   1       1.202   0.510  -4.097  0.00  0.00     0.003 C 
ENDBRANCH   8   9
ENDBRANCH   7   8
ENDBRANCH   1   7
TORSDOF 3
ENDMDL
