MODEL 1
REMARK minimizedAffinity -6.30899429
REMARK minimizedRMSD -1
REMARK  3 active torsions:
REMARK  status: ('A' for Active; 'I' for Inactive)
REMARK    1  A    between atoms: C3'_2  and  C2'_3 
REMARK    2  A    between atoms: C2'_3  and  C1'_4 
REMARK    3  A    between atoms: C1'_4  and  C1_5 
ROOT
ATOM      1  C1  N4B d   1      -0.218   0.209   0.814  0.00  0.00    -0.075 A 
ATOM      2  C2  N4B d   1      -1.130   0.826   1.698  0.00  0.00     0.002 A 
ATOM      3  C3  N4B d   1      -0.795   1.002   3.019  0.00  0.00     0.002 A 
ATOM      4  C4  N4B d   1       0.434   0.554   3.480  0.00  0.00    -0.004 A 
ATOM      5  C5  N4B d   1       1.319  -0.018   2.614  0.00  0.00     0.002 A 
ATOM      6  C6  N4B d   1       0.997  -0.198   1.284  0.00  0.00     0.002 A 
ENDROOT
BRANCH   1   7
ATOM      7  C1' N4B d   1      -0.574  -0.082  -0.618  0.00  0.00     0.057 C 
BRANCH   7   8
ATOM      8  C2' N4B d   1       0.708  -0.253  -1.427  0.00  0.00     0.009 C 
BRANCH   8   9
ATOM      9  C3' N4B d   1       0.452  -0.171  -2.922  0.00  0.00     0.004 C 
ATOM     10  C4' N4B d   1       1.420   0.730  -3.629  0.00  0.00     0.003 C 
ENDBRANCH   8   9
ENDBRANCH   7   8
ENDBRANCH   1   7
TORSDOF 3
ENDMDL
