MODEL 1
REMARK minimizedAffinity 0.200725287
REMARK minimizedRMSD -1
REMARK  3 active torsions:
REMARK  status: ('A' for Active; 'I' for Inactive)
REMARK    1  A    between atoms: C3'_2  and  C2'_3 
REMARK    2  A    between atoms: C2'_3  and  C1'_4 
REMARK    3  A    between atoms: C1'_4  and  C1_5 
ROOT
ATOM      1  C1  N4B d   1       3.722  -1.894   1.133  0.00  0.00    -0.075 A 
ATOM      2  C2  N4B d   1       2.894  -1.031   0.381  0.00  0.00     0.002 A 
ATOM      3  C3  N4B d   1       1.532  -1.209   0.386  0.00  0.00     0.002 A 
ATOM      4  C4  N4B d   1       0.979  -2.250   1.117  0.00  0.00    -0.004 A 
ATOM      5  C5  N4B d   1       1.784  -3.063   1.861  0.00  0.00     0.002 A 
ATOM      6  C6  N4B d   1       3.154  -2.894   1.868  0.00  0.00     0.002 A 
ENDROOT
BRANCH   1   7
ATOM      7  C1' N4B d   1       5.222  -1.792   1.090  0.00  0.00     0.057 C 
BRANCH   7   8
ATOM      8  C2' N4B d   1       5.616  -0.477   0.423  0.00  0.00     0.009 C 
BRANCH   8   9
ATOM      9  C3' N4B d   1       5.999   0.584   1.440  0.00  0.00     0.004 C 
ATOM     10  C4' N4B d   1       5.940   1.974   0.880  0.00  0.00     0.003 C 
ENDBRANCH   8   9
ENDBRANCH   7   8
ENDBRANCH   1   7
TORSDOF 3
ENDMDL
