MODEL 1
REMARK minimizedAffinity 8.27191925
REMARK minimizedRMSD -1
REMARK  3 active torsions:
REMARK  status: ('A' for Active; 'I' for Inactive)
REMARK    1  A    between atoms: C3'_2  and  C2'_3 
REMARK    2  A    between atoms: C2'_3  and  C1'_4 
REMARK    3  A    between atoms: C1'_4  and  C1_5 
ROOT
ATOM      1  C1  N4B d   1      -0.855   0.567  -1.478  0.00  0.00    -0.075 A 
ATOM      2  C2  N4B d   1      -0.054   1.660  -1.876  0.00  0.00     0.002 A 
ATOM      3  C3  N4B d   1      -0.644   2.840  -2.259  0.00  0.00     0.002 A 
ATOM      4  C4  N4B d   1      -2.027   2.943  -2.271  0.00  0.00    -0.004 A 
ATOM      5  C5  N4B d   1      -2.792   1.891  -1.861  0.00  0.00     0.002 A 
ATOM      6  C6  N4B d   1      -2.213   0.701  -1.469  0.00  0.00     0.002 A 
ENDROOT
BRANCH   1   7
ATOM      7  C1' N4B d   1      -0.259  -0.770  -1.133  0.00  0.00     0.057 C 
BRANCH   7   8
ATOM      8  C2' N4B d   1       0.716  -0.599   0.028  0.00  0.00     0.009 C 
BRANCH   8   9
ATOM      9  C3' N4B d   1       1.464  -1.885   0.337  0.00  0.00     0.004 C 
ATOM     10  C4' N4B d   1       1.230  -2.371   1.736  0.00  0.00     0.003 C 
ENDBRANCH   8   9
ENDBRANCH   7   8
ENDBRANCH   1   7
TORSDOF 3
ENDMDL
