MODEL 1
REMARK minimizedAffinity 2.01215672
REMARK minimizedRMSD -1
REMARK  3 active torsions:
REMARK  status: ('A' for Active; 'I' for Inactive)
REMARK    1  A    between atoms: C3'_2  and  C2'_3 
REMARK    2  A    between atoms: C2'_3  and  C1'_4 
REMARK    3  A    between atoms: C1'_4  and  C1_5 
ROOT
ATOM      1  C1  N4B d   1      -0.283   1.946  -3.320  0.00  0.00    -0.075 A 
ATOM      2  C2  N4B d   1       0.388   3.136  -2.962  0.00  0.00     0.002 A 
ATOM      3  C3  N4B d   1       1.261   3.724  -3.844  0.00  0.00     0.002 A 
ATOM      4  C4  N4B d   1       1.492   3.133  -5.077  0.00  0.00    -0.004 A 
ATOM      5  C5  N4B d   1       0.821   1.998  -5.426  0.00  0.00     0.002 A 
ATOM      6  C6  N4B d   1      -0.063   1.398  -4.551  0.00  0.00     0.002 A 
ENDROOT
BRANCH   1   7
ATOM      7  C1' N4B d   1      -1.181   1.220  -2.356  0.00  0.00     0.057 C 
BRANCH   7   8
ATOM      8  C2' N4B d   1      -2.399   2.088  -2.056  0.00  0.00     0.009 C 
BRANCH   8   9
ATOM      9  C3' N4B d   1      -2.964   2.729  -3.312  0.00  0.00     0.004 C 
ATOM     10  C4' N4B d   1      -3.198   4.202  -3.157  0.00  0.00     0.003 C 
ENDBRANCH   8   9
ENDBRANCH   7   8
ENDBRANCH   1   7
TORSDOF 3
ENDMDL
