MODEL 1
REMARK minimizedAffinity 2.05384779
REMARK minimizedRMSD -1
REMARK  3 active torsions:
REMARK  status: ('A' for Active; 'I' for Inactive)
REMARK    1  A    between atoms: C3'_2  and  C2'_3 
REMARK    2  A    between atoms: C2'_3  and  C1'_4 
REMARK    3  A    between atoms: C1'_4  and  C1_5 
ROOT
ATOM      1  C1  N4B d   1       0.558  -1.779   2.025  0.00  0.00    -0.075 A 
ATOM      2  C2  N4B d   1       0.152  -1.101   0.854  0.00  0.00     0.002 A 
ATOM      3  C3  N4B d   1       0.685  -1.450  -0.362  0.00  0.00     0.002 A 
ATOM      4  C4  N4B d   1       1.636  -2.457  -0.430  0.00  0.00    -0.004 A 
ATOM      5  C5  N4B d   1       2.004  -3.125   0.701  0.00  0.00     0.002 A 
ATOM      6  C6  N4B d   1       1.473  -2.787   1.930  0.00  0.00     0.002 A 
ENDROOT
BRANCH   1   7
ATOM      7  C1' N4B d   1       0.066  -1.376   3.388  0.00  0.00     0.057 C 
BRANCH   7   8
ATOM      8  C2' N4B d   1      -1.459  -1.412   3.401  0.00  0.00     0.009 C 
BRANCH   8   9
ATOM      9  C3' N4B d   1      -2.058  -0.036   3.633  0.00  0.00     0.004 C 
ATOM     10  C4' N4B d   1      -1.364   1.039   2.851  0.00  0.00     0.003 C 
ENDBRANCH   8   9
ENDBRANCH   7   8
ENDBRANCH   1   7
TORSDOF 3
ENDMDL
