MODEL 1
REMARK minimizedAffinity 4.81958961
REMARK minimizedRMSD -1
REMARK  3 active torsions:
REMARK  status: ('A' for Active; 'I' for Inactive)
REMARK    1  A    between atoms: C3'_2  and  C2'_3 
REMARK    2  A    between atoms: C2'_3  and  C1'_4 
REMARK    3  A    between atoms: C1'_4  and  C1_5 
ROOT
ATOM      1  C1  N4B d   1      -1.178  -0.621   2.564  0.00  0.00    -0.075 A 
ATOM      2  C2  N4B d   1      -1.802   0.416   3.292  0.00  0.00     0.002 A 
ATOM      3  C3  N4B d   1      -3.026   0.894   2.894  0.00  0.00     0.002 A 
ATOM      4  C4  N4B d   1      -3.634   0.366   1.765  0.00  0.00    -0.004 A 
ATOM      5  C5  N4B d   1      -3.036  -0.652   1.082  0.00  0.00     0.002 A 
ATOM      6  C6  N4B d   1      -1.808  -1.145   1.473  0.00  0.00     0.002 A 
ENDROOT
BRANCH   1   7
ATOM      7  C1' N4B d   1       0.199  -1.117   2.911  0.00  0.00     0.057 C 
BRANCH   7   8
ATOM      8  C2' N4B d   1       0.429  -2.467   2.239  0.00  0.00     0.009 C 
BRANCH   8   9
ATOM      9  C3' N4B d   1       1.644  -2.449   1.328  0.00  0.00     0.004 C 
ATOM     10  C4' N4B d   1       2.311  -3.788   1.221  0.00  0.00     0.003 C 
ENDBRANCH   8   9
ENDBRANCH   7   8
ENDBRANCH   1   7
TORSDOF 3
ENDMDL
