MODEL 1
REMARK minimizedAffinity 1.72783196
REMARK minimizedRMSD -1
REMARK  3 active torsions:
REMARK  status: ('A' for Active; 'I' for Inactive)
REMARK    1  A    between atoms: C3'_2  and  C2'_3 
REMARK    2  A    between atoms: C2'_3  and  C1'_4 
REMARK    3  A    between atoms: C1'_4  and  C1_5 
ROOT
ATOM      1  C1  N4B d   1      -0.211  -1.091   2.744  0.00  0.00    -0.075 A 
ATOM      2  C2  N4B d   1      -0.558   0.243   3.050  0.00  0.00     0.002 A 
ATOM      3  C3  N4B d   1      -1.852   0.671   2.882  0.00  0.00     0.002 A 
ATOM      4  C4  N4B d   1      -2.808  -0.208   2.395  0.00  0.00    -0.004 A 
ATOM      5  C5  N4B d   1      -2.470  -1.502   2.126  0.00  0.00     0.002 A 
ATOM      6  C6  N4B d   1      -1.174  -1.947   2.294  0.00  0.00     0.002 A 
ENDROOT
BRANCH   1   7
ATOM      7  C1' N4B d   1       1.208  -1.582   2.830  0.00  0.00     0.057 C 
BRANCH   7   8
ATOM      8  C2' N4B d   1       1.519  -2.433   1.602  0.00  0.00     0.009 C 
BRANCH   8   9
ATOM      9  C3' N4B d   1       2.781  -3.258   1.786  0.00  0.00     0.004 C 
ATOM     10  C4' N4B d   1       2.709  -4.590   1.103  0.00  0.00     0.003 C 
ENDBRANCH   8   9
ENDBRANCH   7   8
ENDBRANCH   1   7
TORSDOF 3
ENDMDL
