MODEL 1
REMARK minimizedAffinity -3.8753562
REMARK minimizedRMSD -1
REMARK  0 active torsions:
REMARK  status: ('A' for Active; 'I' for Inactive)
ROOT
ATOM      1  C1  DEN d   1       0.556   0.910   2.272  0.00  0.00     0.130 A 
ATOM      2  C2  DEN d   1      -0.631   1.400   2.967  0.00  0.00    -0.031 A 
ATOM      3  C3  DEN d   1      -1.800   1.162   2.097  0.00  0.00     0.027 A 
ATOM      4  C4  DEN d   1      -1.888   0.082  -0.243  0.00  0.00     0.027 A 
ATOM      5  C5  DEN d   1      -1.134  -0.480  -1.250  0.00  0.00    -0.003 A 
ATOM      6  C6  DEN d   1       0.229  -0.586  -1.168  0.00  0.00     0.001 A 
ATOM      7  C7  DEN d   1       0.876  -0.165  -0.036  0.00  0.00     0.017 A 
ATOM      8  C8  DEN d   1       0.123   0.410   0.980  0.00  0.00    -0.094 A 
ATOM      9  C9  DEN d   1      -1.255   0.497   0.883  0.00  0.00    -0.072 A 
ENDROOT
TORSDOF 0
ENDMDL
