MODEL 1
REMARK minimizedAffinity -6.30152702
REMARK minimizedRMSD -1
REMARK  0 active torsions:
REMARK  status: ('A' for Active; 'I' for Inactive)
ROOT
ATOM      1  C1  DEN d   1       0.151   0.648   4.005  0.00  0.00     0.130 A 
ATOM      2  C2  DEN d   1       1.469   0.018   4.018  0.00  0.00    -0.031 A 
ATOM      3  C3  DEN d   1       1.793  -0.393   2.638  0.00  0.00     0.027 A 
ATOM      4  C4  DEN d   1       0.392  -0.113   0.490  0.00  0.00     0.027 A 
ATOM      5  C5  DEN d   1      -0.800   0.353  -0.020  0.00  0.00    -0.003 A 
ATOM      6  C6  DEN d   1      -1.765   0.914   0.774  0.00  0.00     0.001 A 
ATOM      7  C7  DEN d   1      -1.535   1.065   2.117  0.00  0.00     0.017 A 
ATOM      8  C8  DEN d   1      -0.339   0.591   2.639  0.00  0.00    -0.094 A 
ATOM      9  C9  DEN d   1       0.629   0.038   1.818  0.00  0.00    -0.072 A 
ENDROOT
TORSDOF 0
ENDMDL
