MODEL 1
REMARK minimizedAffinity -4.96362162
REMARK minimizedRMSD -1
REMARK  0 active torsions:
REMARK  status: ('A' for Active; 'I' for Inactive)
ROOT
ATOM      1  C1  DEN d   1       2.035  -0.544   1.809  0.00  0.00     0.130 A 
ATOM      2  C2  DEN d   1       2.049  -0.819   0.375  0.00  0.00    -0.031 A 
ATOM      3  C3  DEN d   1       0.760  -0.372  -0.188  0.00  0.00     0.027 A 
ATOM      4  C4  DEN d   1      -1.245   0.718   1.014  0.00  0.00     0.027 A 
ATOM      5  C5  DEN d   1      -1.728   1.142   2.232  0.00  0.00    -0.003 A 
ATOM      6  C6  DEN d   1      -1.011   1.004   3.391  0.00  0.00     0.001 A 
ATOM      7  C7  DEN d   1       0.250   0.469   3.348  0.00  0.00     0.017 A 
ATOM      8  C8  DEN d   1       0.741   0.032   2.125  0.00  0.00    -0.094 A 
ATOM      9  C9  DEN d   1       0.005   0.191   0.963  0.00  0.00    -0.072 A 
ENDROOT
TORSDOF 0
ENDMDL
