MODEL 1
REMARK minimizedAffinity -5.90565395
REMARK minimizedRMSD -1
REMARK  1 active torsions:
REMARK  status: ('A' for Active; 'I' for Inactive)
REMARK    1  A    between atoms: C1_2  and  C2_3 
ROOT
ATOM      1  C2  UNL d   1      -1.529   0.087   1.951  0.00  0.00    -0.073 A 
ATOM      2  C3  UNL d   1      -0.637  -0.097   3.014  0.00  0.00    -0.002 A 
ATOM      3  C4  UNL d   1       0.717  -0.328   2.766  0.00  0.00     0.004 A 
ATOM      4  C5  UNL d   1       1.193  -0.371   1.456  0.00  0.00    -0.004 A 
ATOM      5  C6  UNL d   1       0.320  -0.178   0.381  0.00  0.00    -0.075 A 
ATOM      6  C7  UNL d   1       0.816  -0.223  -1.034  0.00  0.00     0.076 C 
ATOM      7  C8  UNL d   1      -1.039   0.051   0.638  0.00  0.00     0.001 A 
ENDROOT
BRANCH   1   8
ATOM      8  C1  UNL d   1      -2.990   0.343   2.214  0.00  0.00     0.053 C 
ATOM      9  C   UNL d   1      -3.792   0.441   0.926  0.00  0.00     0.018 C 
ENDBRANCH   1   8
TORSDOF 1
ENDMDL
