MODEL 1
REMARK minimizedAffinity -5.2755065
REMARK minimizedRMSD -1
REMARK  1 active torsions:
REMARK  status: ('A' for Active; 'I' for Inactive)
REMARK    1  A    between atoms: C1_2  and  C2_3 
ROOT
ATOM      1  C2  UNL d   1      -0.109  -0.039   1.269  0.00  0.00    -0.073 A 
ATOM      2  C3  UNL d   1       0.806   0.466   0.338  0.00  0.00    -0.002 A 
ATOM      3  C4  UNL d   1       0.361   0.972  -0.884  0.00  0.00     0.004 A 
ATOM      4  C5  UNL d   1      -1.001   0.985  -1.185  0.00  0.00    -0.004 A 
ATOM      5  C6  UNL d   1      -1.931   0.496  -0.263  0.00  0.00    -0.075 A 
ATOM      6  C7  UNL d   1      -3.400   0.500  -0.572  0.00  0.00     0.076 C 
ATOM      7  C8  UNL d   1      -1.477  -0.014   0.961  0.00  0.00     0.001 A 
ENDROOT
BRANCH   1   8
ATOM      8  C1  UNL d   1       0.366  -0.581   2.592  0.00  0.00     0.053 C 
ATOM      9  C   UNL d   1      -0.780  -0.781   3.571  0.00  0.00     0.018 C 
ENDBRANCH   1   8
TORSDOF 1
ENDMDL
