MODEL 1
REMARK minimizedAffinity -5.60520887
REMARK minimizedRMSD -1
REMARK  1 active torsions:
REMARK  status: ('A' for Active; 'I' for Inactive)
REMARK    1  A    between atoms: C1_2  and  C2_3 
ROOT
ATOM      1  C2  UNL d   1      -0.093   0.366  -0.936  0.00  0.00    -0.073 A 
ATOM      2  C3  UNL d   1      -1.386   0.704  -1.350  0.00  0.00    -0.002 A 
ATOM      3  C4  UNL d   1      -2.473   0.513  -0.496  0.00  0.00     0.004 A 
ATOM      4  C5  UNL d   1      -2.277  -0.011   0.782  0.00  0.00    -0.004 A 
ATOM      5  C6  UNL d   1      -0.991  -0.343   1.219  0.00  0.00    -0.075 A 
ATOM      6  C7  UNL d   1      -0.763  -0.910   2.589  0.00  0.00     0.076 C 
ATOM      7  C8  UNL d   1       0.095  -0.151   0.354  0.00  0.00     0.001 A 
ENDROOT
BRANCH   1   8
ATOM      8  C1  UNL d   1       1.084   0.577  -1.853  0.00  0.00     0.053 C 
ATOM      9  C   UNL d   1       1.191  -0.517  -2.904  0.00  0.00     0.018 C 
ENDBRANCH   1   8
TORSDOF 1
ENDMDL
