MODEL 1
REMARK minimizedAffinity -5.14492607
REMARK minimizedRMSD -1
REMARK  1 active torsions:
REMARK  status: ('A' for Active; 'I' for Inactive)
REMARK    1  A    between atoms: C1_2  and  C2_3 
ROOT
ATOM      1  C2  UNL d   1       0.451  -0.265  -0.978  0.00  0.00    -0.073 A 
ATOM      2  C3  UNL d   1       1.221  -0.321   0.188  0.00  0.00    -0.002 A 
ATOM      3  C4  UNL d   1       0.651  -0.016   1.425  0.00  0.00     0.004 A 
ATOM      4  C5  UNL d   1      -0.694   0.342   1.509  0.00  0.00    -0.004 A 
ATOM      5  C6  UNL d   1      -1.484   0.393   0.355  0.00  0.00    -0.075 A 
ATOM      6  C7  UNL d   1      -2.932   0.778   0.428  0.00  0.00     0.076 C 
ATOM      7  C8  UNL d   1      -0.904   0.087  -0.883  0.00  0.00     0.001 A 
ENDROOT
BRANCH   1   8
ATOM      8  C1  UNL d   1       1.060  -0.600  -2.315  0.00  0.00     0.053 C 
ATOM      9  C   UNL d   1       0.171  -1.526  -3.131  0.00  0.00     0.018 C 
ENDBRANCH   1   8
TORSDOF 1
ENDMDL
