MODEL 1
REMARK minimizedAffinity -5.75239038
REMARK minimizedRMSD -1
REMARK  1 active torsions:
REMARK  status: ('A' for Active; 'I' for Inactive)
REMARK    1  A    between atoms: C1_2  and  C2_3 
ROOT
ATOM      1  C2  UNL d   1       0.292   0.202  -0.094  0.00  0.00    -0.073 A 
ATOM      2  C3  UNL d   1       1.580   0.469   0.383  0.00  0.00    -0.002 A 
ATOM      3  C4  UNL d   1       1.880   0.296   1.735  0.00  0.00     0.004 A 
ATOM      4  C5  UNL d   1       0.900  -0.152   2.620  0.00  0.00    -0.004 A 
ATOM      5  C6  UNL d   1      -0.390  -0.436   2.160  0.00  0.00    -0.075 A 
ATOM      6  C7  UNL d   1      -1.456  -0.916   3.100  0.00  0.00     0.076 C 
ATOM      7  C8  UNL d   1      -0.685  -0.257   0.802  0.00  0.00     0.001 A 
ENDROOT
BRANCH   1   8
ATOM      8  C1  UNL d   1      -0.036   0.381  -1.554  0.00  0.00     0.053 C 
ATOM      9  C   UNL d   1       0.676  -0.640  -2.428  0.00  0.00     0.018 C 
ENDBRANCH   1   8
TORSDOF 1
ENDMDL
