MODEL 1
REMARK minimizedAffinity -6.04476833
REMARK minimizedRMSD -1
REMARK  1 active torsions:
REMARK  status: ('A' for Active; 'I' for Inactive)
REMARK    1  A    between atoms: C1_2  and  C2_3 
ROOT
ATOM      1  C2  UNL d   1      -1.186   0.098   1.881  0.00  0.00    -0.073 A 
ATOM      2  C3  UNL d   1      -0.130  -0.175   2.757  0.00  0.00    -0.002 A 
ATOM      3  C4  UNL d   1       1.173  -0.297   2.274  0.00  0.00     0.004 A 
ATOM      4  C5  UNL d   1       1.435  -0.140   0.913  0.00  0.00    -0.004 A 
ATOM      5  C6  UNL d   1       0.395   0.145   0.023  0.00  0.00    -0.075 A 
ATOM      6  C7  UNL d   1       0.659   0.314  -1.444  0.00  0.00     0.076 C 
ATOM      7  C8  UNL d   1      -0.912   0.263   0.515  0.00  0.00     0.001 A 
ENDROOT
BRANCH   1   8
ATOM      8  C1  UNL d   1      -2.595   0.237   2.398  0.00  0.00     0.053 C 
ATOM      9  C   UNL d   1      -3.544   0.764   1.334  0.00  0.00     0.018 C 
ENDBRANCH   1   8
TORSDOF 1
ENDMDL
