MODEL 1
REMARK minimizedAffinity -5.68247271
REMARK minimizedRMSD -1
REMARK  1 active torsions:
REMARK  status: ('A' for Active; 'I' for Inactive)
REMARK    1  A    between atoms: C1_2  and  C2_3 
ROOT
ATOM      1  C2  UNL d   1      -0.288  -0.288   1.026  0.00  0.00    -0.073 A 
ATOM      2  C3  UNL d   1      -0.045  -0.406   2.399  0.00  0.00    -0.002 A 
ATOM      3  C4  UNL d   1      -1.090  -0.273   3.314  0.00  0.00     0.004 A 
ATOM      4  C5  UNL d   1      -2.388  -0.027   2.866  0.00  0.00    -0.004 A 
ATOM      5  C6  UNL d   1      -2.653   0.082   1.497  0.00  0.00    -0.075 A 
ATOM      6  C7  UNL d   1      -4.044   0.348   0.999  0.00  0.00     0.076 C 
ATOM      7  C8  UNL d   1      -1.598  -0.051   0.585  0.00  0.00     0.001 A 
ENDROOT
BRANCH   1   8
ATOM      8  C1  UNL d   1       0.836  -0.438   0.034  0.00  0.00     0.053 C 
ATOM      9  C   UNL d   1       0.336  -0.417  -1.402  0.00  0.00     0.018 C 
ENDBRANCH   1   8
TORSDOF 1
ENDMDL
