MODEL 1
REMARK minimizedAffinity -1.77836967
REMARK minimizedRMSD -1
REMARK  1 active torsions:
REMARK  status: ('A' for Active; 'I' for Inactive)
REMARK    1  A    between atoms: C1_2  and  C2_3 
ROOT
ATOM      1  C2  UNL d   1      -0.536  -0.594   1.453  0.00  0.00    -0.073 A 
ATOM      2  C3  UNL d   1       0.700  -0.161   0.959  0.00  0.00    -0.002 A 
ATOM      3  C4  UNL d   1       0.773   0.531  -0.250  0.00  0.00     0.004 A 
ATOM      4  C5  UNL d   1      -0.388   0.805  -0.973  0.00  0.00    -0.004 A 
ATOM      5  C6  UNL d   1      -1.634   0.391  -0.490  0.00  0.00    -0.075 A 
ATOM      6  C7  UNL d   1      -2.891   0.676  -1.257  0.00  0.00     0.076 C 
ATOM      7  C8  UNL d   1      -1.698  -0.306   0.723  0.00  0.00     0.001 A 
ENDROOT
BRANCH   1   8
ATOM      8  C1  UNL d   1      -0.620  -1.337   2.761  0.00  0.00     0.053 C 
ATOM      9  C   UNL d   1      -0.670  -0.392   3.951  0.00  0.00     0.018 C 
ENDBRANCH   1   8
TORSDOF 1
ENDMDL
