MODEL 1
REMARK minimizedAffinity -1.80830026
REMARK minimizedRMSD -1
REMARK  1 active torsions:
REMARK  status: ('A' for Active; 'I' for Inactive)
REMARK    1  A    between atoms: C1_2  and  C2_3 
ROOT
ATOM      1  C2  UNL d   1       0.210   0.306  -1.794  0.00  0.00    -0.073 A 
ATOM      2  C3  UNL d   1      -1.106   0.686  -2.082  0.00  0.00    -0.002 A 
ATOM      3  C4  UNL d   1      -2.012   0.929  -1.049  0.00  0.00     0.004 A 
ATOM      4  C5  UNL d   1      -1.611   0.802   0.281  0.00  0.00    -0.004 A 
ATOM      5  C6  UNL d   1      -0.297   0.435   0.589  0.00  0.00    -0.075 A 
ATOM      6  C7  UNL d   1       0.150   0.292   2.014  0.00  0.00     0.076 C 
ATOM      7  C8  UNL d   1       0.606   0.190  -0.454  0.00  0.00     0.001 A 
ENDROOT
BRANCH   1   8
ATOM      8  C1  UNL d   1       1.193   0.049  -2.907  0.00  0.00     0.053 C 
ATOM      9  C   UNL d   1       1.043  -1.348  -3.488  0.00  0.00     0.018 C 
ENDBRANCH   1   8
TORSDOF 1
ENDMDL
