MODEL 1
REMARK minimizedAffinity -1.61981428
REMARK minimizedRMSD -1
REMARK  1 active torsions:
REMARK  status: ('A' for Active; 'I' for Inactive)
REMARK    1  A    between atoms: C1_2  and  C2_3 
ROOT
ATOM      1  C2  UNL d   1       0.158   0.071  -0.607  0.00  0.00    -0.073 A 
ATOM      2  C3  UNL d   1       0.891   0.966   0.181  0.00  0.00    -0.002 A 
ATOM      3  C4  UNL d   1       0.746   0.964   1.569  0.00  0.00     0.004 A 
ATOM      4  C5  UNL d   1      -0.124   0.064   2.183  0.00  0.00    -0.004 A 
ATOM      5  C6  UNL d   1      -0.856  -0.846   1.414  0.00  0.00    -0.075 A 
ATOM      6  C7  UNL d   1      -1.798  -1.819   2.059  0.00  0.00     0.076 C 
ATOM      7  C8  UNL d   1      -0.707  -0.837   0.021  0.00  0.00     0.001 A 
ENDROOT
BRANCH   1   8
ATOM      8  C1  UNL d   1       0.315   0.064  -2.105  0.00  0.00     0.053 C 
ATOM      9  C   UNL d   1       1.738  -0.266  -2.528  0.00  0.00     0.018 C 
ENDBRANCH   1   8
TORSDOF 1
ENDMDL
