MODEL 1
REMARK minimizedAffinity -3.18962407
REMARK minimizedRMSD -1
REMARK  1 active torsions:
REMARK  status: ('A' for Active; 'I' for Inactive)
REMARK    1  A    between atoms: C1_2  and  C2_3 
ROOT
ATOM      1  C2  UNL d   1      -0.982  -0.062   2.007  0.00  0.00    -0.073 A 
ATOM      2  C3  UNL d   1      -2.297  -0.186   1.545  0.00  0.00    -0.002 A 
ATOM      3  C4  UNL d   1      -2.586  -0.029   0.189  0.00  0.00     0.004 A 
ATOM      4  C5  UNL d   1      -1.564   0.245  -0.720  0.00  0.00    -0.004 A 
ATOM      5  C6  UNL d   1      -0.241   0.360  -0.279  0.00  0.00    -0.075 A 
ATOM      6  C7  UNL d   1       0.870   0.656  -1.243  0.00  0.00     0.076 C 
ATOM      7  C8  UNL d   1       0.041   0.204   1.085  0.00  0.00     0.001 A 
ENDROOT
BRANCH   1   8
ATOM      8  C1  UNL d   1      -0.664  -0.237   3.469  0.00  0.00     0.053 C 
ATOM      9  C   UNL d   1      -1.841  -0.809   4.244  0.00  0.00     0.018 C 
ENDBRANCH   1   8
TORSDOF 1
ENDMDL
