MODEL 1
REMARK minimizedAffinity -2.83399272
REMARK minimizedRMSD -1
REMARK  0 active torsions:
REMARK  status: ('A' for Active; 'I' for Inactive)
ROOT
ATOM      1  C   UNL d   1       2.583  -0.712  -0.538  0.00  0.00     0.020 A 
ATOM      2  C1  UNL d   1       2.257  -1.662   0.429  0.00  0.00     0.020 A 
ATOM      3  C2  UNL d   1       1.014  -1.612   1.065  0.00  0.00     0.034 A 
ATOM      4  C3  UNL d   1       0.094  -0.611   0.734  0.00  0.00     0.017 A 
ATOM      5  C4  UNL d   1       0.422   0.342  -0.237  0.00  0.00     0.017 A 
ATOM      6  C5  UNL d   1       1.668   0.287  -0.870  0.00  0.00     0.034 A 
ATOM      7 Cl   UNL d   1      -0.661   1.607  -0.699  0.00  0.00    -0.070 Cl
ATOM      8 Cl1  UNL d   1      -1.424  -0.611   1.559  0.00  0.00    -0.070 Cl
ENDROOT
TORSDOF 0
ENDMDL
