MODEL 1
REMARK minimizedAffinity -2.05351162
REMARK minimizedRMSD -1
REMARK  0 active torsions:
REMARK  status: ('A' for Active; 'I' for Inactive)
ROOT
ATOM      1  C   UNL d   1      -1.133   0.162   0.455  0.00  0.00     0.020 A 
ATOM      2  C1  UNL d   1      -0.655   1.166  -0.386  0.00  0.00     0.020 A 
ATOM      3  C2  UNL d   1       0.658   1.116  -0.857  0.00  0.00     0.034 A 
ATOM      4  C3  UNL d   1       1.499   0.060  -0.487  0.00  0.00     0.017 A 
ATOM      5  C4  UNL d   1       1.018  -0.948   0.357  0.00  0.00     0.017 A 
ATOM      6  C5  UNL d   1      -0.298  -0.893   0.825  0.00  0.00     0.034 A 
ATOM      7 Cl   UNL d   1       1.996  -2.283   0.856  0.00  0.00    -0.070 Cl
ATOM      8 Cl1  UNL d   1       3.112   0.062  -1.107  0.00  0.00    -0.070 Cl
ENDROOT
TORSDOF 0
ENDMDL
