MODEL 1
REMARK minimizedAffinity -0.823558152
REMARK minimizedRMSD -1
REMARK  0 active torsions:
REMARK  status: ('A' for Active; 'I' for Inactive)
ROOT
ATOM      1  C   UNL d   1       2.498  -0.207  -0.159  0.00  0.00     0.020 A 
ATOM      2  C1  UNL d   1       2.455  -1.230   0.787  0.00  0.00     0.020 A 
ATOM      3  C2  UNL d   1       1.308  -1.415   1.563  0.00  0.00     0.034 A 
ATOM      4  C3  UNL d   1       0.200  -0.577   1.392  0.00  0.00     0.017 A 
ATOM      5  C4  UNL d   1       0.245   0.449   0.442  0.00  0.00     0.017 A 
ATOM      6  C5  UNL d   1       1.395   0.630  -0.332  0.00  0.00     0.034 A 
ATOM      7 Cl   UNL d   1      -1.083   1.523   0.174  0.00  0.00    -0.070 Cl
ATOM      8 Cl1  UNL d   1      -1.185  -0.864   2.385  0.00  0.00    -0.070 Cl
ENDROOT
TORSDOF 0
ENDMDL
