MODEL 1
REMARK minimizedAffinity -0.454349011
REMARK minimizedRMSD -1
REMARK  0 active torsions:
REMARK  status: ('A' for Active; 'I' for Inactive)
ROOT
ATOM      1  C   UNL d   1       2.578  -0.812   0.039  0.00  0.00     0.020 A 
ATOM      2  C1  UNL d   1       2.151  -1.454   1.201  0.00  0.00     0.020 A 
ATOM      3  C2  UNL d   1       0.862  -1.229   1.689  0.00  0.00     0.034 A 
ATOM      4  C3  UNL d   1      -0.004  -0.360   1.015  0.00  0.00     0.017 A 
ATOM      5  C4  UNL d   1       0.426   0.283  -0.151  0.00  0.00     0.017 A 
ATOM      6  C5  UNL d   1       1.717   0.055  -0.636  0.00  0.00     0.034 A 
ATOM      7 Cl   UNL d   1      -0.586   1.369  -1.037  0.00  0.00    -0.070 Cl
ATOM      8 Cl1  UNL d   1      -1.584  -0.129   1.675  0.00  0.00    -0.070 Cl
ENDROOT
TORSDOF 0
ENDMDL
