MODEL 1
REMARK minimizedAffinity -3.19938135
REMARK minimizedRMSD -1
REMARK  0 active torsions:
REMARK  status: ('A' for Active; 'I' for Inactive)
ROOT
ATOM      1  C   UNL d   1      -1.015   1.186   0.296  0.00  0.00     0.020 A 
ATOM      2  C1  UNL d   1      -1.349   0.133   1.147  0.00  0.00     0.020 A 
ATOM      3  C2  UNL d   1      -0.384  -0.812   1.500  0.00  0.00     0.034 A 
ATOM      4  C3  UNL d   1       0.920  -0.707   1.002  0.00  0.00     0.017 A 
ATOM      5  C4  UNL d   1       1.254   0.349   0.148  0.00  0.00     0.017 A 
ATOM      6  C5  UNL d   1       0.284   1.294  -0.203  0.00  0.00     0.034 A 
ATOM      7 Cl   UNL d   1       2.842   0.545  -0.507  0.00  0.00    -0.070 Cl
ATOM      8 Cl1  UNL d   1       2.062  -1.912   1.481  0.00  0.00    -0.070 Cl
ENDROOT
TORSDOF 0
ENDMDL
