MODEL 1
REMARK minimizedAffinity -4.32829142
REMARK minimizedRMSD -1
REMARK  0 active torsions:
REMARK  status: ('A' for Active; 'I' for Inactive)
ROOT
ATOM      1  C   UNL d   1      -0.162  -1.155   3.043  0.00  0.00     0.020 A 
ATOM      2  C1  UNL d   1       1.121  -1.695   2.973  0.00  0.00     0.020 A 
ATOM      3  C2  UNL d   1       1.873  -1.558   1.805  0.00  0.00     0.034 A 
ATOM      4  C3  UNL d   1       1.342  -0.881   0.701  0.00  0.00     0.017 A 
ATOM      5  C4  UNL d   1       0.053  -0.340   0.772  0.00  0.00     0.017 A 
ATOM      6  C5  UNL d   1      -0.695  -0.479   1.945  0.00  0.00     0.034 A 
ATOM      7 Cl   UNL d   1      -0.670   0.509  -0.549  0.00  0.00    -0.070 Cl
ATOM      8 Cl1  UNL d   1       2.328  -0.750  -0.712  0.00  0.00    -0.070 Cl
ENDROOT
TORSDOF 0
ENDMDL
