MODEL 1
REMARK minimizedAffinity -1.72447217
REMARK minimizedRMSD -1
REMARK  0 active torsions:
REMARK  status: ('A' for Active; 'I' for Inactive)
ROOT
ATOM      1  C   UNL d   1       2.647  -1.051   1.252  0.00  0.00     0.020 A 
ATOM      2  C1  UNL d   1       2.819  -0.218   0.147  0.00  0.00     0.020 A 
ATOM      3  C2  UNL d   1       1.708   0.360  -0.471  0.00  0.00     0.034 A 
ATOM      4  C3  UNL d   1       0.420   0.105   0.015  0.00  0.00     0.017 A 
ATOM      5  C4  UNL d   1       0.249  -0.731   1.124  0.00  0.00     0.017 A 
ATOM      6  C5  UNL d   1       1.364  -1.307   1.739  0.00  0.00     0.034 A 
ATOM      7 Cl   UNL d   1      -1.309  -1.092   1.781  0.00  0.00    -0.070 Cl
ATOM      8 Cl1  UNL d   1      -0.908   0.854  -0.798  0.00  0.00    -0.070 Cl
ENDROOT
TORSDOF 0
ENDMDL
