MODEL 1
REMARK minimizedAffinity -2.25343275
REMARK minimizedRMSD -1
REMARK  0 active torsions:
REMARK  status: ('A' for Active; 'I' for Inactive)
ROOT
ATOM      1  C   UNL d   1       1.572   0.301  -0.636  0.00  0.00     0.020 A 
ATOM      2  C1  UNL d   1       2.600  -0.445  -0.059  0.00  0.00     0.020 A 
ATOM      3  C2  UNL d   1       2.392  -1.097   1.158  0.00  0.00     0.034 A 
ATOM      4  C3  UNL d   1       1.153  -1.006   1.802  0.00  0.00     0.017 A 
ATOM      5  C4  UNL d   1       0.122  -0.257   1.223  0.00  0.00     0.017 A 
ATOM      6  C5  UNL d   1       0.336   0.394   0.004  0.00  0.00     0.034 A 
ATOM      7 Cl   UNL d   1      -1.434  -0.097   1.959  0.00  0.00    -0.070 Cl
ATOM      8 Cl1  UNL d   1       0.965  -1.838   3.304  0.00  0.00    -0.070 Cl
ENDROOT
TORSDOF 0
ENDMDL
