MODEL 1
REMARK minimizedAffinity -3.06142783
REMARK minimizedRMSD -1
REMARK  0 active torsions:
REMARK  status: ('A' for Active; 'I' for Inactive)
ROOT
ATOM      1  C   UNL d   1      -2.923   1.280  -1.860  0.00  0.00     0.020 A 
ATOM      2  C1  UNL d   1      -2.106   2.314  -2.314  0.00  0.00     0.020 A 
ATOM      3  C2  UNL d   1      -0.772   2.382  -1.905  0.00  0.00     0.034 A 
ATOM      4  C3  UNL d   1      -0.252   1.413  -1.039  0.00  0.00     0.017 A 
ATOM      5  C4  UNL d   1      -1.073   0.375  -0.584  0.00  0.00     0.017 A 
ATOM      6  C5  UNL d   1      -2.407   0.312  -0.997  0.00  0.00     0.034 A 
ATOM      7 Cl   UNL d   1      -0.502  -0.857   0.486  0.00  0.00    -0.070 Cl
ATOM      8 Cl1  UNL d   1       1.406   1.559  -0.574  0.00  0.00    -0.070 Cl
ENDROOT
TORSDOF 0
ENDMDL
