MODEL 1
REMARK minimizedAffinity -3.24047184
REMARK minimizedRMSD -1
REMARK  0 active torsions:
REMARK  status: ('A' for Active; 'I' for Inactive)
ROOT
ATOM      1  C   UNL d   1      -2.475   2.203  -2.715  0.00  0.00     0.020 A 
ATOM      2  C1  UNL d   1      -1.684   3.031  -1.919  0.00  0.00     0.020 A 
ATOM      3  C2  UNL d   1      -0.808   2.473  -0.985  0.00  0.00     0.034 A 
ATOM      4  C3  UNL d   1      -0.720   1.084  -0.845  0.00  0.00     0.017 A 
ATOM      5  C4  UNL d   1      -1.514   0.253  -1.644  0.00  0.00     0.017 A 
ATOM      6  C5  UNL d   1      -2.390   0.817  -2.577  0.00  0.00     0.034 A 
ATOM      7 Cl   UNL d   1      -1.461  -1.471  -1.528  0.00  0.00    -0.070 Cl
ATOM      8 Cl1  UNL d   1       0.385   0.463   0.330  0.00  0.00    -0.070 Cl
ENDROOT
TORSDOF 0
ENDMDL
