MODEL 1
REMARK minimizedAffinity -3.15448403
REMARK minimizedRMSD -1
REMARK  0 active torsions:
REMARK  status: ('A' for Active; 'I' for Inactive)
ROOT
ATOM      1  C   UNL d   1      -0.758   0.560   0.753  0.00  0.00     0.020 A 
ATOM      2  C1  UNL d   1      -0.110   1.561   0.029  0.00  0.00     0.020 A 
ATOM      3  C2  UNL d   1       1.223   1.394  -0.354  0.00  0.00     0.034 A 
ATOM      4  C3  UNL d   1       1.912   0.224  -0.013  0.00  0.00     0.017 A 
ATOM      5  C4  UNL d   1       1.261  -0.779   0.714  0.00  0.00     0.017 A 
ATOM      6  C5  UNL d   1      -0.074  -0.607   1.094  0.00  0.00     0.034 A 
ATOM      7 Cl   UNL d   1       2.045  -2.250   1.171  0.00  0.00    -0.070 Cl
ATOM      8 Cl1  UNL d   1       3.558   0.085  -0.519  0.00  0.00    -0.070 Cl
ENDROOT
TORSDOF 0
ENDMDL
