MODEL 1
REMARK minimizedAffinity -1.68283582
REMARK minimizedRMSD -1
REMARK  0 active torsions:
REMARK  status: ('A' for Active; 'I' for Inactive)
ROOT
ATOM      1  C   UNL d   1       0.714   1.369  -0.616  0.00  0.00     0.020 A 
ATOM      2  C1  UNL d   1       1.985   0.798  -0.669  0.00  0.00     0.020 A 
ATOM      3  C2  UNL d   1       2.301  -0.281   0.160  0.00  0.00     0.034 A 
ATOM      4  C3  UNL d   1       1.345  -0.792   1.045  0.00  0.00     0.017 A 
ATOM      5  C4  UNL d   1       0.070  -0.218   1.098  0.00  0.00     0.017 A 
ATOM      6  C5  UNL d   1      -0.241   0.862   0.266  0.00  0.00     0.034 A 
ATOM      7 Cl   UNL d   1      -1.162  -0.793   2.165  0.00  0.00    -0.070 Cl
ATOM      8 Cl1  UNL d   1       1.805  -2.127   2.041  0.00  0.00    -0.070 Cl
ENDROOT
TORSDOF 0
ENDMDL
