MODEL 1
REMARK minimizedAffinity -0.515171468
REMARK minimizedRMSD -1
REMARK  0 active torsions:
REMARK  status: ('A' for Active; 'I' for Inactive)
ROOT
ATOM      1  C   UNL d   1      -3.262   0.190  -2.546  0.00  0.00     0.020 A 
ATOM      2  C1  UNL d   1      -2.886  -0.754  -1.591  0.00  0.00     0.020 A 
ATOM      3  C2  UNL d   1      -1.740  -0.547  -0.819  0.00  0.00     0.034 A 
ATOM      4  C3  UNL d   1      -0.967   0.605  -1.001  0.00  0.00     0.017 A 
ATOM      5  C4  UNL d   1      -1.345   1.551  -1.960  0.00  0.00     0.017 A 
ATOM      6  C5  UNL d   1      -2.493   1.340  -2.730  0.00  0.00     0.034 A 
ATOM      7 Cl   UNL d   1      -0.442   2.998  -2.242  0.00  0.00    -0.070 Cl
ATOM      8 Cl1  UNL d   1       0.437   0.795  -0.012  0.00  0.00    -0.070 Cl
ENDROOT
TORSDOF 0
ENDMDL
