MODEL 1
REMARK minimizedAffinity 7.22470284
REMARK minimizedRMSD -1
REMARK  0 active torsions:
REMARK  status: ('A' for Active; 'I' for Inactive)
ROOT
ATOM      1  C   UNL d   1       2.564  -5.160  -5.064  0.00  0.00     0.020 A 
ATOM      2  C1  UNL d   1       1.895  -5.999  -5.954  0.00  0.00     0.020 A 
ATOM      3  C2  UNL d   1       0.499  -5.999  -5.999  0.00  0.00     0.034 A 
ATOM      4  C3  UNL d   1      -0.232  -5.158  -5.151  0.00  0.00     0.017 A 
ATOM      5  C4  UNL d   1       0.441  -4.317  -4.258  0.00  0.00     0.017 A 
ATOM      6  C5  UNL d   1       1.839  -4.321  -4.218  0.00  0.00     0.034 A 
ATOM      7 Cl   UNL d   1      -0.392  -3.252  -3.181  0.00  0.00    -0.070 Cl
ATOM      8 Cl1  UNL d   1      -1.955  -5.210  -5.260  0.00  0.00    -0.070 Cl
ENDROOT
TORSDOF 0
ENDMDL
