MODEL 1
REMARK minimizedAffinity -1.84358633
REMARK minimizedRMSD -1
REMARK  0 active torsions:
REMARK  status: ('A' for Active; 'I' for Inactive)
ROOT
ATOM      1  C   UNL d   1      -3.030  -0.378   1.487  0.00  0.00     0.020 A 
ATOM      2  C1  UNL d   1      -4.020  -0.391   0.505  0.00  0.00     0.020 A 
ATOM      3  C2  UNL d   1      -3.778   0.198  -0.737  0.00  0.00     0.034 A 
ATOM      4  C3  UNL d   1      -2.544   0.803  -1.002  0.00  0.00     0.017 A 
ATOM      5  C4  UNL d   1      -1.551   0.815  -0.016  0.00  0.00     0.017 A 
ATOM      6  C5  UNL d   1      -1.798   0.224   1.227  0.00  0.00     0.034 A 
ATOM      7 Cl   UNL d   1      -0.003   1.542  -0.269  0.00  0.00    -0.070 Cl
ATOM      8 Cl1  UNL d   1      -2.315   1.512  -2.561  0.00  0.00    -0.070 Cl
ENDROOT
TORSDOF 0
ENDMDL
