MODEL 1
REMARK minimizedAffinity -1.67193067
REMARK minimizedRMSD -1
REMARK  0 active torsions:
REMARK  status: ('A' for Active; 'I' for Inactive)
ROOT
ATOM      1  C   UNL d   1      -1.983   1.239  -2.807  0.00  0.00     0.020 A 
ATOM      2  C1  UNL d   1      -3.154   0.612  -2.383  0.00  0.00     0.020 A 
ATOM      3  C2  UNL d   1      -3.206   0.009  -1.124  0.00  0.00     0.034 A 
ATOM      4  C3  UNL d   1      -2.085   0.032  -0.286  0.00  0.00     0.017 A 
ATOM      5  C4  UNL d   1      -0.911   0.662  -0.713  0.00  0.00     0.017 A 
ATOM      6  C5  UNL d   1      -0.864   1.264  -1.974  0.00  0.00     0.034 A 
ATOM      7 Cl   UNL d   1       0.512   0.732   0.266  0.00  0.00    -0.070 Cl
ATOM      8 Cl1  UNL d   1      -2.221  -0.733   1.258  0.00  0.00    -0.070 Cl
ENDROOT
TORSDOF 0
ENDMDL
