MODEL 1
REMARK minimizedAffinity -4.87126589
REMARK minimizedRMSD -1
REMARK  0 active torsions:
REMARK  status: ('A' for Active; 'I' for Inactive)
ROOT
ATOM      1  C   UNL d   1       2.017  -1.591  -0.040  0.00  0.00     0.020 A 
ATOM      2  C1  UNL d   1       1.688  -2.369   1.069  0.00  0.00     0.020 A 
ATOM      3  C2  UNL d   1       0.545  -2.074   1.815  0.00  0.00     0.034 A 
ATOM      4  C3  UNL d   1      -0.273  -0.997   1.454  0.00  0.00     0.017 A 
ATOM      5  C4  UNL d   1       0.058  -0.216   0.341  0.00  0.00     0.017 A 
ATOM      6  C5  UNL d   1       1.203  -0.516  -0.403  0.00  0.00     0.034 A 
ATOM      7 Cl   UNL d   1      -0.902   1.129  -0.167  0.00  0.00    -0.070 Cl
ATOM      8 Cl1  UNL d   1      -1.671  -0.689   2.422  0.00  0.00    -0.070 Cl
ENDROOT
TORSDOF 0
ENDMDL
