MODEL 1
REMARK minimizedAffinity -2.80635715
REMARK minimizedRMSD -1
REMARK  2 active torsions:
REMARK  status: ('A' for Active; 'I' for Inactive)
REMARK    1  A    between atoms: C2'_3  and  C1'_4 
REMARK    2  A    between atoms: C1'_4  and  C1_5 
ROOT
ATOM      1  C1  I4B d   1      -1.406   0.446  -0.144  0.00  0.00    -0.075 A 
ATOM      2  C2  I4B d   1      -0.296   1.185   0.181  0.00  0.00     0.003 A 
ATOM      3  C3  I4B d   1       0.997   0.622   0.055  0.00  0.00     0.002 A 
ATOM      4  C4  I4B d   1       1.130  -0.690  -0.349  0.00  0.00    -0.004 A 
ATOM      5  C5  I4B d   1       0.005  -1.431  -0.700  0.00  0.00     0.002 A 
ATOM      6  C6  I4B d   1      -1.271  -0.855  -0.609  0.00  0.00     0.003 A 
ENDROOT
BRANCH   1   7
ATOM      7  C1' I4B d   1      -2.758   1.061   0.033  0.00  0.00     0.060 C 
BRANCH   7   8
ATOM      8  C2' I4B d   1      -3.029   1.175   1.519  0.00  0.00    -0.013 C 
ATOM      9  C4' I4B d   1      -3.227   2.611   1.929  0.00  0.00     0.013 C 
ATOM     10  C3' I4B d   1      -4.241   0.350   1.834  0.00  0.00     0.013 C 
ENDBRANCH   7   8
ENDBRANCH   1   7
TORSDOF 2
ENDMDL
