MODEL 1
REMARK minimizedAffinity -0.838162482
REMARK minimizedRMSD -1
REMARK  2 active torsions:
REMARK  status: ('A' for Active; 'I' for Inactive)
REMARK    1  A    between atoms: C2'_3  and  C1'_4 
REMARK    2  A    between atoms: C1'_4  and  C1_5 
ROOT
ATOM      1  C1  I4B d   1      -0.546   0.167  -0.434  0.00  0.00    -0.075 A 
ATOM      2  C2  I4B d   1       0.751   0.507  -0.140  0.00  0.00     0.003 A 
ATOM      3  C3  I4B d   1       1.775  -0.470  -0.198  0.00  0.00     0.002 A 
ATOM      4  C4  I4B d   1       1.451  -1.776  -0.503  0.00  0.00    -0.004 A 
ATOM      5  C5  I4B d   1       0.139  -2.114  -0.823  0.00  0.00     0.002 A 
ATOM      6  C6  I4B d   1      -0.864  -1.135  -0.800  0.00  0.00     0.003 A 
ENDROOT
BRANCH   1   7
ATOM      7  C1' I4B d   1      -1.607   1.216  -0.330  0.00  0.00     0.060 C 
BRANCH   7   8
ATOM      8  C2' I4B d   1      -2.656   0.724   0.646  0.00  0.00    -0.013 C 
ATOM      9  C4' I4B d   1      -2.680   1.569   1.892  0.00  0.00     0.013 C 
ATOM     10  C3' I4B d   1      -3.984   0.748  -0.050  0.00  0.00     0.013 C 
ENDBRANCH   7   8
ENDBRANCH   1   7
TORSDOF 2
ENDMDL
