MODEL 1
REMARK minimizedAffinity -3.87206125
REMARK minimizedRMSD -1
REMARK  1 active torsions:
REMARK  status: ('A' for Active; 'I' for Inactive)
REMARK    1  A    between atoms: C1_2  and  C2_3 
ROOT
ATOM      1  C2  UNL d   1       1.889  -3.319  -0.770  0.00  0.00    -0.081 A 
ATOM      2  C3  UNL d   1       0.648  -3.682  -1.307  0.00  0.00     0.006 A 
ATOM      3  C4  UNL d   1       0.131  -3.006  -2.414  0.00  0.00     0.002 A 
ATOM      4  C5  UNL d   1       0.849  -1.962  -3.008  0.00  0.00    -0.080 A 
ATOM      5  C6  UNL d   1       0.319  -1.248  -4.216  0.00  0.00     0.076 C 
ATOM      6  C7  UNL d   1       2.081  -1.588  -2.461  0.00  0.00     0.002 A 
ATOM      7  C8  UNL d   1       2.598  -2.263  -1.353  0.00  0.00     0.006 A 
ENDROOT
BRANCH   1   8
ATOM      8  C1  UNL d   1       2.480  -4.089   0.384  0.00  0.00     0.054 C 
ATOM      9  C   UNL d   1       2.553  -5.577   0.077  0.00  0.00     0.018 C 
ENDBRANCH   1   8
TORSDOF 1
ENDMDL
