MODEL 1
REMARK minimizedAffinity 8.69952297
REMARK minimizedRMSD -1
REMARK  1 active torsions:
REMARK  status: ('A' for Active; 'I' for Inactive)
REMARK    1  A    between atoms: C1_2  and  C2_3 
ROOT
ATOM      1  C2  UNL d   1       0.684   2.778   1.008  0.00  0.00    -0.081 A 
ATOM      2  C3  UNL d   1       0.009   1.606   0.646  0.00  0.00     0.006 A 
ATOM      3  C4  UNL d   1      -0.003   0.502   1.502  0.00  0.00     0.002 A 
ATOM      4  C5  UNL d   1       0.653   0.554   2.736  0.00  0.00    -0.080 A 
ATOM      5  C6  UNL d   1       0.623  -0.614   3.677  0.00  0.00     0.076 C 
ATOM      6  C7  UNL d   1       1.342   1.718   3.091  0.00  0.00     0.002 A 
ATOM      7  C8  UNL d   1       1.355   2.822   2.235  0.00  0.00     0.006 A 
ENDROOT
BRANCH   1   8
ATOM      8  C1  UNL d   1       0.644   3.992   0.117  0.00  0.00     0.054 C 
ATOM      9  C   UNL d   1      -0.203   3.741  -1.123  0.00  0.00     0.018 C 
ENDBRANCH   1   8
TORSDOF 1
ENDMDL
