MODEL 1
REMARK minimizedAffinity 7.37778282
REMARK minimizedRMSD -1
REMARK  1 active torsions:
REMARK  status: ('A' for Active; 'I' for Inactive)
REMARK    1  A    between atoms: C1_2  and  C2_3 
ROOT
ATOM      1  C2  UNL d   1       1.222  -4.464  -5.235  0.00  0.00    -0.081 A 
ATOM      2  C3  UNL d   1       0.691  -5.725  -4.934  0.00  0.00     0.006 A 
ATOM      3  C4  UNL d   1      -0.658  -6.000  -5.168  0.00  0.00     0.002 A 
ATOM      4  C5  UNL d   1      -1.497  -5.023  -5.715  0.00  0.00    -0.080 A 
ATOM      5  C6  UNL d   1      -2.940  -5.315  -5.999  0.00  0.00     0.076 C 
ATOM      6  C7  UNL d   1      -0.971  -3.758  -6.000  0.00  0.00     0.002 A 
ATOM      7  C8  UNL d   1       0.378  -3.482  -5.765  0.00  0.00     0.006 A 
ENDROOT
BRANCH   1   8
ATOM      8  C1  UNL d   1       2.691  -4.185  -5.044  0.00  0.00     0.054 C 
ATOM      9  C   UNL d   1       2.913  -3.003  -4.112  0.00  0.00     0.018 C 
ENDBRANCH   1   8
TORSDOF 1
ENDMDL
