MODEL 1
REMARK minimizedAffinity 10.7549562
REMARK minimizedRMSD -1
REMARK  1 active torsions:
REMARK  status: ('A' for Active; 'I' for Inactive)
REMARK    1  A    between atoms: C1_2  and  C2_3 
ROOT
ATOM      1  C2  UNL d   1       4.868  -3.951   0.016  0.00  0.00    -0.081 A 
ATOM      2  C3  UNL d   1       3.656  -3.311  -0.274  0.00  0.00     0.006 A 
ATOM      3  C4  UNL d   1       3.548  -2.466  -1.380  0.00  0.00     0.002 A 
ATOM      4  C5  UNL d   1       4.647  -2.251  -2.219  0.00  0.00    -0.080 A 
ATOM      5  C6  UNL d   1       4.536  -1.370  -3.428  0.00  0.00     0.076 C 
ATOM      6  C7  UNL d   1       5.862  -2.876  -1.920  0.00  0.00     0.002 A 
ATOM      7  C8  UNL d   1       5.971  -3.722  -0.814  0.00  0.00     0.006 A 
ENDROOT
BRANCH   1   8
ATOM      8  C1  UNL d   1       4.969  -4.914   1.171  0.00  0.00     0.054 C 
ATOM      9  C   UNL d   1       6.000  -6.000   0.897  0.00  0.00     0.018 C 
ENDBRANCH   1   8
TORSDOF 1
ENDMDL
