MODEL 1
REMARK minimizedAffinity 2.29316688
REMARK minimizedRMSD -1
REMARK  1 active torsions:
REMARK  status: ('A' for Active; 'I' for Inactive)
REMARK    1  A    between atoms: C1_2  and  C2_3 
ROOT
ATOM      1  C2  UNL d   1       3.434  -3.707  -2.052  0.00  0.00    -0.081 A 
ATOM      2  C3  UNL d   1       3.762  -2.355  -2.209  0.00  0.00     0.006 A 
ATOM      3  C4  UNL d   1       3.207  -1.388  -1.367  0.00  0.00     0.002 A 
ATOM      4  C5  UNL d   1       2.320  -1.758  -0.350  0.00  0.00    -0.080 A 
ATOM      5  C6  UNL d   1       1.740  -0.735   0.580  0.00  0.00     0.076 C 
ATOM      6  C7  UNL d   1       1.979  -3.107  -0.204  0.00  0.00     0.002 A 
ATOM      7  C8  UNL d   1       2.534  -4.074  -1.046  0.00  0.00     0.006 A 
ENDROOT
BRANCH   1   8
ATOM      8  C1  UNL d   1       4.082  -4.758  -2.916  0.00  0.00     0.054 C 
ATOM      9  C   UNL d   1       5.535  -4.980  -2.523  0.00  0.00     0.018 C 
ENDBRANCH   1   8
TORSDOF 1
ENDMDL
