MODEL 1
REMARK minimizedAffinity 5.52750778
REMARK minimizedRMSD -1
REMARK  1 active torsions:
REMARK  status: ('A' for Active; 'I' for Inactive)
REMARK    1  A    between atoms: C1_2  and  C2_3 
ROOT
ATOM      1  C2  UNL d   1       3.876  -4.889  -1.897  0.00  0.00    -0.081 A 
ATOM      2  C3  UNL d   1       5.201  -4.862  -2.347  0.00  0.00     0.006 A 
ATOM      3  C4  UNL d   1       5.662  -3.801  -3.130  0.00  0.00     0.002 A 
ATOM      4  C5  UNL d   1       4.808  -2.746  -3.469  0.00  0.00    -0.080 A 
ATOM      5  C6  UNL d   1       5.299  -1.586  -4.283  0.00  0.00     0.076 C 
ATOM      6  C7  UNL d   1       3.479  -2.781  -3.034  0.00  0.00     0.002 A 
ATOM      7  C8  UNL d   1       3.018  -3.842  -2.252  0.00  0.00     0.006 A 
ENDROOT
BRANCH   1   8
ATOM      8  C1  UNL d   1       3.393  -5.999  -0.998  0.00  0.00     0.054 C 
ATOM      9  C   UNL d   1       1.891  -5.913  -0.770  0.00  0.00     0.018 C 
ENDBRANCH   1   8
TORSDOF 1
ENDMDL
