MODEL 1
REMARK minimizedAffinity -2.12869477
REMARK minimizedRMSD -1
REMARK  1 active torsions:
REMARK  status: ('A' for Active; 'I' for Inactive)
REMARK    1  A    between atoms: C1_2  and  C2_3 
ROOT
ATOM      1  C2  UNL d   1       4.312  -2.845  -1.363  0.00  0.00    -0.081 A 
ATOM      2  C3  UNL d   1       3.727  -2.668  -2.623  0.00  0.00     0.006 A 
ATOM      3  C4  UNL d   1       3.798  -3.679  -3.584  0.00  0.00     0.002 A 
ATOM      4  C5  UNL d   1       4.448  -4.884  -3.301  0.00  0.00    -0.080 A 
ATOM      5  C6  UNL d   1       4.505  -5.989  -4.314  0.00  0.00     0.076 C 
ATOM      6  C7  UNL d   1       5.048  -5.054  -2.048  0.00  0.00     0.002 A 
ATOM      7  C8  UNL d   1       4.978  -4.044  -1.086  0.00  0.00     0.006 A 
ENDROOT
BRANCH   1   8
ATOM      8  C1  UNL d   1       4.181  -1.783  -0.301  0.00  0.00     0.054 C 
ATOM      9  C   UNL d   1       2.838  -1.873   0.409  0.00  0.00     0.018 C 
ENDBRANCH   1   8
TORSDOF 1
ENDMDL
