MODEL 1
REMARK minimizedAffinity 5.6618948
REMARK minimizedRMSD -1
REMARK  1 active torsions:
REMARK  status: ('A' for Active; 'I' for Inactive)
REMARK    1  A    between atoms: C1_2  and  C2_3 
ROOT
ATOM      1  C2  UNL d   1       4.244  -3.426  -1.051  0.00  0.00    -0.081 A 
ATOM      2  C3  UNL d   1       3.892  -3.311  -2.402  0.00  0.00     0.006 A 
ATOM      3  C4  UNL d   1       2.922  -4.150  -2.955  0.00  0.00     0.002 A 
ATOM      4  C5  UNL d   1       2.283  -5.113  -2.166  0.00  0.00    -0.080 A 
ATOM      5  C6  UNL d   1       1.218  -6.000  -2.740  0.00  0.00     0.076 C 
ATOM      6  C7  UNL d   1       2.647  -5.240  -0.821  0.00  0.00     0.002 A 
ATOM      7  C8  UNL d   1       3.617  -4.401  -0.268  0.00  0.00     0.006 A 
ENDROOT
BRANCH   1   8
ATOM      8  C1  UNL d   1       5.243  -2.480  -0.436  0.00  0.00     0.054 C 
ATOM      9  C   UNL d   1       4.564  -1.222   0.087  0.00  0.00     0.018 C 
ENDBRANCH   1   8
TORSDOF 1
ENDMDL
