MODEL 1
REMARK minimizedAffinity 6.43345499
REMARK minimizedRMSD -1
REMARK  1 active torsions:
REMARK  status: ('A' for Active; 'I' for Inactive)
REMARK    1  A    between atoms: C1_2  and  C2_3 
ROOT
ATOM      1  C2  UNL d   1       2.945  -4.112  -1.758  0.00  0.00    -0.081 A 
ATOM      2  C3  UNL d   1       3.847  -5.149  -1.487  0.00  0.00     0.006 A 
ATOM      3  C4  UNL d   1       4.829  -5.496  -2.418  0.00  0.00     0.002 A 
ATOM      4  C5  UNL d   1       4.931  -4.807  -3.632  0.00  0.00    -0.080 A 
ATOM      5  C6  UNL d   1       5.999  -5.149  -4.627  0.00  0.00     0.076 C 
ATOM      6  C7  UNL d   1       4.019  -3.783  -3.910  0.00  0.00     0.002 A 
ATOM      7  C8  UNL d   1       3.037  -3.436  -2.980  0.00  0.00     0.006 A 
ENDROOT
BRANCH   1   8
ATOM      8  C1  UNL d   1       1.927  -3.693  -0.729  0.00  0.00     0.054 C 
ATOM      9  C   UNL d   1       0.692  -4.582  -0.779  0.00  0.00     0.018 C 
ENDBRANCH   1   8
TORSDOF 1
ENDMDL
