MODEL 1
REMARK minimizedAffinity -1.04255342
REMARK minimizedRMSD -1
REMARK  0 active torsions:
REMARK  status: ('A' for Active; 'I' for Inactive)
ROOT
ATOM      1  C   UNL d   1      -1.114   0.665  -0.207  0.00  0.00     0.020 A 
ATOM      2  C1  UNL d   1      -1.206  -0.726  -0.226  0.00  0.00     0.020 A 
ATOM      3  C2  UNL d   1      -0.051  -1.500  -0.353  0.00  0.00     0.034 A 
ATOM      4  C3  UNL d   1       1.201  -0.884  -0.461  0.00  0.00     0.017 A 
ATOM      5  C4  UNL d   1       1.292   0.513  -0.442  0.00  0.00     0.017 A 
ATOM      6  C5  UNL d   1       0.132   1.283  -0.315  0.00  0.00     0.034 A 
ATOM      7 Cl   UNL d   1       2.802   1.345  -0.571  0.00  0.00    -0.070 Cl
ATOM      8 Cl1  UNL d   1       2.588  -1.903  -0.615  0.00  0.00    -0.070 Cl
ENDROOT
TORSDOF 0
ENDMDL
