MODEL 1
REMARK minimizedAffinity -1.97136927
REMARK minimizedRMSD -1
REMARK  0 active torsions:
REMARK  status: ('A' for Active; 'I' for Inactive)
ROOT
ATOM      1  C   UNL d   1       2.270  -0.473   1.371  0.00  0.00     0.020 A 
ATOM      2  C1  UNL d   1       2.696  -1.427   0.448  0.00  0.00     0.020 A 
ATOM      3  C2  UNL d   1       1.831  -1.856  -0.562  0.00  0.00     0.034 A 
ATOM      4  C3  UNL d   1       0.537  -1.331  -0.650  0.00  0.00     0.017 A 
ATOM      5  C4  UNL d   1       0.110  -0.374   0.278  0.00  0.00     0.017 A 
ATOM      6  C5  UNL d   1       0.980   0.052   1.287  0.00  0.00     0.034 A 
ATOM      7 Cl   UNL d   1      -1.472   0.320   0.234  0.00  0.00    -0.070 Cl
ATOM      8 Cl1  UNL d   1      -0.479  -1.907  -1.924  0.00  0.00    -0.070 Cl
ENDROOT
TORSDOF 0
ENDMDL
