MODEL 1
REMARK minimizedAffinity -3.92524552
REMARK minimizedRMSD -1
REMARK  0 active torsions:
REMARK  status: ('A' for Active; 'I' for Inactive)
ROOT
ATOM      1  C   UNL d   1      -1.322   0.497  -0.201  0.00  0.00     0.020 A 
ATOM      2  C1  UNL d   1      -1.207  -0.891  -0.268  0.00  0.00     0.020 A 
ATOM      3  C2  UNL d   1       0.055  -1.488  -0.253  0.00  0.00     0.034 A 
ATOM      4  C3  UNL d   1       1.207  -0.698  -0.171  0.00  0.00     0.017 A 
ATOM      5  C4  UNL d   1       1.091   0.695  -0.104  0.00  0.00     0.017 A 
ATOM      6  C5  UNL d   1      -0.175   1.288  -0.120  0.00  0.00     0.034 A 
ATOM      7 Cl   UNL d   1       2.466   1.737  -0.002  0.00  0.00    -0.070 Cl
ATOM      8 Cl1  UNL d   1       2.735  -1.504  -0.157  0.00  0.00    -0.070 Cl
ENDROOT
TORSDOF 0
ENDMDL
