MODEL 1
REMARK minimizedAffinity -4.65111256
REMARK minimizedRMSD -1
REMARK  0 active torsions:
REMARK  status: ('A' for Active; 'I' for Inactive)
ROOT
ATOM      1  C   UNL d   1      -0.561  -0.648  -0.839  0.00  0.00     0.020 A 
ATOM      2  C1  UNL d   1      -0.627   0.743  -0.761  0.00  0.00     0.020 A 
ATOM      3  C2  UNL d   1       0.499   1.475  -0.380  0.00  0.00     0.034 A 
ATOM      4  C3  UNL d   1       1.697   0.817  -0.075  0.00  0.00     0.017 A 
ATOM      5  C4  UNL d   1       1.762  -0.579  -0.153  0.00  0.00     0.017 A 
ATOM      6  C5  UNL d   1       0.631  -1.307  -0.535  0.00  0.00     0.034 A 
ATOM      7 Cl   UNL d   1       3.203  -1.461   0.208  0.00  0.00    -0.070 Cl
ATOM      8 Cl1  UNL d   1       3.050   1.785   0.389  0.00  0.00    -0.070 Cl
ENDROOT
TORSDOF 0
ENDMDL
