MODEL 1
REMARK minimizedAffinity -3.04582357
REMARK minimizedRMSD -1
REMARK  0 active torsions:
REMARK  status: ('A' for Active; 'I' for Inactive)
ROOT
ATOM      1  C   UNL d   1       2.667  -1.193   0.627  0.00  0.00     0.020 A 
ATOM      2  C1  UNL d   1       2.318  -0.086   1.401  0.00  0.00     0.020 A 
ATOM      3  C2  UNL d   1       1.115   0.581   1.162  0.00  0.00     0.034 A 
ATOM      4  C3  UNL d   1       0.256   0.142   0.148  0.00  0.00     0.017 A 
ATOM      5  C4  UNL d   1       0.607  -0.969  -0.628  0.00  0.00     0.017 A 
ATOM      6  C5  UNL d   1       1.813  -1.633  -0.385  0.00  0.00     0.034 A 
ATOM      7 Cl   UNL d   1      -0.401  -1.569  -1.897  0.00  0.00    -0.070 Cl
ATOM      8 Cl1  UNL d   1      -1.216   1.015  -0.092  0.00  0.00    -0.070 Cl
ENDROOT
TORSDOF 0
ENDMDL
