MODEL 1
REMARK minimizedAffinity -2.37942338
REMARK minimizedRMSD -1
REMARK  0 active torsions:
REMARK  status: ('A' for Active; 'I' for Inactive)
ROOT
ATOM      1  C   UNL d   1      -0.382  -0.479  -0.865  0.00  0.00     0.020 A 
ATOM      2  C1  UNL d   1      -0.525   0.902  -0.739  0.00  0.00     0.020 A 
ATOM      3  C2  UNL d   1       0.535   1.672  -0.255  0.00  0.00     0.034 A 
ATOM      4  C3  UNL d   1       1.742   1.062   0.105  0.00  0.00     0.017 A 
ATOM      5  C4  UNL d   1       1.884  -0.325  -0.023  0.00  0.00     0.017 A 
ATOM      6  C5  UNL d   1       0.820  -1.091  -0.508  0.00  0.00     0.034 A 
ATOM      7 Cl   UNL d   1       3.343  -1.150   0.400  0.00  0.00    -0.070 Cl
ATOM      8 Cl1  UNL d   1       3.010   2.075   0.696  0.00  0.00    -0.070 Cl
ENDROOT
TORSDOF 0
ENDMDL
