MODEL 1
REMARK minimizedAffinity -4.8299017
REMARK minimizedRMSD -1
REMARK  0 active torsions:
REMARK  status: ('A' for Active; 'I' for Inactive)
ROOT
ATOM      1  C   UNL d   1       2.472  -1.170   0.218  0.00  0.00     0.020 A 
ATOM      2  C1  UNL d   1       2.097  -0.014   0.903  0.00  0.00     0.020 A 
ATOM      3  C2  UNL d   1       0.816   0.514   0.733  0.00  0.00     0.034 A 
ATOM      4  C3  UNL d   1      -0.096  -0.114  -0.124  0.00  0.00     0.017 A 
ATOM      5  C4  UNL d   1       0.280  -1.274  -0.811  0.00  0.00     0.017 A 
ATOM      6  C5  UNL d   1       1.565  -1.798  -0.637  0.00  0.00     0.034 A 
ATOM      7 Cl   UNL d   1      -0.790  -2.104  -1.885  0.00  0.00    -0.070 Cl
ATOM      8 Cl1  UNL d   1      -1.664   0.594  -0.286  0.00  0.00    -0.070 Cl
ENDROOT
TORSDOF 0
ENDMDL
