MODEL 1
REMARK minimizedAffinity -3.04735374
REMARK minimizedRMSD -1
REMARK  0 active torsions:
REMARK  status: ('A' for Active; 'I' for Inactive)
ROOT
ATOM      1  C   UNL d   1      -0.402  -0.838  -0.384  0.00  0.00     0.020 A 
ATOM      2  C1  UNL d   1       0.541  -1.865  -0.389  0.00  0.00     0.020 A 
ATOM      3  C2  UNL d   1       1.901  -1.565  -0.286  0.00  0.00     0.034 A 
ATOM      4  C3  UNL d   1       2.322  -0.235  -0.178  0.00  0.00     0.017 A 
ATOM      5  C4  UNL d   1       1.374   0.796  -0.173  0.00  0.00     0.017 A 
ATOM      6  C5  UNL d   1       0.014   0.490  -0.276  0.00  0.00     0.034 A 
ATOM      7 Cl   UNL d   1       1.818   2.461  -0.043  0.00  0.00    -0.070 Cl
ATOM      8 Cl1  UNL d   1       4.019   0.063  -0.054  0.00  0.00    -0.070 Cl
ENDROOT
TORSDOF 0
ENDMDL
