MODEL 1
REMARK minimizedAffinity -4.39258385
REMARK minimizedRMSD -1
REMARK  0 active torsions:
REMARK  status: ('A' for Active; 'I' for Inactive)
ROOT
ATOM      1  C   UNL d   1       1.724  -1.848   0.445  0.00  0.00     0.020 A 
ATOM      2  C1  UNL d   1       2.606  -0.933   1.021  0.00  0.00     0.020 A 
ATOM      3  C2  UNL d   1       2.322   0.433   0.974  0.00  0.00     0.034 A 
ATOM      4  C3  UNL d   1       1.155   0.890   0.351  0.00  0.00     0.017 A 
ATOM      5  C4  UNL d   1       0.272  -0.029  -0.227  0.00  0.00     0.017 A 
ATOM      6  C5  UNL d   1       0.560  -1.396  -0.177  0.00  0.00     0.034 A 
ATOM      7 Cl   UNL d   1      -1.188   0.458  -1.014  0.00  0.00    -0.070 Cl
ATOM      8 Cl1  UNL d   1       0.869   2.593   0.331  0.00  0.00    -0.070 Cl
ENDROOT
TORSDOF 0
ENDMDL
