MODEL 1
REMARK minimizedAffinity -0.541171193
REMARK minimizedRMSD -1
REMARK  0 active torsions:
REMARK  status: ('A' for Active; 'I' for Inactive)
ROOT
ATOM      1  C   UNL d   1      -0.222  -0.977   1.341  0.00  0.00     0.124 A 
ATOM      2  C1  UNL d   1       0.838  -0.082   1.291  0.00  0.00     0.062 A 
ATOM      3  C2  UNL d   1       0.922   0.847   0.259  0.00  0.00     0.162 A 
ATOM      4  C3  UNL d   1      -0.058   0.888  -0.733  0.00  0.00    -0.034 A 
ATOM      5  C4  UNL d   1      -1.121  -0.015  -0.677  0.00  0.00     0.162 A 
ATOM      6  C5  UNL d   1      -1.201  -0.942   0.357  0.00  0.00     0.062 A 
ATOM      7  F   UNL d   1      -2.226  -1.805   0.404  0.00  0.00    -0.097 F 
ATOM      8  F1  UNL d   1      -2.081  -0.003  -1.613  0.00  0.00    -0.096 F 
ATOM      9  I   UNL d   1       0.063   2.277  -2.278  0.00  0.00    -0.060 I 
ATOM     10  F2  UNL d   1       1.958   1.699   0.236  0.00  0.00    -0.096 F 
ATOM     11  F3  UNL d   1       1.785  -0.114   2.240  0.00  0.00    -0.097 F 
ATOM     12  F4  UNL d   1      -0.300  -1.871   2.335  0.00  0.00    -0.092 F 
ENDROOT
TORSDOF 0
ENDMDL
