MODEL 1
REMARK minimizedAffinity -4.33619738
REMARK minimizedRMSD -1
REMARK  0 active torsions:
REMARK  status: ('A' for Active; 'I' for Inactive)
ROOT
ATOM      1  C   UNL d   1      -1.578   4.451  -3.095  0.00  0.00     0.124 A 
ATOM      2  C1  UNL d   1      -0.443   3.663  -2.960  0.00  0.00     0.062 A 
ATOM      3  C2  UNL d   1      -0.244   2.914  -1.803  0.00  0.00     0.162 A 
ATOM      4  C3  UNL d   1      -1.183   2.950  -0.772  0.00  0.00    -0.034 A 
ATOM      5  C4  UNL d   1      -2.321   3.746  -0.915  0.00  0.00     0.162 A 
ATOM      6  C5  UNL d   1      -2.515   4.492  -2.073  0.00  0.00     0.062 A 
ATOM      7  F   UNL d   1      -3.612   5.252  -2.201  0.00  0.00    -0.097 F 
ATOM      8  F1  UNL d   1      -3.244   3.803   0.057  0.00  0.00    -0.096 F 
ATOM      9  I   UNL d   1      -0.889   1.832   0.959  0.00  0.00    -0.060 I 
ATOM     10  F2  UNL d   1       0.861   2.162  -1.700  0.00  0.00    -0.096 F 
ATOM     11  F3  UNL d   1       0.465   3.622  -3.946  0.00  0.00    -0.097 F 
ATOM     12  F4  UNL d   1      -1.766   5.171  -4.209  0.00  0.00    -0.092 F 
ENDROOT
TORSDOF 0
ENDMDL
