MODEL 1
REMARK minimizedAffinity -2.00875258
REMARK minimizedRMSD -1
REMARK  0 active torsions:
REMARK  status: ('A' for Active; 'I' for Inactive)
ROOT
ATOM      1  C   UNL d   1       0.029  -0.577  -1.941  0.00  0.00     0.124 A 
ATOM      2  C1  UNL d   1      -0.779   0.043  -0.998  0.00  0.00     0.062 A 
ATOM      3  C2  UNL d   1      -0.358   0.148   0.324  0.00  0.00     0.162 A 
ATOM      4  C3  UNL d   1       0.878  -0.369   0.713  0.00  0.00    -0.034 A 
ATOM      5  C4  UNL d   1       1.685  -0.993  -0.241  0.00  0.00     0.162 A 
ATOM      6  C5  UNL d   1       1.260  -1.094  -1.562  0.00  0.00     0.062 A 
ATOM      7  F   UNL d   1       2.042  -1.694  -2.471  0.00  0.00    -0.097 F 
ATOM      8  F1  UNL d   1       2.879  -1.500   0.098  0.00  0.00    -0.096 F 
ATOM      9  I   UNL d   1       1.511  -0.215   2.689  0.00  0.00    -0.060 I 
ATOM     10  F2  UNL d   1      -1.159   0.752   1.214  0.00  0.00    -0.096 F 
ATOM     11  F3  UNL d   1      -1.969   0.543  -1.362  0.00  0.00    -0.097 F 
ATOM     12  F4  UNL d   1      -0.378  -0.677  -3.213  0.00  0.00    -0.092 F 
ENDROOT
TORSDOF 0
ENDMDL
