MODEL 1
REMARK minimizedAffinity 2.75785613
REMARK minimizedRMSD -1
REMARK  0 active torsions:
REMARK  status: ('A' for Active; 'I' for Inactive)
ROOT
ATOM      1  C   UNL d   1       0.817  -1.237   0.958  0.00  0.00     0.124 A 
ATOM      2  C1  UNL d   1      -0.187  -0.347   1.314  0.00  0.00     0.062 A 
ATOM      3  C2  UNL d   1      -0.773   0.469   0.350  0.00  0.00     0.162 A 
ATOM      4  C3  UNL d   1      -0.355   0.400  -0.979  0.00  0.00    -0.034 A 
ATOM      5  C4  UNL d   1       0.656  -0.497  -1.329  0.00  0.00     0.162 A 
ATOM      6  C5  UNL d   1       1.238  -1.310  -0.362  0.00  0.00     0.062 A 
ATOM      7  F   UNL d   1       2.209  -2.169  -0.708  0.00  0.00    -0.097 F 
ATOM      8  F1  UNL d   1       1.081  -0.589  -2.598  0.00  0.00    -0.096 F 
ATOM      9  I   UNL d   1      -1.228   1.619  -2.423  0.00  0.00    -0.060 I 
ATOM     10  F2  UNL d   1      -1.741   1.319   0.722  0.00  0.00    -0.096 F 
ATOM     11  F3  UNL d   1      -0.595  -0.273   2.589  0.00  0.00    -0.097 F 
ATOM     12  F4  UNL d   1       1.380  -2.020   1.887  0.00  0.00    -0.092 F 
ENDROOT
TORSDOF 0
ENDMDL
