MODEL 1
REMARK minimizedAffinity 0.879557073
REMARK minimizedRMSD -1
REMARK  0 active torsions:
REMARK  status: ('A' for Active; 'I' for Inactive)
ROOT
ATOM      1  C   UNL d   1       1.633  -2.165   1.744  0.00  0.00     0.124 A 
ATOM      2  C1  UNL d   1       2.090  -2.171   0.434  0.00  0.00     0.062 A 
ATOM      3  C2  UNL d   1       1.417  -1.447  -0.545  0.00  0.00     0.162 A 
ATOM      4  C3  UNL d   1       0.279  -0.709  -0.218  0.00  0.00    -0.034 A 
ATOM      5  C4  UNL d   1      -0.176  -0.709   1.102  0.00  0.00     0.162 A 
ATOM      6  C5  UNL d   1       0.501  -1.435   2.077  0.00  0.00     0.062 A 
ATOM      7  F   UNL d   1       0.058  -1.428   3.343  0.00  0.00    -0.097 F 
ATOM      8  F1  UNL d   1      -1.266  -0.012   1.451  0.00  0.00    -0.096 F 
ATOM      9  I   UNL d   1      -0.731   0.375  -1.680  0.00  0.00    -0.060 I 
ATOM     10  F2  UNL d   1       1.881  -1.470  -1.804  0.00  0.00    -0.096 F 
ATOM     11  F3  UNL d   1       3.183  -2.876   0.110  0.00  0.00    -0.097 F 
ATOM     12  F4  UNL d   1       2.282  -2.864   2.685  0.00  0.00    -0.092 F 
ENDROOT
TORSDOF 0
ENDMDL
