MODEL 1
REMARK minimizedAffinity -2.45448565
REMARK minimizedRMSD -1
REMARK  0 active torsions:
REMARK  status: ('A' for Active; 'I' for Inactive)
ROOT
ATOM      1  C   UNL d   1      -0.692  -0.346   1.823  0.00  0.00     0.124 A 
ATOM      2  C1  UNL d   1      -0.067  -1.577   1.967  0.00  0.00     0.062 A 
ATOM      3  C2  UNL d   1       0.917  -1.972   1.066  0.00  0.00     0.162 A 
ATOM      4  C3  UNL d   1       1.284  -1.134   0.012  0.00  0.00    -0.034 A 
ATOM      5  C4  UNL d   1       0.650   0.102  -0.127  0.00  0.00     0.162 A 
ATOM      6  C5  UNL d   1      -0.333   0.492   0.776  0.00  0.00     0.062 A 
ATOM      7  F   UNL d   1      -0.936   1.682   0.635  0.00  0.00    -0.097 F 
ATOM      8  F1  UNL d   1       0.978   0.932  -1.128  0.00  0.00    -0.096 F 
ATOM      9  I   UNL d   1       2.755  -1.721  -1.337  0.00  0.00    -0.060 I 
ATOM     10  F2  UNL d   1       1.504  -3.167   1.229  0.00  0.00    -0.096 F 
ATOM     11  F3  UNL d   1      -0.413  -2.388   2.976  0.00  0.00    -0.097 F 
ATOM     12  F4  UNL d   1      -1.640   0.031   2.690  0.00  0.00    -0.092 F 
ENDROOT
TORSDOF 0
ENDMDL
