MODEL 1
REMARK minimizedAffinity 12.3482132
REMARK minimizedRMSD -1
REMARK  0 active torsions:
REMARK  status: ('A' for Active; 'I' for Inactive)
ROOT
ATOM      1  C   UNL d   1      -0.970   3.794  -3.015  0.00  0.00     0.124 A 
ATOM      2  C1  UNL d   1      -0.396   3.283  -4.171  0.00  0.00     0.062 A 
ATOM      3  C2  UNL d   1      -1.039   2.277  -4.886  0.00  0.00     0.162 A 
ATOM      4  C3  UNL d   1      -2.264   1.775  -4.448  0.00  0.00    -0.034 A 
ATOM      5  C4  UNL d   1      -2.835   2.293  -3.284  0.00  0.00     0.162 A 
ATOM      6  C5  UNL d   1      -2.188   3.299  -2.573  0.00  0.00     0.062 A 
ATOM      7  F   UNL d   1      -2.744   3.791  -1.456  0.00  0.00    -0.097 F 
ATOM      8  F1  UNL d   1      -4.012   1.833  -2.835  0.00  0.00    -0.096 F 
ATOM      9  I   UNL d   1      -3.229   0.270  -5.514  0.00  0.00    -0.060 I 
ATOM     10  F2  UNL d   1      -0.461   1.802  -6.000  0.00  0.00    -0.096 F 
ATOM     11  F3  UNL d   1       0.782   3.759  -4.600  0.00  0.00    -0.097 F 
ATOM     12  F4  UNL d   1      -0.348   4.761  -2.329  0.00  0.00    -0.092 F 
ENDROOT
TORSDOF 0
ENDMDL
