MODEL 1
REMARK minimizedAffinity 3.90464306
REMARK minimizedRMSD -1
REMARK  0 active torsions:
REMARK  status: ('A' for Active; 'I' for Inactive)
ROOT
ATOM      1  C   UNL d   1       0.663  -1.701   1.073  0.00  0.00     0.124 A 
ATOM      2  C1  UNL d   1       1.294  -1.685  -0.163  0.00  0.00     0.062 A 
ATOM      3  C2  UNL d   1       1.085  -0.626  -1.043  0.00  0.00     0.162 A 
ATOM      4  C3  UNL d   1       0.241   0.426  -0.689  0.00  0.00    -0.034 A 
ATOM      5  C4  UNL d   1      -0.391   0.403   0.556  0.00  0.00     0.162 A 
ATOM      6  C5  UNL d   1      -0.178  -0.657   1.431  0.00  0.00     0.062 A 
ATOM      7  F   UNL d   1      -0.789  -0.670   2.625  0.00  0.00    -0.097 F 
ATOM      8  F1  UNL d   1      -1.208   1.399   0.928  0.00  0.00    -0.096 F 
ATOM      9  I   UNL d   1      -0.074   2.011  -2.001  0.00  0.00    -0.060 I 
ATOM     10  F2  UNL d   1       1.708  -0.637  -2.230  0.00  0.00    -0.096 F 
ATOM     11  F3  UNL d   1       2.107  -2.692  -0.512  0.00  0.00    -0.097 F 
ATOM     12  F4  UNL d   1       0.865  -2.721   1.917  0.00  0.00    -0.092 F 
ENDROOT
TORSDOF 0
ENDMDL
