MODEL 1
REMARK minimizedAffinity -2.09591794
REMARK minimizedRMSD -1
REMARK  0 active torsions:
REMARK  status: ('A' for Active; 'I' for Inactive)
ROOT
ATOM      1  C   UNL d   1       2.017  -0.807  -0.028  0.00  0.00     0.124 A 
ATOM      2  C1  UNL d   1       1.449  -0.712   1.235  0.00  0.00     0.062 A 
ATOM      3  C2  UNL d   1       0.081  -0.909   1.405  0.00  0.00     0.162 A 
ATOM      4  C3  UNL d   1      -0.728  -1.204   0.308  0.00  0.00    -0.034 A 
ATOM      5  C4  UNL d   1      -0.150  -1.298  -0.959  0.00  0.00     0.162 A 
ATOM      6  C5  UNL d   1       1.217  -1.100  -1.123  0.00  0.00     0.062 A 
ATOM      7  F   UNL d   1       1.764  -1.192  -2.344  0.00  0.00    -0.097 F 
ATOM      8  F1  UNL d   1      -0.899  -1.580  -2.035  0.00  0.00    -0.096 F 
ATOM      9  I   UNL d   1      -2.773  -1.500   0.557  0.00  0.00    -0.060 I 
ATOM     10  F2  UNL d   1      -0.440  -0.811   2.637  0.00  0.00    -0.096 F 
ATOM     11  F3  UNL d   1       2.219  -0.428   2.296  0.00  0.00    -0.097 F 
ATOM     12  F4  UNL d   1       3.332  -0.616  -0.188  0.00  0.00    -0.092 F 
ENDROOT
TORSDOF 0
ENDMDL
