MODEL 1
REMARK minimizedAffinity -5.84427214
REMARK minimizedRMSD -1
REMARK  2 active torsions:
REMARK  status: ('A' for Active; 'I' for Inactive)
REMARK    1  A    between atoms: C1_2  and  C2_3 
REMARK    2  A    between atoms: C2_3  and  C3_4 
ROOT
ATOM      1  C3  UNL d   1       1.142   0.484  -1.151  0.00  0.00    -0.075 A 
ATOM      2  C4  UNL d   1       1.043   0.715   0.228  0.00  0.00     0.002 A 
ATOM      3  C5  UNL d   1       1.165   2.006   0.741  0.00  0.00     0.002 A 
ATOM      4  C6  UNL d   1       1.398   3.080  -0.116  0.00  0.00    -0.004 A 
ATOM      5  C7  UNL d   1       1.515   2.860  -1.487  0.00  0.00     0.002 A 
ATOM      6  C8  UNL d   1       1.389   1.569  -2.003  0.00  0.00     0.002 A 
ENDROOT
BRANCH   1   7
ATOM      7  C2  UNL d   1       0.981  -0.908  -1.715  0.00  0.00     0.056 C 
BRANCH   7   8
ATOM      8  C1  UNL d   1       0.965  -2.013  -0.654  0.00  0.00     0.007 C 
ATOM      9  C   UNL d   1      -0.021  -3.131  -0.965  0.00  0.00     0.009 C 
ENDBRANCH   7   8
ENDBRANCH   1   7
TORSDOF 2
ENDMDL
