MODEL 1
REMARK minimizedAffinity -4.55795956
REMARK minimizedRMSD -1
REMARK  2 active torsions:
REMARK  status: ('A' for Active; 'I' for Inactive)
REMARK    1  A    between atoms: C1_2  and  C2_3 
REMARK    2  A    between atoms: C2_3  and  C3_4 
ROOT
ATOM      1  C3  UNL d   1       1.180   2.397  -1.196  0.00  0.00    -0.075 A 
ATOM      2  C4  UNL d   1       0.767   2.184   0.127  0.00  0.00     0.002 A 
ATOM      3  C5  UNL d   1       0.741   0.896   0.663  0.00  0.00     0.002 A 
ATOM      4  C6  UNL d   1       1.116  -0.194  -0.119  0.00  0.00    -0.004 A 
ATOM      5  C7  UNL d   1       1.512   0.004  -1.440  0.00  0.00     0.002 A 
ATOM      6  C8  UNL d   1       1.543   1.292  -1.977  0.00  0.00     0.002 A 
ENDROOT
BRANCH   1   7
ATOM      7  C2  UNL d   1       1.239   3.792  -1.772  0.00  0.00     0.056 C 
BRANCH   7   8
ATOM      8  C1  UNL d   1       1.510   4.885  -0.733  0.00  0.00     0.007 C 
ATOM      9  C   UNL d   1       2.406   6.000  -1.254  0.00  0.00     0.009 C 
ENDBRANCH   7   8
ENDBRANCH   1   7
TORSDOF 2
ENDMDL
