MODEL 1
REMARK minimizedAffinity 1.25844383
REMARK minimizedRMSD -1
REMARK  2 active torsions:
REMARK  status: ('A' for Active; 'I' for Inactive)
REMARK    1  A    between atoms: C1_2  and  C2_3 
REMARK    2  A    between atoms: C2_3  and  C3_4 
ROOT
ATOM      1  C3  UNL d   1       1.468   1.907  -1.616  0.00  0.00    -0.075 A 
ATOM      2  C4  UNL d   1       1.574   1.856  -0.219  0.00  0.00     0.002 A 
ATOM      3  C5  UNL d   1       1.404   0.649   0.460  0.00  0.00     0.002 A 
ATOM      4  C6  UNL d   1       1.117  -0.517  -0.246  0.00  0.00    -0.004 A 
ATOM      5  C7  UNL d   1       0.993  -0.475  -1.633  0.00  0.00     0.002 A 
ATOM      6  C8  UNL d   1       1.167   0.730  -2.315  0.00  0.00     0.002 A 
ENDROOT
BRANCH   1   7
ATOM      7  C2  UNL d   1       1.680   3.204  -2.360  0.00  0.00     0.056 C 
BRANCH   7   8
ATOM      8  C1  UNL d   1       2.811   4.070  -1.794  0.00  0.00     0.007 C 
ATOM      9  C   UNL d   1       2.386   5.505  -1.515  0.00  0.00     0.009 C 
ENDBRANCH   7   8
ENDBRANCH   1   7
TORSDOF 2
ENDMDL
