MODEL 1
REMARK minimizedAffinity -1.67534411
REMARK minimizedRMSD -1
REMARK  2 active torsions:
REMARK  status: ('A' for Active; 'I' for Inactive)
REMARK    1  A    between atoms: C1_2  and  C2_3 
REMARK    2  A    between atoms: C2_3  and  C3_4 
ROOT
ATOM      1  C3  UNL d   1       1.503   2.400  -1.199  0.00  0.00    -0.075 A 
ATOM      2  C4  UNL d   1       1.318   2.431   0.191  0.00  0.00     0.002 A 
ATOM      3  C5  UNL d   1       1.124   1.248   0.906  0.00  0.00     0.002 A 
ATOM      4  C6  UNL d   1       1.102   0.024   0.240  0.00  0.00    -0.004 A 
ATOM      5  C7  UNL d   1       1.267  -0.016  -1.142  0.00  0.00     0.002 A 
ATOM      6  C8  UNL d   1       1.466   1.165  -1.859  0.00  0.00     0.002 A 
ENDROOT
BRANCH   1   7
ATOM      7  C2  UNL d   1       1.742   3.674  -1.975  0.00  0.00     0.056 C 
BRANCH   7   8
ATOM      8  C1  UNL d   1       1.668   4.946  -1.123  0.00  0.00     0.007 C 
ATOM      9  C   UNL d   1       2.691   5.999  -1.528  0.00  0.00     0.009 C 
ENDBRANCH   7   8
ENDBRANCH   1   7
TORSDOF 2
ENDMDL
