MODEL 1
REMARK minimizedAffinity 4.93435144
REMARK minimizedRMSD -1
REMARK  2 active torsions:
REMARK  status: ('A' for Active; 'I' for Inactive)
REMARK    1  A    between atoms: C1_2  and  C2_3 
REMARK    2  A    between atoms: C2_3  and  C3_4 
ROOT
ATOM      1  C3  UNL d   1       1.679   3.509   0.523  0.00  0.00    -0.075 A 
ATOM      2  C4  UNL d   1       1.510   2.552  -0.488  0.00  0.00     0.002 A 
ATOM      3  C5  UNL d   1       1.413   2.942  -1.824  0.00  0.00     0.002 A 
ATOM      4  C6  UNL d   1       1.474   4.292  -2.164  0.00  0.00    -0.004 A 
ATOM      5  C7  UNL d   1       1.625   5.252  -1.166  0.00  0.00     0.002 A 
ATOM      6  C8  UNL d   1       1.727   4.864   0.171  0.00  0.00     0.002 A 
ENDROOT
BRANCH   1   7
ATOM      7  C2  UNL d   1       1.815   3.090   1.968  0.00  0.00     0.056 C 
BRANCH   7   8
ATOM      8  C1  UNL d   1       2.454   4.153   2.868  0.00  0.00     0.007 C 
ATOM      9  C   UNL d   1       1.486   4.738   3.888  0.00  0.00     0.009 C 
ENDBRANCH   7   8
ENDBRANCH   1   7
TORSDOF 2
ENDMDL
