MODEL 1
REMARK minimizedAffinity -3.16420794
REMARK minimizedRMSD -1
REMARK  2 active torsions:
REMARK  status: ('A' for Active; 'I' for Inactive)
REMARK    1  A    between atoms: C1_2  and  C2_3 
REMARK    2  A    between atoms: C2_3  and  C3_4 
ROOT
ATOM      1  C3  UNL d   1       1.279   1.252  -0.364  0.00  0.00    -0.075 A 
ATOM      2  C4  UNL d   1       1.527   1.683  -1.675  0.00  0.00     0.002 A 
ATOM      3  C5  UNL d   1       1.642   3.043  -1.964  0.00  0.00     0.002 A 
ATOM      4  C6  UNL d   1       1.500   3.988  -0.950  0.00  0.00    -0.004 A 
ATOM      5  C7  UNL d   1       1.237   3.572   0.353  0.00  0.00     0.002 A 
ATOM      6  C8  UNL d   1       1.127   2.212   0.646  0.00  0.00     0.002 A 
ENDROOT
BRANCH   1   7
ATOM      7  C2  UNL d   1       1.184  -0.220  -0.039  0.00  0.00     0.056 C 
BRANCH   7   8
ATOM      8  C1  UNL d   1       1.016  -1.120  -1.268  0.00  0.00     0.007 C 
ATOM      9  C   UNL d   1       1.378  -2.574  -1.001  0.00  0.00     0.009 C 
ENDBRANCH   7   8
ENDBRANCH   1   7
TORSDOF 2
ENDMDL
