MODEL 1
REMARK minimizedAffinity -2.26763701
REMARK minimizedRMSD -1
REMARK  2 active torsions:
REMARK  status: ('A' for Active; 'I' for Inactive)
REMARK    1  A    between atoms: C1_2  and  C2_3 
REMARK    2  A    between atoms: C2_3  and  C3_4 
ROOT
ATOM      1  C3  UNL d   1       1.194   2.187  -1.071  0.00  0.00    -0.075 A 
ATOM      2  C4  UNL d   1       1.044   2.481   0.292  0.00  0.00     0.002 A 
ATOM      3  C5  UNL d   1       1.211   3.785   0.758  0.00  0.00     0.002 A 
ATOM      4  C6  UNL d   1       1.539   4.808  -0.129  0.00  0.00    -0.004 A 
ATOM      5  C7  UNL d   1       1.707   4.525  -1.482  0.00  0.00     0.002 A 
ATOM      6  C8  UNL d   1       1.536   3.221  -1.952  0.00  0.00     0.002 A 
ENDROOT
BRANCH   1   7
ATOM      7  C2  UNL d   1       0.986   0.783  -1.586  0.00  0.00     0.056 C 
BRANCH   7   8
ATOM      8  C1  UNL d   1       1.302  -0.311  -0.561  0.00  0.00     0.007 C 
ATOM      9  C   UNL d   1       0.741  -1.674  -0.945  0.00  0.00     0.009 C 
ENDBRANCH   7   8
ENDBRANCH   1   7
TORSDOF 2
ENDMDL
