MODEL 1
REMARK minimizedAffinity 1.50328219
REMARK minimizedRMSD -1
REMARK  2 active torsions:
REMARK  status: ('A' for Active; 'I' for Inactive)
REMARK    1  A    between atoms: C1_2  and  C2_3 
REMARK    2  A    between atoms: C2_3  and  C3_4 
ROOT
ATOM      1  C3  UNL d   1      -2.843   2.862   3.689  0.00  0.00    -0.075 A 
ATOM      2  C4  UNL d   1      -2.479   3.765   2.680  0.00  0.00     0.002 A 
ATOM      3  C5  UNL d   1      -2.995   3.631   1.390  0.00  0.00     0.002 A 
ATOM      4  C6  UNL d   1      -3.871   2.589   1.092  0.00  0.00    -0.004 A 
ATOM      5  C7  UNL d   1      -4.226   1.677   2.083  0.00  0.00     0.002 A 
ATOM      6  C8  UNL d   1      -3.715   1.811   3.375  0.00  0.00     0.002 A 
ENDROOT
BRANCH   1   7
ATOM      7  C2  UNL d   1      -2.311   3.018   5.094  0.00  0.00     0.056 C 
BRANCH   7   8
ATOM      8  C1  UNL d   1      -2.576   1.811   5.999  0.00  0.00     0.007 C 
ATOM      9  C   UNL d   1      -1.439   0.798   5.997  0.00  0.00     0.009 C 
ENDBRANCH   7   8
ENDBRANCH   1   7
TORSDOF 2
ENDMDL
