MODEL 1
REMARK minimizedAffinity -3.4693315
REMARK minimizedRMSD -1
REMARK  2 active torsions:
REMARK  status: ('A' for Active; 'I' for Inactive)
REMARK    1  A    between atoms: C1_2  and  C2_3 
REMARK    2  A    between atoms: C2_3  and  C3_4 
ROOT
ATOM      1  C3  UNL d   1       1.208   1.538  -1.102  0.00  0.00    -0.075 A 
ATOM      2  C4  UNL d   1       1.127   1.908   0.249  0.00  0.00     0.002 A 
ATOM      3  C5  UNL d   1       1.324   3.235   0.632  0.00  0.00     0.002 A 
ATOM      4  C6  UNL d   1       1.614   4.204  -0.326  0.00  0.00    -0.004 A 
ATOM      5  C7  UNL d   1       1.712   3.845  -1.668  0.00  0.00     0.002 A 
ATOM      6  C8  UNL d   1       1.511   2.519  -2.055  0.00  0.00     0.002 A 
ENDROOT
BRANCH   1   7
ATOM      7  C2  UNL d   1       0.966   0.109  -1.526  0.00  0.00     0.056 C 
BRANCH   7   8
ATOM      8  C1  UNL d   1       1.411  -0.932  -0.494  0.00  0.00     0.007 C 
ATOM      9  C   UNL d   1       0.746  -2.289  -0.685  0.00  0.00     0.009 C 
ENDBRANCH   7   8
ENDBRANCH   1   7
TORSDOF 2
ENDMDL
