MODEL 1
REMARK minimizedAffinity 3.17137384
REMARK minimizedRMSD -1
REMARK  1 active torsions:
REMARK  status: ('A' for Active; 'I' for Inactive)
REMARK    1  A    between atoms: N_2  and  C1_3 
ROOT
ATOM      1  C1  UNL d   1      -3.548  -0.254   0.795  0.00  0.00     0.143 A 
ATOM      2  C2  UNL d   1      -4.729  -0.108   0.059  0.00  0.00    -0.057 A 
ATOM      3  C3  UNL d   1      -4.766  -0.376  -1.315  0.00  0.00     0.033 A 
ATOM      4  C4  UNL d   1      -3.612  -0.767  -1.985  0.00  0.00    -0.042 A 
ATOM      5  C5  UNL d   1      -2.421  -0.894  -1.279  0.00  0.00     0.033 A 
ATOM      6  C6  UNL d   1      -2.392  -0.632   0.094  0.00  0.00    -0.057 A 
ENDROOT
BRANCH   1   7
ATOM      7  N   UNL d   1      -3.424   0.092   2.142  0.00  0.00    -0.732 N 
ATOM      8  C   UNL d   1      -2.147  -0.013   2.816  0.00  0.00     0.284 C 
ATOM      9  H3  UNL d   1      -3.951   0.929   2.379  0.00  0.00     0.395 HD
ENDBRANCH   1   7
TORSDOF 1
ENDMDL
