MODEL 1
REMARK minimizedAffinity 10.3246813
REMARK minimizedRMSD -1
REMARK  1 active torsions:
REMARK  status: ('A' for Active; 'I' for Inactive)
REMARK    1  A    between atoms: N_2  and  C1_3 
ROOT
ATOM      1  C1  UNL d   1      -1.578  -3.878   0.174  0.00  0.00     0.143 A 
ATOM      2  C2  UNL d   1      -1.941  -2.927   1.133  0.00  0.00    -0.057 A 
ATOM      3  C3  UNL d   1      -2.170  -1.591   0.781  0.00  0.00     0.033 A 
ATOM      4  C4  UNL d   1      -2.011  -1.176  -0.537  0.00  0.00    -0.042 A 
ATOM      5  C5  UNL d   1      -1.625  -2.099  -1.503  0.00  0.00     0.033 A 
ATOM      6  C6  UNL d   1      -1.405  -3.433  -1.146  0.00  0.00    -0.057 A 
ENDROOT
BRANCH   1   7
ATOM      7  N   UNL d   1      -1.241  -5.199   0.478  0.00  0.00    -0.732 N 
ATOM      8  C   UNL d   1      -0.481  -6.000  -0.459  0.00  0.00     0.284 C 
ATOM      9  H3  UNL d   1      -0.958  -5.315   1.448  0.00  0.00     0.395 HD
ENDBRANCH   1   7
TORSDOF 1
ENDMDL
