MODEL 1
REMARK minimizedAffinity 5.69404125
REMARK minimizedRMSD -1
REMARK  1 active torsions:
REMARK  status: ('A' for Active; 'I' for Inactive)
REMARK    1  A    between atoms: N_2  and  C1_3 
ROOT
ATOM      1  C1  UNL d   1      -1.836  -3.251  -0.085  0.00  0.00     0.143 A 
ATOM      2  C2  UNL d   1      -2.198  -2.178  -0.906  0.00  0.00    -0.057 A 
ATOM      3  C3  UNL d   1      -2.861  -1.059  -0.388  0.00  0.00     0.033 A 
ATOM      4  C4  UNL d   1      -3.201  -1.007   0.960  0.00  0.00    -0.042 A 
ATOM      5  C5  UNL d   1      -2.874  -2.073   1.789  0.00  0.00     0.033 A 
ATOM      6  C6  UNL d   1      -2.205  -3.185   1.267  0.00  0.00    -0.057 A 
ENDROOT
BRANCH   1   7
ATOM      7  N   UNL d   1      -1.263  -4.434  -0.559  0.00  0.00    -0.732 N 
ATOM      8  C   UNL d   1      -1.805  -5.720  -0.177  0.00  0.00     0.284 C 
ATOM      9  H3  UNL d   1      -0.995  -4.370  -1.539  0.00  0.00     0.395 HD
ENDBRANCH   1   7
TORSDOF 1
ENDMDL
