MODEL 1
REMARK minimizedAffinity 14.7248812
REMARK minimizedRMSD -1
REMARK  1 active torsions:
REMARK  status: ('A' for Active; 'I' for Inactive)
REMARK    1  A    between atoms: N_2  and  C1_3 
ROOT
ATOM      1  C1  UNL d   1      -2.493  -0.684  -1.700  0.00  0.00     0.143 A 
ATOM      2  C2  UNL d   1      -3.878  -0.489  -1.670  0.00  0.00    -0.057 A 
ATOM      3  C3  UNL d   1      -4.535  -0.134  -0.486  0.00  0.00     0.033 A 
ATOM      4  C4  UNL d   1      -3.821   0.005   0.699  0.00  0.00    -0.042 A 
ATOM      5  C5  UNL d   1      -2.447  -0.209   0.698  0.00  0.00     0.033 A 
ATOM      6  C6  UNL d   1      -1.795  -0.557  -0.489  0.00  0.00    -0.057 A 
ENDROOT
BRANCH   1   7
ATOM      7  N   UNL d   1      -1.795  -1.134  -2.823  0.00  0.00    -0.732 N 
ATOM      8  C   UNL d   1      -1.582  -2.548  -3.042  0.00  0.00     0.284 C 
ATOM      9  H3  UNL d   1      -2.037  -0.615  -3.665  0.00  0.00     0.395 HD
ENDBRANCH   1   7
TORSDOF 1
ENDMDL
