MODEL 1
REMARK minimizedAffinity 14.8969469
REMARK minimizedRMSD -1
REMARK  1 active torsions:
REMARK  status: ('A' for Active; 'I' for Inactive)
REMARK    1  A    between atoms: N_2  and  C1_3 
ROOT
ATOM      1  C1  UNL d   1      -3.595  -1.140  -1.495  0.00  0.00     0.143 A 
ATOM      2  C2  UNL d   1      -3.646   0.046  -0.754  0.00  0.00    -0.057 A 
ATOM      3  C3  UNL d   1      -4.839   0.766  -0.616  0.00  0.00     0.033 A 
ATOM      4  C4  UNL d   1      -6.000   0.326  -1.244  0.00  0.00    -0.042 A 
ATOM      5  C5  UNL d   1      -5.967  -0.836  -2.006  0.00  0.00     0.033 A 
ATOM      6  C6  UNL d   1      -4.774  -1.554  -2.134  0.00  0.00    -0.057 A 
ENDROOT
BRANCH   1   7
ATOM      7  N   UNL d   1      -2.419  -1.848  -1.750  0.00  0.00    -0.732 N 
ATOM      8  C   UNL d   1      -1.209  -1.152  -2.135  0.00  0.00     0.284 C 
ATOM      9  H3  UNL d   1      -2.270  -2.606  -1.088  0.00  0.00     0.395 HD
ENDBRANCH   1   7
TORSDOF 1
ENDMDL
