MODEL 1
REMARK minimizedAffinity 15.715332
REMARK minimizedRMSD -1
REMARK  1 active torsions:
REMARK  status: ('A' for Active; 'I' for Inactive)
REMARK    1  A    between atoms: N_2  and  C1_3 
ROOT
ATOM      1  C1  UNL d   1      -5.750   4.985  -0.799  0.00  0.00     0.143 A 
ATOM      2  C2  UNL d   1      -5.562   3.615  -1.006  0.00  0.00    -0.057 A 
ATOM      3  C3  UNL d   1      -5.564   3.068  -2.295  0.00  0.00     0.033 A 
ATOM      4  C4  UNL d   1      -5.783   3.881  -3.402  0.00  0.00    -0.042 A 
ATOM      5  C5  UNL d   1      -5.998   5.242  -3.218  0.00  0.00     0.033 A 
ATOM      6  C6  UNL d   1      -5.988   5.784  -1.929  0.00  0.00    -0.057 A 
ENDROOT
BRANCH   1   7
ATOM      7  N   UNL d   1      -5.857   5.574   0.463  0.00  0.00    -0.732 N 
ATOM      8  C   UNL d   1      -5.560   4.814   1.658  0.00  0.00     0.284 C 
ATOM      9  H3  UNL d   1      -5.504   6.528   0.478  0.00  0.00     0.395 HD
ENDBRANCH   1   7
TORSDOF 1
ENDMDL
