MODEL 1
REMARK minimizedAffinity 12.0877075
REMARK minimizedRMSD -1
REMARK  1 active torsions:
REMARK  status: ('A' for Active; 'I' for Inactive)
REMARK    1  A    between atoms: N_2  and  C1_3 
ROOT
ATOM      1  C1  UNL d   1      -2.303  -0.646  -1.376  0.00  0.00     0.143 A 
ATOM      2  C2  UNL d   1      -3.683  -0.561  -1.587  0.00  0.00    -0.057 A 
ATOM      3  C3  UNL d   1      -4.536  -0.035  -0.608  0.00  0.00     0.033 A 
ATOM      4  C4  UNL d   1      -4.024   0.389   0.614  0.00  0.00    -0.042 A 
ATOM      5  C5  UNL d   1      -2.658   0.291   0.854  0.00  0.00     0.033 A 
ATOM      6  C6  UNL d   1      -1.811  -0.229  -0.129  0.00  0.00    -0.057 A 
ENDROOT
BRANCH   1   7
ATOM      7  N   UNL d   1      -1.415  -1.250  -2.271  0.00  0.00    -0.732 N 
ATOM      8  C   UNL d   1      -1.778  -2.471  -2.957  0.00  0.00     0.284 C 
ATOM      9  H3  UNL d   1      -0.932  -0.572  -2.856  0.00  0.00     0.395 HD
ENDBRANCH   1   7
TORSDOF 1
ENDMDL
