MODEL 1
REMARK minimizedAffinity 15.3598518
REMARK minimizedRMSD -1
REMARK  0 active torsions:
REMARK  status: ('A' for Active; 'I' for Inactive)
ROOT
ATOM      1  C1  DEN d   1       4.125   5.991   2.353  0.00  0.00     0.130 A 
ATOM      2  C2  DEN d   1       4.530   6.000   3.756  0.00  0.00    -0.031 A 
ATOM      3  C3  DEN d   1       4.820   4.608   4.156  0.00  0.00     0.027 A 
ATOM      4  C4  DEN d   1       4.687   2.453   2.746  0.00  0.00     0.027 A 
ATOM      5  C5  DEN d   1       4.380   1.941   1.504  0.00  0.00    -0.003 A 
ATOM      6  C6  DEN d   1       3.938   2.732   0.477  0.00  0.00     0.001 A 
ATOM      7  C7  DEN d   1       3.833   4.086   0.660  0.00  0.00     0.017 A 
ATOM      8  C8  DEN d   1       4.133   4.608   1.911  0.00  0.00    -0.094 A 
ATOM      9  C9  DEN d   1       4.591   3.794   2.933  0.00  0.00    -0.072 A 
ENDROOT
TORSDOF 0
ENDMDL
