MODEL 1
REMARK minimizedAffinity 19.8346119
REMARK minimizedRMSD -1
REMARK  0 active torsions:
REMARK  status: ('A' for Active; 'I' for Inactive)
ROOT
ATOM      1  C1  DEN d   1      -1.914   0.162   1.516  0.00  0.00     0.130 A 
ATOM      2  C2  DEN d   1      -3.008  -0.562   2.158  0.00  0.00    -0.031 A 
ATOM      3  C3  DEN d   1      -2.443  -1.349   3.273  0.00  0.00     0.027 A 
ATOM      4  C4  DEN d   1       0.006  -1.513   4.065  0.00  0.00     0.027 A 
ATOM      5  C5  DEN d   1       1.295  -1.089   3.824  0.00  0.00    -0.003 A 
ATOM      6  C6  DEN d   1       1.606  -0.252   2.785  0.00  0.00     0.001 A 
ATOM      7  C7  DEN d   1       0.610   0.224   1.975  0.00  0.00     0.017 A 
ATOM      8  C8  DEN d   1      -0.691  -0.205   2.206  0.00  0.00    -0.094 A 
ATOM      9  C9  DEN d   1      -0.987  -1.041   3.269  0.00  0.00    -0.072 A 
ENDROOT
TORSDOF 0
ENDMDL
