MODEL 1
REMARK minimizedAffinity 6.30707645
REMARK minimizedRMSD -1
REMARK  0 active torsions:
REMARK  status: ('A' for Active; 'I' for Inactive)
ROOT
ATOM      1  C1  DEN d   1       0.438  -1.000  -5.183  0.00  0.00     0.130 A 
ATOM      2  C2  DEN d   1       1.855  -0.734  -4.949  0.00  0.00    -0.031 A 
ATOM      3  C3  DEN d   1       2.591  -2.003  -5.116  0.00  0.00     0.027 A 
ATOM      4  C4  DEN d   1       1.680  -4.340  -5.716  0.00  0.00     0.027 A 
ATOM      5  C5  DEN d   1       0.542  -5.063  -5.998  0.00  0.00    -0.003 A 
ATOM      6  C6  DEN d   1      -0.704  -4.494  -5.994  0.00  0.00     0.001 A 
ATOM      7  C7  DEN d   1      -0.837  -3.154  -5.747  0.00  0.00     0.017 A 
ATOM      8  C8  DEN d   1       0.305  -2.420  -5.455  0.00  0.00    -0.094 A 
ATOM      9  C9  DEN d   1       1.557  -3.010  -5.476  0.00  0.00    -0.072 A 
ENDROOT
TORSDOF 0
ENDMDL
