MODEL 1
REMARK minimizedAffinity 9.91349983
REMARK minimizedRMSD -1
REMARK  0 active torsions:
REMARK  status: ('A' for Active; 'I' for Inactive)
ROOT
ATOM      1  C1  DEN d   1       3.616   5.871   4.147  0.00  0.00     0.130 A 
ATOM      2  C2  DEN d   1       4.805   6.000   4.985  0.00  0.00    -0.031 A 
ATOM      3  C3  DEN d   1       5.951   5.441   4.240  0.00  0.00     0.027 A 
ATOM      4  C4  DEN d   1       5.999   4.398   1.881  0.00  0.00     0.027 A 
ATOM      5  C5  DEN d   1       5.233   4.059   0.788  0.00  0.00    -0.003 A 
ATOM      6  C6  DEN d   1       3.880   4.267   0.752  0.00  0.00     0.001 A 
ATOM      7  C7  DEN d   1       3.258   4.872   1.812  0.00  0.00     0.017 A 
ATOM      8  C8  DEN d   1       4.022   5.210   2.920  0.00  0.00    -0.094 A 
ATOM      9  C9  DEN d   1       5.391   5.003   2.933  0.00  0.00    -0.072 A 
ENDROOT
TORSDOF 0
ENDMDL
