MODEL 1
REMARK minimizedAffinity 8.55921173
REMARK minimizedRMSD -1
REMARK  0 active torsions:
REMARK  status: ('A' for Active; 'I' for Inactive)
ROOT
ATOM      1  C1  DEN d   1      -2.443  -2.319   3.305  0.00  0.00     0.130 A 
ATOM      2  C2  DEN d   1      -3.452  -1.399   2.788  0.00  0.00    -0.031 A 
ATOM      3  C3  DEN d   1      -2.777  -0.133   2.435  0.00  0.00     0.027 A 
ATOM      4  C4  DEN d   1      -0.281   0.484   2.632  0.00  0.00     0.027 A 
ATOM      5  C5  DEN d   1       0.960   0.033   3.026  0.00  0.00    -0.003 A 
ATOM      6  C6  DEN d   1       1.146  -1.212   3.568  0.00  0.00     0.001 A 
ATOM      7  C7  DEN d   1       0.081  -2.065   3.689  0.00  0.00     0.017 A 
ATOM      8  C8  DEN d   1      -1.174  -1.615   3.300  0.00  0.00    -0.094 A 
ATOM      9  C9  DEN d   1      -1.339  -0.358   2.744  0.00  0.00    -0.072 A 
ENDROOT
TORSDOF 0
ENDMDL
