MODEL 1
REMARK minimizedAffinity 8.92035198
REMARK minimizedRMSD -1
REMARK  0 active torsions:
REMARK  status: ('A' for Active; 'I' for Inactive)
ROOT
ATOM      1  C1  DEN d   1       0.647   1.278   5.884  0.00  0.00     0.130 A 
ATOM      2  C2  DEN d   1      -0.093   2.459   5.446  0.00  0.00    -0.031 A 
ATOM      3  C3  DEN d   1      -0.552   2.223   4.063  0.00  0.00     0.027 A 
ATOM      4  C4  DEN d   1      -0.195   0.154   2.565  0.00  0.00     0.027 A 
ATOM      5  C5  DEN d   1       0.381  -1.095   2.495  0.00  0.00    -0.003 A 
ATOM      6  C6  DEN d   1       1.109  -1.623   3.529  0.00  0.00     0.001 A 
ATOM      7  C7  DEN d   1       1.242  -0.917   4.695  0.00  0.00     0.017 A 
ATOM      8  C8  DEN d   1       0.670   0.347   4.770  0.00  0.00    -0.094 A 
ATOM      9  C9  DEN d   1      -0.072   0.857   3.719  0.00  0.00    -0.072 A 
ENDROOT
TORSDOF 0
ENDMDL
