MODEL 1
REMARK minimizedAffinity 23.6996975
REMARK minimizedRMSD -1
REMARK  0 active torsions:
REMARK  status: ('A' for Active; 'I' for Inactive)
ROOT
ATOM      1  C1  DEN d   1      -0.405  -1.978  -4.808  0.00  0.00     0.130 A 
ATOM      2  C2  DEN d   1       1.025  -1.881  -4.527  0.00  0.00    -0.031 A 
ATOM      3  C3  DEN d   1       1.635  -3.198  -4.801  0.00  0.00     0.027 A 
ATOM      4  C4  DEN d   1       0.511  -5.365  -5.633  0.00  0.00     0.027 A 
ATOM      5  C5  DEN d   1      -0.686  -5.939  -6.000  0.00  0.00    -0.003 A 
ATOM      6  C6  DEN d   1      -1.869  -5.249  -5.963  0.00  0.00     0.001 A 
ATOM      7  C7  DEN d   1      -1.874  -3.930  -5.594  0.00  0.00     0.017 A 
ATOM      8  C8  DEN d   1      -0.672  -3.346  -5.215  0.00  0.00    -0.094 A 
ATOM      9  C9  DEN d   1       0.515  -4.057  -5.271  0.00  0.00    -0.072 A 
ENDROOT
TORSDOF 0
ENDMDL
