MODEL 1
REMARK minimizedAffinity 9.345191
REMARK minimizedRMSD -1
REMARK  0 active torsions:
REMARK  status: ('A' for Active; 'I' for Inactive)
ROOT
ATOM      1  C1  DEN d   1       0.366   1.558   2.941  0.00  0.00     0.130 A 
ATOM      2  C2  DEN d   1      -0.931   1.287   2.326  0.00  0.00    -0.031 A 
ATOM      3  C3  DEN d   1      -1.180  -0.167   2.410  0.00  0.00     0.027 A 
ATOM      4  C4  DEN d   1       0.305  -2.011   3.432  0.00  0.00     0.027 A 
ATOM      5  C5  DEN d   1       1.503  -2.268   4.061  0.00  0.00    -0.003 A 
ATOM      6  C6  DEN d   1       2.414  -1.280   4.328  0.00  0.00     0.001 A 
ATOM      7  C7  DEN d   1       2.121   0.019   4.006  0.00  0.00     0.017 A 
ATOM      8  C8  DEN d   1       0.918   0.284   3.364  0.00  0.00    -0.094 A 
ATOM      9  C9  DEN d   1       0.005  -0.727   3.114  0.00  0.00    -0.072 A 
ENDROOT
TORSDOF 0
ENDMDL
