MODEL 1
REMARK minimizedAffinity 17.9418736
REMARK minimizedRMSD -1
REMARK  0 active torsions:
REMARK  status: ('A' for Active; 'I' for Inactive)
ROOT
ATOM      1  C1  DEN d   1      -0.269  -0.766  -4.775  0.00  0.00     0.130 A 
ATOM      2  C2  DEN d   1       0.753   0.021  -4.091  0.00  0.00    -0.031 A 
ATOM      3  C3  DEN d   1       1.992  -0.781  -4.043  0.00  0.00     0.027 A 
ATOM      4  C4  DEN d   1       2.425  -3.152  -4.961  0.00  0.00     0.027 A 
ATOM      5  C5  DEN d   1       1.857  -4.226  -5.611  0.00  0.00    -0.003 A 
ATOM      6  C6  DEN d   1       0.542  -4.234  -5.995  0.00  0.00     0.001 A 
ATOM      7  C7  DEN d   1      -0.237  -3.130  -5.772  0.00  0.00     0.017 A 
ATOM      8  C8  DEN d   1       0.326  -2.047  -5.110  0.00  0.00    -0.094 A 
ATOM      9  C9  DEN d   1       1.661  -2.053  -4.741  0.00  0.00    -0.072 A 
ENDROOT
TORSDOF 0
ENDMDL
