MODEL 1
REMARK minimizedAffinity 2.33860779
REMARK minimizedRMSD -1
REMARK  3 active torsions:
REMARK  status: ('A' for Active; 'I' for Inactive)
REMARK    1  A    between atoms: C3'_2  and  C2'_3 
REMARK    2  A    between atoms: C2'_3  and  C1'_4 
REMARK    3  A    between atoms: C1'_4  and  C1_5 
ROOT
ATOM      1  C1  N4B d   1       3.031   1.552  -0.635  0.00  0.00    -0.075 A 
ATOM      2  C2  N4B d   1       1.700   1.755  -1.060  0.00  0.00     0.002 A 
ATOM      3  C3  N4B d   1       1.426   1.937  -2.393  0.00  0.00     0.002 A 
ATOM      4  C4  N4B d   1       2.463   1.938  -3.313  0.00  0.00    -0.004 A 
ATOM      5  C5  N4B d   1       3.743   1.716  -2.897  0.00  0.00     0.002 A 
ATOM      6  C6  N4B d   1       4.034   1.527  -1.561  0.00  0.00     0.002 A 
ENDROOT
BRANCH   1   7
ATOM      7  C1' N4B d   1       3.391   1.434   0.821  0.00  0.00     0.057 C 
BRANCH   7   8
ATOM      8  C2' N4B d   1       3.436  -0.042   1.208  0.00  0.00     0.009 C 
BRANCH   8   9
ATOM      9  C3' N4B d   1       4.682  -0.730   0.678  0.00  0.00     0.004 C 
ATOM     10  C4' N4B d   1       5.938   0.036   0.972  0.00  0.00     0.003 C 
ENDBRANCH   8   9
ENDBRANCH   7   8
ENDBRANCH   1   7
TORSDOF 3
ENDMDL
