MODEL 1
REMARK minimizedAffinity 5.93759203
REMARK minimizedRMSD -1
REMARK  3 active torsions:
REMARK  status: ('A' for Active; 'I' for Inactive)
REMARK    1  A    between atoms: C3'_2  and  C2'_3 
REMARK    2  A    between atoms: C2'_3  and  C1'_4 
REMARK    3  A    between atoms: C1'_4  and  C1_5 
ROOT
ATOM      1  C1  N4B d   1       3.668   0.362   0.008  0.00  0.00    -0.075 A 
ATOM      2  C2  N4B d   1       4.213   0.617  -1.270  0.00  0.00     0.002 A 
ATOM      3  C3  N4B d   1       3.561   1.457  -2.139  0.00  0.00     0.002 A 
ATOM      4  C4  N4B d   1       2.359   2.037  -1.762  0.00  0.00    -0.004 A 
ATOM      5  C5  N4B d   1       1.853   1.806  -0.516  0.00  0.00     0.002 A 
ATOM      6  C6  N4B d   1       2.498   0.967   0.369  0.00  0.00     0.002 A 
ENDROOT
BRANCH   1   7
ATOM      7  C1' N4B d   1       4.299  -0.616   0.960  0.00  0.00     0.057 C 
BRANCH   7   8
ATOM      8  C2' N4B d   1       4.540   0.073   2.300  0.00  0.00     0.009 C 
BRANCH   8   9
ATOM      9  C3' N4B d   1       3.931  -0.702   3.455  0.00  0.00     0.004 C 
ATOM     10  C4' N4B d   1       2.609  -0.146   3.894  0.00  0.00     0.003 C 
ENDBRANCH   8   9
ENDBRANCH   7   8
ENDBRANCH   1   7
TORSDOF 3
ENDMDL
