MODEL 1
REMARK minimizedAffinity 10.9504032
REMARK minimizedRMSD -1
REMARK  3 active torsions:
REMARK  status: ('A' for Active; 'I' for Inactive)
REMARK    1  A    between atoms: C3'_2  and  C2'_3 
REMARK    2  A    between atoms: C2'_3  and  C1'_4 
REMARK    3  A    between atoms: C1'_4  and  C1_5 
ROOT
ATOM      1  C1  N4B d   1      -1.236  -3.964  -2.879  0.00  0.00    -0.075 A 
ATOM      2  C2  N4B d   1      -0.466  -3.771  -1.711  0.00  0.00     0.002 A 
ATOM      3  C3  N4B d   1      -0.985  -3.060  -0.656  0.00  0.00     0.002 A 
ATOM      4  C4  N4B d   1      -2.259  -2.520  -0.753  0.00  0.00    -0.004 A 
ATOM      5  C5  N4B d   1      -3.005  -2.733  -1.875  0.00  0.00     0.002 A 
ATOM      6  C6  N4B d   1      -2.498  -3.448  -2.941  0.00  0.00     0.002 A 
ENDROOT
BRANCH   1   7
ATOM      7  C1' N4B d   1      -0.679  -4.659  -4.091  0.00  0.00     0.057 C 
BRANCH   7   8
ATOM      8  C2' N4B d   1      -1.475  -4.235  -5.321  0.00  0.00     0.009 C 
BRANCH   8   9
ATOM      9  C3' N4B d   1      -0.872  -3.013  -5.994  0.00  0.00     0.004 C 
ATOM     10  C4' N4B d   1      -1.801  -1.835  -5.998  0.00  0.00     0.003 C 
ENDBRANCH   8   9
ENDBRANCH   7   8
ENDBRANCH   1   7
TORSDOF 3
ENDMDL
