MODEL 1
REMARK minimizedAffinity 2.53602624
REMARK minimizedRMSD -1
REMARK  3 active torsions:
REMARK  status: ('A' for Active; 'I' for Inactive)
REMARK    1  A    between atoms: C3'_2  and  C2'_3 
REMARK    2  A    between atoms: C2'_3  and  C1'_4 
REMARK    3  A    between atoms: C1'_4  and  C1_5 
ROOT
ATOM      1  C1  N4B d   1       2.987   1.443  -0.744  0.00  0.00    -0.075 A 
ATOM      2  C2  N4B d   1       3.795   1.442  -1.903  0.00  0.00     0.002 A 
ATOM      3  C3  N4B d   1       3.268   1.840  -3.107  0.00  0.00     0.002 A 
ATOM      4  C4  N4B d   1       1.937   2.223  -3.180  0.00  0.00    -0.004 A 
ATOM      5  C5  N4B d   1       1.171   2.245  -2.052  0.00  0.00     0.002 A 
ATOM      6  C6  N4B d   1       1.688   1.851  -0.834  0.00  0.00     0.002 A 
ENDROOT
BRANCH   1   7
ATOM      7  C1' N4B d   1       3.495   0.935   0.578  0.00  0.00     0.057 C 
BRANCH   7   8
ATOM      8  C2' N4B d   1       3.873  -0.537   0.437  0.00  0.00     0.009 C 
BRANCH   8   9
ATOM      9  C3' N4B d   1       5.349  -0.773   0.711  0.00  0.00     0.004 C 
ATOM     10  C4' N4B d   1       5.962   0.305   1.554  0.00  0.00     0.003 C 
ENDBRANCH   8   9
ENDBRANCH   7   8
ENDBRANCH   1   7
TORSDOF 3
ENDMDL
