MODEL 1
REMARK minimizedAffinity 1.58937192
REMARK minimizedRMSD -1
REMARK  3 active torsions:
REMARK  status: ('A' for Active; 'I' for Inactive)
REMARK    1  A    between atoms: C3'_2  and  C2'_3 
REMARK    2  A    between atoms: C2'_3  and  C1'_4 
REMARK    3  A    between atoms: C1'_4  and  C1_5 
ROOT
ATOM      1  C1  N4B d   1       3.988   1.375   0.300  0.00  0.00    -0.075 A 
ATOM      2  C2  N4B d   1       4.113   0.015   0.661  0.00  0.00     0.002 A 
ATOM      3  C3  N4B d   1       5.102  -0.377   1.529  0.00  0.00     0.002 A 
ATOM      4  C4  N4B d   1       5.986   0.565   2.032  0.00  0.00    -0.004 A 
ATOM      5  C5  N4B d   1       5.844   1.881   1.699  0.00  0.00     0.002 A 
ATOM      6  C6  N4B d   1       4.851   2.290   0.830  0.00  0.00     0.002 A 
ENDROOT
BRANCH   1   7
ATOM      7  C1' N4B d   1       2.976   1.839  -0.712  0.00  0.00     0.057 C 
BRANCH   7   8
ATOM      8  C2' N4B d   1       3.681   2.102  -2.040  0.00  0.00     0.009 C 
BRANCH   8   9
ATOM      9  C3' N4B d   1       4.147   0.815  -2.700  0.00  0.00     0.004 C 
ATOM     10  C4' N4B d   1       4.149   0.899  -4.197  0.00  0.00     0.003 C 
ENDBRANCH   8   9
ENDBRANCH   7   8
ENDBRANCH   1   7
TORSDOF 3
ENDMDL
