MODEL 1
REMARK minimizedAffinity 3.48269916
REMARK minimizedRMSD -1
REMARK  3 active torsions:
REMARK  status: ('A' for Active; 'I' for Inactive)
REMARK    1  A    between atoms: C3'_2  and  C2'_3 
REMARK    2  A    between atoms: C2'_3  and  C1'_4 
REMARK    3  A    between atoms: C1'_4  and  C1_5 
ROOT
ATOM      1  C1  N4B d   1       3.930   1.345   0.785  0.00  0.00    -0.075 A 
ATOM      2  C2  N4B d   1       5.015   2.080   1.310  0.00  0.00     0.002 A 
ATOM      3  C3  N4B d   1       5.999   1.439   2.021  0.00  0.00     0.002 A 
ATOM      4  C4  N4B d   1       5.911   0.071   2.233  0.00  0.00    -0.004 A 
ATOM      5  C5  N4B d   1       4.873  -0.636   1.701  0.00  0.00     0.002 A 
ATOM      6  C6  N4B d   1       3.879  -0.005   0.981  0.00  0.00     0.002 A 
ENDROOT
BRANCH   1   7
ATOM      7  C1' N4B d   1       2.785   2.015   0.075  0.00  0.00     0.057 C 
BRANCH   7   8
ATOM      8  C2' N4B d   1       1.582   2.075   1.012  0.00  0.00     0.009 C 
BRANCH   8   9
ATOM      9  C3' N4B d   1       1.348   0.753   1.722  0.00  0.00     0.004 C 
ATOM     10  C4' N4B d   1       0.514   0.899   2.960  0.00  0.00     0.003 C 
ENDBRANCH   8   9
ENDBRANCH   7   8
ENDBRANCH   1   7
TORSDOF 3
ENDMDL
