MODEL 1
REMARK minimizedAffinity 1.17561841
REMARK minimizedRMSD -1
REMARK  3 active torsions:
REMARK  status: ('A' for Active; 'I' for Inactive)
REMARK    1  A    between atoms: C3'_2  and  C2'_3 
REMARK    2  A    between atoms: C2'_3  and  C1'_4 
REMARK    3  A    between atoms: C1'_4  and  C1_5 
ROOT
ATOM      1  C1  N4B d   1      -2.345  -3.333  -0.528  0.00  0.00    -0.075 A 
ATOM      2  C2  N4B d   1      -3.165  -3.775   0.534  0.00  0.00     0.002 A 
ATOM      3  C3  N4B d   1      -2.603  -4.113   1.740  0.00  0.00     0.002 A 
ATOM      4  C4  N4B d   1      -1.227  -4.036   1.902  0.00  0.00    -0.004 A 
ATOM      5  C5  N4B d   1      -0.445  -3.584   0.880  0.00  0.00     0.002 A 
ATOM      6  C6  N4B d   1      -0.997  -3.237  -0.337  0.00  0.00     0.002 A 
ENDROOT
BRANCH   1   7
ATOM      7  C1' N4B d   1      -2.904  -3.034  -1.892  0.00  0.00     0.057 C 
BRANCH   7   8
ATOM      8  C2' N4B d   1      -2.850  -4.298  -2.744  0.00  0.00     0.009 C 
BRANCH   8   9
ATOM      9  C3' N4B d   1      -3.988  -5.251  -2.419  0.00  0.00     0.004 C 
ATOM     10  C4' N4B d   1      -5.294  -4.820  -3.015  0.00  0.00     0.003 C 
ENDBRANCH   8   9
ENDBRANCH   7   8
ENDBRANCH   1   7
TORSDOF 3
ENDMDL
