MODEL 1
REMARK minimizedAffinity -1.56010544
REMARK minimizedRMSD -1
REMARK  0 active torsions:
REMARK  status: ('A' for Active; 'I' for Inactive)
ROOT
ATOM      1  C1  BNZ d   1      -5.900  -0.185   5.156  0.00  0.00     0.000 A 
ATOM      2  C2  BNZ d   1      -5.354   0.909   5.772  0.00  0.00     0.000 A 
ATOM      3  C3  BNZ d   1      -4.676   1.852   5.051  0.00  0.00     0.000 A 
ATOM      4  C4  BNZ d   1      -4.512   1.681   3.724  0.00  0.00     0.000 A 
ATOM      5  C5  BNZ d   1      -5.049   0.579   3.089  0.00  0.00     0.000 A 
ATOM      6  C6  BNZ d   1      -5.763  -0.349   3.812  0.00  0.00     0.000 A 
ENDROOT
TORSDOF 0
ENDMDL
