MODEL 1
REMARK minimizedAffinity -3.64928818
REMARK minimizedRMSD -1
REMARK  0 active torsions:
REMARK  status: ('A' for Active; 'I' for Inactive)
ROOT
ATOM      1  C1  BNZ d   1       3.804  -2.258   4.541  0.00  0.00     0.000 A 
ATOM      2  C2  BNZ d   1       3.823  -3.428   5.253  0.00  0.00     0.000 A 
ATOM      3  C3  BNZ d   1       4.915  -3.775   5.999  0.00  0.00     0.000 A 
ATOM      4  C4  BNZ d   1       6.000  -2.973   6.000  0.00  0.00     0.000 A 
ATOM      5  C5  BNZ d   1       5.999  -1.795   5.280  0.00  0.00     0.000 A 
ATOM      6  C6  BNZ d   1       4.883  -1.430   4.561  0.00  0.00     0.000 A 
ENDROOT
TORSDOF 0
ENDMDL
