MODEL 1
REMARK minimizedAffinity 1.82020557
REMARK minimizedRMSD -1
REMARK  0 active torsions:
REMARK  status: ('A' for Active; 'I' for Inactive)
ROOT
ATOM      1  C1  BNZ d   1       2.627   3.956   1.254  0.00  0.00     0.000 A 
ATOM      2  C2  BNZ d   1       2.220   4.438   0.038  0.00  0.00     0.000 A 
ATOM      3  C3  BNZ d   1       2.067   3.600  -1.031  0.00  0.00     0.000 A 
ATOM      4  C4  BNZ d   1       2.361   2.291  -0.895  0.00  0.00     0.000 A 
ATOM      5  C5  BNZ d   1       2.782   1.792   0.322  0.00  0.00     0.000 A 
ATOM      6  C6  BNZ d   1       2.896   2.631   1.406  0.00  0.00     0.000 A 
ENDROOT
TORSDOF 0
ENDMDL
