MODEL 1
REMARK minimizedAffinity -3.12028813
REMARK minimizedRMSD -1
REMARK  0 active torsions:
REMARK  status: ('A' for Active; 'I' for Inactive)
ROOT
ATOM      1  C1  BNZ d   1      -4.900   5.793   3.556  0.00  0.00     0.000 A 
ATOM      2  C2  BNZ d   1      -4.673   5.728   2.207  0.00  0.00     0.000 A 
ATOM      3  C3  BNZ d   1      -3.401   5.759   1.709  0.00  0.00     0.000 A 
ATOM      4  C4  BNZ d   1      -2.360   5.896   2.556  0.00  0.00     0.000 A 
ATOM      5  C5  BNZ d   1      -2.573   5.972   3.918  0.00  0.00     0.000 A 
ATOM      6  C6  BNZ d   1      -3.853   5.901   4.419  0.00  0.00     0.000 A 
ENDROOT
TORSDOF 0
ENDMDL
