MODEL 1
REMARK minimizedAffinity -1.78413916
REMARK minimizedRMSD -1
REMARK  0 active torsions:
REMARK  status: ('A' for Active; 'I' for Inactive)
ROOT
ATOM      1  C1  BNZ d   1      -2.597   6.000   2.941  0.00  0.00     0.000 A 
ATOM      2  C2  BNZ d   1      -3.468   5.941   1.886  0.00  0.00     0.000 A 
ATOM      3  C3  BNZ d   1      -4.816   5.868   2.095  0.00  0.00     0.000 A 
ATOM      4  C4  BNZ d   1      -5.290   5.812   3.357  0.00  0.00     0.000 A 
ATOM      5  C5  BNZ d   1      -4.424   5.860   4.431  0.00  0.00     0.000 A 
ATOM      6  C6  BNZ d   1      -3.069   5.974   4.217  0.00  0.00     0.000 A 
ENDROOT
TORSDOF 0
ENDMDL
