MODEL 1
REMARK minimizedAffinity -2.58099174
REMARK minimizedRMSD -1
REMARK  0 active torsions:
REMARK  status: ('A' for Active; 'I' for Inactive)
ROOT
ATOM      1  C1  BNZ d   1      -2.542   6.000   2.872  0.00  0.00     0.000 A 
ATOM      2  C2  BNZ d   1      -3.475   5.811   1.888  0.00  0.00     0.000 A 
ATOM      3  C3  BNZ d   1      -4.793   5.630   2.199  0.00  0.00     0.000 A 
ATOM      4  C4  BNZ d   1      -5.171   5.599   3.493  0.00  0.00     0.000 A 
ATOM      5  C5  BNZ d   1      -4.241   5.778   4.498  0.00  0.00     0.000 A 
ATOM      6  C6  BNZ d   1      -2.920   5.999   4.179  0.00  0.00     0.000 A 
ENDROOT
TORSDOF 0
ENDMDL
