MODEL 1
REMARK minimizedAffinity -1.72346854
REMARK minimizedRMSD -1
REMARK  0 active torsions:
REMARK  status: ('A' for Active; 'I' for Inactive)
ROOT
ATOM      1  C1  BNZ d   1      -2.906   5.960   2.502  0.00  0.00     0.000 A 
ATOM      2  C2  BNZ d   1      -4.275   5.952   2.471  0.00  0.00     0.000 A 
ATOM      3  C3  BNZ d   1      -5.002   5.990   3.628  0.00  0.00     0.000 A 
ATOM      4  C4  BNZ d   1      -4.360   5.996   4.814  0.00  0.00     0.000 A 
ATOM      5  C5  BNZ d   1      -2.980   5.996   4.862  0.00  0.00     0.000 A 
ATOM      6  C6  BNZ d   1      -2.252   5.997   3.695  0.00  0.00     0.000 A 
ENDROOT
TORSDOF 0
ENDMDL
