MODEL 1
REMARK minimizedAffinity 2.59167767
REMARK minimizedRMSD -1
REMARK  0 active torsions:
REMARK  status: ('A' for Active; 'I' for Inactive)
ROOT
ATOM      1  C1  BNZ d   1       0.684   2.053  -4.098  0.00  0.00     0.000 A 
ATOM      2  C2  BNZ d   1       0.326   0.774  -3.764  0.00  0.00     0.000 A 
ATOM      3  C3  BNZ d   1       0.831   0.176  -2.644  0.00  0.00     0.000 A 
ATOM      4  C4  BNZ d   1       1.723   0.841  -1.882  0.00  0.00     0.000 A 
ATOM      5  C5  BNZ d   1       2.101   2.128  -2.211  0.00  0.00     0.000 A 
ATOM      6  C6  BNZ d   1       1.561   2.741  -3.318  0.00  0.00     0.000 A 
ENDROOT
TORSDOF 0
ENDMDL
