MODEL 1
REMARK minimizedAffinity 0.869844258
REMARK minimizedRMSD -1
REMARK  0 active torsions:
REMARK  status: ('A' for Active; 'I' for Inactive)
ROOT
ATOM      1  C1  BNZ d   1       2.014  -0.184  -1.499  0.00  0.00     0.000 A 
ATOM      2  C2  BNZ d   1       2.439   1.118  -1.515  0.00  0.00     0.000 A 
ATOM      3  C3  BNZ d   1       1.803   2.052  -2.285  0.00  0.00     0.000 A 
ATOM      4  C4  BNZ d   1       0.770   1.675  -3.066  0.00  0.00     0.000 A 
ATOM      5  C5  BNZ d   1       0.337   0.364  -3.068  0.00  0.00     0.000 A 
ATOM      6  C6  BNZ d   1       0.955  -0.565  -2.263  0.00  0.00     0.000 A 
ENDROOT
TORSDOF 0
ENDMDL
