MODEL 1
REMARK minimizedAffinity -2.78156328
REMARK minimizedRMSD -1
REMARK  0 active torsions:
REMARK  status: ('A' for Active; 'I' for Inactive)
ROOT
ATOM      1  C1  BNZ d   1      -4.899   6.000   4.614  0.00  0.00     0.000 A 
ATOM      2  C2  BNZ d   1      -4.886   5.999   3.245  0.00  0.00     0.000 A 
ATOM      3  C3  BNZ d   1      -3.705   5.974   2.556  0.00  0.00     0.000 A 
ATOM      4  C4  BNZ d   1      -2.541   5.990   3.236  0.00  0.00     0.000 A 
ATOM      5  C5  BNZ d   1      -2.537   6.000   4.617  0.00  0.00     0.000 A 
ATOM      6  C6  BNZ d   1      -3.728   5.986   5.307  0.00  0.00     0.000 A 
ENDROOT
TORSDOF 0
ENDMDL
