MODEL 1
REMARK minimizedAffinity -1.34054661
REMARK minimizedRMSD -1
REMARK  0 active torsions:
REMARK  status: ('A' for Active; 'I' for Inactive)
ROOT
ATOM      1  C1  BNZ d   1      -3.124   5.999   4.994  0.00  0.00     0.000 A 
ATOM      2  C2  BNZ d   1      -2.680   5.999   3.699  0.00  0.00     0.000 A 
ATOM      3  C3  BNZ d   1      -3.550   5.820   2.660  0.00  0.00     0.000 A 
ATOM      4  C4  BNZ d   1      -4.855   5.600   2.919  0.00  0.00     0.000 A 
ATOM      5  C5  BNZ d   1      -5.317   5.587   4.220  0.00  0.00     0.000 A 
ATOM      6  C6  BNZ d   1      -4.445   5.807   5.261  0.00  0.00     0.000 A 
ENDROOT
TORSDOF 0
ENDMDL
