MODEL 1
REMARK minimizedAffinity 3.80482745
REMARK minimizedRMSD -1
REMARK  0 active torsions:
REMARK  status: ('A' for Active; 'I' for Inactive)
ROOT
ATOM      1  C1  BNZ d   1      -3.358   5.986   4.097  0.00  0.00     0.000 A 
ATOM      2  C2  BNZ d   1      -4.716   6.000   3.921  0.00  0.00     0.000 A 
ATOM      3  C3  BNZ d   1      -5.259   5.986   2.667  0.00  0.00     0.000 A 
ATOM      4  C4  BNZ d   1      -4.445   5.998   1.592  0.00  0.00     0.000 A 
ATOM      5  C5  BNZ d   1      -3.074   5.994   1.753  0.00  0.00     0.000 A 
ATOM      6  C6  BNZ d   1      -2.531   5.969   3.017  0.00  0.00     0.000 A 
ENDROOT
TORSDOF 0
ENDMDL
