MODEL 1
REMARK minimizedAffinity 1.38817394
REMARK minimizedRMSD -1
REMARK  0 active torsions:
REMARK  status: ('A' for Active; 'I' for Inactive)
ROOT
ATOM      1  C1  BNZ d   1      -4.204   5.915   3.243  0.00  0.00     0.000 A 
ATOM      2  C2  BNZ d   1      -4.178   5.923   4.612  0.00  0.00     0.000 A 
ATOM      3  C3  BNZ d   1      -2.993   5.985   5.289  0.00  0.00     0.000 A 
ATOM      4  C4  BNZ d   1      -1.835   5.999   4.599  0.00  0.00     0.000 A 
ATOM      5  C5  BNZ d   1      -1.843   5.982   3.218  0.00  0.00     0.000 A 
ATOM      6  C6  BNZ d   1      -3.040   5.959   2.539  0.00  0.00     0.000 A 
ENDROOT
TORSDOF 0
ENDMDL
