MODEL 1
REMARK minimizedAffinity -3.29062653
REMARK minimizedRMSD -1
REMARK  0 active torsions:
REMARK  status: ('A' for Active; 'I' for Inactive)
ROOT
ATOM      1  C1  BNZ d   1       0.776   1.462  -3.029  0.00  0.00     0.000 A 
ATOM      2  C2  BNZ d   1       0.716   2.131  -4.223  0.00  0.00     0.000 A 
ATOM      3  C3  BNZ d   1       1.820   2.241  -5.020  0.00  0.00     0.000 A 
ATOM      4  C4  BNZ d   1       2.993   1.719  -4.605  0.00  0.00     0.000 A 
ATOM      5  C5  BNZ d   1       3.072   1.050  -3.400  0.00  0.00     0.000 A 
ATOM      6  C6  BNZ d   1       1.949   0.906  -2.618  0.00  0.00     0.000 A 
ENDROOT
TORSDOF 0
ENDMDL
