MODEL 1
REMARK minimizedAffinity 4.80056763
REMARK minimizedRMSD -1
REMARK  0 active torsions:
REMARK  status: ('A' for Active; 'I' for Inactive)
ROOT
ATOM      1  C1  BNZ d   1      -4.100   5.989   4.542  0.00  0.00     0.000 A 
ATOM      2  C2  BNZ d   1      -5.229   5.925   3.770  0.00  0.00     0.000 A 
ATOM      3  C3  BNZ d   1      -5.198   5.352   2.529  0.00  0.00     0.000 A 
ATOM      4  C4  BNZ d   1      -4.031   4.878   2.047  0.00  0.00     0.000 A 
ATOM      5  C5  BNZ d   1      -2.882   4.943   2.810  0.00  0.00     0.000 A 
ATOM      6  C6  BNZ d   1      -2.925   5.486   4.073  0.00  0.00     0.000 A 
ENDROOT
TORSDOF 0
ENDMDL
