MODEL 1
REMARK minimizedAffinity -4.0215106
REMARK minimizedRMSD -1
REMARK  1 active torsions:
REMARK  status: ('A' for Active; 'I' for Inactive)
REMARK    1  A    between atoms: C1_2  and  C2_3 
ROOT
ATOM      1  C2  UNL d   1      -0.603   0.362  -0.933  0.00  0.00    -0.081 A 
ATOM      2  C3  UNL d   1      -1.252   0.302   0.307  0.00  0.00     0.006 A 
ATOM      3  C4  UNL d   1      -0.565  -0.123   1.446  0.00  0.00     0.002 A 
ATOM      4  C5  UNL d   1       0.783  -0.487   1.367  0.00  0.00    -0.080 A 
ATOM      5  C6  UNL d   1       1.541  -0.916   2.588  0.00  0.00     0.076 C 
ATOM      6  C7  UNL d   1       1.427  -0.444   0.126  0.00  0.00     0.002 A 
ATOM      7  C8  UNL d   1       0.740  -0.020  -1.014  0.00  0.00     0.006 A 
ENDROOT
BRANCH   1   8
ATOM      8  C1  UNL d   1      -1.323   0.882  -2.151  0.00  0.00     0.054 C 
ATOM      9  C   UNL d   1      -1.148   2.387  -2.297  0.00  0.00     0.018 C 
ENDBRANCH   1   8
TORSDOF 1
ENDMDL
