MODEL 1
REMARK minimizedAffinity -3.28016949
REMARK minimizedRMSD -1
REMARK  1 active torsions:
REMARK  status: ('A' for Active; 'I' for Inactive)
REMARK    1  A    between atoms: C1_2  and  C2_3 
ROOT
ATOM      1  C2  UNL d   1      -0.393   0.442  -1.506  0.00  0.00    -0.081 A 
ATOM      2  C3  UNL d   1      -0.857   0.777  -0.228  0.00  0.00     0.006 A 
ATOM      3  C4  UNL d   1      -0.139   0.397   0.908  0.00  0.00     0.002 A 
ATOM      4  C5  UNL d   1       1.058  -0.317   0.785  0.00  0.00    -0.080 A 
ATOM      5  C6  UNL d   1       1.854  -0.705   1.996  0.00  0.00     0.076 C 
ATOM      6  C7  UNL d   1       1.513  -0.667  -0.491  0.00  0.00     0.002 A 
ATOM      7  C8  UNL d   1       0.795  -0.287  -1.627  0.00  0.00     0.006 A 
ENDROOT
BRANCH   1   8
ATOM      8  C1  UNL d   1      -1.131   0.906  -2.736  0.00  0.00     0.054 C 
ATOM      9  C   UNL d   1      -0.781   2.347  -3.080  0.00  0.00     0.018 C 
ENDBRANCH   1   8
TORSDOF 1
ENDMDL
