MODEL 1
REMARK minimizedAffinity -2.50237346
REMARK minimizedRMSD -1
REMARK  1 active torsions:
REMARK  status: ('A' for Active; 'I' for Inactive)
REMARK    1  A    between atoms: C1_2  and  C2_3 
ROOT
ATOM      1  C2  UNL d   1      -1.083   1.153  -1.172  0.00  0.00    -0.081 A 
ATOM      2  C3  UNL d   1       0.128   0.455  -1.094  0.00  0.00     0.006 A 
ATOM      3  C4  UNL d   1       0.457  -0.266   0.056  0.00  0.00     0.002 A 
ATOM      4  C5  UNL d   1      -0.422  -0.308   1.143  0.00  0.00    -0.080 A 
ATOM      5  C6  UNL d   1      -0.095  -1.103   2.372  0.00  0.00     0.076 C 
ATOM      6  C7  UNL d   1      -1.625   0.404   1.072  0.00  0.00     0.002 A 
ATOM      7  C8  UNL d   1      -1.954   1.125  -0.077  0.00  0.00     0.006 A 
ENDROOT
BRANCH   1   8
ATOM      8  C1  UNL d   1      -1.470   1.879  -2.436  0.00  0.00     0.054 C 
ATOM      9  C   UNL d   1      -1.108   3.355  -2.359  0.00  0.00     0.018 C 
ENDBRANCH   1   8
TORSDOF 1
ENDMDL
