MODEL 1
REMARK minimizedAffinity -2.69635129
REMARK minimizedRMSD -1
REMARK  1 active torsions:
REMARK  status: ('A' for Active; 'I' for Inactive)
REMARK    1  A    between atoms: C3_4  and  O_7 
ROOT
ATOM      1  C   UNL d   1       0.838   0.569   2.667  0.00  0.00    -0.033 A 
ATOM      2  C1  UNL d   1       1.447   1.469   1.790  0.00  0.00     0.039 A 
ATOM      3  C2  UNL d   1       2.784   1.294   1.426  0.00  0.00    -0.080 A 
ATOM      4  C3  UNL d   1       3.498   0.217   1.943  0.00  0.00     0.150 A 
ATOM      5  C4  UNL d   1       2.896  -0.685   2.814  0.00  0.00    -0.007 A 
ATOM      6  C5  UNL d   1       1.562  -0.509   3.177  0.00  0.00     0.039 A 
ENDROOT
BRANCH   4   7
ATOM      7  O   UNL d   1       4.806   0.008   1.620  0.00  0.00    -0.526 OA
ATOM      8  H5  UNL d   1       5.096   0.726   1.033  0.00  0.00     0.418 HD
ENDBRANCH   4   7
TORSDOF 1
ENDMDL
