MODEL 1
REMARK minimizedAffinity -0.57754457
REMARK minimizedRMSD -1
REMARK  1 active torsions:
REMARK  status: ('A' for Active; 'I' for Inactive)
REMARK    1  A    between atoms: C3_4  and  O_7 
ROOT
ATOM      1  C   UNL d   1       5.638  -1.429   4.319  0.00  0.00    -0.033 A 
ATOM      2  C1  UNL d   1       5.316  -2.419   3.387  0.00  0.00     0.039 A 
ATOM      3  C2  UNL d   1       5.338  -3.764   3.760  0.00  0.00    -0.080 A 
ATOM      4  C3  UNL d   1       5.682  -4.106   5.064  0.00  0.00     0.150 A 
ATOM      5  C4  UNL d   1       6.000  -3.126   5.998  0.00  0.00    -0.007 A 
ATOM      6  C5  UNL d   1       5.978  -1.783   5.625  0.00  0.00     0.039 A 
ENDROOT
BRANCH   4   7
ATOM      7  O   UNL d   1       5.721  -5.406   5.473  0.00  0.00    -0.526 OA
ATOM      8  H5  UNL d   1       5.506  -5.974   4.714  0.00  0.00     0.418 HD
ENDBRANCH   4   7
TORSDOF 1
ENDMDL
