MODEL 1
REMARK minimizedAffinity 0.50219959
REMARK minimizedRMSD -1
REMARK  1 active torsions:
REMARK  status: ('A' for Active; 'I' for Inactive)
REMARK    1  A    between atoms: C3_4  and  O_7 
ROOT
ATOM      1  C   UNL d   1      -5.924  -3.845  -0.955  0.00  0.00    -0.033 A 
ATOM      2  C1  UNL d   1      -5.955  -3.166   0.265  0.00  0.00     0.039 A 
ATOM      3  C2  UNL d   1      -5.867  -3.875   1.464  0.00  0.00    -0.080 A 
ATOM      4  C3  UNL d   1      -5.747  -5.262   1.430  0.00  0.00     0.150 A 
ATOM      5  C4  UNL d   1      -5.711  -5.945   0.219  0.00  0.00    -0.007 A 
ATOM      6  C5  UNL d   1      -5.801  -5.235  -0.977  0.00  0.00     0.039 A 
ENDROOT
BRANCH   4   7
ATOM      7  O   UNL d   1      -5.662  -5.998   2.575  0.00  0.00    -0.526 OA
ATOM      8  H5  UNL d   1      -5.728  -5.395   3.334  0.00  0.00     0.418 HD
ENDBRANCH   4   7
TORSDOF 1
ENDMDL
