MODEL 1
REMARK minimizedAffinity 2.72167873
REMARK minimizedRMSD -1
REMARK  1 active torsions:
REMARK  status: ('A' for Active; 'I' for Inactive)
REMARK    1  A    between atoms: C3_4  and  O_7 
ROOT
ATOM      1  C   UNL d   1      -5.983  -4.041  -2.253  0.00  0.00    -0.033 A 
ATOM      2  C1  UNL d   1      -5.987  -3.720  -3.612  0.00  0.00     0.039 A 
ATOM      3  C2  UNL d   1      -5.991  -2.383  -4.015  0.00  0.00    -0.080 A 
ATOM      4  C3  UNL d   1      -5.990  -1.379  -3.051  0.00  0.00     0.150 A 
ATOM      5  C4  UNL d   1      -5.982  -1.691  -1.695  0.00  0.00    -0.007 A 
ATOM      6  C5  UNL d   1      -5.979  -3.027  -1.295  0.00  0.00     0.039 A 
ENDROOT
BRANCH   4   7
ATOM      7  O   UNL d   1      -5.998  -0.060  -3.396  0.00  0.00    -0.526 OA
ATOM      8  H5  UNL d   1      -6.033   0.004  -4.365  0.00  0.00     0.418 HD
ENDBRANCH   4   7
TORSDOF 1
ENDMDL
