MODEL 1
REMARK minimizedAffinity 10.4020615
REMARK minimizedRMSD -1
REMARK  1 active torsions:
REMARK  status: ('A' for Active; 'I' for Inactive)
REMARK    1  A    between atoms: C3_4  and  O_7 
ROOT
ATOM      1  C   UNL d   1       1.141  -0.800  -4.554  0.00  0.00    -0.033 A 
ATOM      2  C1  UNL d   1       1.966  -0.694  -3.433  0.00  0.00     0.039 A 
ATOM      3  C2  UNL d   1       1.720   0.290  -2.473  0.00  0.00    -0.080 A 
ATOM      4  C3  UNL d   1       0.646   1.159  -2.646  0.00  0.00     0.150 A 
ATOM      5  C4  UNL d   1      -0.182   1.056  -3.759  0.00  0.00    -0.007 A 
ATOM      6  C5  UNL d   1       0.066   0.074  -4.716  0.00  0.00     0.039 A 
ENDROOT
BRANCH   4   7
ATOM      7  O   UNL d   1       0.369   2.139  -1.739  0.00  0.00    -0.526 OA
ATOM      8  H5  UNL d   1       1.041   2.108  -1.038  0.00  0.00     0.418 HD
ENDBRANCH   4   7
TORSDOF 1
ENDMDL
