MODEL 1
REMARK minimizedAffinity -0.0916154906
REMARK minimizedRMSD -1
REMARK  1 active torsions:
REMARK  status: ('A' for Active; 'I' for Inactive)
REMARK    1  A    between atoms: C3_4  and  O_7 
ROOT
ATOM      1  C   UNL d   1       1.567   4.040  -5.431  0.00  0.00    -0.033 A 
ATOM      2  C1  UNL d   1       2.266   2.974  -6.000  0.00  0.00     0.039 A 
ATOM      3  C2  UNL d   1       3.647   2.869  -5.825  0.00  0.00    -0.080 A 
ATOM      4  C3  UNL d   1       4.316   3.835  -5.079  0.00  0.00     0.150 A 
ATOM      5  C4  UNL d   1       3.626   4.898  -4.506  0.00  0.00    -0.007 A 
ATOM      6  C5  UNL d   1       2.247   5.002  -4.683  0.00  0.00     0.039 A 
ENDROOT
BRANCH   4   7
ATOM      7  O   UNL d   1       5.665   3.778  -4.886  0.00  0.00    -0.526 OA
ATOM      8  H5  UNL d   1       6.012   3.006  -5.363  0.00  0.00     0.418 HD
ENDBRANCH   4   7
TORSDOF 1
ENDMDL
