MODEL 1
REMARK minimizedAffinity 9.65572357
REMARK minimizedRMSD -1
REMARK  1 active torsions:
REMARK  status: ('A' for Active; 'I' for Inactive)
REMARK    1  A    between atoms: C3_4  and  O_7 
ROOT
ATOM      1  C   UNL d   1      -1.308  -1.652  -5.446  0.00  0.00    -0.033 A 
ATOM      2  C1  UNL d   1      -0.844  -0.338  -5.353  0.00  0.00     0.039 A 
ATOM      3  C2  UNL d   1       0.127  -0.004  -4.408  0.00  0.00    -0.080 A 
ATOM      4  C3  UNL d   1       0.627  -0.991  -3.563  0.00  0.00     0.150 A 
ATOM      5  C4  UNL d   1       0.172  -2.303  -3.652  0.00  0.00    -0.007 A 
ATOM      6  C5  UNL d   1      -0.799  -2.635  -4.596  0.00  0.00     0.039 A 
ENDROOT
BRANCH   4   7
ATOM      7  O   UNL d   1       1.572  -0.712  -2.621  0.00  0.00    -0.526 OA
ATOM      8  H5  UNL d   1       1.770   0.239  -2.656  0.00  0.00     0.418 HD
ENDBRANCH   4   7
TORSDOF 1
ENDMDL
