MODEL 1
REMARK minimizedAffinity 7.23492813
REMARK minimizedRMSD -1
REMARK  1 active torsions:
REMARK  status: ('A' for Active; 'I' for Inactive)
REMARK    1  A    between atoms: C3_4  and  O_7 
ROOT
ATOM      1  C   UNL d   1      -4.146  -3.966   2.285  0.00  0.00    -0.033 A 
ATOM      2  C1  UNL d   1      -3.735  -5.300   2.280  0.00  0.00     0.039 A 
ATOM      3  C2  UNL d   1      -3.645  -6.000   1.075  0.00  0.00    -0.080 A 
ATOM      4  C3  UNL d   1      -3.967  -5.355  -0.115  0.00  0.00     0.150 A 
ATOM      5  C4  UNL d   1      -4.373  -4.024  -0.118  0.00  0.00    -0.007 A 
ATOM      6  C5  UNL d   1      -4.464  -3.327   1.086  0.00  0.00     0.039 A 
ENDROOT
BRANCH   4   7
ATOM      7  O   UNL d   1      -3.900  -5.998  -1.315  0.00  0.00    -0.526 OA
ATOM      8  H5  UNL d   1      -3.632  -6.919  -1.156  0.00  0.00     0.418 HD
ENDBRANCH   4   7
TORSDOF 1
ENDMDL
