MODEL 1
REMARK minimizedAffinity 5.46252632
REMARK minimizedRMSD -1
REMARK  1 active torsions:
REMARK  status: ('A' for Active; 'I' for Inactive)
REMARK    1  A    between atoms: C3_4  and  O_7 
ROOT
ATOM      1  C   UNL d   1      -5.999  -3.285  -3.803  0.00  0.00    -0.033 A 
ATOM      2  C1  UNL d   1      -5.920  -3.141  -5.190  0.00  0.00     0.039 A 
ATOM      3  C2  UNL d   1      -5.174  -4.048  -5.946  0.00  0.00    -0.080 A 
ATOM      4  C3  UNL d   1      -4.515  -5.093  -5.305  0.00  0.00     0.150 A 
ATOM      5  C4  UNL d   1      -4.593  -5.245  -3.924  0.00  0.00    -0.007 A 
ATOM      6  C5  UNL d   1      -5.337  -4.338  -3.171  0.00  0.00     0.039 A 
ENDROOT
BRANCH   4   7
ATOM      7  O   UNL d   1      -3.772  -6.000  -6.000  0.00  0.00    -0.526 OA
ATOM      8  H5  UNL d   1      -3.785  -5.753  -6.940  0.00  0.00     0.418 HD
ENDBRANCH   4   7
TORSDOF 1
ENDMDL
