MODEL 1
REMARK minimizedAffinity 6.0804553
REMARK minimizedRMSD -1
REMARK  1 active torsions:
REMARK  status: ('A' for Active; 'I' for Inactive)
REMARK    1  A    between atoms: C3_4  and  O_7 
ROOT
ATOM      1  C   UNL d   1       4.146   2.696  -5.938  0.00  0.00    -0.033 A 
ATOM      2  C1  UNL d   1       2.979   3.461  -5.997  0.00  0.00     0.039 A 
ATOM      3  C2  UNL d   1       2.813   4.551  -5.141  0.00  0.00    -0.080 A 
ATOM      4  C3  UNL d   1       3.821   4.867  -4.234  0.00  0.00     0.150 A 
ATOM      5  C4  UNL d   1       4.988   4.112  -4.173  0.00  0.00    -0.007 A 
ATOM      6  C5  UNL d   1       5.151   3.023  -5.027  0.00  0.00     0.039 A 
ENDROOT
BRANCH   4   7
ATOM      7  O   UNL d   1       3.703   5.920  -3.375  0.00  0.00    -0.526 OA
ATOM      8  H5  UNL d   1       2.833   6.331  -3.511  0.00  0.00     0.418 HD
ENDBRANCH   4   7
TORSDOF 1
ENDMDL
