MODEL 1
REMARK minimizedAffinity 5.32844067
REMARK minimizedRMSD -1
REMARK  1 active torsions:
REMARK  status: ('A' for Active; 'I' for Inactive)
REMARK    1  A    between atoms: C3_4  and  O_7 
ROOT
ATOM      1  C   UNL d   1       1.953   1.988  -1.341  0.00  0.00    -0.033 A 
ATOM      2  C1  UNL d   1       0.692   1.390  -1.354  0.00  0.00     0.039 A 
ATOM      3  C2  UNL d   1       0.469   0.242  -2.117  0.00  0.00    -0.080 A 
ATOM      4  C3  UNL d   1       1.514  -0.297  -2.862  0.00  0.00     0.150 A 
ATOM      5  C4  UNL d   1       2.775   0.292  -2.851  0.00  0.00    -0.007 A 
ATOM      6  C5  UNL d   1       2.995   1.438  -2.088  0.00  0.00     0.039 A 
ENDROOT
BRANCH   4   7
ATOM      7  O   UNL d   1       1.344  -1.412  -3.626  0.00  0.00    -0.526 OA
ATOM      8  H5  UNL d   1       0.416  -1.692  -3.559  0.00  0.00     0.418 HD
ENDBRANCH   4   7
TORSDOF 1
ENDMDL
