MODEL 1
REMARK minimizedAffinity 3.40235782
REMARK minimizedRMSD -1
REMARK  1 active torsions:
REMARK  status: ('A' for Active; 'I' for Inactive)
REMARK    1  A    between atoms: C3_4  and  O_7 
ROOT
ATOM      1  C   UNL d   1       0.073  -0.650  -4.096  0.00  0.00    -0.033 A 
ATOM      2  C1  UNL d   1       1.101  -1.060  -3.244  0.00  0.00     0.039 A 
ATOM      3  C2  UNL d   1       1.505  -0.240  -2.189  0.00  0.00    -0.080 A 
ATOM      4  C3  UNL d   1       0.872   0.985  -1.995  0.00  0.00     0.150 A 
ATOM      5  C4  UNL d   1      -0.155   1.398  -2.837  0.00  0.00    -0.007 A 
ATOM      6  C5  UNL d   1      -0.556   0.578  -3.891  0.00  0.00     0.039 A 
ENDROOT
BRANCH   4   7
ATOM      7  O   UNL d   1       1.234   1.822  -0.981  0.00  0.00    -0.526 OA
ATOM      8  H5  UNL d   1       1.976   1.418  -0.499  0.00  0.00     0.418 HD
ENDBRANCH   4   7
TORSDOF 1
ENDMDL
