MODEL 1
REMARK minimizedAffinity 6.43343449
REMARK minimizedRMSD -1
REMARK  1 active torsions:
REMARK  status: ('A' for Active; 'I' for Inactive)
REMARK    1  A    between atoms: C3_4  and  O_7 
ROOT
ATOM      1  C   UNL d   1       2.509   2.158  -0.764  0.00  0.00    -0.033 A 
ATOM      2  C1  UNL d   1       1.264   1.547  -0.605  0.00  0.00     0.039 A 
ATOM      3  C2  UNL d   1       0.907   0.466  -1.413  0.00  0.00    -0.080 A 
ATOM      4  C3  UNL d   1       1.803   0.006  -2.374  0.00  0.00     0.150 A 
ATOM      5  C4  UNL d   1       3.047   0.608  -2.535  0.00  0.00    -0.007 A 
ATOM      6  C5  UNL d   1       3.401   1.688  -1.728  0.00  0.00     0.039 A 
ENDROOT
BRANCH   4   7
ATOM      7  O   UNL d   1       1.497  -1.043  -3.190  0.00  0.00    -0.526 OA
ATOM      8  H5  UNL d   1       0.595  -1.340  -2.984  0.00  0.00     0.418 HD
ENDBRANCH   4   7
TORSDOF 1
ENDMDL
