MODEL 1
REMARK minimizedAffinity 7.08213711
REMARK minimizedRMSD -1
REMARK  1 active torsions:
REMARK  status: ('A' for Active; 'I' for Inactive)
REMARK    1  A    between atoms: C3_4  and  O_7 
ROOT
ATOM      1  C   UNL d   1       1.505  -0.889  -2.760  0.00  0.00    -0.033 A 
ATOM      2  C1  UNL d   1       2.452   0.002  -3.268  0.00  0.00     0.039 A 
ATOM      3  C2  UNL d   1       2.594   1.270  -2.702  0.00  0.00    -0.080 A 
ATOM      4  C3  UNL d   1       1.785   1.634  -1.629  0.00  0.00     0.150 A 
ATOM      5  C4  UNL d   1       0.842   0.750  -1.116  0.00  0.00    -0.007 A 
ATOM      6  C5  UNL d   1       0.701  -0.516  -1.683  0.00  0.00     0.039 A 
ENDROOT
BRANCH   4   7
ATOM      7  O   UNL d   1       1.884   2.863  -1.047  0.00  0.00    -0.526 OA
ATOM      8  H5  UNL d   1       2.556   3.377  -1.524  0.00  0.00     0.418 HD
ENDBRANCH   4   7
TORSDOF 1
ENDMDL
