MODEL 1
REMARK minimizedAffinity 5.9718461
REMARK minimizedRMSD -1
REMARK  1 active torsions:
REMARK  status: ('A' for Active; 'I' for Inactive)
REMARK    1  A    between atoms: C3_4  and  O_7 
ROOT
ATOM      1  C   UNL d   1      -5.931  -0.816  -2.758  0.00  0.00    -0.033 A 
ATOM      2  C1  UNL d   1      -5.948  -1.704  -1.681  0.00  0.00     0.039 A 
ATOM      3  C2  UNL d   1      -5.970  -3.081  -1.909  0.00  0.00    -0.080 A 
ATOM      4  C3  UNL d   1      -5.973  -3.557  -3.217  0.00  0.00     0.150 A 
ATOM      5  C4  UNL d   1      -5.953  -2.678  -4.296  0.00  0.00    -0.007 A 
ATOM      6  C5  UNL d   1      -5.932  -1.303  -4.066  0.00  0.00     0.039 A 
ENDROOT
BRANCH   4   7
ATOM      7  O   UNL d   1      -5.999  -4.892  -3.490  0.00  0.00    -0.526 OA
ATOM      8  H5  UNL d   1      -6.041  -5.377  -2.649  0.00  0.00     0.418 HD
ENDBRANCH   4   7
TORSDOF 1
ENDMDL
