MODEL 1
REMARK minimizedAffinity 8.38097
REMARK minimizedRMSD -1
REMARK  1 active torsions:
REMARK  status: ('A' for Active; 'I' for Inactive)
REMARK    1  A    between atoms: C3_4  and  O_7 
ROOT
ATOM      1  C   UNL d   1      -5.965  -2.086  -3.409  0.00  0.00    -0.033 A 
ATOM      2  C1  UNL d   1      -5.939  -2.333  -2.035  0.00  0.00     0.039 A 
ATOM      3  C2  UNL d   1      -5.947  -3.645  -1.559  0.00  0.00    -0.080 A 
ATOM      4  C3  UNL d   1      -5.979  -4.701  -2.467  0.00  0.00     0.150 A 
ATOM      5  C4  UNL d   1      -6.000  -4.463  -3.837  0.00  0.00    -0.007 A 
ATOM      6  C5  UNL d   1      -5.993  -3.151  -4.310  0.00  0.00     0.039 A 
ENDROOT
BRANCH   4   7
ATOM      7  O   UNL d   1      -5.992  -5.998  -2.049  0.00  0.00    -0.526 OA
ATOM      8  H5  UNL d   1      -6.004  -6.009  -1.078  0.00  0.00     0.418 HD
ENDBRANCH   4   7
TORSDOF 1
ENDMDL
