MODEL 1
REMARK minimizedAffinity 4.56714773
REMARK minimizedRMSD -1
REMARK  0 active torsions:
REMARK  status: ('A' for Active; 'I' for Inactive)
ROOT
ATOM      1  C   UNL d   1       0.709   0.951   2.836  0.00  0.00    -0.002 A 
ATOM      2  C1  UNL d   1      -0.526   1.489   3.167  0.00  0.00     0.010 A 
ATOM      3  C2  UNL d   1      -1.644   1.245   2.366  0.00  0.00     0.041 A 
ATOM      4  C3  UNL d   1      -1.498   0.442   1.218  0.00  0.00    -0.075 A 
ATOM      5  S   UNL d   1      -2.728   0.008   0.090  0.00  0.00     0.015 SA
ATOM      6  C4  UNL d   1      -1.642  -0.903  -0.856  0.00  0.00     0.022 A 
ATOM      7  C5  UNL d   1      -0.369  -0.887  -0.339  0.00  0.00     0.026 A 
ATOM      8  C6  UNL d   1      -0.265  -0.112   0.865  0.00  0.00    -0.082 A 
ATOM      9  C7  UNL d   1       0.850   0.154   1.696  0.00  0.00     0.045 A 
ENDROOT
TORSDOF 0
ENDMDL
