MODEL 1
REMARK minimizedAffinity -2.47760463
REMARK minimizedRMSD -1
REMARK  1 active torsions:
REMARK  status: ('A' for Active; 'I' for Inactive)
REMARK    1  A    between atoms: N_2  and  C1_3 
ROOT
ATOM      1  C1  UNL d   1       0.969  -0.304   0.704  0.00  0.00     0.143 A 
ATOM      2  C2  UNL d   1      -0.196   0.382   1.063  0.00  0.00    -0.057 A 
ATOM      3  C3  UNL d   1      -1.428  -0.277   1.156  0.00  0.00     0.033 A 
ATOM      4  C4  UNL d   1      -1.521  -1.633   0.863  0.00  0.00    -0.042 A 
ATOM      5  C5  UNL d   1      -0.381  -2.331   0.481  0.00  0.00     0.033 A 
ATOM      6  C6  UNL d   1       0.847  -1.668   0.396  0.00  0.00    -0.057 A 
ENDROOT
BRANCH   1   7
ATOM      7  N   UNL d   1       2.205   0.314   0.499  0.00  0.00    -0.732 N 
ATOM      8  C   UNL d   1       2.680   0.583  -0.841  0.00  0.00     0.284 C 
ATOM      9  H3  UNL d   1       2.376   1.068   1.160  0.00  0.00     0.395 HD
ENDBRANCH   1   7
TORSDOF 1
ENDMDL
