MODEL 1
REMARK minimizedAffinity -1.87062848
REMARK minimizedRMSD -1
REMARK  1 active torsions:
REMARK  status: ('A' for Active; 'I' for Inactive)
REMARK    1  A    between atoms: N_2  and  C1_3 
ROOT
ATOM      1  C1  UNL d   1       1.523  -3.208   0.024  0.00  0.00     0.143 A 
ATOM      2  C2  UNL d   1       0.157  -2.954   0.187  0.00  0.00    -0.057 A 
ATOM      3  C3  UNL d   1      -0.305  -1.695   0.591  0.00  0.00     0.033 A 
ATOM      4  C4  UNL d   1       0.597  -0.673   0.868  0.00  0.00    -0.042 A 
ATOM      5  C5  UNL d   1       1.961  -0.910   0.737  0.00  0.00     0.033 A 
ATOM      6  C6  UNL d   1       2.415  -2.167   0.326  0.00  0.00    -0.057 A 
ENDROOT
BRANCH   1   7
ATOM      7  N   UNL d   1       2.050  -4.465  -0.280  0.00  0.00    -0.732 N 
ATOM      8  C   UNL d   1       3.479  -4.692  -0.254  0.00  0.00     0.284 C 
ATOM      9  H3  UNL d   1       1.501  -5.223   0.121  0.00  0.00     0.395 HD
ENDBRANCH   1   7
TORSDOF 1
ENDMDL
