MODEL 1
REMARK minimizedAffinity 8.87426567
REMARK minimizedRMSD -1
REMARK  1 active torsions:
REMARK  status: ('A' for Active; 'I' for Inactive)
REMARK    1  A    between atoms: N_2  and  C1_3 
ROOT
ATOM      1  C1  UNL d   1       4.047   2.990  -2.270  0.00  0.00     0.143 A 
ATOM      2  C2  UNL d   1       3.244   3.551  -1.270  0.00  0.00    -0.057 A 
ATOM      3  C3  UNL d   1       3.634   4.714  -0.595  0.00  0.00     0.033 A 
ATOM      4  C4  UNL d   1       4.850   5.321  -0.888  0.00  0.00    -0.042 A 
ATOM      5  C5  UNL d   1       5.675   4.767  -1.860  0.00  0.00     0.033 A 
ATOM      6  C6  UNL d   1       5.278   3.609  -2.536  0.00  0.00    -0.057 A 
ENDROOT
BRANCH   1   7
ATOM      7  N   UNL d   1       3.761   1.780  -2.909  0.00  0.00    -0.732 N 
ATOM      8  C   UNL d   1       2.427   1.500  -3.394  0.00  0.00     0.284 C 
ATOM      9  H3  UNL d   1       4.504   1.491  -3.542  0.00  0.00     0.395 HD
ENDBRANCH   1   7
TORSDOF 1
ENDMDL
