MODEL 1
REMARK minimizedAffinity -1.05363333
REMARK minimizedRMSD -1
REMARK  1 active torsions:
REMARK  status: ('A' for Active; 'I' for Inactive)
REMARK    1  A    between atoms: N_2  and  C1_3 
ROOT
ATOM      1  C1  UNL d   1       4.372   2.554  -3.053  0.00  0.00     0.143 A 
ATOM      2  C2  UNL d   1       4.467   1.158  -3.052  0.00  0.00    -0.057 A 
ATOM      3  C3  UNL d   1       3.495   0.364  -3.671  0.00  0.00     0.033 A 
ATOM      4  C4  UNL d   1       2.392   0.953  -4.280  0.00  0.00    -0.042 A 
ATOM      5  C5  UNL d   1       2.264   2.337  -4.271  0.00  0.00     0.033 A 
ATOM      6  C6  UNL d   1       3.241   3.126  -3.657  0.00  0.00    -0.057 A 
ENDROOT
BRANCH   1   7
ATOM      7  N   UNL d   1       5.255   3.394  -2.369  0.00  0.00    -0.732 N 
ATOM      8  C   UNL d   1       4.814   4.139  -1.209  0.00  0.00     0.284 C 
ATOM      9  H3  UNL d   1       6.183   2.988  -2.275  0.00  0.00     0.395 HD
ENDBRANCH   1   7
TORSDOF 1
ENDMDL
