MODEL 1
REMARK minimizedAffinity 0.156441569
REMARK minimizedRMSD -1
REMARK  1 active torsions:
REMARK  status: ('A' for Active; 'I' for Inactive)
REMARK    1  A    between atoms: N_2  and  C1_3 
ROOT
ATOM      1  C1  UNL d   1      -0.559  -0.763   1.015  0.00  0.00     0.143 A 
ATOM      2  C2  UNL d   1      -0.302  -1.589  -0.084  0.00  0.00    -0.057 A 
ATOM      3  C3  UNL d   1       0.989  -1.717  -0.611  0.00  0.00     0.033 A 
ATOM      4  C4  UNL d   1       2.044  -0.994  -0.064  0.00  0.00    -0.042 A 
ATOM      5  C5  UNL d   1       1.807  -0.147   1.013  0.00  0.00     0.033 A 
ATOM      6  C6  UNL d   1       0.517  -0.030   1.539  0.00  0.00    -0.057 A 
ENDROOT
BRANCH   1   7
ATOM      7  N   UNL d   1      -1.837  -0.518   1.522  0.00  0.00    -0.732 N 
ATOM      8  C   UNL d   1      -2.069   0.575   2.441  0.00  0.00     0.284 C 
ATOM      9  H3  UNL d   1      -2.563  -0.630   0.818  0.00  0.00     0.395 HD
ENDBRANCH   1   7
TORSDOF 1
ENDMDL
