MODEL 1
REMARK minimizedAffinity -1.35277939
REMARK minimizedRMSD -1
REMARK  1 active torsions:
REMARK  status: ('A' for Active; 'I' for Inactive)
REMARK    1  A    between atoms: N_2  and  C1_3 
ROOT
ATOM      1  C1  UNL d   1       1.962  -3.112  -0.286  0.00  0.00     0.143 A 
ATOM      2  C2  UNL d   1       0.588  -3.216  -0.046  0.00  0.00    -0.057 A 
ATOM      3  C3  UNL d   1      -0.170  -2.101   0.331  0.00  0.00     0.033 A 
ATOM      4  C4  UNL d   1       0.441  -0.863   0.503  0.00  0.00    -0.042 A 
ATOM      5  C5  UNL d   1       1.810  -0.742   0.294  0.00  0.00     0.033 A 
ATOM      6  C6  UNL d   1       2.560  -1.858  -0.088  0.00  0.00    -0.057 A 
ENDROOT
BRANCH   1   7
ATOM      7  N   UNL d   1       2.787  -4.204  -0.567  0.00  0.00    -0.732 N 
ATOM      8  C   UNL d   1       4.220  -4.110  -0.388  0.00  0.00     0.284 C 
ATOM      9  H3  UNL d   1       2.386  -5.085  -0.254  0.00  0.00     0.395 HD
ENDBRANCH   1   7
TORSDOF 1
ENDMDL
