MODEL 1
REMARK minimizedAffinity 2.44560266
REMARK minimizedRMSD -1
REMARK  1 active torsions:
REMARK  status: ('A' for Active; 'I' for Inactive)
REMARK    1  A    between atoms: N_2  and  C1_3 
ROOT
ATOM      1  C1  UNL d   1       1.917  -0.844   1.209  0.00  0.00     0.143 A 
ATOM      2  C2  UNL d   1       1.709  -1.988   0.432  0.00  0.00    -0.057 A 
ATOM      3  C3  UNL d   1       0.442  -2.301  -0.076  0.00  0.00     0.033 A 
ATOM      4  C4  UNL d   1      -0.649  -1.486   0.210  0.00  0.00    -0.042 A 
ATOM      5  C5  UNL d   1      -0.470  -0.357   1.002  0.00  0.00     0.033 A 
ATOM      6  C6  UNL d   1       0.799  -0.047   1.500  0.00  0.00    -0.057 A 
ENDROOT
BRANCH   1   7
ATOM      7  N   UNL d   1       3.132  -0.532   1.824  0.00  0.00    -0.732 N 
ATOM      8  C   UNL d   1       4.344  -1.234   1.460  0.00  0.00     0.284 C 
ATOM      9  H3  UNL d   1       3.255   0.470   1.955  0.00  0.00     0.395 HD
ENDBRANCH   1   7
TORSDOF 1
ENDMDL
