MODEL 1
REMARK minimizedAffinity 1.20815241
REMARK minimizedRMSD -1
REMARK  1 active torsions:
REMARK  status: ('A' for Active; 'I' for Inactive)
REMARK    1  A    between atoms: N_2  and  C1_3 
ROOT
ATOM      1  C1  UNL d   1      -1.175  -0.573   1.331  0.00  0.00     0.143 A 
ATOM      2  C2  UNL d   1      -1.211   0.691   1.929  0.00  0.00    -0.057 A 
ATOM      3  C3  UNL d   1      -2.294   1.556   1.734  0.00  0.00     0.033 A 
ATOM      4  C4  UNL d   1      -3.351   1.182   0.911  0.00  0.00    -0.042 A 
ATOM      5  C5  UNL d   1      -3.325  -0.060   0.286  0.00  0.00     0.033 A 
ATOM      6  C6  UNL d   1      -2.243  -0.922   0.491  0.00  0.00    -0.057 A 
ENDROOT
BRANCH   1   7
ATOM      7  N   UNL d   1      -0.081  -1.439   1.407  0.00  0.00    -0.732 N 
ATOM      8  C   UNL d   1       0.200  -2.368   0.334  0.00  0.00     0.284 C 
ATOM      9  H3  UNL d   1       0.745  -0.988   1.794  0.00  0.00     0.395 HD
ENDBRANCH   1   7
TORSDOF 1
ENDMDL
