MODEL 1
REMARK minimizedAffinity -1.6366359
REMARK minimizedRMSD -1
REMARK  1 active torsions:
REMARK  status: ('A' for Active; 'I' for Inactive)
REMARK    1  A    between atoms: N_2  and  C1_3 
ROOT
ATOM      1  C1  UNL d   1      -0.073  -1.331   0.438  0.00  0.00     0.143 A 
ATOM      2  C2  UNL d   1       0.219  -2.622  -0.017  0.00  0.00    -0.057 A 
ATOM      3  C3  UNL d   1       1.538  -3.029  -0.248  0.00  0.00     0.033 A 
ATOM      4  C4  UNL d   1       2.591  -2.141  -0.054  0.00  0.00    -0.042 A 
ATOM      5  C5  UNL d   1       2.323  -0.846   0.374  0.00  0.00     0.033 A 
ATOM      6  C6  UNL d   1       1.003  -0.447   0.609  0.00  0.00    -0.057 A 
ENDROOT
BRANCH   1   7
ATOM      7  N   UNL d   1      -1.370  -0.835   0.592  0.00  0.00    -0.732 N 
ATOM      8  C   UNL d   1      -1.607   0.397   1.312  0.00  0.00     0.284 C 
ATOM      9  H3  UNL d   1      -1.927  -0.936  -0.254  0.00  0.00     0.395 HD
ENDBRANCH   1   7
TORSDOF 1
ENDMDL
