MODEL 1
REMARK minimizedAffinity 2.60575128
REMARK minimizedRMSD -1
REMARK  1 active torsions:
REMARK  status: ('A' for Active; 'I' for Inactive)
REMARK    1  A    between atoms: N_2  and  C1_3 
ROOT
ATOM      1  C1  UNL d   1       0.054   5.246  -3.690  0.00  0.00     0.143 A 
ATOM      2  C2  UNL d   1       0.453   5.756  -4.930  0.00  0.00    -0.057 A 
ATOM      3  C3  UNL d   1       1.514   5.184  -5.643  0.00  0.00     0.033 A 
ATOM      4  C4  UNL d   1       2.215   4.107  -5.112  0.00  0.00    -0.042 A 
ATOM      5  C5  UNL d   1       1.852   3.599  -3.870  0.00  0.00     0.033 A 
ATOM      6  C6  UNL d   1       0.788   4.170  -3.166  0.00  0.00    -0.057 A 
ENDROOT
BRANCH   1   7
ATOM      7  N   UNL d   1      -0.929   5.832  -2.888  0.00  0.00    -0.732 N 
ATOM      8  C   UNL d   1      -0.716   6.000  -1.466  0.00  0.00     0.284 C 
ATOM      9  H3  UNL d   1      -1.375   6.627  -3.338  0.00  0.00     0.395 HD
ENDBRANCH   1   7
TORSDOF 1
ENDMDL
