MODEL 1
REMARK minimizedAffinity -1.96056819
REMARK minimizedRMSD -1
REMARK  1 active torsions:
REMARK  status: ('A' for Active; 'I' for Inactive)
REMARK    1  A    between atoms: N_2  and  C1_3 
ROOT
ATOM      1  C1  UNL d   1      -0.495  -1.284   0.643  0.00  0.00     0.143 A 
ATOM      2  C2  UNL d   1      -0.300  -2.579   0.150  0.00  0.00    -0.057 A 
ATOM      3  C3  UNL d   1       0.970  -3.024  -0.239  0.00  0.00     0.033 A 
ATOM      4  C4  UNL d   1       2.065  -2.169  -0.167  0.00  0.00    -0.042 A 
ATOM      5  C5  UNL d   1       1.890  -0.870   0.296  0.00  0.00     0.033 A 
ATOM      6  C6  UNL d   1       0.620  -0.434   0.689  0.00  0.00    -0.057 A 
ENDROOT
BRANCH   1   7
ATOM      7  N   UNL d   1      -1.749  -0.751   0.952  0.00  0.00    -0.732 N 
ATOM      8  C   UNL d   1      -1.868   0.387   1.838  0.00  0.00     0.284 C 
ATOM      9  H3  UNL d   1      -2.366  -0.715   0.143  0.00  0.00     0.395 HD
ENDBRANCH   1   7
TORSDOF 1
ENDMDL
