MODEL 1
REMARK minimizedAffinity -1.19046569
REMARK minimizedRMSD -1
REMARK  1 active torsions:
REMARK  status: ('A' for Active; 'I' for Inactive)
REMARK    1  A    between atoms: N_2  and  C1_3 
ROOT
ATOM      1  C1  UNL d   1      -0.167  -1.001   1.304  0.00  0.00     0.143 A 
ATOM      2  C2  UNL d   1      -0.260  -2.194   0.578  0.00  0.00    -0.057 A 
ATOM      3  C3  UNL d   1       0.829  -2.688  -0.150  0.00  0.00     0.033 A 
ATOM      4  C4  UNL d   1       2.026  -1.980  -0.189  0.00  0.00    -0.042 A 
ATOM      5  C5  UNL d   1       2.133  -0.780   0.504  0.00  0.00     0.033 A 
ATOM      6  C6  UNL d   1       1.044  -0.295   1.235  0.00  0.00    -0.057 A 
ENDROOT
BRANCH   1   7
ATOM      7  N   UNL d   1      -1.244  -0.408   1.967  0.00  0.00    -0.732 N 
ATOM      8  C   UNL d   1      -1.885   0.770   1.424  0.00  0.00     0.284 C 
ATOM      9  H3  UNL d   1      -1.890  -1.094   2.349  0.00  0.00     0.395 HD
ENDBRANCH   1   7
TORSDOF 1
ENDMDL
