MODEL 1
REMARK minimizedAffinity -0.916150093
REMARK minimizedRMSD -1
REMARK  1 active torsions:
REMARK  status: ('A' for Active; 'I' for Inactive)
REMARK    1  A    between atoms: N_2  and  C1_3 
ROOT
ATOM      1  C1  UNL d   1       1.122   4.469  -4.577  0.00  0.00     0.143 A 
ATOM      2  C2  UNL d   1       0.467   4.500  -3.341  0.00  0.00    -0.057 A 
ATOM      3  C3  UNL d   1      -0.706   5.243  -3.159  0.00  0.00     0.033 A 
ATOM      4  C4  UNL d   1      -1.229   5.995  -4.206  0.00  0.00    -0.042 A 
ATOM      5  C5  UNL d   1      -0.580   6.000  -5.436  0.00  0.00     0.033 A 
ATOM      6  C6  UNL d   1       0.587   5.250  -5.613  0.00  0.00    -0.057 A 
ENDROOT
BRANCH   1   7
ATOM      7  N   UNL d   1       2.345   3.829  -4.793  0.00  0.00    -0.732 N 
ATOM      8  C   UNL d   1       2.949   3.023  -3.754  0.00  0.00     0.284 C 
ATOM      9  H3  UNL d   1       2.412   3.424  -5.724  0.00  0.00     0.395 HD
ENDBRANCH   1   7
TORSDOF 1
ENDMDL
