MODEL 1
REMARK minimizedAffinity -0.122776635
REMARK minimizedRMSD -1
REMARK  1 active torsions:
REMARK  status: ('A' for Active; 'I' for Inactive)
REMARK    1  A    between atoms: N_2  and  C1_3 
ROOT
ATOM      1  C1  UNL d   1      -0.546  -0.712   1.634  0.00  0.00     0.143 A 
ATOM      2  C2  UNL d   1      -0.618   0.439   2.426  0.00  0.00    -0.057 A 
ATOM      3  C3  UNL d   1      -1.716   1.304   2.351  0.00  0.00     0.033 A 
ATOM      4  C4  UNL d   1      -2.751   1.048   1.458  0.00  0.00    -0.042 A 
ATOM      5  C5  UNL d   1      -2.689  -0.077   0.643  0.00  0.00     0.033 A 
ATOM      6  C6  UNL d   1      -1.593  -0.941   0.728  0.00  0.00    -0.057 A 
ENDROOT
BRANCH   1   7
ATOM      7  N   UNL d   1       0.565  -1.559   1.592  0.00  0.00    -0.732 N 
ATOM      8  C   UNL d   1       0.689  -2.561   0.555  0.00  0.00     0.284 C 
ATOM      9  H3  UNL d   1       1.432  -1.073   1.807  0.00  0.00     0.395 HD
ENDBRANCH   1   7
TORSDOF 1
ENDMDL
