MODEL 1
REMARK minimizedAffinity 1.18336368
REMARK minimizedRMSD -1
REMARK  1 active torsions:
REMARK  status: ('A' for Active; 'I' for Inactive)
REMARK    1  A    between atoms: N_2  and  C1_3 
ROOT
ATOM      1  C1  UNL d   1       2.955  -2.001   0.278  0.00  0.00     0.143 A 
ATOM      2  C2  UNL d   1       3.421  -3.228  -0.208  0.00  0.00    -0.057 A 
ATOM      3  C3  UNL d   1       2.541  -4.284  -0.475  0.00  0.00     0.033 A 
ATOM      4  C4  UNL d   1       1.179  -4.141  -0.233  0.00  0.00    -0.042 A 
ATOM      5  C5  UNL d   1       0.697  -2.939   0.274  0.00  0.00     0.033 A 
ATOM      6  C6  UNL d   1       1.579  -1.886   0.533  0.00  0.00    -0.057 A 
ENDROOT
BRANCH   1   7
ATOM      7  N   UNL d   1       3.790  -0.947   0.657  0.00  0.00    -0.732 N 
ATOM      8  C   UNL d   1       3.748  -0.421   2.004  0.00  0.00     0.284 C 
ATOM      9  H3  UNL d   1       4.728  -1.038   0.275  0.00  0.00     0.395 HD
ENDBRANCH   1   7
TORSDOF 1
ENDMDL
