MODEL 1
REMARK minimizedAffinity 5.86694288
REMARK minimizedRMSD -1
REMARK  1 active torsions:
REMARK  status: ('A' for Active; 'I' for Inactive)
REMARK    1  A    between atoms: N_2  and  C1_3 
ROOT
ATOM      1  C1  UNL d   1       1.424  -1.627   4.223  0.00  0.00     0.143 A 
ATOM      2  C2  UNL d   1       2.171  -0.484   3.917  0.00  0.00    -0.057 A 
ATOM      3  C3  UNL d   1       1.585   0.618   3.284  0.00  0.00     0.033 A 
ATOM      4  C4  UNL d   1       0.243   0.586   2.918  0.00  0.00    -0.042 A 
ATOM      5  C5  UNL d   1      -0.512  -0.549   3.191  0.00  0.00     0.033 A 
ATOM      6  C6  UNL d   1       0.077  -1.644   3.829  0.00  0.00    -0.057 A 
ENDROOT
BRANCH   1   7
ATOM      7  N   UNL d   1       1.972  -2.793   4.763  0.00  0.00    -0.732 N 
ATOM      8  C   UNL d   1       3.092  -2.726   5.678  0.00  0.00     0.284 C 
ATOM      9  H3  UNL d   1       1.261  -3.471   5.025  0.00  0.00     0.395 HD
ENDBRANCH   1   7
TORSDOF 1
ENDMDL
