MODEL 1
REMARK minimizedAffinity 6.53595924
REMARK minimizedRMSD -1
REMARK  1 active torsions:
REMARK  status: ('A' for Active; 'I' for Inactive)
REMARK    1  A    between atoms: N_2  and  C1_3 
ROOT
ATOM      1  C1  UNL d   1       2.103  -0.025   1.414  0.00  0.00     0.143 A 
ATOM      2  C2  UNL d   1       3.291  -0.743   1.240  0.00  0.00    -0.057 A 
ATOM      3  C3  UNL d   1       3.997  -0.695   0.032  0.00  0.00     0.033 A 
ATOM      4  C4  UNL d   1       3.511   0.051  -1.037  0.00  0.00    -0.042 A 
ATOM      5  C5  UNL d   1       2.319   0.752  -0.895  0.00  0.00     0.033 A 
ATOM      6  C6  UNL d   1       1.622   0.707   0.316  0.00  0.00    -0.057 A 
ENDROOT
BRANCH   1   7
ATOM      7  N   UNL d   1       1.304  -0.109   2.556  0.00  0.00    -0.732 N 
ATOM      8  C   UNL d   1       1.874  -0.497   3.828  0.00  0.00     0.284 C 
ATOM      9  H3  UNL d   1       0.632   0.653   2.617  0.00  0.00     0.395 HD
ENDBRANCH   1   7
TORSDOF 1
ENDMDL
