MODEL 1
REMARK minimizedAffinity 10.6343212
REMARK minimizedRMSD -1
REMARK  1 active torsions:
REMARK  status: ('A' for Active; 'I' for Inactive)
REMARK    1  A    between atoms: N_2  and  C1_3 
ROOT
ATOM      1  C1  UNL d   1       3.368   3.688   5.346  0.00  0.00     0.143 A 
ATOM      2  C2  UNL d   1       3.738   4.328   4.158  0.00  0.00    -0.057 A 
ATOM      3  C3  UNL d   1       5.017   4.163   3.613  0.00  0.00     0.033 A 
ATOM      4  C4  UNL d   1       5.961   3.376   4.263  0.00  0.00    -0.042 A 
ATOM      5  C5  UNL d   1       5.624   2.751   5.458  0.00  0.00     0.033 A 
ATOM      6  C6  UNL d   1       4.343   2.913   5.995  0.00  0.00    -0.057 A 
ENDROOT
BRANCH   1   7
ATOM      7  N   UNL d   1       2.145   3.890   5.990  0.00  0.00    -0.732 N 
ATOM      8  C   UNL d   1       1.101   2.890   5.920  0.00  0.00     0.284 C 
ATOM      9  H3  UNL d   1       2.256   4.312   6.910  0.00  0.00     0.395 HD
ENDBRANCH   1   7
TORSDOF 1
ENDMDL
