MODEL 1
REMARK minimizedAffinity 5.06014919
REMARK minimizedRMSD -1
REMARK  1 active torsions:
REMARK  status: ('A' for Active; 'I' for Inactive)
REMARK    1  A    between atoms: N_2  and  C1_3 
ROOT
ATOM      1  C1  UNL d   1      -5.770   3.310  -0.593  0.00  0.00     0.143 A 
ATOM      2  C2  UNL d   1      -5.954   3.627   0.757  0.00  0.00    -0.057 A 
ATOM      3  C3  UNL d   1      -6.000   4.958   1.191  0.00  0.00     0.033 A 
ATOM      4  C4  UNL d   1      -5.833   5.998   0.283  0.00  0.00    -0.042 A 
ATOM      5  C5  UNL d   1      -5.623   5.706  -1.061  0.00  0.00     0.033 A 
ATOM      6  C6  UNL d   1      -5.585   4.375  -1.489  0.00  0.00    -0.057 A 
ENDROOT
BRANCH   1   7
ATOM      7  N   UNL d   1      -5.616   2.007  -1.072  0.00  0.00    -0.732 N 
ATOM      8  C   UNL d   1      -4.545   1.164  -0.586  0.00  0.00     0.284 C 
ATOM      9  H3  UNL d   1      -6.506   1.526  -1.182  0.00  0.00     0.395 HD
ENDBRANCH   1   7
TORSDOF 1
ENDMDL
