MODEL 1
REMARK minimizedAffinity -3.12459612
REMARK minimizedRMSD -1
REMARK  0 active torsions:
REMARK  status: ('A' for Active; 'I' for Inactive)
ROOT
ATOM      1  C   UNL d   1      -0.814   0.588  -0.392  0.00  0.00     0.078 C 
ATOM      2  C1  UNL d   1       0.402  -0.207  -0.020  0.00  0.00    -0.077 A 
ATOM      3  C2  UNL d   1       0.996  -0.068   1.241  0.00  0.00    -0.001 A 
ATOM      4  C3  UNL d   1       2.133  -0.808   1.571  0.00  0.00     0.003 A 
ATOM      5  C4  UNL d   1       2.687  -1.690   0.645  0.00  0.00    -0.005 A 
ATOM      6  C5  UNL d   1       2.104  -1.833  -0.612  0.00  0.00     0.003 A 
ATOM      7  C6  UNL d   1       0.967  -1.095  -0.944  0.00  0.00    -0.001 A 
ENDROOT
TORSDOF 0
ENDMDL
