MODEL 1
REMARK minimizedAffinity -1.96450531
REMARK minimizedRMSD -1
REMARK  0 active torsions:
REMARK  status: ('A' for Active; 'I' for Inactive)
ROOT
ATOM      1  C   UNL d   1      -2.058   0.732   0.071  0.00  0.00     0.078 C 
ATOM      2  C1  UNL d   1      -0.717   0.062   0.091  0.00  0.00    -0.077 A 
ATOM      3  C2  UNL d   1      -0.359  -0.866  -0.895  0.00  0.00    -0.001 A 
ATOM      4  C3  UNL d   1       0.889  -1.489  -0.858  0.00  0.00     0.003 A 
ATOM      5  C4  UNL d   1       1.789  -1.193   0.163  0.00  0.00    -0.005 A 
ATOM      6  C5  UNL d   1       1.441  -0.274   1.151  0.00  0.00     0.003 A 
ATOM      7  C6  UNL d   1       0.193   0.351   1.115  0.00  0.00    -0.001 A 
ENDROOT
TORSDOF 0
ENDMDL
