MODEL 1
REMARK minimizedAffinity -4.95786095
REMARK minimizedRMSD -1
REMARK  0 active torsions:
REMARK  status: ('A' for Active; 'I' for Inactive)
ROOT
ATOM      1  C   UNL d   1       3.021  -0.988   1.106  0.00  0.00     0.078 C 
ATOM      2  C1  UNL d   1       1.732  -0.746   0.379  0.00  0.00    -0.077 A 
ATOM      3  C2  UNL d   1       1.273   0.554   0.138  0.00  0.00    -0.001 A 
ATOM      4  C3  UNL d   1       0.066   0.765  -0.531  0.00  0.00     0.003 A 
ATOM      5  C4  UNL d   1      -0.692  -0.321  -0.963  0.00  0.00    -0.005 A 
ATOM      6  C5  UNL d   1      -0.245  -1.619  -0.726  0.00  0.00     0.003 A 
ATOM      7  C6  UNL d   1       0.961  -1.832  -0.057  0.00  0.00    -0.001 A 
ENDROOT
TORSDOF 0
ENDMDL
