MODEL 1
REMARK minimizedAffinity -4.3341217
REMARK minimizedRMSD -1
REMARK  0 active torsions:
REMARK  status: ('A' for Active; 'I' for Inactive)
ROOT
ATOM      1  C   UNL d   1      -1.296   0.513   0.391  0.00  0.00     0.078 C 
ATOM      2  C1  UNL d   1       0.003  -0.236   0.377  0.00  0.00    -0.077 A 
ATOM      3  C2  UNL d   1       0.220  -1.285  -0.524  0.00  0.00    -0.001 A 
ATOM      4  C3  UNL d   1       1.430  -1.981  -0.520  0.00  0.00     0.003 A 
ATOM      5  C4  UNL d   1       2.432  -1.635   0.385  0.00  0.00    -0.005 A 
ATOM      6  C5  UNL d   1       2.224  -0.594   1.287  0.00  0.00     0.003 A 
ATOM      7  C6  UNL d   1       1.015   0.102   1.284  0.00  0.00    -0.001 A 
ENDROOT
TORSDOF 0
ENDMDL
