MODEL 1
REMARK minimizedAffinity -4.71773148
REMARK minimizedRMSD -1
REMARK  0 active torsions:
REMARK  status: ('A' for Active; 'I' for Inactive)
ROOT
ATOM      1  C   UNL d   1      -1.011   0.452  -0.213  0.00  0.00     0.078 C 
ATOM      2  C1  UNL d   1       0.298  -0.255  -0.019  0.00  0.00    -0.077 A 
ATOM      3  C2  UNL d   1       1.222   0.188   0.935  0.00  0.00    -0.001 A 
ATOM      4  C3  UNL d   1       2.440  -0.473   1.098  0.00  0.00     0.003 A 
ATOM      5  C4  UNL d   1       2.746  -1.581   0.310  0.00  0.00    -0.005 A 
ATOM      6  C5  UNL d   1       1.833  -2.029  -0.643  0.00  0.00     0.003 A 
ATOM      7  C6  UNL d   1       0.614  -1.368  -0.808  0.00  0.00    -0.001 A 
ENDROOT
TORSDOF 0
ENDMDL
