MODEL 1
REMARK minimizedAffinity -5.84703207
REMARK minimizedRMSD -1
REMARK  0 active torsions:
REMARK  status: ('A' for Active; 'I' for Inactive)
ROOT
ATOM      1  C   UNL d   1       3.230  -1.082   0.773  0.00  0.00     0.078 C 
ATOM      2  C1  UNL d   1       2.053  -0.209   0.453  0.00  0.00    -0.077 A 
ATOM      3  C2  UNL d   1       2.157   1.186   0.498  0.00  0.00    -0.001 A 
ATOM      4  C3  UNL d   1       1.050   1.986   0.207  0.00  0.00     0.003 A 
ATOM      5  C4  UNL d   1      -0.168   1.399  -0.129  0.00  0.00    -0.005 A 
ATOM      6  C5  UNL d   1      -0.281   0.011  -0.174  0.00  0.00     0.003 A 
ATOM      7  C6  UNL d   1       0.824  -0.790   0.117  0.00  0.00    -0.001 A 
ENDROOT
TORSDOF 0
ENDMDL
