MODEL 1
REMARK minimizedAffinity -4.38053274
REMARK minimizedRMSD -1
REMARK  0 active torsions:
REMARK  status: ('A' for Active; 'I' for Inactive)
ROOT
ATOM      1  C   UNL d   1       2.794  -1.214   0.885  0.00  0.00     0.078 C 
ATOM      2  C1  UNL d   1       1.503  -0.699   0.324  0.00  0.00    -0.077 A 
ATOM      3  C2  UNL d   1       1.125   0.639   0.495  0.00  0.00    -0.001 A 
ATOM      4  C3  UNL d   1      -0.085   1.102  -0.024  0.00  0.00     0.003 A 
ATOM      5  C4  UNL d   1      -0.927   0.235  -0.717  0.00  0.00    -0.005 A 
ATOM      6  C5  UNL d   1      -0.561  -1.098  -0.890  0.00  0.00     0.003 A 
ATOM      7  C6  UNL d   1       0.649  -1.564  -0.372  0.00  0.00    -0.001 A 
ENDROOT
TORSDOF 0
ENDMDL
