MODEL 1
REMARK minimizedAffinity 1.59912515
REMARK minimizedRMSD -1
REMARK  0 active torsions:
REMARK  status: ('A' for Active; 'I' for Inactive)
ROOT
ATOM      1  N1  IND d   1       2.116  -1.928  -0.958  0.00  0.00    -0.196 N 
ATOM      2  C2  IND d   1       3.357  -1.803  -1.517  0.00  0.00     0.054 A 
ATOM      3  C3  IND d   1       3.751  -0.509  -1.502  0.00  0.00    -0.031 A 
ATOM      4  C4  IND d   1       2.563   1.551  -0.517  0.00  0.00     0.051 A 
ATOM      5  C5  IND d   1       1.389   1.942   0.065  0.00  0.00    -0.031 A 
ATOM      6  C6  IND d   1       0.379   1.044   0.344  0.00  0.00     0.015 A 
ATOM      7  C7  IND d   1       0.510  -0.286   0.060  0.00  0.00    -0.016 A 
ATOM      8  C8  IND d   1       1.697  -0.685  -0.537  0.00  0.00    -0.047 A 
ATOM      9  C9  IND d   1       2.708   0.228  -0.862  0.00  0.00    -0.096 A 
ATOM     10  HN1 IND d   1       1.672  -2.661  -0.882  0.00  0.00     0.298 HD
ENDROOT
TORSDOF 0
ENDMDL
