MODEL 1
REMARK minimizedAffinity 1.18547118
REMARK minimizedRMSD -1
REMARK  0 active torsions:
REMARK  status: ('A' for Active; 'I' for Inactive)
ROOT
ATOM      1  N1  IND d   1      -2.243   2.619  -5.920  0.00  0.00    -0.196 N 
ATOM      2  C2  IND d   1      -3.109   3.677  -5.935  0.00  0.00     0.054 A 
ATOM      3  C3  IND d   1      -4.386   3.239  -5.993  0.00  0.00    -0.031 A 
ATOM      4  C4  IND d   1      -5.292   0.829  -5.969  0.00  0.00     0.051 A 
ATOM      5  C5  IND d   1      -4.884  -0.475  -5.998  0.00  0.00    -0.031 A 
ATOM      6  C6  IND d   1      -3.549  -0.822  -6.000  0.00  0.00     0.015 A 
ATOM      7  C7  IND d   1      -2.566   0.127  -5.961  0.00  0.00    -0.016 A 
ATOM      8  C8  IND d   1      -2.976   1.453  -5.939  0.00  0.00    -0.047 A 
ATOM      9  C9  IND d   1      -4.330   1.812  -5.980  0.00  0.00    -0.096 A 
ATOM     10  HN1 IND d   1      -1.385   2.673  -5.902  0.00  0.00     0.298 HD
ENDROOT
TORSDOF 0
ENDMDL
