MODEL 1
REMARK minimizedAffinity 6.79929781
REMARK minimizedRMSD -1
REMARK  0 active torsions:
REMARK  status: ('A' for Active; 'I' for Inactive)
ROOT
ATOM      1  N1  IND d   1       1.826   0.698   0.508  0.00  0.00    -0.196 N 
ATOM      2  C2  IND d   1       0.475   0.858   0.376  0.00  0.00     0.054 A 
ATOM      3  C3  IND d   1       0.057   0.372  -0.815  0.00  0.00    -0.031 A 
ATOM      4  C4  IND d   1       1.404  -0.820  -2.657  0.00  0.00     0.051 A 
ATOM      5  C5  IND d   1       2.679  -1.167  -3.006  0.00  0.00    -0.031 A 
ATOM      6  C6  IND d   1       3.756  -0.907  -2.184  0.00  0.00     0.015 A 
ATOM      7  C7  IND d   1       3.596  -0.298  -0.972  0.00  0.00    -0.016 A 
ATOM      8  C8  IND d   1       2.304   0.062  -0.617  0.00  0.00    -0.047 A 
ATOM      9  C9  IND d   1       1.212  -0.161  -1.466  0.00  0.00    -0.096 A 
ATOM     10  HN1 IND d   1       2.298   0.952   1.180  0.00  0.00     0.298 HD
ENDROOT
TORSDOF 0
ENDMDL
