MODEL 1
REMARK minimizedAffinity -3.0627532
REMARK minimizedRMSD -1
REMARK  0 active torsions:
REMARK  status: ('A' for Active; 'I' for Inactive)
ROOT
ATOM      1  N1  IND d   1       1.735   0.644   0.341  0.00  0.00    -0.196 N 
ATOM      2  C2  IND d   1       0.440   0.659  -0.096  0.00  0.00     0.054 A 
ATOM      3  C3  IND d   1       0.369   0.219  -1.373  0.00  0.00    -0.031 A 
ATOM      4  C4  IND d   1       2.238  -0.675  -2.901  0.00  0.00     0.051 A 
ATOM      5  C5  IND d   1       3.592  -0.849  -2.957  0.00  0.00    -0.031 A 
ATOM      6  C6  IND d   1       4.413  -0.530  -1.895  0.00  0.00     0.015 A 
ATOM      7  C7  IND d   1       3.907  -0.034  -0.727  0.00  0.00    -0.016 A 
ATOM      8  C8  IND d   1       2.533   0.150  -0.669  0.00  0.00    -0.047 A 
ATOM      9  C9  IND d   1       1.699  -0.131  -1.759  0.00  0.00    -0.096 A 
ATOM     10  HN1 IND d   1       2.006   0.899   1.116  0.00  0.00     0.298 HD
ENDROOT
TORSDOF 0
ENDMDL
