MODEL 1
REMARK minimizedAffinity 0.504160821
REMARK minimizedRMSD -1
REMARK  0 active torsions:
REMARK  status: ('A' for Active; 'I' for Inactive)
ROOT
ATOM      1  N1  IND d   1      -1.958   2.962  -5.973  0.00  0.00    -0.196 N 
ATOM      2  C2  IND d   1      -1.928   1.595  -5.942  0.00  0.00     0.054 A 
ATOM      3  C3  IND d   1      -3.185   1.098  -5.908  0.00  0.00    -0.031 A 
ATOM      4  C4  IND d   1      -5.438   2.340  -6.000  0.00  0.00     0.051 A 
ATOM      5  C5  IND d   1      -5.977   3.596  -5.997  0.00  0.00    -0.031 A 
ATOM      6  C6  IND d   1      -5.187   4.728  -5.989  0.00  0.00     0.015 A 
ATOM      7  C7  IND d   1      -3.824   4.645  -5.994  0.00  0.00    -0.016 A 
ATOM      8  C8  IND d   1      -3.273   3.371  -5.990  0.00  0.00    -0.047 A 
ATOM      9  C9  IND d   1      -4.069   2.219  -5.955  0.00  0.00    -0.096 A 
ATOM     10  HN1 IND d   1      -1.271   3.479  -5.980  0.00  0.00     0.298 HD
ENDROOT
TORSDOF 0
ENDMDL
