MODEL 1
REMARK minimizedAffinity 0.56028986
REMARK minimizedRMSD -1
REMARK  0 active torsions:
REMARK  status: ('A' for Active; 'I' for Inactive)
ROOT
ATOM      1  N1  IND d   1      -2.279   1.294  -5.966  0.00  0.00    -0.196 N 
ATOM      2  C2  IND d   1      -3.361   0.460  -5.934  0.00  0.00     0.054 A 
ATOM      3  C3  IND d   1      -4.507   1.177  -5.902  0.00  0.00    -0.031 A 
ATOM      4  C4  IND d   1      -4.843   3.727  -6.000  0.00  0.00     0.051 A 
ATOM      5  C5  IND d   1      -4.151   4.906  -5.999  0.00  0.00    -0.031 A 
ATOM      6  C6  IND d   1      -2.771   4.941  -5.990  0.00  0.00     0.015 A 
ATOM      7  C7  IND d   1      -2.029   3.794  -5.992  0.00  0.00    -0.016 A 
ATOM      8  C8  IND d   1      -2.729   2.596  -5.986  0.00  0.00    -0.047 A 
ATOM      9  C9  IND d   1      -4.129   2.554  -5.952  0.00  0.00    -0.096 A 
ATOM     10  HN1 IND d   1      -1.455   1.047  -5.972  0.00  0.00     0.298 HD
ENDROOT
TORSDOF 0
ENDMDL
