MODEL 1
REMARK minimizedAffinity 0.774955332
REMARK minimizedRMSD -1
REMARK  0 active torsions:
REMARK  status: ('A' for Active; 'I' for Inactive)
ROOT
ATOM      1  N1  IND d   1      -3.425   3.423  -5.981  0.00  0.00    -0.196 N 
ATOM      2  C2  IND d   1      -4.677   3.969  -5.977  0.00  0.00     0.054 A 
ATOM      3  C3  IND d   1      -5.615   2.996  -5.988  0.00  0.00    -0.031 A 
ATOM      4  C4  IND d   1      -5.321   0.440  -5.910  0.00  0.00     0.051 A 
ATOM      5  C5  IND d   1      -4.364  -0.536  -5.941  0.00  0.00    -0.031 A 
ATOM      6  C6  IND d   1      -3.018  -0.235  -5.985  0.00  0.00     0.015 A 
ATOM      7  C7  IND d   1      -2.576   1.057  -5.988  0.00  0.00    -0.016 A 
ATOM      8  C8  IND d   1      -3.545   2.050  -5.964  0.00  0.00    -0.047 A 
ATOM      9  C9  IND d   1      -4.914   1.752  -5.963  0.00  0.00    -0.096 A 
ATOM     10  HN1 IND d   1      -2.685   3.862  -5.993  0.00  0.00     0.298 HD
ENDROOT
TORSDOF 0
ENDMDL
