MODEL 1
REMARK minimizedAffinity 0.621308804
REMARK minimizedRMSD -1
REMARK  0 active torsions:
REMARK  status: ('A' for Active; 'I' for Inactive)
ROOT
ATOM      1  N1  IND d   1      -4.691  -0.476  -5.944  0.00  0.00    -0.196 N 
ATOM      2  C2  IND d   1      -3.424  -0.987  -5.954  0.00  0.00     0.054 A 
ATOM      3  C3  IND d   1      -2.514   0.012  -5.997  0.00  0.00    -0.031 A 
ATOM      4  C4  IND d   1      -2.879   2.560  -5.956  0.00  0.00     0.051 A 
ATOM      5  C5  IND d   1      -3.863   3.507  -5.985  0.00  0.00    -0.031 A 
ATOM      6  C6  IND d   1      -5.201   3.169  -5.999  0.00  0.00     0.015 A 
ATOM      7  C7  IND d   1      -5.606   1.865  -5.973  0.00  0.00    -0.016 A 
ATOM      8  C8  IND d   1      -4.609   0.900  -5.951  0.00  0.00    -0.047 A 
ATOM      9  C9  IND d   1      -3.250   1.236  -5.979  0.00  0.00    -0.096 A 
ATOM     10  HN1 IND d   1      -5.418  -0.935  -5.935  0.00  0.00     0.298 HD
ENDROOT
TORSDOF 0
ENDMDL
