MODEL 1
REMARK minimizedAffinity 5.70743084
REMARK minimizedRMSD -1
REMARK  0 active torsions:
REMARK  status: ('A' for Active; 'I' for Inactive)
ROOT
ATOM      1  N1  IND d   1      -4.092   0.942  -5.986  0.00  0.00    -0.196 N 
ATOM      2  C2  IND d   1      -2.869   0.332  -5.983  0.00  0.00     0.054 A 
ATOM      3  C3  IND d   1      -1.882   1.256  -5.999  0.00  0.00    -0.031 A 
ATOM      4  C4  IND d   1      -2.044   3.824  -5.928  0.00  0.00     0.051 A 
ATOM      5  C5  IND d   1      -2.950   4.847  -5.960  0.00  0.00    -0.031 A 
ATOM      6  C6  IND d   1      -4.310   4.617  -6.000  0.00  0.00     0.015 A 
ATOM      7  C7  IND d   1      -4.817   3.348  -5.998  0.00  0.00    -0.016 A 
ATOM      8  C8  IND d   1      -3.901   2.307  -5.973  0.00  0.00    -0.047 A 
ATOM      9  C9  IND d   1      -2.518   2.534  -5.976  0.00  0.00    -0.096 A 
ATOM     10  HN1 IND d   1      -4.852   0.542  -5.994  0.00  0.00     0.298 HD
ENDROOT
TORSDOF 0
ENDMDL
