MODEL 1
REMARK minimizedAffinity -0.99764806
REMARK minimizedRMSD -1
REMARK  0 active torsions:
REMARK  status: ('A' for Active; 'I' for Inactive)
ROOT
ATOM      1  N1  IND d   1      -4.010   4.341  -5.980  0.00  0.00    -0.196 N 
ATOM      2  C2  IND d   1      -5.377   4.356  -5.979  0.00  0.00     0.054 A 
ATOM      3  C3  IND d   1      -5.861   3.094  -5.999  0.00  0.00    -0.031 A 
ATOM      4  C4  IND d   1      -4.594   0.854  -5.932  0.00  0.00     0.051 A 
ATOM      5  C5  IND d   1      -3.333   0.329  -5.963  0.00  0.00    -0.031 A 
ATOM      6  C6  IND d   1      -2.210   1.130  -5.999  0.00  0.00     0.015 A 
ATOM      7  C7  IND d   1      -2.307   2.493  -5.994  0.00  0.00    -0.016 A 
ATOM      8  C8  IND d   1      -3.586   3.030  -5.970  0.00  0.00    -0.047 A 
ATOM      9  C9  IND d   1      -4.730   2.222  -5.976  0.00  0.00    -0.096 A 
ATOM     10  HN1 IND d   1      -3.500   5.033  -5.986  0.00  0.00     0.298 HD
ENDROOT
TORSDOF 0
ENDMDL
