MODEL 1
REMARK minimizedAffinity -1.42821753
REMARK minimizedRMSD -1
REMARK  0 active torsions:
REMARK  status: ('A' for Active; 'I' for Inactive)
ROOT
ATOM      1  N1  IND d   1      -3.086   3.800  -5.898  0.00  0.00    -0.196 N 
ATOM      2  C2  IND d   1      -4.268   4.487  -5.927  0.00  0.00     0.054 A 
ATOM      3  C3  IND d   1      -5.309   3.628  -6.000  0.00  0.00    -0.031 A 
ATOM      4  C4  IND d   1      -5.311   1.053  -5.979  0.00  0.00     0.051 A 
ATOM      5  C5  IND d   1      -4.471  -0.024  -5.999  0.00  0.00    -0.031 A 
ATOM      6  C6  IND d   1      -3.099   0.120  -5.983  0.00  0.00     0.015 A 
ATOM      7  C7  IND d   1      -2.513   1.354  -5.935  0.00  0.00    -0.016 A 
ATOM      8  C8  IND d   1      -3.363   2.451  -5.922  0.00  0.00    -0.047 A 
ATOM      9  C9  IND d   1      -4.755   2.311  -5.981  0.00  0.00    -0.096 A 
ATOM     10  HN1 IND d   1      -2.302   4.152  -5.870  0.00  0.00     0.298 HD
ENDROOT
TORSDOF 0
ENDMDL
