MODEL 1
REMARK minimizedAffinity 0.0630380362
REMARK minimizedRMSD -1
REMARK  0 active torsions:
REMARK  status: ('A' for Active; 'I' for Inactive)
ROOT
ATOM      1  N1  IND d   1      -4.078   0.205  -5.969  0.00  0.00    -0.196 N 
ATOM      2  C2  IND d   1      -2.837  -0.369  -5.966  0.00  0.00     0.054 A 
ATOM      3  C3  IND d   1      -1.879   0.584  -5.988  0.00  0.00    -0.031 A 
ATOM      4  C4  IND d   1      -2.118   3.147  -5.928  0.00  0.00     0.051 A 
ATOM      5  C5  IND d   1      -3.054   4.142  -5.962  0.00  0.00    -0.031 A 
ATOM      6  C6  IND d   1      -4.407   3.870  -5.998  0.00  0.00     0.015 A 
ATOM      7  C7  IND d   1      -4.876   2.587  -5.990  0.00  0.00    -0.016 A 
ATOM      8  C8  IND d   1      -3.928   1.574  -5.963  0.00  0.00    -0.047 A 
ATOM      9  C9  IND d   1      -2.554   1.843  -5.969  0.00  0.00    -0.096 A 
ATOM     10  HN1 IND d   1      -4.827  -0.219  -5.974  0.00  0.00     0.298 HD
ENDROOT
TORSDOF 0
ENDMDL
