MODEL 1
REMARK minimizedAffinity 3.72221112
REMARK minimizedRMSD -1
REMARK  0 active torsions:
REMARK  status: ('A' for Active; 'I' for Inactive)
ROOT
ATOM      1  N1  IND d   1      -0.076   0.891  -0.108  0.00  0.00    -0.196 N 
ATOM      2  C2  IND d   1      -1.017   0.638  -1.068  0.00  0.00     0.054 A 
ATOM      3  C3  IND d   1      -0.502  -0.156  -2.033  0.00  0.00    -0.031 A 
ATOM      4  C4  IND d   1       1.827  -1.242  -2.188  0.00  0.00     0.051 A 
ATOM      5  C5  IND d   1       3.043  -1.275  -1.566  0.00  0.00    -0.031 A 
ATOM      6  C6  IND d   1       3.286  -0.576  -0.402  0.00  0.00     0.015 A 
ATOM      7  C7  IND d   1       2.314   0.177   0.193  0.00  0.00    -0.016 A 
ATOM      8  C8  IND d   1       1.079   0.219  -0.439  0.00  0.00    -0.047 A 
ATOM      9  C9  IND d   1       0.840  -0.455  -1.644  0.00  0.00    -0.096 A 
ATOM     10  HN1 IND d   1      -0.188   1.387   0.585  0.00  0.00     0.298 HD
ENDROOT
TORSDOF 0
ENDMDL
