MODEL 1
REMARK minimizedAffinity 0.278719932
REMARK minimizedRMSD -1
REMARK  0 active torsions:
REMARK  status: ('A' for Active; 'I' for Inactive)
ROOT
ATOM      1  N1  IND d   1      -5.265   1.287  -5.628  0.00  0.00    -0.196 N 
ATOM      2  C2  IND d   1      -4.406   0.271  -5.314  0.00  0.00     0.054 A 
ATOM      3  C3  IND d   1      -3.144   0.740  -5.200  0.00  0.00    -0.031 A 
ATOM      4  C4  IND d   1      -2.274   3.157  -5.384  0.00  0.00     0.051 A 
ATOM      5  C5  IND d   1      -2.677   4.425  -5.693  0.00  0.00    -0.031 A 
ATOM      6  C6  IND d   1      -3.990   4.720  -6.000  0.00  0.00     0.015 A 
ATOM      7  C7  IND d   1      -4.955   3.753  -5.998  0.00  0.00    -0.016 A 
ATOM      8  C8  IND d   1      -4.549   2.462  -5.691  0.00  0.00    -0.047 A 
ATOM      9  C9  IND d   1      -3.210   2.150  -5.421  0.00  0.00    -0.096 A 
ATOM     10  HN1 IND d   1      -6.110   1.206  -5.762  0.00  0.00     0.298 HD
ENDROOT
TORSDOF 0
ENDMDL
