MODEL 1
REMARK minimizedAffinity 0.747383535
REMARK minimizedRMSD -1
REMARK  0 active torsions:
REMARK  status: ('A' for Active; 'I' for Inactive)
ROOT
ATOM      1  N1  IND d   1      -2.639   0.779  -5.965  0.00  0.00    -0.196 N 
ATOM      2  C2  IND d   1      -3.753  -0.011  -5.933  0.00  0.00     0.054 A 
ATOM      3  C3  IND d   1      -4.870   0.751  -5.901  0.00  0.00    -0.031 A 
ATOM      4  C4  IND d   1      -5.104   3.313  -5.999  0.00  0.00     0.051 A 
ATOM      5  C5  IND d   1      -4.365   4.463  -5.999  0.00  0.00    -0.031 A 
ATOM      6  C6  IND d   1      -2.986   4.443  -5.991  0.00  0.00     0.015 A 
ATOM      7  C7  IND d   1      -2.290   3.267  -5.993  0.00  0.00    -0.016 A 
ATOM      8  C8  IND d   1      -3.036   2.098  -5.986  0.00  0.00    -0.047 A 
ATOM      9  C9  IND d   1      -4.437   2.111  -5.952  0.00  0.00    -0.096 A 
ATOM     10  HN1 IND d   1      -1.825   0.499  -5.972  0.00  0.00     0.298 HD
ENDROOT
TORSDOF 0
ENDMDL
