MODEL 1
REMARK minimizedAffinity -1.95950592
REMARK minimizedRMSD -1
REMARK  0 active torsions:
REMARK  status: ('A' for Active; 'I' for Inactive)
ROOT
ATOM      1  N1  IND d   1      -2.701   3.699  -5.948  0.00  0.00    -0.196 N 
ATOM      2  C2  IND d   1      -4.011   4.087  -5.958  0.00  0.00     0.054 A 
ATOM      3  C3  IND d   1      -4.822   3.006  -6.000  0.00  0.00    -0.031 A 
ATOM      4  C4  IND d   1      -4.216   0.504  -5.956  0.00  0.00     0.051 A 
ATOM      5  C5  IND d   1      -3.146  -0.345  -5.984  0.00  0.00    -0.031 A 
ATOM      6  C6  IND d   1      -1.846   0.119  -5.999  0.00  0.00     0.015 A 
ATOM      7  C7  IND d   1      -1.567   1.456  -5.975  0.00  0.00    -0.016 A 
ATOM      8  C8  IND d   1      -2.651   2.322  -5.953  0.00  0.00    -0.047 A 
ATOM      9  C9  IND d   1      -3.973   1.857  -5.981  0.00  0.00    -0.096 A 
ATOM     10  HN1 IND d   1      -2.021   4.226  -5.939  0.00  0.00     0.298 HD
ENDROOT
TORSDOF 0
ENDMDL
