MODEL 1
REMARK minimizedAffinity -0.51171577
REMARK minimizedRMSD -1
REMARK  0 active torsions:
REMARK  status: ('A' for Active; 'I' for Inactive)
ROOT
ATOM      1  N1  IND d   1      -1.924  -0.025  -5.624  0.00  0.00    -0.196 N 
ATOM      2  C2  IND d   1      -2.652  -1.182  -5.642  0.00  0.00     0.054 A 
ATOM      3  C3  IND d   1      -3.971  -0.906  -5.745  0.00  0.00    -0.031 A 
ATOM      4  C4  IND d   1      -5.152   1.367  -5.999  0.00  0.00     0.051 A 
ATOM      5  C5  IND d   1      -4.910   2.713  -5.999  0.00  0.00    -0.031 A 
ATOM      6  C6  IND d   1      -3.635   3.224  -5.874  0.00  0.00     0.015 A 
ATOM      7  C7  IND d   1      -2.547   2.406  -5.756  0.00  0.00    -0.016 A 
ATOM      8  C8  IND d   1      -2.790   1.039  -5.748  0.00  0.00    -0.047 A 
ATOM      9  C9  IND d   1      -4.086   0.515  -5.832  0.00  0.00    -0.096 A 
ATOM     10  HN1 IND d   1      -1.069   0.029  -5.548  0.00  0.00     0.298 HD
ENDROOT
TORSDOF 0
ENDMDL
