MODEL 1
REMARK minimizedAffinity -2.8657887
REMARK minimizedRMSD -1
REMARK  0 active torsions:
REMARK  status: ('A' for Active; 'I' for Inactive)
ROOT
ATOM      1  N1  IND d   1      -3.679  -5.857  -5.880  0.00  0.00    -0.196 N 
ATOM      2  C2  IND d   1      -2.321  -6.000  -5.822  0.00  0.00     0.054 A 
ATOM      3  C3  IND d   1      -1.720  -4.789  -5.832  0.00  0.00    -0.031 A 
ATOM      4  C4  IND d   1      -2.774  -2.440  -5.835  0.00  0.00     0.051 A 
ATOM      5  C5  IND d   1      -3.978  -1.800  -5.923  0.00  0.00    -0.031 A 
ATOM      6  C6  IND d   1      -5.169  -2.494  -5.999  0.00  0.00     0.015 A 
ATOM      7  C7  IND d   1      -5.200  -3.859  -5.980  0.00  0.00    -0.016 A 
ATOM      8  C8  IND d   1      -3.978  -4.513  -5.898  0.00  0.00    -0.047 A 
ATOM      9  C9  IND d   1      -2.764  -3.815  -5.863  0.00  0.00    -0.096 A 
ATOM     10  HN1 IND d   1      -4.251  -6.499  -5.902  0.00  0.00     0.298 HD
ENDROOT
TORSDOF 0
ENDMDL
