MODEL 1
REMARK minimizedAffinity 6.81353951
REMARK minimizedRMSD -1
REMARK  0 active torsions:
REMARK  status: ('A' for Active; 'I' for Inactive)
ROOT
ATOM      1  C2' OXE d   1      -1.123   1.527   1.195  0.00  0.00     0.078 C 
ATOM      2  C1' OXE d   1       0.217   0.161  -0.859  0.00  0.00     0.078 C 
ATOM      3  C1  OXE d   1       0.200   1.668  -0.911  0.00  0.00    -0.078 A 
ATOM      4  C2  OXE d   1      -0.498   2.327   0.073  0.00  0.00    -0.078 A 
ATOM      5  C3  OXE d   1      -0.499   3.718   0.103  0.00  0.00     0.003 A 
ATOM      6  C4  OXE d   1       0.073   4.451  -0.945  0.00  0.00    -0.002 A 
ATOM      7  C5  OXE d   1       0.754   3.798  -1.978  0.00  0.00    -0.002 A 
ATOM      8  C6  OXE d   1       0.863   2.412  -1.953  0.00  0.00     0.003 A 
ENDROOT
TORSDOF 0
ENDMDL
