MODEL 1
REMARK minimizedAffinity -2.60208797
REMARK minimizedRMSD -1
REMARK  0 active torsions:
REMARK  status: ('A' for Active; 'I' for Inactive)
ROOT
ATOM      1  C2' OXE d   1       0.583   2.177  -1.090  0.00  0.00     0.078 C 
ATOM      2  C1' OXE d   1      -1.076   4.336  -1.772  0.00  0.00     0.078 C 
ATOM      3  C1  OXE d   1      -1.405   3.565  -0.518  0.00  0.00    -0.078 A 
ATOM      4  C2  OXE d   1      -0.616   2.481  -0.217  0.00  0.00    -0.078 A 
ATOM      5  C3  OXE d   1      -0.842   1.769   0.957  0.00  0.00     0.003 A 
ATOM      6  C4  OXE d   1      -1.959   2.051   1.753  0.00  0.00    -0.002 A 
ATOM      7  C5  OXE d   1      -2.799   3.126   1.443  0.00  0.00    -0.002 A 
ATOM      8  C6  OXE d   1      -2.511   3.917   0.337  0.00  0.00     0.003 A 
ENDROOT
TORSDOF 0
ENDMDL
