MODEL 1
REMARK minimizedAffinity -0.277349919
REMARK minimizedRMSD -1
REMARK  0 active torsions:
REMARK  status: ('A' for Active; 'I' for Inactive)
ROOT
ATOM      1  C2' OXE d   1      -3.394   2.255   1.193  0.00  0.00     0.078 C 
ATOM      2  C1' OXE d   1      -0.923   1.018   1.689  0.00  0.00     0.078 C 
ATOM      3  C1  OXE d   1      -0.942   2.204   0.758  0.00  0.00    -0.078 A 
ATOM      4  C2  OXE d   1      -2.162   2.774   0.484  0.00  0.00    -0.078 A 
ATOM      5  C3  OXE d   1      -2.229   3.905  -0.325  0.00  0.00     0.003 A 
ATOM      6  C4  OXE d   1      -1.086   4.372  -0.985  0.00  0.00    -0.002 A 
ATOM      7  C5  OXE d   1       0.161   3.782  -0.752  0.00  0.00    -0.002 A 
ATOM      8  C6  OXE d   1       0.257   2.726   0.148  0.00  0.00     0.003 A 
ENDROOT
TORSDOF 0
ENDMDL
