MODEL 1
REMARK minimizedAffinity 2.92348266
REMARK minimizedRMSD -1
REMARK  0 active torsions:
REMARK  status: ('A' for Active; 'I' for Inactive)
ROOT
ATOM      1  C2' OXE d   1      -0.475   1.392  -1.256  0.00  0.00     0.078 C 
ATOM      2  C1' OXE d   1      -0.721   2.198   1.422  0.00  0.00     0.078 C 
ATOM      3  C1  OXE d   1      -0.235   3.217   0.422  0.00  0.00    -0.078 A 
ATOM      4  C2  OXE d   1      -0.073   2.801  -0.878  0.00  0.00    -0.078 A 
ATOM      5  C3  OXE d   1       0.320   3.716  -1.850  0.00  0.00     0.003 A 
ATOM      6  C4  OXE d   1       0.699   5.015  -1.490  0.00  0.00    -0.002 A 
ATOM      7  C5  OXE d   1       0.579   5.448  -0.165  0.00  0.00    -0.002 A 
ATOM      8  C6  OXE d   1       0.075   4.576   0.793  0.00  0.00     0.003 A 
ENDROOT
TORSDOF 0
ENDMDL
