MODEL 1
REMARK minimizedAffinity 1.27180731
REMARK minimizedRMSD -1
REMARK  0 active torsions:
REMARK  status: ('A' for Active; 'I' for Inactive)
ROOT
ATOM      1  C2' OXE d   1       0.746   4.070  -1.493  0.00  0.00     0.078 C 
ATOM      2  C1' OXE d   1       0.560   1.269  -1.467  0.00  0.00     0.078 C 
ATOM      3  C1  OXE d   1      -0.024   2.023  -0.299  0.00  0.00    -0.078 A 
ATOM      4  C2  OXE d   1       0.112   3.390  -0.298  0.00  0.00    -0.078 A 
ATOM      5  C3  OXE d   1      -0.457   4.139   0.729  0.00  0.00     0.003 A 
ATOM      6  C4  OXE d   1      -1.032   3.503   1.835  0.00  0.00    -0.002 A 
ATOM      7  C5  OXE d   1      -1.146   2.109   1.872  0.00  0.00    -0.002 A 
ATOM      8  C6  OXE d   1      -0.687   1.358   0.796  0.00  0.00     0.003 A 
ENDROOT
TORSDOF 0
ENDMDL
