MODEL 1
REMARK minimizedAffinity 3.18008232
REMARK minimizedRMSD -1
REMARK  0 active torsions:
REMARK  status: ('A' for Active; 'I' for Inactive)
ROOT
ATOM      1  C2' OXE d   1       1.879  -0.717   0.088  0.00  0.00     0.078 C 
ATOM      2  C1' OXE d   1       0.425   0.231   2.294  0.00  0.00     0.078 C 
ATOM      3  C1  OXE d   1       0.357   1.024   1.013  0.00  0.00    -0.078 A 
ATOM      4  C2  OXE d   1       1.109   0.579  -0.047  0.00  0.00    -0.078 A 
ATOM      5  C3  OXE d   1       1.040   1.243  -1.269  0.00  0.00     0.003 A 
ATOM      6  C4  OXE d   1       0.333   2.446  -1.382  0.00  0.00    -0.002 A 
ATOM      7  C5  OXE d   1      -0.408   2.939  -0.303  0.00  0.00    -0.002 A 
ATOM      8  C6  OXE d   1      -0.441   2.219   0.886  0.00  0.00     0.003 A 
ENDROOT
TORSDOF 0
ENDMDL
