MODEL 1
REMARK minimizedAffinity -2.84487033
REMARK minimizedRMSD -1
REMARK  0 active torsions:
REMARK  status: ('A' for Active; 'I' for Inactive)
ROOT
ATOM      1  C2' OXE d   1      -1.831   2.295   1.808  0.00  0.00     0.078 C 
ATOM      2  C1' OXE d   1      -2.325   4.662   0.382  0.00  0.00     0.078 C 
ATOM      3  C1  OXE d   1      -1.389   3.652  -0.233  0.00  0.00    -0.078 A 
ATOM      4  C2  OXE d   1      -1.117   2.518   0.493  0.00  0.00    -0.078 A 
ATOM      5  C3  OXE d   1      -0.303   1.529  -0.053  0.00  0.00     0.003 A 
ATOM      6  C4  OXE d   1       0.361   1.747  -1.265  0.00  0.00    -0.002 A 
ATOM      7  C5  OXE d   1       0.129   2.913  -2.003  0.00  0.00    -0.002 A 
ATOM      8  C6  OXE d   1      -0.774   3.855  -1.522  0.00  0.00     0.003 A 
ENDROOT
TORSDOF 0
ENDMDL
