MODEL 1
REMARK minimizedAffinity 1.36149609
REMARK minimizedRMSD -1
REMARK  0 active torsions:
REMARK  status: ('A' for Active; 'I' for Inactive)
ROOT
ATOM      1  C2' OXE d   1       0.831   1.616  -1.465  0.00  0.00     0.078 C 
ATOM      2  C1' OXE d   1      -0.027   4.239  -0.952  0.00  0.00     0.078 C 
ATOM      3  C1  OXE d   1      -0.484   3.153  -0.011  0.00  0.00    -0.078 A 
ATOM      4  C2  OXE d   1      -0.098   1.865  -0.296  0.00  0.00    -0.078 A 
ATOM      5  C3  OXE d   1      -0.447   0.833   0.570  0.00  0.00     0.003 A 
ATOM      6  C4  OXE d   1      -1.314   1.071   1.643  0.00  0.00    -0.002 A 
ATOM      7  C5  OXE d   1      -1.751   2.368   1.929  0.00  0.00    -0.002 A 
ATOM      8  C6  OXE d   1      -1.312   3.425   1.138  0.00  0.00     0.003 A 
ENDROOT
TORSDOF 0
ENDMDL
