MODEL 1
REMARK minimizedAffinity 5.08031273
REMARK minimizedRMSD -1
REMARK  0 active torsions:
REMARK  status: ('A' for Active; 'I' for Inactive)
ROOT
ATOM      1  C2' OXE d   1      -0.541   1.486   0.976  0.00  0.00     0.078 C 
ATOM      2  C1' OXE d   1       0.906   0.167  -1.036  0.00  0.00     0.078 C 
ATOM      3  C1  OXE d   1       0.557   1.618  -1.256  0.00  0.00    -0.078 A 
ATOM      4  C2  OXE d   1      -0.191   2.242  -0.288  0.00  0.00    -0.078 A 
ATOM      5  C3  OXE d   1      -0.494   3.595  -0.416  0.00  0.00     0.003 A 
ATOM      6  C4  OXE d   1      -0.175   4.284  -1.592  0.00  0.00    -0.002 A 
ATOM      7  C5  OXE d   1       0.552   3.656  -2.608  0.00  0.00    -0.002 A 
ATOM      8  C6  OXE d   1       0.962   2.338  -2.438  0.00  0.00     0.003 A 
ENDROOT
TORSDOF 0
ENDMDL
