MODEL 1
REMARK minimizedAffinity 5.55019951
REMARK minimizedRMSD -1
REMARK  0 active torsions:
REMARK  status: ('A' for Active; 'I' for Inactive)
ROOT
ATOM      1  C2' OXE d   1       0.836   0.003  -0.852  0.00  0.00     0.078 C 
ATOM      2  C1' OXE d   1       0.489   0.224   1.925  0.00  0.00     0.078 C 
ATOM      3  C1  OXE d   1      -0.104   1.303   1.054  0.00  0.00    -0.078 A 
ATOM      4  C2  OXE d   1       0.111   1.211  -0.301  0.00  0.00    -0.078 A 
ATOM      5  C3  OXE d   1      -0.460   2.151  -1.154  0.00  0.00     0.003 A 
ATOM      6  C4  OXE d   1      -1.120   3.271  -0.635  0.00  0.00    -0.002 A 
ATOM      7  C5  OXE d   1      -1.316   3.405   0.743  0.00  0.00    -0.002 A 
ATOM      8  C6  OXE d   1      -0.852   2.410   1.597  0.00  0.00     0.003 A 
ENDROOT
TORSDOF 0
ENDMDL
