MODEL 1
REMARK minimizedAffinity 0.666702569
REMARK minimizedRMSD -1
REMARK  0 active torsions:
REMARK  status: ('A' for Active; 'I' for Inactive)
ROOT
ATOM      1  C2' OXE d   1       0.266  -0.044  -1.884  0.00  0.00     0.078 C 
ATOM      2  C1' OXE d   1       1.704   2.121  -2.945  0.00  0.00     0.078 C 
ATOM      3  C1  OXE d   1       0.713   2.407  -1.845  0.00  0.00    -0.078 A 
ATOM      4  C2  OXE d   1      -0.020   1.349  -1.364  0.00  0.00    -0.078 A 
ATOM      5  C3  OXE d   1      -0.909   1.548  -0.311  0.00  0.00     0.003 A 
ATOM      6  C4  OXE d   1      -1.175   2.840   0.157  0.00  0.00    -0.002 A 
ATOM      7  C5  OXE d   1      -0.468   3.937  -0.347  0.00  0.00    -0.002 A 
ATOM      8  C6  OXE d   1       0.508   3.732  -1.316  0.00  0.00     0.003 A 
ENDROOT
TORSDOF 0
ENDMDL
