MODEL 1
REMARK minimizedAffinity 6.24597406
REMARK minimizedRMSD -1
REMARK  0 active torsions:
REMARK  status: ('A' for Active; 'I' for Inactive)
ROOT
ATOM      1  C2' OXE d   1       5.591  -4.809  -2.155  0.00  0.00     0.078 C 
ATOM      2  C1' OXE d   1       4.455  -2.492  -1.048  0.00  0.00     0.078 C 
ATOM      3  C1  OXE d   1       3.577  -3.711  -1.183  0.00  0.00    -0.078 A 
ATOM      4  C2  OXE d   1       4.127  -4.826  -1.769  0.00  0.00    -0.078 A 
ATOM      5  C3  OXE d   1       3.377  -5.994  -1.868  0.00  0.00     0.003 A 
ATOM      6  C4  OXE d   1       2.022  -5.998  -1.517  0.00  0.00    -0.002 A 
ATOM      7  C5  OXE d   1       1.430  -4.862  -0.956  0.00  0.00    -0.002 A 
ATOM      8  C6  OXE d   1       2.203  -3.726  -0.743  0.00  0.00     0.003 A 
ENDROOT
TORSDOF 0
ENDMDL
