MODEL 1
REMARK minimizedAffinity -2.49191332
REMARK minimizedRMSD -1
REMARK  0 active torsions:
REMARK  status: ('A' for Active; 'I' for Inactive)
ROOT
ATOM      1  C2' OXE d   1       1.533   3.036  -2.299  0.00  0.00     0.078 C 
ATOM      2  C1' OXE d   1       0.797   0.568  -1.183  0.00  0.00     0.078 C 
ATOM      3  C1  OXE d   1       0.354   1.822  -0.472  0.00  0.00    -0.078 A 
ATOM      4  C2  OXE d   1       0.758   3.025  -1.000  0.00  0.00    -0.078 A 
ATOM      5  C3  OXE d   1       0.332   4.213  -0.414  0.00  0.00     0.003 A 
ATOM      6  C4  OXE d   1      -0.377   4.194   0.794  0.00  0.00    -0.002 A 
ATOM      7  C5  OXE d   1      -0.765   2.980   1.370  0.00  0.00    -0.002 A 
ATOM      8  C6  OXE d   1      -0.445   1.788   0.729  0.00  0.00     0.003 A 
ENDROOT
TORSDOF 0
ENDMDL
