MODEL 1
REMARK minimizedAffinity 4.66165257
REMARK minimizedRMSD -1
REMARK  0 active torsions:
REMARK  status: ('A' for Active; 'I' for Inactive)
ROOT
ATOM      1  C2' OXE d   1      -1.082   4.183   0.181  0.00  0.00     0.078 C 
ATOM      2  C1' OXE d   1      -1.240   1.779   1.622  0.00  0.00     0.078 C 
ATOM      3  C1  OXE d   1      -0.416   1.789   0.358  0.00  0.00    -0.078 A 
ATOM      4  C2  OXE d   1      -0.383   2.957  -0.365  0.00  0.00    -0.078 A 
ATOM      5  C3  OXE d   1       0.406   3.036  -1.510  0.00  0.00     0.003 A 
ATOM      6  C4  OXE d   1       1.042   1.895  -2.013  0.00  0.00    -0.002 A 
ATOM      7  C5  OXE d   1       0.988   0.685  -1.313  0.00  0.00    -0.002 A 
ATOM      8  C6  OXE d   1       0.300   0.626  -0.106  0.00  0.00     0.003 A 
ENDROOT
TORSDOF 0
ENDMDL
