MODEL 1
REMARK minimizedAffinity 8.88170624
REMARK minimizedRMSD -1
REMARK  0 active torsions:
REMARK  status: ('A' for Active; 'I' for Inactive)
ROOT
ATOM      1  C2' OXE d   1       1.024   0.859  -1.202  0.00  0.00     0.078 C 
ATOM      2  C1' OXE d   1      -0.405   3.276  -1.189  0.00  0.00     0.078 C 
ATOM      3  C1  OXE d   1      -0.571   2.354  -0.007  0.00  0.00    -0.078 A 
ATOM      4  C2  OXE d   1       0.095   1.153  -0.043  0.00  0.00    -0.078 A 
ATOM      5  C3  OXE d   1       0.020   0.289   1.046  0.00  0.00     0.003 A 
ATOM      6  C4  OXE d   1      -0.849   0.564   2.110  0.00  0.00    -0.002 A 
ATOM      7  C5  OXE d   1      -1.567   1.764   2.148  0.00  0.00    -0.002 A 
ATOM      8  C6  OXE d   1      -1.407   2.687   1.120  0.00  0.00     0.003 A 
ENDROOT
TORSDOF 0
ENDMDL
