MODEL 1
REMARK minimizedAffinity 9.2089529
REMARK minimizedRMSD -1
REMARK  0 active torsions:
REMARK  status: ('A' for Active; 'I' for Inactive)
ROOT
ATOM      1  C2' OXE d   1      -1.373  -1.255   3.308  0.00  0.00     0.078 C 
ATOM      2  C1' OXE d   1      -2.517   0.787   1.757  0.00  0.00     0.078 C 
ATOM      3  C1  OXE d   1      -1.251   1.103   2.514  0.00  0.00    -0.078 A 
ATOM      4  C2  OXE d   1      -0.724   0.113   3.308  0.00  0.00    -0.078 A 
ATOM      5  C3  OXE d   1       0.471   0.334   3.985  0.00  0.00     0.003 A 
ATOM      6  C4  OXE d   1       1.060   1.605   3.987  0.00  0.00    -0.002 A 
ATOM      7  C5  OXE d   1       0.517   2.640   3.217  0.00  0.00    -0.002 A 
ATOM      8  C6  OXE d   1      -0.611   2.394   2.443  0.00  0.00     0.003 A 
ENDROOT
TORSDOF 0
ENDMDL
