MODEL 1
REMARK minimizedAffinity 9.33152771
REMARK minimizedRMSD -1
REMARK  0 active torsions:
REMARK  status: ('A' for Active; 'I' for Inactive)
ROOT
ATOM      1  C2' OXE d   1      -0.945  -1.608   3.430  0.00  0.00     0.078 C 
ATOM      2  C1' OXE d   1       1.431  -0.608   2.319  0.00  0.00     0.078 C 
ATOM      3  C1  OXE d   1       0.162   0.173   2.086  0.00  0.00    -0.078 A 
ATOM      4  C2  OXE d   1      -1.003  -0.348   2.594  0.00  0.00    -0.078 A 
ATOM      5  C3  OXE d   1      -2.194   0.360   2.455  0.00  0.00     0.003 A 
ATOM      6  C4  OXE d   1      -2.241   1.520   1.671  0.00  0.00    -0.002 A 
ATOM      7  C5  OXE d   1      -1.072   2.046   1.111  0.00  0.00    -0.002 A 
ATOM      8  C6  OXE d   1       0.142   1.410   1.345  0.00  0.00     0.003 A 
ENDROOT
TORSDOF 0
ENDMDL
