MODEL 1
REMARK minimizedAffinity 11.2394695
REMARK minimizedRMSD -1
REMARK  1 active torsions:
REMARK  status: ('A' for Active; 'I' for Inactive)
REMARK    1  A    between atoms: N_2  and  C1_3 
ROOT
ATOM      1  C1  UNL d   1       1.427  -5.265  -3.667  0.00  0.00     0.143 A 
ATOM      2  C2  UNL d   1       2.826  -5.256  -3.680  0.00  0.00    -0.057 A 
ATOM      3  C3  UNL d   1       3.544  -5.585  -4.836  0.00  0.00     0.033 A 
ATOM      4  C4  UNL d   1       2.873  -5.959  -5.996  0.00  0.00    -0.042 A 
ATOM      5  C5  UNL d   1       1.483  -5.999  -5.999  0.00  0.00     0.033 A 
ATOM      6  C6  UNL d   1       0.772  -5.663  -4.843  0.00  0.00    -0.057 A 
ENDROOT
BRANCH   1   7
ATOM      7  N   UNL d   1       0.659  -5.043  -2.522  0.00  0.00    -0.732 N 
ATOM      8  C   UNL d   1       0.011  -3.767  -2.304  0.00  0.00     0.284 C 
ATOM      9  H3  UNL d   1       0.085  -5.847  -2.277  0.00  0.00     0.395 HD
ENDBRANCH   1   7
TORSDOF 1
ENDMDL
