MODEL 1
REMARK minimizedAffinity 7.52086449
REMARK minimizedRMSD -1
REMARK  1 active torsions:
REMARK  status: ('A' for Active; 'I' for Inactive)
REMARK    1  A    between atoms: N_2  and  C1_3 
ROOT
ATOM      1  C1  UNL d   1      -0.349   0.392   1.034  0.00  0.00     0.143 A 
ATOM      2  C2  UNL d   1      -0.646   1.688   0.598  0.00  0.00    -0.057 A 
ATOM      3  C3  UNL d   1       0.354   2.660   0.478  0.00  0.00     0.033 A 
ATOM      4  C4  UNL d   1       1.669   2.361   0.819  0.00  0.00    -0.042 A 
ATOM      5  C5  UNL d   1       1.983   1.086   1.278  0.00  0.00     0.033 A 
ATOM      6  C6  UNL d   1       0.981   0.118   1.390  0.00  0.00    -0.057 A 
ENDROOT
BRANCH   1   7
ATOM      7  N   UNL d   1      -1.314  -0.590   1.268  0.00  0.00    -0.732 N 
ATOM      8  C   UNL d   1      -1.587  -1.608   0.276  0.00  0.00     0.284 C 
ATOM      9  H3  UNL d   1      -1.291  -0.937   2.224  0.00  0.00     0.395 HD
ENDBRANCH   1   7
TORSDOF 1
ENDMDL
