MODEL 1
REMARK minimizedAffinity 8.0163269
REMARK minimizedRMSD -1
REMARK  1 active torsions:
REMARK  status: ('A' for Active; 'I' for Inactive)
REMARK    1  A    between atoms: N_2  and  C1_3 
ROOT
ATOM      1  C1  UNL d   1       0.086   2.736   1.134  0.00  0.00     0.143 A 
ATOM      2  C2  UNL d   1       1.266   2.646   0.387  0.00  0.00    -0.057 A 
ATOM      3  C3  UNL d   1       2.476   2.269   0.983  0.00  0.00     0.033 A 
ATOM      4  C4  UNL d   1       2.533   2.002   2.346  0.00  0.00    -0.042 A 
ATOM      5  C5  UNL d   1       1.378   2.109   3.113  0.00  0.00     0.033 A 
ATOM      6  C6  UNL d   1       0.172   2.480   2.511  0.00  0.00    -0.057 A 
ENDROOT
BRANCH   1   7
ATOM      7  N   UNL d   1      -1.126   3.200   0.619  0.00  0.00    -0.732 N 
ATOM      8  C   UNL d   1      -1.161   3.968  -0.607  0.00  0.00     0.284 C 
ATOM      9  H3  UNL d   1      -1.872   2.513   0.701  0.00  0.00     0.395 HD
ENDBRANCH   1   7
TORSDOF 1
ENDMDL
