MODEL 1
REMARK minimizedAffinity 2.72949076
REMARK minimizedRMSD -1
REMARK  1 active torsions:
REMARK  status: ('A' for Active; 'I' for Inactive)
REMARK    1  A    between atoms: N_2  and  C1_3 
ROOT
ATOM      1  C1  UNL d   1       3.196   2.983   0.782  0.00  0.00     0.143 A 
ATOM      2  C2  UNL d   1       4.060   2.118   0.102  0.00  0.00    -0.057 A 
ATOM      3  C3  UNL d   1       5.449   2.278   0.169  0.00  0.00     0.033 A 
ATOM      4  C4  UNL d   1       6.000   3.328   0.898  0.00  0.00    -0.042 A 
ATOM      5  C5  UNL d   1       5.159   4.214   1.561  0.00  0.00     0.033 A 
ATOM      6  C6  UNL d   1       3.773   4.045   1.495  0.00  0.00    -0.057 A 
ENDROOT
BRANCH   1   7
ATOM      7  N   UNL d   1       1.804   2.935   0.674  0.00  0.00    -0.732 N 
ATOM      8  C   UNL d   1       1.041   1.952   1.412  0.00  0.00     0.284 C 
ATOM      9  H3  UNL d   1       1.383   3.861   0.658  0.00  0.00     0.395 HD
ENDBRANCH   1   7
TORSDOF 1
ENDMDL
