MODEL 1
REMARK minimizedAffinity 13.7908325
REMARK minimizedRMSD -1
REMARK  1 active torsions:
REMARK  status: ('A' for Active; 'I' for Inactive)
REMARK    1  A    between atoms: N_2  and  C1_3 
ROOT
ATOM      1  C1  UNL d   1       0.235   2.678   1.102  0.00  0.00     0.143 A 
ATOM      2  C2  UNL d   1       0.834   3.839   0.602  0.00  0.00    -0.057 A 
ATOM      3  C3  UNL d   1       2.226   3.954   0.503  0.00  0.00     0.033 A 
ATOM      4  C4  UNL d   1       3.048   2.915   0.930  0.00  0.00    -0.042 A 
ATOM      5  C5  UNL d   1       2.475   1.761   1.453  0.00  0.00     0.033 A 
ATOM      6  C6  UNL d   1       1.084   1.651   1.544  0.00  0.00    -0.057 A 
ENDROOT
BRANCH   1   7
ATOM      7  N   UNL d   1      -1.138   2.542   1.317  0.00  0.00    -0.732 N 
ATOM      8  C   UNL d   1      -1.659   2.343   2.653  0.00  0.00     0.284 C 
ATOM      9  H3  UNL d   1      -1.686   3.184   0.749  0.00  0.00     0.395 HD
ENDBRANCH   1   7
TORSDOF 1
ENDMDL
