MODEL 1
REMARK minimizedAffinity -4.45666504
REMARK minimizedRMSD -1
REMARK  1 active torsions:
REMARK  status: ('A' for Active; 'I' for Inactive)
REMARK    1  A    between atoms: N_2  and  C1_3 
ROOT
ATOM      1  C1  UNL d   1       2.502   2.924  -4.919  0.00  0.00     0.143 A 
ATOM      2  C2  UNL d   1       1.624   3.075  -5.998  0.00  0.00    -0.057 A 
ATOM      3  C3  UNL d   1       0.364   2.464  -6.000  0.00  0.00     0.033 A 
ATOM      4  C4  UNL d   1      -0.029   1.664  -4.932  0.00  0.00    -0.042 A 
ATOM      5  C5  UNL d   1       0.837   1.480  -3.860  0.00  0.00     0.033 A 
ATOM      6  C6  UNL d   1       2.091   2.099  -3.861  0.00  0.00    -0.057 A 
ENDROOT
BRANCH   1   7
ATOM      7  N   UNL d   1       3.806   3.426  -4.901  0.00  0.00    -0.732 N 
ATOM      8  C   UNL d   1       4.711   3.164  -5.999  0.00  0.00     0.284 C 
ATOM      9  H3  UNL d   1       3.851   4.377  -4.542  0.00  0.00     0.395 HD
ENDBRANCH   1   7
TORSDOF 1
ENDMDL
