MODEL 1
REMARK minimizedAffinity 6.34875393
REMARK minimizedRMSD -1
REMARK  1 active torsions:
REMARK  status: ('A' for Active; 'I' for Inactive)
REMARK    1  A    between atoms: N_2  and  C1_3 
ROOT
ATOM      1  C1  UNL d   1       4.911  -3.783  -4.587  0.00  0.00     0.143 A 
ATOM      2  C2  UNL d   1       3.519  -3.672  -4.499  0.00  0.00    -0.057 A 
ATOM      3  C3  UNL d   1       2.680  -4.713  -4.914  0.00  0.00     0.033 A 
ATOM      4  C4  UNL d   1       3.219  -5.876  -5.453  0.00  0.00    -0.042 A 
ATOM      5  C5  UNL d   1       4.599  -5.999  -5.573  0.00  0.00     0.033 A 
ATOM      6  C6  UNL d   1       5.432  -4.959  -5.151  0.00  0.00    -0.057 A 
ENDROOT
BRANCH   1   7
ATOM      7  N   UNL d   1       5.795  -2.745  -4.283  0.00  0.00    -0.732 N 
ATOM      8  C   UNL d   1       5.493  -1.805  -3.225  0.00  0.00     0.284 C 
ATOM      9  H3  UNL d   1       6.768  -3.044  -4.309  0.00  0.00     0.395 HD
ENDBRANCH   1   7
TORSDOF 1
ENDMDL
