MODEL 1
REMARK minimizedAffinity 9.2412405
REMARK minimizedRMSD -1
REMARK  1 active torsions:
REMARK  status: ('A' for Active; 'I' for Inactive)
REMARK    1  A    between atoms: N_2  and  C1_3 
ROOT
ATOM      1  C1  UNL d   1       0.724   1.836   1.335  0.00  0.00     0.143 A 
ATOM      2  C2  UNL d   1      -0.022   2.478   0.341  0.00  0.00    -0.057 A 
ATOM      3  C3  UNL d   1      -1.293   2.999   0.611  0.00  0.00     0.033 A 
ATOM      4  C4  UNL d   1      -1.854   2.862   1.876  0.00  0.00    -0.042 A 
ATOM      5  C5  UNL d   1      -1.141   2.205   2.873  0.00  0.00     0.033 A 
ATOM      6  C6  UNL d   1       0.131   1.692   2.599  0.00  0.00    -0.057 A 
ENDROOT
BRANCH   1   7
ATOM      7  N   UNL d   1       1.952   1.210   1.104  0.00  0.00    -0.732 N 
ATOM      8  C   UNL d   1       3.191   1.859   1.474  0.00  0.00     0.284 C 
ATOM      9  H3  UNL d   1       1.925   0.214   1.312  0.00  0.00     0.395 HD
ENDBRANCH   1   7
TORSDOF 1
ENDMDL
