MODEL 1
REMARK minimizedAffinity 1.26400566
REMARK minimizedRMSD -1
REMARK  1 active torsions:
REMARK  status: ('A' for Active; 'I' for Inactive)
REMARK    1  A    between atoms: N_2  and  C1_3 
ROOT
ATOM      1  C1  UNL d   1      -3.702   4.973  -5.597  0.00  0.00     0.143 A 
ATOM      2  C2  UNL d   1      -2.530   5.181  -4.862  0.00  0.00    -0.057 A 
ATOM      3  C3  UNL d   1      -1.762   4.105  -4.399  0.00  0.00     0.033 A 
ATOM      4  C4  UNL d   1      -2.170   2.798  -4.640  0.00  0.00    -0.042 A 
ATOM      5  C5  UNL d   1      -3.345   2.567  -5.348  0.00  0.00     0.033 A 
ATOM      6  C6  UNL d   1      -4.103   3.646  -5.813  0.00  0.00    -0.057 A 
ENDROOT
BRANCH   1   7
ATOM      7  N   UNL d   1      -4.560   6.000  -6.000  0.00  0.00    -0.732 N 
ATOM      8  C   UNL d   1      -5.994   5.808  -5.987  0.00  0.00     0.284 C 
ATOM      9  H3  UNL d   1      -4.259   6.912  -5.664  0.00  0.00     0.395 HD
ENDBRANCH   1   7
TORSDOF 1
ENDMDL
