MODEL 1
REMARK minimizedAffinity 0.266747624
REMARK minimizedRMSD -1
REMARK  1 active torsions:
REMARK  status: ('A' for Active; 'I' for Inactive)
REMARK    1  A    between atoms: N_2  and  C1_3 
ROOT
ATOM      1  C1  UNL d   1       5.133   4.827  -0.365  0.00  0.00     0.143 A 
ATOM      2  C2  UNL d   1       3.923   5.402  -0.770  0.00  0.00    -0.057 A 
ATOM      3  C3  UNL d   1       3.056   5.997   0.155  0.00  0.00     0.033 A 
ATOM      4  C4  UNL d   1       3.371   6.000   1.510  0.00  0.00    -0.042 A 
ATOM      5  C5  UNL d   1       4.556   5.412   1.938  0.00  0.00     0.033 A 
ATOM      6  C6  UNL d   1       5.421   4.826   1.009  0.00  0.00    -0.057 A 
ENDROOT
BRANCH   1   7
ATOM      7  N   UNL d   1       5.990   4.134  -1.223  0.00  0.00    -0.732 N 
ATOM      8  C   UNL d   1       5.460   3.242  -2.232  0.00  0.00     0.284 C 
ATOM      9  H3  UNL d   1       6.767   4.708  -1.542  0.00  0.00     0.395 HD
ENDBRANCH   1   7
TORSDOF 1
ENDMDL
