MODEL 1
REMARK minimizedAffinity 6.35402012
REMARK minimizedRMSD -1
REMARK  1 active torsions:
REMARK  status: ('A' for Active; 'I' for Inactive)
REMARK    1  A    between atoms: N_2  and  C1_3 
ROOT
ATOM      1  C1  UNL d   1       3.523   3.636   1.681  0.00  0.00     0.143 A 
ATOM      2  C2  UNL d   1       4.829   3.639   1.178  0.00  0.00    -0.057 A 
ATOM      3  C3  UNL d   1       5.623   4.791   1.226  0.00  0.00     0.033 A 
ATOM      4  C4  UNL d   1       5.114   5.972   1.754  0.00  0.00    -0.042 A 
ATOM      5  C5  UNL d   1       3.810   6.000   2.237  0.00  0.00     0.033 A 
ATOM      6  C6  UNL d   1       3.024   4.844   2.192  0.00  0.00    -0.057 A 
ENDROOT
BRANCH   1   7
ATOM      7  N   UNL d   1       2.650   2.551   1.573  0.00  0.00    -0.732 N 
ATOM      8  C   UNL d   1       1.233   2.763   1.372  0.00  0.00     0.284 C 
ATOM      9  H3  UNL d   1       3.040   1.793   1.017  0.00  0.00     0.395 HD
ENDBRANCH   1   7
TORSDOF 1
ENDMDL
