MODEL 1
REMARK minimizedAffinity 4.24313307
REMARK minimizedRMSD -1
REMARK  3 active torsions:
REMARK  status: ('A' for Active; 'I' for Inactive)
REMARK    1  A    between atoms: C3'_2  and  C2'_3 
REMARK    2  A    between atoms: C2'_3  and  C1'_4 
REMARK    3  A    between atoms: C1'_4  and  C1_5 
ROOT
ATOM      1  C1  N4B d   1       1.139  -2.239   2.202  0.00  0.00    -0.075 A 
ATOM      2  C2  N4B d   1       0.976  -3.640   2.272  0.00  0.00     0.002 A 
ATOM      3  C3  N4B d   1       1.560  -4.447   1.326  0.00  0.00     0.002 A 
ATOM      4  C4  N4B d   1       2.291  -3.876   0.295  0.00  0.00    -0.004 A 
ATOM      5  C5  N4B d   1       2.464  -2.524   0.249  0.00  0.00     0.002 A 
ATOM      6  C6  N4B d   1       1.887  -1.701   1.195  0.00  0.00     0.002 A 
ENDROOT
BRANCH   1   7
ATOM      7  C1' N4B d   1       0.448  -1.311   3.164  0.00  0.00     0.057 C 
BRANCH   7   8
ATOM      8  C2' N4B d   1      -1.055  -1.566   3.115  0.00  0.00     0.009 C 
BRANCH   8   9
ATOM      9  C3' N4B d   1      -1.377  -2.984   2.675  0.00  0.00     0.004 C 
ATOM     10  C4' N4B d   1      -2.006  -3.801   3.764  0.00  0.00     0.003 C 
ENDBRANCH   8   9
ENDBRANCH   7   8
ENDBRANCH   1   7
TORSDOF 3
ENDMDL
