MODEL 1
REMARK minimizedAffinity 5.80057716
REMARK minimizedRMSD -1
REMARK  3 active torsions:
REMARK  status: ('A' for Active; 'I' for Inactive)
REMARK    1  A    between atoms: C3'_2  and  C2'_3 
REMARK    2  A    between atoms: C2'_3  and  C1'_4 
REMARK    3  A    between atoms: C1'_4  and  C1_5 
ROOT
ATOM      1  C1  N4B d   1      -3.808   2.449   5.005  0.00  0.00    -0.075 A 
ATOM      2  C2  N4B d   1      -3.968   1.459   6.000  0.00  0.00     0.002 A 
ATOM      3  C3  N4B d   1      -5.054   0.619   5.964  0.00  0.00     0.002 A 
ATOM      4  C4  N4B d   1      -5.999   0.762   4.959  0.00  0.00    -0.004 A 
ATOM      5  C5  N4B d   1      -5.824   1.704   3.988  0.00  0.00     0.002 A 
ATOM      6  C6  N4B d   1      -4.735   2.553   4.009  0.00  0.00     0.002 A 
ENDROOT
BRANCH   1   7
ATOM      7  C1' N4B d   1      -2.683   3.446   5.051  0.00  0.00     0.057 C 
BRANCH   7   8
ATOM      8  C2' N4B d   1      -3.261   4.846   5.239  0.00  0.00     0.009 C 
BRANCH   8   9
ATOM      9  C3' N4B d   1      -2.305   5.760   5.987  0.00  0.00     0.004 C 
ATOM     10  C4' N4B d   1      -1.026   5.998   5.241  0.00  0.00     0.003 C 
ENDBRANCH   8   9
ENDBRANCH   7   8
ENDBRANCH   1   7
TORSDOF 3
ENDMDL
