MODEL 1
REMARK minimizedAffinity 8.32229233
REMARK minimizedRMSD -1
REMARK  3 active torsions:
REMARK  status: ('A' for Active; 'I' for Inactive)
REMARK    1  A    between atoms: C3'_2  and  C2'_3 
REMARK    2  A    between atoms: C2'_3  and  C1'_4 
REMARK    3  A    between atoms: C1'_4  and  C1_5 
ROOT
ATOM      1  C1  N4B d   1      -4.105  -0.573  -2.642  0.00  0.00    -0.075 A 
ATOM      2  C2  N4B d   1      -4.502  -1.920  -2.787  0.00  0.00     0.002 A 
ATOM      3  C3  N4B d   1      -5.435  -2.262  -3.735  0.00  0.00     0.002 A 
ATOM      4  C4  N4B d   1      -5.997  -1.276  -4.532  0.00  0.00    -0.004 A 
ATOM      5  C5  N4B d   1      -5.589   0.019  -4.402  0.00  0.00     0.002 A 
ATOM      6  C6  N4B d   1      -4.650   0.377  -3.457  0.00  0.00     0.002 A 
ENDROOT
BRANCH   1   7
ATOM      7  C1' N4B d   1      -3.152  -0.138  -1.562  0.00  0.00     0.057 C 
BRANCH   7   8
ATOM      8  C2' N4B d   1      -1.936   0.524  -2.204  0.00  0.00     0.009 C 
BRANCH   8   9
ATOM      9  C3' N4B d   1      -2.063   2.038  -2.235  0.00  0.00     0.004 C 
ATOM     10  C4' N4B d   1      -1.304   2.661  -3.368  0.00  0.00     0.003 C 
ENDBRANCH   8   9
ENDBRANCH   7   8
ENDBRANCH   1   7
TORSDOF 3
ENDMDL
