MODEL 1
REMARK minimizedAffinity 1.23558569
REMARK minimizedRMSD -1
REMARK  3 active torsions:
REMARK  status: ('A' for Active; 'I' for Inactive)
REMARK    1  A    between atoms: C3'_2  and  C2'_3 
REMARK    2  A    between atoms: C2'_3  and  C1'_4 
REMARK    3  A    between atoms: C1'_4  and  C1_5 
ROOT
ATOM      1  C1  N4B d   1      -3.238   3.145  -5.824  0.00  0.00    -0.075 A 
ATOM      2  C2  N4B d   1      -4.635   3.039  -5.999  0.00  0.00     0.002 A 
ATOM      3  C3  N4B d   1      -5.415   4.170  -6.000  0.00  0.00     0.002 A 
ATOM      4  C4  N4B d   1      -4.824   5.410  -5.809  0.00  0.00    -0.004 A 
ATOM      5  C5  N4B d   1      -3.471   5.506  -5.667  0.00  0.00     0.002 A 
ATOM      6  C6  N4B d   1      -2.675   4.379  -5.668  0.00  0.00     0.002 A 
ENDROOT
BRANCH   1   7
ATOM      7  C1' N4B d   1      -2.355   1.931  -5.730  0.00  0.00     0.057 C 
BRANCH   7   8
ATOM      8  C2' N4B d   1      -1.483   2.041  -4.483  0.00  0.00     0.009 C 
BRANCH   8   9
ATOM      9  C3' N4B d   1      -2.308   2.301  -3.234  0.00  0.00     0.004 C 
ATOM     10  C4' N4B d   1      -2.216   1.187  -2.235  0.00  0.00     0.003 C 
ENDBRANCH   8   9
ENDBRANCH   7   8
ENDBRANCH   1   7
TORSDOF 3
ENDMDL
