MODEL 1
REMARK minimizedAffinity -4.26702499
REMARK minimizedRMSD -1
REMARK  0 active torsions:
REMARK  status: ('A' for Active; 'I' for Inactive)
ROOT
ATOM      1  C1  BNZ d   1       1.875  -2.363  -0.096  0.00  0.00     0.000 A 
ATOM      2  C2  BNZ d   1       1.847  -1.143  -0.717  0.00  0.00     0.000 A 
ATOM      3  C3  BNZ d   1       0.991  -0.163  -0.297  0.00  0.00     0.000 A 
ATOM      4  C4  BNZ d   1       0.138  -0.417   0.716  0.00  0.00     0.000 A 
ATOM      5  C5  BNZ d   1       0.148  -1.645   1.346  0.00  0.00     0.000 A 
ATOM      6  C6  BNZ d   1       1.037  -2.616   0.947  0.00  0.00     0.000 A 
ENDROOT
TORSDOF 0
ENDMDL
