MODEL 1
REMARK minimizedAffinity -4.86565161
REMARK minimizedRMSD -1
REMARK  0 active torsions:
REMARK  status: ('A' for Active; 'I' for Inactive)
ROOT
ATOM      1  C1  BNZ d   1       2.746  -0.985   0.865  0.00  0.00     0.000 A 
ATOM      2  C2  BNZ d   1       1.946  -1.998   1.320  0.00  0.00     0.000 A 
ATOM      3  C3  BNZ d   1       0.627  -2.061   0.966  0.00  0.00     0.000 A 
ATOM      4  C4  BNZ d   1       0.101  -1.090   0.192  0.00  0.00     0.000 A 
ATOM      5  C5  BNZ d   1       0.893  -0.056  -0.267  0.00  0.00     0.000 A 
ATOM      6  C6  BNZ d   1       2.229  -0.017   0.059  0.00  0.00     0.000 A 
ENDROOT
TORSDOF 0
ENDMDL
