MODEL 1
REMARK minimizedAffinity -2.97161794
REMARK minimizedRMSD -1
REMARK  0 active torsions:
REMARK  status: ('A' for Active; 'I' for Inactive)
ROOT
ATOM      1  C1  BNZ d   1       0.005   0.691  -0.786  0.00  0.00     0.000 A 
ATOM      2  C2  BNZ d   1      -0.545   0.660  -2.040  0.00  0.00     0.000 A 
ATOM      3  C3  BNZ d   1      -0.588   1.785  -2.814  0.00  0.00     0.000 A 
ATOM      4  C4  BNZ d   1      -0.118   2.949  -2.319  0.00  0.00     0.000 A 
ATOM      5  C5  BNZ d   1       0.430   2.999  -1.053  0.00  0.00     0.000 A 
ATOM      6  C6  BNZ d   1       0.507   1.855  -0.292  0.00  0.00     0.000 A 
ENDROOT
TORSDOF 0
ENDMDL
