MODEL 1
REMARK minimizedAffinity -4.18415117
REMARK minimizedRMSD -1
REMARK  0 active torsions:
REMARK  status: ('A' for Active; 'I' for Inactive)
ROOT
ATOM      1  C1  BNZ d   1      -0.456  -1.122   0.693  0.00  0.00     0.000 A 
ATOM      2  C2  BNZ d   1       0.812  -1.637   0.756  0.00  0.00     0.000 A 
ATOM      3  C3  BNZ d   1       1.878  -0.930   0.275  0.00  0.00     0.000 A 
ATOM      4  C4  BNZ d   1       1.672   0.270  -0.304  0.00  0.00     0.000 A 
ATOM      5  C5  BNZ d   1       0.398   0.799  -0.383  0.00  0.00     0.000 A 
ATOM      6  C6  BNZ d   1      -0.668   0.102   0.138  0.00  0.00     0.000 A 
ENDROOT
TORSDOF 0
ENDMDL
