MODEL 1
REMARK minimizedAffinity -4.07781696
REMARK minimizedRMSD -1
REMARK  0 active torsions:
REMARK  status: ('A' for Active; 'I' for Inactive)
ROOT
ATOM      1  C1  BNZ d   1       1.949  -0.625   0.297  0.00  0.00     0.000 A 
ATOM      2  C2  BNZ d   1       2.458  -1.685   0.999  0.00  0.00     0.000 A 
ATOM      3  C3  BNZ d   1       1.744  -2.843   1.132  0.00  0.00     0.000 A 
ATOM      4  C4  BNZ d   1       0.508  -2.926   0.599  0.00  0.00     0.000 A 
ATOM      5  C5  BNZ d   1      -0.023  -1.862  -0.104  0.00  0.00     0.000 A 
ATOM      6  C6  BNZ d   1       0.714  -0.712  -0.269  0.00  0.00     0.000 A 
ENDROOT
TORSDOF 0
ENDMDL
