MODEL 1
REMARK minimizedAffinity -3.22371006
REMARK minimizedRMSD -1
REMARK  0 active torsions:
REMARK  status: ('A' for Active; 'I' for Inactive)
ROOT
ATOM      1  C1  BNZ d   1       0.116  -2.251   1.369  0.00  0.00     0.000 A 
ATOM      2  C2  BNZ d   1       1.358  -2.795   1.175  0.00  0.00     0.000 A 
ATOM      3  C3  BNZ d   1       2.333  -2.095   0.522  0.00  0.00     0.000 A 
ATOM      4  C4  BNZ d   1       2.055  -0.871   0.029  0.00  0.00     0.000 A 
ATOM      5  C5  BNZ d   1       0.805  -0.313   0.208  0.00  0.00     0.000 A 
ATOM      6  C6  BNZ d   1      -0.163  -1.004   0.900  0.00  0.00     0.000 A 
ENDROOT
TORSDOF 0
ENDMDL
