MODEL 1
REMARK minimizedAffinity -4.23864985
REMARK minimizedRMSD -1
REMARK  0 active torsions:
REMARK  status: ('A' for Active; 'I' for Inactive)
ROOT
ATOM      1  C1  BNZ d   1       0.316   0.642  -0.267  0.00  0.00     0.000 A 
ATOM      2  C2  BNZ d   1       1.526   0.007  -0.356  0.00  0.00     0.000 A 
ATOM      3  C3  BNZ d   1       1.705  -1.238   0.177  0.00  0.00     0.000 A 
ATOM      4  C4  BNZ d   1       0.686  -1.831   0.833  0.00  0.00     0.000 A 
ATOM      5  C5  BNZ d   1      -0.537  -1.200   0.940  0.00  0.00     0.000 A 
ATOM      6  C6  BNZ d   1      -0.725   0.037   0.368  0.00  0.00     0.000 A 
ENDROOT
TORSDOF 0
ENDMDL
