MODEL 1
REMARK minimizedAffinity -2.33460069
REMARK minimizedRMSD -1
REMARK  0 active torsions:
REMARK  status: ('A' for Active; 'I' for Inactive)
ROOT
ATOM      1  C1  BNZ d   1       0.334   0.898  -1.012  0.00  0.00     0.000 A 
ATOM      2  C2  BNZ d   1       1.574   0.368  -0.768  0.00  0.00     0.000 A 
ATOM      3  C3  BNZ d   1       1.752  -0.577   0.203  0.00  0.00     0.000 A 
ATOM      4  C4  BNZ d   1       0.701  -0.961   0.956  0.00  0.00     0.000 A 
ATOM      5  C5  BNZ d   1      -0.553  -0.429   0.729  0.00  0.00     0.000 A 
ATOM      6  C6  BNZ d   1      -0.736   0.493  -0.276  0.00  0.00     0.000 A 
ENDROOT
TORSDOF 0
ENDMDL
