MODEL 1
REMARK minimizedAffinity -3.92225385
REMARK minimizedRMSD -1
REMARK  0 active torsions:
REMARK  status: ('A' for Active; 'I' for Inactive)
ROOT
ATOM      1  C1  BNZ d   1      -0.171   1.018  -0.068  0.00  0.00     0.000 A 
ATOM      2  C2  BNZ d   1      -1.137   1.026   0.902  0.00  0.00     0.000 A 
ATOM      3  C3  BNZ d   1      -1.488  -0.124   1.551  0.00  0.00     0.000 A 
ATOM      4  C4  BNZ d   1      -0.901  -1.287   1.202  0.00  0.00     0.000 A 
ATOM      5  C5  BNZ d   1       0.069  -1.314   0.220  0.00  0.00     0.000 A 
ATOM      6  C6  BNZ d   1       0.447  -0.147  -0.404  0.00  0.00     0.000 A 
ENDROOT
TORSDOF 0
ENDMDL
