MODEL 1
REMARK minimizedAffinity -4.27742624
REMARK minimizedRMSD -1
REMARK  0 active torsions:
REMARK  status: ('A' for Active; 'I' for Inactive)
ROOT
ATOM      1  C1  BNZ d   1       1.880   0.032  -0.067  0.00  0.00     0.000 A 
ATOM      2  C2  BNZ d   1       0.554   0.329   0.105  0.00  0.00     0.000 A 
ATOM      3  C3  BNZ d   1      -0.283  -0.547   0.736  0.00  0.00     0.000 A 
ATOM      4  C4  BNZ d   1       0.196  -1.735   1.158  0.00  0.00     0.000 A 
ATOM      5  C5  BNZ d   1       1.528  -2.054   0.983  0.00  0.00     0.000 A 
ATOM      6  C6  BNZ d   1       2.377  -1.153   0.383  0.00  0.00     0.000 A 
ENDROOT
TORSDOF 0
ENDMDL
