MODEL 1
REMARK minimizedAffinity -3.38060975
REMARK minimizedRMSD -1
REMARK  0 active torsions:
REMARK  status: ('A' for Active; 'I' for Inactive)
ROOT
ATOM      1  C1  BNZ d   1      -1.233  -0.612   1.704  0.00  0.00     0.000 A 
ATOM      2  C2  BNZ d   1      -1.074   0.523   0.954  0.00  0.00     0.000 A 
ATOM      3  C3  BNZ d   1      -0.132   0.582  -0.034  0.00  0.00     0.000 A 
ATOM      4  C4  BNZ d   1       0.677  -0.476  -0.245  0.00  0.00     0.000 A 
ATOM      5  C5  BNZ d   1       0.535  -1.624   0.509  0.00  0.00     0.000 A 
ATOM      6  C6  BNZ d   1      -0.440  -1.695   1.477  0.00  0.00     0.000 A 
ENDROOT
TORSDOF 0
ENDMDL
