MODEL 1
REMARK minimizedAffinity -5.29981756
REMARK minimizedRMSD -1
REMARK  0 active torsions:
REMARK  status: ('A' for Active; 'I' for Inactive)
ROOT
ATOM      1  C1  BNZ d   1      -0.033  -1.047   0.799  0.00  0.00     0.000 A 
ATOM      2  C2  BNZ d   1       0.952  -0.293   0.219  0.00  0.00     0.000 A 
ATOM      3  C3  BNZ d   1       2.160  -0.848  -0.101  0.00  0.00     0.000 A 
ATOM      4  C4  BNZ d   1       2.395  -2.142   0.196  0.00  0.00     0.000 A 
ATOM      5  C5  BNZ d   1       1.415  -2.912   0.789  0.00  0.00     0.000 A 
ATOM      6  C6  BNZ d   1       0.186  -2.361   1.074  0.00  0.00     0.000 A 
ENDROOT
TORSDOF 0
ENDMDL
