MODEL 1
REMARK minimizedAffinity -4.93715239
REMARK minimizedRMSD -1
REMARK  0 active torsions:
REMARK  status: ('A' for Active; 'I' for Inactive)
ROOT
ATOM      1  C1  BNZ d   1       1.478  -2.396   1.148  0.00  0.00     0.000 A 
ATOM      2  C2  BNZ d   1       0.951  -2.726   2.368  0.00  0.00     0.000 A 
ATOM      3  C3  BNZ d   1      -0.245  -2.206   2.778  0.00  0.00     0.000 A 
ATOM      4  C4  BNZ d   1      -0.891  -1.326   1.987  0.00  0.00     0.000 A 
ATOM      5  C5  BNZ d   1      -0.368  -0.976   0.758  0.00  0.00     0.000 A 
ATOM      6  C6  BNZ d   1       0.816  -1.532   0.332  0.00  0.00     0.000 A 
ENDROOT
TORSDOF 0
ENDMDL
