MODEL 1
REMARK minimizedAffinity -4.53194904
REMARK minimizedRMSD -1
REMARK  0 active torsions:
REMARK  status: ('A' for Active; 'I' for Inactive)
ROOT
ATOM      1  C1  BNZ d   1       0.247  -1.698   0.945  0.00  0.00     0.000 A 
ATOM      2  C2  BNZ d   1      -0.078  -0.682   0.087  0.00  0.00     0.000 A 
ATOM      3  C3  BNZ d   1       0.895   0.021  -0.567  0.00  0.00     0.000 A 
ATOM      4  C4  BNZ d   1       2.192  -0.265  -0.330  0.00  0.00     0.000 A 
ATOM      5  C5  BNZ d   1       2.536  -1.280   0.540  0.00  0.00     0.000 A 
ATOM      6  C6  BNZ d   1       1.553  -2.012   1.165  0.00  0.00     0.000 A 
ENDROOT
TORSDOF 0
ENDMDL
