MODEL 1
REMARK minimizedAffinity -5.29891205
REMARK minimizedRMSD -1
REMARK  0 active torsions:
REMARK  status: ('A' for Active; 'I' for Inactive)
ROOT
ATOM      1  C1  BNZ d   1       1.017  -1.598   0.171  0.00  0.00     0.000 A 
ATOM      2  C2  BNZ d   1       1.545  -2.597   0.945  0.00  0.00     0.000 A 
ATOM      3  C3  BNZ d   1       0.906  -3.017   2.078  0.00  0.00     0.000 A 
ATOM      4  C4  BNZ d   1      -0.237  -2.411   2.458  0.00  0.00     0.000 A 
ATOM      5  C5  BNZ d   1      -0.777  -1.396   1.693  0.00  0.00     0.000 A 
ATOM      6  C6  BNZ d   1      -0.152  -1.003   0.533  0.00  0.00     0.000 A 
ENDROOT
TORSDOF 0
ENDMDL
