MODEL 1
REMARK minimizedAffinity -3.76860881
REMARK minimizedRMSD -1
REMARK  0 active torsions:
REMARK  status: ('A' for Active; 'I' for Inactive)
ROOT
ATOM      1  C1  BNZ d   1      -1.860   1.259  -1.593  0.00  0.00     0.000 A 
ATOM      2  C2  BNZ d   1      -0.805   2.132  -1.568  0.00  0.00     0.000 A 
ATOM      3  C3  BNZ d   1      -0.305   2.659  -2.726  0.00  0.00     0.000 A 
ATOM      4  C4  BNZ d   1      -0.833   2.281  -3.908  0.00  0.00     0.000 A 
ATOM      5  C5  BNZ d   1      -1.890   1.394  -3.951  0.00  0.00     0.000 A 
ATOM      6  C6  BNZ d   1      -2.416   0.896  -2.781  0.00  0.00     0.000 A 
ENDROOT
TORSDOF 0
ENDMDL
