MODEL 1
REMARK minimizedAffinity -4.77557325
REMARK minimizedRMSD -1
REMARK  0 active torsions:
REMARK  status: ('A' for Active; 'I' for Inactive)
ROOT
ATOM      1  C1  BNZ d   1       1.149  -2.509   1.421  0.00  0.00     0.000 A 
ATOM      2  C2  BNZ d   1       0.079  -1.655   1.411  0.00  0.00     0.000 A 
ATOM      3  C3  BNZ d   1       0.073  -0.549   0.608  0.00  0.00     0.000 A 
ATOM      4  C4  BNZ d   1       1.152  -0.277  -0.154  0.00  0.00     0.000 A 
ATOM      5  C5  BNZ d   1       2.243  -1.123  -0.148  0.00  0.00     0.000 A 
ATOM      6  C6  BNZ d   1       2.230  -2.256   0.633  0.00  0.00     0.000 A 
ENDROOT
TORSDOF 0
ENDMDL
