MODEL 1
REMARK minimizedAffinity 3.27942085
REMARK minimizedRMSD -1
REMARK  0 active torsions:
REMARK  status: ('A' for Active; 'I' for Inactive)
ROOT
ATOM      1  C1  BNZ d   1       2.095   4.512   0.010  0.00  0.00     0.000 A 
ATOM      2  C2  BNZ d   1       1.466   3.552   0.758  0.00  0.00     0.000 A 
ATOM      3  C3  BNZ d   1       0.118   3.354   0.653  0.00  0.00     0.000 A 
ATOM      4  C4  BNZ d   1      -0.606   4.142  -0.168  0.00  0.00     0.000 A 
ATOM      5  C5  BNZ d   1       0.012   5.121  -0.921  0.00  0.00     0.000 A 
ATOM      6  C6  BNZ d   1       1.375   5.291  -0.842  0.00  0.00     0.000 A 
ENDROOT
TORSDOF 0
ENDMDL
