MODEL 1
REMARK minimizedAffinity -2.82216072
REMARK minimizedRMSD -1
REMARK  0 active torsions:
REMARK  status: ('A' for Active; 'I' for Inactive)
ROOT
ATOM      1  C1  BNZ d   1      -1.893  -2.052  -5.439  0.00  0.00     0.000 A 
ATOM      2  C2  BNZ d   1      -1.850  -0.728  -5.094  0.00  0.00     0.000 A 
ATOM      3  C3  BNZ d   1      -0.705  -0.171  -4.597  0.00  0.00     0.000 A 
ATOM      4  C4  BNZ d   1       0.382  -0.946  -4.409  0.00  0.00     0.000 A 
ATOM      5  C5  BNZ d   1       0.352  -2.285  -4.744  0.00  0.00     0.000 A 
ATOM      6  C6  BNZ d   1      -0.790  -2.834  -5.280  0.00  0.00     0.000 A 
ENDROOT
TORSDOF 0
ENDMDL
