MODEL 1
REMARK minimizedAffinity 5.98270988
REMARK minimizedRMSD -1
REMARK  0 active torsions:
REMARK  status: ('A' for Active; 'I' for Inactive)
ROOT
ATOM      1  C1  BNZ d   1      -5.974   4.466  -4.986  0.00  0.00     0.000 A 
ATOM      2  C2  BNZ d   1      -4.827   5.214  -5.000  0.00  0.00     0.000 A 
ATOM      3  C3  BNZ d   1      -3.694   4.769  -4.379  0.00  0.00     0.000 A 
ATOM      4  C4  BNZ d   1      -3.720   3.598  -3.712  0.00  0.00     0.000 A 
ATOM      5  C5  BNZ d   1      -4.872   2.837  -3.680  0.00  0.00     0.000 A 
ATOM      6  C6  BNZ d   1      -5.999   3.269  -4.340  0.00  0.00     0.000 A 
ENDROOT
TORSDOF 0
ENDMDL
