MODEL 1
REMARK minimizedAffinity 2.10147929
REMARK minimizedRMSD -1
REMARK  0 active torsions:
REMARK  status: ('A' for Active; 'I' for Inactive)
ROOT
ATOM      1  C1  BNZ d   1       5.366  -3.770  -0.240  0.00  0.00     0.000 A 
ATOM      2  C2  BNZ d   1       4.782  -2.844   0.582  0.00  0.00     0.000 A 
ATOM      3  C3  BNZ d   1       4.198  -1.721   0.068  0.00  0.00     0.000 A 
ATOM      4  C4  BNZ d   1       4.234  -1.505  -1.263  0.00  0.00     0.000 A 
ATOM      5  C5  BNZ d   1       4.828  -2.424  -2.104  0.00  0.00     0.000 A 
ATOM      6  C6  BNZ d   1       5.380  -3.573  -1.587  0.00  0.00     0.000 A 
ENDROOT
TORSDOF 0
ENDMDL
