MODEL 1
REMARK minimizedAffinity 3.27285671
REMARK minimizedRMSD -1
REMARK  0 active torsions:
REMARK  status: ('A' for Active; 'I' for Inactive)
ROOT
ATOM      1  C1  BNZ d   1       1.131   3.114   1.123  0.00  0.00     0.000 A 
ATOM      2  C2  BNZ d   1       1.714   4.238   0.602  0.00  0.00     0.000 A 
ATOM      3  C3  BNZ d   1       1.574   4.550  -0.722  0.00  0.00     0.000 A 
ATOM      4  C4  BNZ d   1       0.886   3.718  -1.529  0.00  0.00     0.000 A 
ATOM      5  C5  BNZ d   1       0.300   2.576  -1.021  0.00  0.00     0.000 A 
ATOM      6  C6  BNZ d   1       0.410   2.285   0.320  0.00  0.00     0.000 A 
ENDROOT
TORSDOF 0
ENDMDL
