MODEL 1
REMARK minimizedAffinity 0.085609749
REMARK minimizedRMSD -1
REMARK  0 active torsions:
REMARK  status: ('A' for Active; 'I' for Inactive)
ROOT
ATOM      1  C1  BNZ d   1      -4.994   5.191  -5.620  0.00  0.00     0.000 A 
ATOM      2  C2  BNZ d   1      -6.000   4.261  -5.605  0.00  0.00     0.000 A 
ATOM      3  C3  BNZ d   1      -5.925   3.162  -4.795  0.00  0.00     0.000 A 
ATOM      4  C4  BNZ d   1      -4.829   2.974  -4.032  0.00  0.00     0.000 A 
ATOM      5  C5  BNZ d   1      -3.803   3.898  -4.043  0.00  0.00     0.000 A 
ATOM      6  C6  BNZ d   1      -3.899   5.022  -4.830  0.00  0.00     0.000 A 
ENDROOT
TORSDOF 0
ENDMDL
