MODEL 1
REMARK minimizedAffinity 2.25877595
REMARK minimizedRMSD -1
REMARK  0 active torsions:
REMARK  status: ('A' for Active; 'I' for Inactive)
ROOT
ATOM      1  C1  BNZ d   1       0.667   3.952   0.259  0.00  0.00     0.000 A 
ATOM      2  C2  BNZ d   1       0.445   4.812  -0.784  0.00  0.00     0.000 A 
ATOM      3  C3  BNZ d   1       1.326   5.820  -1.059  0.00  0.00     0.000 A 
ATOM      4  C4  BNZ d   1       2.405   5.992  -0.268  0.00  0.00     0.000 A 
ATOM      5  C5  BNZ d   1       2.638   5.139   0.793  0.00  0.00     0.000 A 
ATOM      6  C6  BNZ d   1       1.769   4.101   1.043  0.00  0.00     0.000 A 
ENDROOT
TORSDOF 0
ENDMDL
