MODEL 1
REMARK minimizedAffinity 2.03434873
REMARK minimizedRMSD -1
REMARK  0 active torsions:
REMARK  status: ('A' for Active; 'I' for Inactive)
ROOT
ATOM      1  C1  BNZ d   1       1.540   0.408   0.017  0.00  0.00     0.000 A 
ATOM      2  C2  BNZ d   1       0.795   1.555  -0.040  0.00  0.00     0.000 A 
ATOM      3  C3  BNZ d   1       0.131   1.903  -1.183  0.00  0.00     0.000 A 
ATOM      4  C4  BNZ d   1       0.245   1.124  -2.279  0.00  0.00     0.000 A 
ATOM      5  C5  BNZ d   1       1.000  -0.031  -2.240  0.00  0.00     0.000 A 
ATOM      6  C6  BNZ d   1       1.635  -0.398  -1.076  0.00  0.00     0.000 A 
ENDROOT
TORSDOF 0
ENDMDL
