MODEL 1
REMARK minimizedAffinity 2.34236693
REMARK minimizedRMSD -1
REMARK  1 active torsions:
REMARK  status: ('A' for Active; 'I' for Inactive)
REMARK    1  A    between atoms: C3_4  and  O_7 
ROOT
ATOM      1  C   UNL d   1      -2.025   0.209   0.306  0.00  0.00    -0.033 A 
ATOM      2  C1  UNL d   1      -1.564  -0.017   1.605  0.00  0.00     0.039 A 
ATOM      3  C2  UNL d   1      -0.223  -0.336   1.826  0.00  0.00    -0.080 A 
ATOM      4  C3  UNL d   1       0.646  -0.423   0.742  0.00  0.00     0.150 A 
ATOM      5  C4  UNL d   1       0.195  -0.195  -0.554  0.00  0.00    -0.007 A 
ATOM      6  C5  UNL d   1      -1.145   0.122  -0.773  0.00  0.00     0.039 A 
ENDROOT
BRANCH   4   7
ATOM      7  O   UNL d   1       1.963  -0.736   0.907  0.00  0.00    -0.526 OA
ATOM      8  H5  UNL d   1       2.125  -0.895   1.852  0.00  0.00     0.418 HD
ENDBRANCH   4   7
TORSDOF 1
ENDMDL
