MODEL 1
REMARK minimizedAffinity 1.12772143
REMARK minimizedRMSD -1
REMARK  1 active torsions:
REMARK  status: ('A' for Active; 'I' for Inactive)
REMARK    1  A    between atoms: C3_4  and  O_7 
ROOT
ATOM      1  C   UNL d   1      -0.646  -0.091  -0.714  0.00  0.00    -0.033 A 
ATOM      2  C1  UNL d   1       0.589   0.291  -1.242  0.00  0.00     0.039 A 
ATOM      3  C2  UNL d   1       1.771  -0.106  -0.614  0.00  0.00    -0.080 A 
ATOM      4  C3  UNL d   1       1.705  -0.884   0.538  0.00  0.00     0.150 A 
ATOM      5  C4  UNL d   1       0.478  -1.272   1.067  0.00  0.00    -0.007 A 
ATOM      6  C5  UNL d   1      -0.701  -0.873   0.440  0.00  0.00     0.039 A 
ENDROOT
BRANCH   4   7
ATOM      7  O   UNL d   1       2.832  -1.292   1.188  0.00  0.00    -0.526 OA
ATOM      8  H5  UNL d   1       3.604  -0.926   0.725  0.00  0.00     0.418 HD
ENDBRANCH   4   7
TORSDOF 1
ENDMDL
