MODEL 1
REMARK minimizedAffinity -2.09531474
REMARK minimizedRMSD -1
REMARK  1 active torsions:
REMARK  status: ('A' for Active; 'I' for Inactive)
REMARK    1  A    between atoms: C3_4  and  O_7 
ROOT
ATOM      1  C   UNL d   1       1.193  -0.008  -0.028  0.00  0.00    -0.033 A 
ATOM      2  C1  UNL d   1       0.110  -0.529  -0.739  0.00  0.00     0.039 A 
ATOM      3  C2  UNL d   1      -0.087  -0.172  -2.074  0.00  0.00    -0.080 A 
ATOM      4  C3  UNL d   1       0.805   0.705  -2.686  0.00  0.00     0.150 A 
ATOM      5  C4  UNL d   1       1.887   1.225  -1.984  0.00  0.00    -0.007 A 
ATOM      6  C5  UNL d   1       2.082   0.868  -0.651  0.00  0.00     0.039 A 
ENDROOT
BRANCH   4   7
ATOM      7  O   UNL d   1       0.650   1.086  -3.986  0.00  0.00    -0.526 OA
ATOM      8  H5  UNL d   1      -0.156   0.671  -4.335  0.00  0.00     0.418 HD
ENDBRANCH   4   7
TORSDOF 1
ENDMDL
