MODEL 1
REMARK minimizedAffinity -4.54710484
REMARK minimizedRMSD -1
REMARK  1 active torsions:
REMARK  status: ('A' for Active; 'I' for Inactive)
REMARK    1  A    between atoms: C3_4  and  O_7 
ROOT
ATOM      1  C   UNL d   1      -0.109   1.076   2.627  0.00  0.00    -0.033 A 
ATOM      2  C1  UNL d   1       1.125   0.627   2.152  0.00  0.00     0.039 A 
ATOM      3  C2  UNL d   1       1.231   0.112   0.859  0.00  0.00    -0.080 A 
ATOM      4  C3  UNL d   1       0.099   0.052   0.051  0.00  0.00     0.150 A 
ATOM      5  C4  UNL d   1      -1.133   0.501   0.517  0.00  0.00    -0.007 A 
ATOM      6  C5  UNL d   1      -1.237   1.014   1.809  0.00  0.00     0.039 A 
ENDROOT
BRANCH   4   7
ATOM      7  O   UNL d   1       0.153  -0.447  -1.216  0.00  0.00    -0.526 OA
ATOM      8  H5  UNL d   1       1.061  -0.746  -1.391  0.00  0.00     0.418 HD
ENDBRANCH   4   7
TORSDOF 1
ENDMDL
