MODEL 1
REMARK minimizedAffinity -4.86641979
REMARK minimizedRMSD -1
REMARK  1 active torsions:
REMARK  status: ('A' for Active; 'I' for Inactive)
REMARK    1  A    between atoms: C3_4  and  O_7 
ROOT
ATOM      1  C   UNL d   1       0.005   1.207   3.205  0.00  0.00    -0.033 A 
ATOM      2  C1  UNL d   1      -1.007   1.437   2.270  0.00  0.00     0.039 A 
ATOM      3  C2  UNL d   1      -0.864   0.983   0.958  0.00  0.00    -0.080 A 
ATOM      4  C3  UNL d   1       0.293   0.300   0.593  0.00  0.00     0.150 A 
ATOM      5  C4  UNL d   1       1.303   0.063   1.520  0.00  0.00    -0.007 A 
ATOM      6  C5  UNL d   1       1.159   0.518   2.830  0.00  0.00     0.039 A 
ENDROOT
BRANCH   4   7
ATOM      7  O   UNL d   1       0.479  -0.159  -0.677  0.00  0.00    -0.526 OA
ATOM      8  H5  UNL d   1      -0.287   0.103  -1.214  0.00  0.00     0.418 HD
ENDBRANCH   4   7
TORSDOF 1
ENDMDL
