MODEL 1
REMARK minimizedAffinity -2.39593959
REMARK minimizedRMSD -1
REMARK  0 active torsions:
REMARK  status: ('A' for Active; 'I' for Inactive)
ROOT
ATOM      1  C   UNL d   1       0.191  -0.206   2.948  0.00  0.00     0.023 A 
ATOM      2  C1  UNL d   1       1.385   0.039   2.268  0.00  0.00     0.003 A 
ATOM      3  C2  UNL d   1       1.379   0.199   0.881  0.00  0.00     0.048 A 
ATOM      4  C3  UNL d   1       0.177   0.115   0.180  0.00  0.00     0.023 A 
ATOM      5  C4  UNL d   1      -1.020  -0.128   0.856  0.00  0.00     0.048 A 
ATOM      6  C5  UNL d   1      -1.009  -0.289   2.243  0.00  0.00     0.003 A 
ATOM      7  I   UNL d   1       0.166   0.354  -1.885  0.00  0.00    -0.146 I 
ENDROOT
TORSDOF 0
ENDMDL
