MODEL 1
REMARK minimizedAffinity -3.58872867
REMARK minimizedRMSD -1
REMARK  0 active torsions:
REMARK  status: ('A' for Active; 'I' for Inactive)
ROOT
ATOM      1  C   UNL d   1      -0.887  -0.173   3.118  0.00  0.00     0.023 A 
ATOM      2  C1  UNL d   1       0.447  -0.127   2.715  0.00  0.00     0.003 A 
ATOM      3  C2  UNL d   1       0.766  -0.029   1.359  0.00  0.00     0.048 A 
ATOM      4  C3  UNL d   1      -0.255   0.023   0.411  0.00  0.00     0.023 A 
ATOM      5  C4  UNL d   1      -1.592  -0.022   0.809  0.00  0.00     0.048 A 
ATOM      6  C5  UNL d   1      -1.906  -0.120   2.166  0.00  0.00     0.003 A 
ATOM      7  I   UNL d   1       0.216   0.168  -1.608  0.00  0.00    -0.146 I 
ENDROOT
TORSDOF 0
ENDMDL
