MODEL 1
REMARK minimizedAffinity -2.05184436
REMARK minimizedRMSD -1
REMARK  0 active torsions:
REMARK  status: ('A' for Active; 'I' for Inactive)
ROOT
ATOM      1  C   UNL d   1      -0.812  -0.053   2.924  0.00  0.00     0.023 A 
ATOM      2  C1  UNL d   1      -1.407  -0.966   2.054  0.00  0.00     0.003 A 
ATOM      3  C2  UNL d   1      -1.033  -0.996   0.709  0.00  0.00     0.048 A 
ATOM      4  C3  UNL d   1      -0.062  -0.111   0.241  0.00  0.00     0.023 A 
ATOM      5  C4  UNL d   1       0.537   0.804   1.108  0.00  0.00     0.048 A 
ATOM      6  C5  UNL d   1       0.159   0.831   2.452  0.00  0.00     0.003 A 
ATOM      7  I   UNL d   1       0.496  -0.154  -1.761  0.00  0.00    -0.146 I 
ENDROOT
TORSDOF 0
ENDMDL
