MODEL 1
REMARK minimizedAffinity -3.91937041
REMARK minimizedRMSD -1
REMARK  0 active torsions:
REMARK  status: ('A' for Active; 'I' for Inactive)
ROOT
ATOM      1  C   UNL d   1      -0.883  -0.573   3.059  0.00  0.00     0.023 A 
ATOM      2  C1  UNL d   1      -0.134   0.548   2.702  0.00  0.00     0.003 A 
ATOM      3  C2  UNL d   1       0.246   0.742   1.373  0.00  0.00     0.048 A 
ATOM      4  C3  UNL d   1      -0.127  -0.190   0.405  0.00  0.00     0.023 A 
ATOM      5  C4  UNL d   1      -0.877  -1.313   0.756  0.00  0.00     0.048 A 
ATOM      6  C5  UNL d   1      -1.254  -1.503   2.087  0.00  0.00     0.003 A 
ATOM      7  I   UNL d   1       0.437   0.096  -1.575  0.00  0.00    -0.146 I 
ENDROOT
TORSDOF 0
ENDMDL
