MODEL 1
REMARK minimizedAffinity -3.67105365
REMARK minimizedRMSD -1
REMARK  0 active torsions:
REMARK  status: ('A' for Active; 'I' for Inactive)
ROOT
ATOM      1  C   UNL d   1       0.048  -0.306   3.151  0.00  0.00     0.023 A 
ATOM      2  C1  UNL d   1       1.260  -0.108   2.490  0.00  0.00     0.003 A 
ATOM      3  C2  UNL d   1       1.286   0.014   1.099  0.00  0.00     0.048 A 
ATOM      4  C3  UNL d   1       0.096  -0.062   0.376  0.00  0.00     0.023 A 
ATOM      5  C4  UNL d   1      -1.119  -0.259   1.034  0.00  0.00     0.048 A 
ATOM      6  C5  UNL d   1      -1.140  -0.381   2.424  0.00  0.00     0.003 A 
ATOM      7  I   UNL d   1       0.132   0.119  -1.694  0.00  0.00    -0.146 I 
ENDROOT
TORSDOF 0
ENDMDL
