MODEL 1
REMARK minimizedAffinity -2.95106888
REMARK minimizedRMSD -1
REMARK  0 active torsions:
REMARK  status: ('A' for Active; 'I' for Inactive)
ROOT
ATOM      1  C   UNL d   1       0.068   0.178   2.742  0.00  0.00     0.023 A 
ATOM      2  C1  UNL d   1       1.174   0.768   2.130  0.00  0.00     0.003 A 
ATOM      3  C2  UNL d   1       1.307   0.730   0.740  0.00  0.00     0.048 A 
ATOM      4  C3  UNL d   1       0.331   0.100  -0.031  0.00  0.00     0.023 A 
ATOM      5  C4  UNL d   1      -0.778  -0.491   0.577  0.00  0.00     0.048 A 
ATOM      6  C5  UNL d   1      -0.906  -0.451   1.967  0.00  0.00     0.003 A 
ATOM      7  I   UNL d   1       0.527   0.042  -2.099  0.00  0.00    -0.146 I 
ENDROOT
TORSDOF 0
ENDMDL
