MODEL 1
REMARK minimizedAffinity -2.92954636
REMARK minimizedRMSD -1
REMARK  0 active torsions:
REMARK  status: ('A' for Active; 'I' for Inactive)
ROOT
ATOM      1  C   UNL d   1      -0.396  -0.206   2.371  0.00  0.00     0.023 A 
ATOM      2  C1  UNL d   1       0.892   0.102   1.935  0.00  0.00     0.003 A 
ATOM      3  C2  UNL d   1       1.202   0.047   0.575  0.00  0.00     0.048 A 
ATOM      4  C3  UNL d   1       0.219  -0.316  -0.344  0.00  0.00     0.023 A 
ATOM      5  C4  UNL d   1      -1.072  -0.624   0.088  0.00  0.00     0.048 A 
ATOM      6  C5  UNL d   1      -1.377  -0.568   1.449  0.00  0.00     0.003 A 
ATOM      7  I   UNL d   1       0.678  -0.399  -2.370  0.00  0.00    -0.146 I 
ENDROOT
TORSDOF 0
ENDMDL
