MODEL 1
REMARK minimizedAffinity -1.28491902
REMARK minimizedRMSD -1
REMARK  0 active torsions:
REMARK  status: ('A' for Active; 'I' for Inactive)
ROOT
ATOM      1  C   UNL d   1      -0.402   0.915   1.173  0.00  0.00     0.023 A 
ATOM      2  C1  UNL d   1       0.805   0.217   1.171  0.00  0.00     0.003 A 
ATOM      3  C2  UNL d   1       1.280  -0.354  -0.012  0.00  0.00     0.048 A 
ATOM      4  C3  UNL d   1       0.543  -0.223  -1.188  0.00  0.00     0.023 A 
ATOM      5  C4  UNL d   1      -0.666   0.476  -1.190  0.00  0.00     0.048 A 
ATOM      6  C5  UNL d   1      -1.137   1.044  -0.005  0.00  0.00     0.003 A 
ATOM      7  I   UNL d   1       1.248  -1.072  -2.949  0.00  0.00    -0.146 I 
ENDROOT
TORSDOF 0
ENDMDL
