MODEL 1
REMARK minimizedAffinity -3.0681479
REMARK minimizedRMSD -1
REMARK  0 active torsions:
REMARK  status: ('A' for Active; 'I' for Inactive)
ROOT
ATOM      1  C   UNL d   1      -0.496  -0.463   3.021  0.00  0.00     0.023 A 
ATOM      2  C1  UNL d   1       0.528   0.388   2.605  0.00  0.00     0.003 A 
ATOM      3  C2  UNL d   1       0.725   0.633   1.245  0.00  0.00     0.048 A 
ATOM      4  C3  UNL d   1      -0.106   0.024   0.305  0.00  0.00     0.023 A 
ATOM      5  C4  UNL d   1      -1.133  -0.828   0.716  0.00  0.00     0.048 A 
ATOM      6  C5  UNL d   1      -1.326  -1.070   2.078  0.00  0.00     0.003 A 
ATOM      7  I   UNL d   1       0.186   0.386  -1.721  0.00  0.00    -0.146 I 
ENDROOT
TORSDOF 0
ENDMDL
