MODEL 1
REMARK minimizedAffinity -1.98613667
REMARK minimizedRMSD -1
REMARK  0 active torsions:
REMARK  status: ('A' for Active; 'I' for Inactive)
ROOT
ATOM      1  C   UNL d   1      -0.466  -0.405   3.290  0.00  0.00     0.023 A 
ATOM      2  C1  UNL d   1       0.358   0.625   2.837  0.00  0.00     0.003 A 
ATOM      3  C2  UNL d   1       0.717   0.691   1.489  0.00  0.00     0.048 A 
ATOM      4  C3  UNL d   1       0.247  -0.274   0.600  0.00  0.00     0.023 A 
ATOM      5  C4  UNL d   1      -0.579  -1.306   1.049  0.00  0.00     0.048 A 
ATOM      6  C5  UNL d   1      -0.934  -1.369   2.398  0.00  0.00     0.003 A 
ATOM      7  I   UNL d   1       0.778  -0.177  -1.407  0.00  0.00    -0.146 I 
ENDROOT
TORSDOF 0
ENDMDL
