MODEL 1
REMARK minimizedAffinity -1.7573241
REMARK minimizedRMSD -1
REMARK  0 active torsions:
REMARK  status: ('A' for Active; 'I' for Inactive)
ROOT
ATOM      1  C   UNL d   1      -0.563   0.005   1.535  0.00  0.00     0.023 A 
ATOM      2  C1  UNL d   1      -1.406  -0.306   0.468  0.00  0.00     0.003 A 
ATOM      3  C2  UNL d   1      -0.922  -0.262  -0.841  0.00  0.00     0.048 A 
ATOM      4  C3  UNL d   1       0.406   0.093  -1.076  0.00  0.00     0.023 A 
ATOM      5  C4  UNL d   1       1.253   0.404  -0.011  0.00  0.00     0.048 A 
ATOM      6  C5  UNL d   1       0.764   0.359   1.296  0.00  0.00     0.003 A 
ATOM      7  I   UNL d   1       1.129   0.159  -3.023  0.00  0.00    -0.146 I 
ENDROOT
TORSDOF 0
ENDMDL
