MODEL 1
REMARK minimizedAffinity -5.52723598
REMARK minimizedRMSD -1
REMARK  0 active torsions:
REMARK  status: ('A' for Active; 'I' for Inactive)
ROOT
ATOM      1  C   UNL d   1      -0.181  -0.579   2.928  0.00  0.00     0.023 A 
ATOM      2  C1  UNL d   1       1.098  -0.455   2.387  0.00  0.00     0.003 A 
ATOM      3  C2  UNL d   1       1.261  -0.243   1.016  0.00  0.00     0.048 A 
ATOM      4  C3  UNL d   1       0.140  -0.156   0.192  0.00  0.00     0.023 A 
ATOM      5  C4  UNL d   1      -1.143  -0.278   0.729  0.00  0.00     0.048 A 
ATOM      6  C5  UNL d   1      -1.301  -0.491   2.100  0.00  0.00     0.003 A 
ATOM      7  I   UNL d   1       0.380   0.160  -1.848  0.00  0.00    -0.146 I 
ENDROOT
TORSDOF 0
ENDMDL
