MODEL 1
REMARK minimizedAffinity -3.21140361
REMARK minimizedRMSD -1
REMARK  0 active torsions:
REMARK  status: ('A' for Active; 'I' for Inactive)
ROOT
ATOM      1  C   UNL d   1       0.017  -0.799   3.132  0.00  0.00     0.023 A 
ATOM      2  C1  UNL d   1       0.835   0.208   2.620  0.00  0.00     0.003 A 
ATOM      3  C2  UNL d   1       0.743   0.568   1.274  0.00  0.00     0.048 A 
ATOM      4  C3  UNL d   1      -0.172  -0.082   0.446  0.00  0.00     0.023 A 
ATOM      5  C4  UNL d   1      -0.994  -1.089   0.954  0.00  0.00     0.048 A 
ATOM      6  C5  UNL d   1      -0.897  -1.446   2.300  0.00  0.00     0.003 A 
ATOM      7  I   UNL d   1      -0.312   0.452  -1.558  0.00  0.00    -0.146 I 
ENDROOT
TORSDOF 0
ENDMDL
