MODEL 1
REMARK minimizedAffinity -4.88903379
REMARK minimizedRMSD -1
REMARK  0 active torsions:
REMARK  status: ('A' for Active; 'I' for Inactive)
ROOT
ATOM      1  C   UNL d   1      -1.460   0.251   3.315  0.00  0.00     0.023 A 
ATOM      2  C1  UNL d   1      -0.081   0.326   3.115  0.00  0.00     0.003 A 
ATOM      3  C2  UNL d   1       0.457   0.074   1.851  0.00  0.00     0.048 A 
ATOM      4  C3  UNL d   1      -0.389  -0.251   0.792  0.00  0.00     0.023 A 
ATOM      5  C4  UNL d   1      -1.769  -0.327   0.987  0.00  0.00     0.048 A 
ATOM      6  C5  UNL d   1      -2.303  -0.075   2.252  0.00  0.00     0.003 A 
ATOM      7  I   UNL d   1       0.409  -0.627  -1.090  0.00  0.00    -0.146 I 
ENDROOT
TORSDOF 0
ENDMDL
