MODEL 1
REMARK minimizedAffinity -3.75216389
REMARK minimizedRMSD -1
REMARK  0 active torsions:
REMARK  status: ('A' for Active; 'I' for Inactive)
ROOT
ATOM      1  C   UNL d   1      -0.109  -0.270   2.753  0.00  0.00     0.023 A 
ATOM      2  C1  UNL d   1       1.034   0.324   2.217  0.00  0.00     0.003 A 
ATOM      3  C2  UNL d   1       1.239   0.326   0.836  0.00  0.00     0.048 A 
ATOM      4  C3  UNL d   1       0.297  -0.268  -0.004  0.00  0.00     0.023 A 
ATOM      5  C4  UNL d   1      -0.849  -0.863   0.528  0.00  0.00     0.048 A 
ATOM      6  C5  UNL d   1      -1.049  -0.863   1.910  0.00  0.00     0.003 A 
ATOM      7  I   UNL d   1       0.599  -0.267  -2.060  0.00  0.00    -0.146 I 
ENDROOT
TORSDOF 0
ENDMDL
