MODEL 1
REMARK minimizedAffinity -2.31799555
REMARK minimizedRMSD -1
REMARK  0 active torsions:
REMARK  status: ('A' for Active; 'I' for Inactive)
ROOT
ATOM      1  C   UNL d   1      -0.105  -0.052   2.404  0.00  0.00     0.023 A 
ATOM      2  C1  UNL d   1      -1.207  -0.170   1.557  0.00  0.00     0.003 A 
ATOM      3  C2  UNL d   1      -1.035  -0.104   0.173  0.00  0.00     0.048 A 
ATOM      4  C3  UNL d   1       0.241   0.078  -0.358  0.00  0.00     0.023 A 
ATOM      5  C4  UNL d   1       1.347   0.196   0.486  0.00  0.00     0.048 A 
ATOM      6  C5  UNL d   1       1.170   0.131   1.869  0.00  0.00     0.003 A 
ATOM      7  I   UNL d   1       0.500   0.176  -2.418  0.00  0.00    -0.146 I 
ENDROOT
TORSDOF 0
ENDMDL
