MODEL 1
REMARK minimizedAffinity 2.70460415
REMARK minimizedRMSD -1
REMARK  0 active torsions:
REMARK  status: ('A' for Active; 'I' for Inactive)
ROOT
ATOM      1  C   UNL d   1      -2.985   3.444  -5.637  0.00  0.00     0.020 A 
ATOM      2  C1  UNL d   1      -4.268   3.034  -6.000  0.00  0.00     0.020 A 
ATOM      3  C2  UNL d   1      -4.595   1.677  -5.990  0.00  0.00     0.034 A 
ATOM      4  C3  UNL d   1      -3.640   0.724  -5.617  0.00  0.00     0.017 A 
ATOM      5  C4  UNL d   1      -2.353   1.137  -5.253  0.00  0.00     0.017 A 
ATOM      6  C5  UNL d   1      -2.030   2.498  -5.265  0.00  0.00     0.034 A 
ATOM      7 Cl   UNL d   1      -1.121   0.021  -4.781  0.00  0.00    -0.070 Cl
ATOM      8 Cl1  UNL d   1      -4.115  -0.937  -5.627  0.00  0.00    -0.070 Cl
ENDROOT
TORSDOF 0
ENDMDL
