MODEL 1
REMARK minimizedAffinity -2.05231833
REMARK minimizedRMSD -1
REMARK  0 active torsions:
REMARK  status: ('A' for Active; 'I' for Inactive)
ROOT
ATOM      1  C   UNL d   1      -3.384   1.080  -5.992  0.00  0.00     0.020 A 
ATOM      2  C1  UNL d   1      -2.047   1.475  -5.990  0.00  0.00     0.020 A 
ATOM      3  C2  UNL d   1      -1.720   2.833  -5.990  0.00  0.00     0.034 A 
ATOM      4  C3  UNL d   1      -2.731   3.800  -5.993  0.00  0.00     0.017 A 
ATOM      5  C4  UNL d   1      -4.073   3.403  -5.996  0.00  0.00     0.017 A 
ATOM      6  C5  UNL d   1      -4.395   2.042  -5.995  0.00  0.00     0.034 A 
ATOM      7 Cl   UNL d   1      -5.376   4.538  -6.000  0.00  0.00    -0.070 Cl
ATOM      8 Cl1  UNL d   1      -2.254   5.461  -5.993  0.00  0.00    -0.070 Cl
ENDROOT
TORSDOF 0
ENDMDL
