MODEL 1
REMARK minimizedAffinity 6.27515507
REMARK minimizedRMSD -1
REMARK  0 active torsions:
REMARK  status: ('A' for Active; 'I' for Inactive)
ROOT
ATOM      1  C   UNL d   1       0.859  -0.034  -3.599  0.00  0.00     0.020 A 
ATOM      2  C1  UNL d   1       0.242  -1.062  -2.888  0.00  0.00     0.020 A 
ATOM      3  C2  UNL d   1       0.272  -1.062  -1.492  0.00  0.00     0.034 A 
ATOM      4  C3  UNL d   1       0.920  -0.031  -0.802  0.00  0.00     0.017 A 
ATOM      5  C4  UNL d   1       1.539   1.001  -1.517  0.00  0.00     0.017 A 
ATOM      6  C5  UNL d   1       1.506   0.996  -2.915  0.00  0.00     0.034 A 
ATOM      7 Cl   UNL d   1       2.358   2.308  -0.735  0.00  0.00    -0.070 Cl
ATOM      8 Cl1  UNL d   1       0.917  -0.094   0.924  0.00  0.00    -0.070 Cl
ENDROOT
TORSDOF 0
ENDMDL
