MODEL 1
REMARK minimizedAffinity 2.47495627
REMARK minimizedRMSD -1
REMARK  0 active torsions:
REMARK  status: ('A' for Active; 'I' for Inactive)
ROOT
ATOM      1  C   UNL d   1      -1.882   0.813  -5.908  0.00  0.00     0.020 A 
ATOM      2  C1  UNL d   1      -3.199   0.354  -5.910  0.00  0.00     0.020 A 
ATOM      3  C2  UNL d   1      -4.255   1.267  -5.937  0.00  0.00     0.034 A 
ATOM      4  C3  UNL d   1      -3.997   2.642  -5.963  0.00  0.00     0.017 A 
ATOM      5  C4  UNL d   1      -2.675   3.101  -5.961  0.00  0.00     0.017 A 
ATOM      6  C5  UNL d   1      -1.621   2.183  -5.934  0.00  0.00     0.034 A 
ATOM      7 Cl   UNL d   1      -2.278   4.783  -5.992  0.00  0.00    -0.070 Cl
ATOM      8 Cl1  UNL d   1      -5.352   3.714  -5.996  0.00  0.00    -0.070 Cl
ENDROOT
TORSDOF 0
ENDMDL
