MODEL 1
REMARK minimizedAffinity 3.77655983
REMARK minimizedRMSD -1
REMARK  0 active torsions:
REMARK  status: ('A' for Active; 'I' for Inactive)
ROOT
ATOM      1  C   UNL d   1      -0.000  -0.496  -1.778  0.00  0.00     0.020 A 
ATOM      2  C1  UNL d   1       1.077  -0.828  -2.598  0.00  0.00     0.020 A 
ATOM      3  C2  UNL d   1       2.362  -0.387  -2.276  0.00  0.00     0.034 A 
ATOM      4  C3  UNL d   1       2.574   0.389  -1.131  0.00  0.00     0.017 A 
ATOM      5  C4  UNL d   1       1.492   0.723  -0.308  0.00  0.00     0.017 A 
ATOM      6  C5  UNL d   1       0.207   0.278  -0.635  0.00  0.00     0.034 A 
ATOM      7 Cl   UNL d   1       1.674   1.677   1.122  0.00  0.00    -0.070 Cl
ATOM      8 Cl1  UNL d   1       4.189   0.900  -0.793  0.00  0.00    -0.070 Cl
ENDROOT
TORSDOF 0
ENDMDL
