MODEL 1
REMARK minimizedAffinity 10.6597576
REMARK minimizedRMSD -1
REMARK  0 active torsions:
REMARK  status: ('A' for Active; 'I' for Inactive)
ROOT
ATOM      1  C   UNL d   1       1.424  -0.141  -0.547  0.00  0.00     0.020 A 
ATOM      2  C1  UNL d   1       2.616  -0.860  -0.615  0.00  0.00     0.020 A 
ATOM      3  C2  UNL d   1       3.837  -0.185  -0.672  0.00  0.00     0.034 A 
ATOM      4  C3  UNL d   1       3.868   1.215  -0.661  0.00  0.00     0.017 A 
ATOM      5  C4  UNL d   1       2.671   1.936  -0.593  0.00  0.00     0.017 A 
ATOM      6  C5  UNL d   1       1.451   1.254  -0.536  0.00  0.00     0.034 A 
ATOM      7 Cl   UNL d   1       2.629   3.664  -0.575  0.00  0.00    -0.070 Cl
ATOM      8 Cl1  UNL d   1       5.413   1.984  -0.734  0.00  0.00    -0.070 Cl
ENDROOT
TORSDOF 0
ENDMDL
