MODEL 1
REMARK minimizedAffinity 7.32839203
REMARK minimizedRMSD -1
REMARK  0 active torsions:
REMARK  status: ('A' for Active; 'I' for Inactive)
ROOT
ATOM      1  C   UNL d   1      -4.567  -5.917  -6.000  0.00  0.00     0.020 A 
ATOM      2  C1  UNL d   1      -3.185  -5.738  -5.994  0.00  0.00     0.020 A 
ATOM      3  C2  UNL d   1      -2.648  -4.449  -5.987  0.00  0.00     0.034 A 
ATOM      4  C3  UNL d   1      -3.495  -3.334  -5.985  0.00  0.00     0.017 A 
ATOM      5  C4  UNL d   1      -4.882  -3.515  -5.990  0.00  0.00     0.017 A 
ATOM      6  C5  UNL d   1      -5.414  -4.808  -5.998  0.00  0.00     0.034 A 
ATOM      7 Cl   UNL d   1      -5.990  -2.189  -5.988  0.00  0.00    -0.070 Cl
ATOM      8 Cl1  UNL d   1      -2.762  -1.769  -5.975  0.00  0.00    -0.070 Cl
ENDROOT
TORSDOF 0
ENDMDL
