MODEL 1
REMARK minimizedAffinity 1.36221302
REMARK minimizedRMSD -1
REMARK  0 active torsions:
REMARK  status: ('A' for Active; 'I' for Inactive)
ROOT
ATOM      1  C   UNL d   1      -5.997  -2.781  -5.998  0.00  0.00     0.020 A 
ATOM      2  C1  UNL d   1      -5.978  -4.176  -5.996  0.00  0.00     0.020 A 
ATOM      3  C2  UNL d   1      -4.760  -4.858  -5.986  0.00  0.00     0.034 A 
ATOM      4  C3  UNL d   1      -3.555  -4.146  -5.978  0.00  0.00     0.017 A 
ATOM      5  C4  UNL d   1      -3.574  -2.746  -5.980  0.00  0.00     0.017 A 
ATOM      6  C5  UNL d   1      -4.797  -2.068  -5.990  0.00  0.00     0.034 A 
ATOM      7 Cl   UNL d   1      -2.129  -1.799  -5.971  0.00  0.00    -0.070 Cl
ATOM      8 Cl1  UNL d   1      -2.085  -5.054  -5.966  0.00  0.00    -0.070 Cl
ENDROOT
TORSDOF 0
ENDMDL
