MODEL 1
REMARK minimizedAffinity -1.42038131
REMARK minimizedRMSD -1
REMARK  0 active torsions:
REMARK  status: ('A' for Active; 'I' for Inactive)
ROOT
ATOM      1  C   UNL d   1      -4.002   4.136  -5.987  0.00  0.00     0.020 A 
ATOM      2  C1  UNL d   1      -5.313   3.662  -6.000  0.00  0.00     0.020 A 
ATOM      3  C2  UNL d   1      -5.558   2.287  -6.000  0.00  0.00     0.034 A 
ATOM      4  C3  UNL d   1      -4.491   1.381  -5.987  0.00  0.00     0.017 A 
ATOM      5  C4  UNL d   1      -3.175   1.858  -5.974  0.00  0.00     0.017 A 
ATOM      6  C5  UNL d   1      -2.936   3.236  -5.974  0.00  0.00     0.034 A 
ATOM      7 Cl   UNL d   1      -1.807   0.803  -5.958  0.00  0.00    -0.070 Cl
ATOM      8 Cl1  UNL d   1      -4.868  -0.305  -5.987  0.00  0.00    -0.070 Cl
ENDROOT
TORSDOF 0
ENDMDL
