MODEL 1
REMARK minimizedAffinity 5.18751001
REMARK minimizedRMSD -1
REMARK  0 active torsions:
REMARK  status: ('A' for Active; 'I' for Inactive)
ROOT
ATOM      1  C   UNL d   1      -0.177   1.295  -0.159  0.00  0.00     0.020 A 
ATOM      2  C1  UNL d   1       0.979   0.532  -0.002  0.00  0.00     0.020 A 
ATOM      3  C2  UNL d   1       1.398  -0.319  -1.027  0.00  0.00     0.034 A 
ATOM      4  C3  UNL d   1       0.661  -0.409  -2.214  0.00  0.00     0.017 A 
ATOM      5  C4  UNL d   1      -0.499   0.359  -2.370  0.00  0.00     0.017 A 
ATOM      6  C5  UNL d   1      -0.914   1.209  -1.341  0.00  0.00     0.034 A 
ATOM      7 Cl   UNL d   1      -1.461   0.302  -3.805  0.00  0.00    -0.070 Cl
ATOM      8 Cl1  UNL d   1       1.238  -1.481  -3.439  0.00  0.00    -0.070 Cl
ENDROOT
TORSDOF 0
ENDMDL
