MODEL 1
REMARK minimizedAffinity -1.52615726
REMARK minimizedRMSD -1
REMARK  0 active torsions:
REMARK  status: ('A' for Active; 'I' for Inactive)
ROOT
ATOM      1  C   UNL d   1      -4.289  -0.375  -5.993  0.00  0.00     0.020 A 
ATOM      2  C1  UNL d   1      -2.921  -0.108  -5.998  0.00  0.00     0.020 A 
ATOM      3  C2  UNL d   1      -2.467   1.213  -5.999  0.00  0.00     0.034 A 
ATOM      4  C3  UNL d   1      -3.383   2.272  -5.997  0.00  0.00     0.017 A 
ATOM      5  C4  UNL d   1      -4.756   2.002  -5.992  0.00  0.00     0.017 A 
ATOM      6  C5  UNL d   1      -5.205   0.678  -5.990  0.00  0.00     0.034 A 
ATOM      7 Cl   UNL d   1      -5.946   3.256  -5.988  0.00  0.00    -0.070 Cl
ATOM      8 Cl1  UNL d   1      -2.751   3.880  -5.999  0.00  0.00    -0.070 Cl
ENDROOT
TORSDOF 0
ENDMDL
