MODEL 1
REMARK minimizedAffinity 3.77002788
REMARK minimizedRMSD -1
REMARK  0 active torsions:
REMARK  status: ('A' for Active; 'I' for Inactive)
ROOT
ATOM      1  C   UNL d   1      -4.338  -1.635  -5.998  0.00  0.00     0.020 A 
ATOM      2  C1  UNL d   1      -5.663  -1.202  -5.997  0.00  0.00     0.020 A 
ATOM      3  C2  UNL d   1      -5.950   0.165  -5.997  0.00  0.00     0.034 A 
ATOM      4  C3  UNL d   1      -4.911   1.103  -5.997  0.00  0.00     0.017 A 
ATOM      5  C4  UNL d   1      -3.581   0.666  -5.998  0.00  0.00     0.017 A 
ATOM      6  C5  UNL d   1      -3.300  -0.704  -5.998  0.00  0.00     0.034 A 
ATOM      7 Cl   UNL d   1      -2.246   1.763  -5.999  0.00  0.00    -0.070 Cl
ATOM      8 Cl1  UNL d   1      -5.339   2.777  -5.997  0.00  0.00    -0.070 Cl
ENDROOT
TORSDOF 0
ENDMDL
