MODEL 1
REMARK minimizedAffinity 3.08722353
REMARK minimizedRMSD -1
REMARK  0 active torsions:
REMARK  status: ('A' for Active; 'I' for Inactive)
ROOT
ATOM      1  C   UNL d   1       1.362  -1.327  -2.610  0.00  0.00     0.020 A 
ATOM      2  C1  UNL d   1       0.167  -0.878  -2.050  0.00  0.00     0.020 A 
ATOM      3  C2  UNL d   1       0.192  -0.031  -0.940  0.00  0.00     0.034 A 
ATOM      4  C3  UNL d   1       1.414   0.368  -0.386  0.00  0.00     0.017 A 
ATOM      5  C4  UNL d   1       2.613  -0.084  -0.949  0.00  0.00     0.017 A 
ATOM      6  C5  UNL d   1       2.582  -0.931  -2.061  0.00  0.00     0.034 A 
ATOM      7 Cl   UNL d   1       4.159   0.365  -0.321  0.00  0.00    -0.070 Cl
ATOM      8 Cl1  UNL d   1       1.369   1.416   0.987  0.00  0.00    -0.070 Cl
ENDROOT
TORSDOF 0
ENDMDL
