MODEL 1
REMARK minimizedAffinity 0.420630276
REMARK minimizedRMSD -1
REMARK  0 active torsions:
REMARK  status: ('A' for Active; 'I' for Inactive)
ROOT
ATOM      1  C   UNL d   1      -4.015  -2.217  -6.000  0.00  0.00     0.020 A 
ATOM      2  C1  UNL d   1      -5.242  -1.555  -6.000  0.00  0.00     0.020 A 
ATOM      3  C2  UNL d   1      -5.283  -0.160  -6.000  0.00  0.00     0.034 A 
ATOM      4  C3  UNL d   1      -4.095   0.579  -6.000  0.00  0.00     0.017 A 
ATOM      5  C4  UNL d   1      -2.863  -0.085  -6.000  0.00  0.00     0.017 A 
ATOM      6  C5  UNL d   1      -2.828  -1.483  -6.000  0.00  0.00     0.034 A 
ATOM      7 Cl   UNL d   1      -1.354   0.758  -6.000  0.00  0.00    -0.070 Cl
ATOM      8 Cl1  UNL d   1      -4.220   2.303  -6.000  0.00  0.00    -0.070 Cl
ENDROOT
TORSDOF 0
ENDMDL
