MODEL 1
REMARK minimizedAffinity -0.257888168
REMARK minimizedRMSD -1
REMARK  0 active torsions:
REMARK  status: ('A' for Active; 'I' for Inactive)
ROOT
ATOM      1  O1  BZF d   1      -2.477   1.936  -5.285  0.00  0.00    -0.204 OA
ATOM      2  C2  BZF d   1      -2.673   2.750  -4.186  0.00  0.00     0.174 A 
ATOM      3  C3  BZF d   1      -3.420   2.124  -3.254  0.00  0.00    -0.012 A 
ATOM      4  C3A BZF d   1      -3.631   0.804  -3.765  0.00  0.00    -0.107 A 
ATOM      5  C4  BZF d   1      -4.286  -0.294  -3.286  0.00  0.00     0.055 A 
ATOM      6  C5  BZF d   1      -4.368  -1.405  -4.064  0.00  0.00    -0.016 A 
ATOM      7  C6  BZF d   1      -3.811  -1.452  -5.325  0.00  0.00     0.022 A 
ATOM      8  C7  BZF d   1      -3.146  -0.389  -5.841  0.00  0.00     0.029 A 
ATOM      9  C7A BZF d   1      -3.034   0.725  -5.044  0.00  0.00     0.058 A 
ENDROOT
TORSDOF 0
ENDMDL
