MODEL 1
REMARK minimizedAffinity 11.0376844
REMARK minimizedRMSD -1
REMARK  0 active torsions:
REMARK  status: ('A' for Active; 'I' for Inactive)
ROOT
ATOM      1  O1  BZF d   1       3.573  -2.177   0.212  0.00  0.00    -0.204 OA
ATOM      2  C2  BZF d   1       2.410  -2.812   0.604  0.00  0.00     0.174 A 
ATOM      3  C3  BZF d   1       1.396  -1.930   0.713  0.00  0.00    -0.012 A 
ATOM      4  C3A BZF d   1       1.938  -0.679   0.278  0.00  0.00    -0.107 A 
ATOM      5  C4  BZF d   1       1.414   0.575   0.144  0.00  0.00     0.055 A 
ATOM      6  C5  BZF d   1       2.229   1.594  -0.236  0.00  0.00    -0.016 A 
ATOM      7  C6  BZF d   1       3.571   1.396  -0.486  0.00  0.00     0.022 A 
ATOM      8  C7  BZF d   1       4.135   0.169  -0.371  0.00  0.00     0.029 A 
ATOM      9  C7A BZF d   1       3.307  -0.869  -0.019  0.00  0.00     0.058 A 
ENDROOT
TORSDOF 0
ENDMDL
