MODEL 1
REMARK minimizedAffinity -0.134603232
REMARK minimizedRMSD -1
REMARK  0 active torsions:
REMARK  status: ('A' for Active; 'I' for Inactive)
ROOT
ATOM      1  O1  BZF d   1      -3.699   3.082  -3.309  0.00  0.00    -0.204 OA
ATOM      2  C2  BZF d   1      -3.503   3.765  -4.494  0.00  0.00     0.174 A 
ATOM      3  C3  BZF d   1      -3.283   2.906  -5.510  0.00  0.00    -0.012 A 
ATOM      4  C3A BZF d   1      -3.436   1.602  -4.941  0.00  0.00    -0.107 A 
ATOM      5  C4  BZF d   1      -3.354   0.339  -5.452  0.00  0.00     0.055 A 
ATOM      6  C5  BZF d   1      -3.484  -0.723  -4.614  0.00  0.00    -0.016 A 
ATOM      7  C6  BZF d   1      -3.691  -0.558  -3.260  0.00  0.00     0.022 A 
ATOM      8  C7  BZF d   1      -3.784   0.676  -2.707  0.00  0.00     0.029 A 
ATOM      9  C7A BZF d   1      -3.687   1.751  -3.557  0.00  0.00     0.058 A 
ENDROOT
TORSDOF 0
ENDMDL
