MODEL 1
REMARK minimizedAffinity 2.88233781
REMARK minimizedRMSD -1
REMARK  0 active torsions:
REMARK  status: ('A' for Active; 'I' for Inactive)
ROOT
ATOM      1  O1  BZF d   1      -3.462  -0.242  -1.594  0.00  0.00    -0.204 OA
ATOM      2  C2  BZF d   1      -3.730  -1.495  -2.110  0.00  0.00     0.174 A 
ATOM      3  C3  BZF d   1      -4.049  -1.415  -3.418  0.00  0.00    -0.012 A 
ATOM      4  C3A BZF d   1      -3.885  -0.036  -3.762  0.00  0.00    -0.107 A 
ATOM      5  C4  BZF d   1      -4.037   0.667  -4.923  0.00  0.00     0.055 A 
ATOM      6  C5  BZF d   1      -3.871   2.015  -4.905  0.00  0.00    -0.016 A 
ATOM      7  C6  BZF d   1      -3.557   2.693  -3.746  0.00  0.00     0.022 A 
ATOM      8  C7  BZF d   1      -3.391   2.039  -2.570  0.00  0.00     0.029 A 
ATOM      9  C7A BZF d   1      -3.526   0.672  -2.592  0.00  0.00     0.058 A 
ENDROOT
TORSDOF 0
ENDMDL
