MODEL 1
REMARK minimizedAffinity 3.97129893
REMARK minimizedRMSD -1
REMARK  0 active torsions:
REMARK  status: ('A' for Active; 'I' for Inactive)
ROOT
ATOM      1  O1  BZF d   1      -4.069   1.555  -5.154  0.00  0.00    -0.204 OA
ATOM      2  C2  BZF d   1      -3.004   1.799  -6.000  0.00  0.00     0.174 A 
ATOM      3  C3  BZF d   1      -2.144   0.760  -5.999  0.00  0.00    -0.012 A 
ATOM      4  C3A BZF d   1      -2.754  -0.232  -5.167  0.00  0.00    -0.107 A 
ATOM      5  C4  BZF d   1      -2.390  -1.493  -4.789  0.00  0.00     0.055 A 
ATOM      6  C5  BZF d   1      -3.173  -2.170  -3.908  0.00  0.00    -0.016 A 
ATOM      7  C6  BZF d   1      -4.321  -1.615  -3.382  0.00  0.00     0.022 A 
ATOM      8  C7  BZF d   1      -4.725  -0.369  -3.731  0.00  0.00     0.029 A 
ATOM      9  C7A BZF d   1      -3.954   0.305  -4.646  0.00  0.00     0.058 A 
ENDROOT
TORSDOF 0
ENDMDL
