MODEL 1
REMARK minimizedAffinity 7.94855213
REMARK minimizedRMSD -1
REMARK  0 active torsions:
REMARK  status: ('A' for Active; 'I' for Inactive)
ROOT
ATOM      1  C   UNL d   1       0.373   1.896   0.376  0.00  0.00     0.078 C 
ATOM      2  C1  UNL d   1      -0.065   3.327   0.282  0.00  0.00    -0.077 A 
ATOM      3  C2  UNL d   1      -0.950   3.874   1.220  0.00  0.00    -0.001 A 
ATOM      4  C3  UNL d   1      -1.356   5.205   1.114  0.00  0.00     0.003 A 
ATOM      5  C4  UNL d   1      -0.885   6.000   0.072  0.00  0.00    -0.005 A 
ATOM      6  C5  UNL d   1      -0.006   5.464  -0.868  0.00  0.00     0.003 A 
ATOM      7  C6  UNL d   1       0.402   4.133  -0.764  0.00  0.00    -0.001 A 
ENDROOT
TORSDOF 0
ENDMDL
