MODEL 1
REMARK minimizedAffinity 3.76670885
REMARK minimizedRMSD -1
REMARK  0 active torsions:
REMARK  status: ('A' for Active; 'I' for Inactive)
ROOT
ATOM      1  C   UNL d   1      -0.476   5.478  -0.498  0.00  0.00     0.078 C 
ATOM      2  C1  UNL d   1      -0.114   4.437   0.519  0.00  0.00    -0.077 A 
ATOM      3  C2  UNL d   1      -1.100   3.649   1.126  0.00  0.00    -0.001 A 
ATOM      4  C3  UNL d   1      -0.750   2.691   2.079  0.00  0.00     0.003 A 
ATOM      5  C4  UNL d   1       0.586   2.512   2.433  0.00  0.00    -0.005 A 
ATOM      6  C5  UNL d   1       1.574   3.293   1.835  0.00  0.00     0.003 A 
ATOM      7  C6  UNL d   1       1.225   4.252   0.883  0.00  0.00    -0.001 A 
ENDROOT
TORSDOF 0
ENDMDL
