MODEL 1
REMARK minimizedAffinity 6.25586081
REMARK minimizedRMSD -1
REMARK  0 active torsions:
REMARK  status: ('A' for Active; 'I' for Inactive)
ROOT
ATOM      1  C   UNL d   1       2.685  -3.089   1.493  0.00  0.00     0.078 C 
ATOM      2  C1  UNL d   1       3.820  -2.810   0.554  0.00  0.00    -0.077 A 
ATOM      3  C2  UNL d   1       4.513  -3.854  -0.071  0.00  0.00    -0.001 A 
ATOM      4  C3  UNL d   1       5.574  -3.579  -0.936  0.00  0.00     0.003 A 
ATOM      5  C4  UNL d   1       5.952  -2.261  -1.183  0.00  0.00    -0.005 A 
ATOM      6  C5  UNL d   1       5.269  -1.215  -0.564  0.00  0.00     0.003 A 
ATOM      7  C6  UNL d   1       4.208  -1.488   0.301  0.00  0.00    -0.001 A 
ENDROOT
TORSDOF 0
ENDMDL
