MODEL 1
REMARK minimizedAffinity 5.76275301
REMARK minimizedRMSD -1
REMARK  0 active torsions:
REMARK  status: ('A' for Active; 'I' for Inactive)
ROOT
ATOM      1  C   UNL d   1       1.777  -4.296  -0.081  0.00  0.00     0.078 C 
ATOM      2  C1  UNL d   1       2.986  -3.660  -0.700  0.00  0.00    -0.077 A 
ATOM      3  C2  UNL d   1       3.139  -2.268  -0.720  0.00  0.00    -0.001 A 
ATOM      4  C3  UNL d   1       4.265  -1.689  -1.308  0.00  0.00     0.003 A 
ATOM      5  C4  UNL d   1       5.246  -2.495  -1.881  0.00  0.00    -0.005 A 
ATOM      6  C5  UNL d   1       5.102  -3.881  -1.868  0.00  0.00     0.003 A 
ATOM      7  C6  UNL d   1       3.977  -4.461  -1.281  0.00  0.00    -0.001 A 
ENDROOT
TORSDOF 0
ENDMDL
