MODEL 1
REMARK minimizedAffinity 0.6463328
REMARK minimizedRMSD -1
REMARK  0 active torsions:
REMARK  status: ('A' for Active; 'I' for Inactive)
ROOT
ATOM      1  C   UNL d   1       0.349  -4.693  -1.460  0.00  0.00     0.078 C 
ATOM      2  C1  UNL d   1       1.826  -4.473  -1.323  0.00  0.00    -0.077 A 
ATOM      3  C2  UNL d   1       2.728  -5.059  -2.219  0.00  0.00    -0.001 A 
ATOM      4  C3  UNL d   1       4.101  -4.853  -2.074  0.00  0.00     0.003 A 
ATOM      5  C4  UNL d   1       4.584  -4.063  -1.033  0.00  0.00    -0.005 A 
ATOM      6  C5  UNL d   1       3.693  -3.477  -0.135  0.00  0.00     0.003 A 
ATOM      7  C6  UNL d   1       2.320  -3.682  -0.279  0.00  0.00    -0.001 A 
ENDROOT
TORSDOF 0
ENDMDL
