MODEL 1
REMARK minimizedAffinity 6.0529232
REMARK minimizedRMSD -1
REMARK  0 active torsions:
REMARK  status: ('A' for Active; 'I' for Inactive)
ROOT
ATOM      1  C   UNL d   1       2.444  -3.778   1.086  0.00  0.00     0.078 C 
ATOM      2  C1  UNL d   1       3.542  -3.386   0.144  0.00  0.00    -0.077 A 
ATOM      3  C2  UNL d   1       4.517  -4.309  -0.252  0.00  0.00    -0.001 A 
ATOM      4  C3  UNL d   1       5.539  -3.927  -1.123  0.00  0.00     0.003 A 
ATOM      5  C4  UNL d   1       5.596  -2.621  -1.604  0.00  0.00    -0.005 A 
ATOM      6  C5  UNL d   1       4.632  -1.694  -1.214  0.00  0.00     0.003 A 
ATOM      7  C6  UNL d   1       3.609  -2.074  -0.344  0.00  0.00    -0.001 A 
ENDROOT
TORSDOF 0
ENDMDL
