MODEL 1
REMARK minimizedAffinity 8.14330959
REMARK minimizedRMSD -1
REMARK  0 active torsions:
REMARK  status: ('A' for Active; 'I' for Inactive)
ROOT
ATOM      1  C   UNL d   1       3.331  -0.878   0.672  0.00  0.00     0.078 C 
ATOM      2  C1  UNL d   1       4.254  -1.865   0.021  0.00  0.00    -0.077 A 
ATOM      3  C2  UNL d   1       4.503  -3.113   0.604  0.00  0.00    -0.001 A 
ATOM      4  C3  UNL d   1       5.372  -4.018  -0.008  0.00  0.00     0.003 A 
ATOM      5  C4  UNL d   1       6.000  -3.683  -1.206  0.00  0.00    -0.005 A 
ATOM      6  C5  UNL d   1       5.760  -2.443  -1.793  0.00  0.00     0.003 A 
ATOM      7  C6  UNL d   1       4.892  -1.537  -1.182  0.00  0.00    -0.001 A 
ENDROOT
TORSDOF 0
ENDMDL
