MODEL 1
REMARK minimizedAffinity 4.71335983
REMARK minimizedRMSD -1
REMARK  0 active torsions:
REMARK  status: ('A' for Active; 'I' for Inactive)
ROOT
ATOM      1  C   UNL d   1      -2.154   6.000   2.168  0.00  0.00     0.078 C 
ATOM      2  C1  UNL d   1      -1.144   5.335   1.282  0.00  0.00    -0.077 A 
ATOM      3  C2  UNL d   1      -0.657   4.056   1.577  0.00  0.00    -0.001 A 
ATOM      4  C3  UNL d   1       0.291   3.452   0.749  0.00  0.00     0.003 A 
ATOM      5  C4  UNL d   1       0.760   4.121  -0.380  0.00  0.00    -0.005 A 
ATOM      6  C5  UNL d   1       0.282   5.395  -0.681  0.00  0.00     0.003 A 
ATOM      7  C6  UNL d   1      -0.665   6.000   0.146  0.00  0.00    -0.001 A 
ENDROOT
TORSDOF 0
ENDMDL
