MODEL 1
REMARK minimizedAffinity 11.9564219
REMARK minimizedRMSD -1
REMARK  0 active torsions:
REMARK  status: ('A' for Active; 'I' for Inactive)
ROOT
ATOM      1  C   UNL d   1      -0.010   2.805   0.106  0.00  0.00     0.078 C 
ATOM      2  C1  UNL d   1      -0.384   1.485  -0.499  0.00  0.00    -0.077 A 
ATOM      3  C2  UNL d   1       0.591   0.634  -1.034  0.00  0.00    -0.001 A 
ATOM      4  C3  UNL d   1       0.228  -0.587  -1.603  0.00  0.00     0.003 A 
ATOM      5  C4  UNL d   1      -1.112  -0.969  -1.644  0.00  0.00    -0.005 A 
ATOM      6  C5  UNL d   1      -2.090  -0.128  -1.116  0.00  0.00     0.003 A 
ATOM      7  C6  UNL d   1      -1.728   1.094  -0.547  0.00  0.00    -0.001 A 
ENDROOT
TORSDOF 0
ENDMDL
