MODEL 1
REMARK minimizedAffinity -5.17507601
REMARK minimizedRMSD -1
REMARK  2 active torsions:
REMARK  status: ('A' for Active; 'I' for Inactive)
REMARK    1  A    between atoms: C2'_3  and  C1'_4 
REMARK    2  A    between atoms: C1'_4  and  C1_5 
ROOT
ATOM      1  C1  I4B d   1       0.463   0.061   0.776  0.00  0.00    -0.075 A 
ATOM      2  C2  I4B d   1       0.780   0.824   1.872  0.00  0.00     0.003 A 
ATOM      3  C3  I4B d   1      -0.088   0.862   2.990  0.00  0.00     0.002 A 
ATOM      4  C4  I4B d   1      -1.280   0.167   2.949  0.00  0.00    -0.004 A 
ATOM      5  C5  I4B d   1      -1.589  -0.624   1.846  0.00  0.00     0.002 A 
ATOM      6  C6  I4B d   1      -0.707  -0.688   0.758  0.00  0.00     0.003 A 
ENDROOT
BRANCH   1   7
ATOM      7  C1' I4B d   1       1.387   0.069  -0.400  0.00  0.00     0.060 C 
BRANCH   7   8
ATOM      8  C2' I4B d   1       0.542   0.057  -1.658  0.00  0.00    -0.013 C 
ATOM      9  C4' I4B d   1      -0.308   1.297  -1.755  0.00  0.00     0.013 C 
ATOM     10  C3' I4B d   1       1.465  -0.060  -2.834  0.00  0.00     0.013 C 
ENDBRANCH   7   8
ENDBRANCH   1   7
TORSDOF 2
ENDMDL
