MODEL 1
REMARK minimizedAffinity -3.83448577
REMARK minimizedRMSD -1
REMARK  2 active torsions:
REMARK  status: ('A' for Active; 'I' for Inactive)
REMARK    1  A    between atoms: C2'_3  and  C1'_4 
REMARK    2  A    between atoms: C1'_4  and  C1_5 
ROOT
ATOM      1  C1  I4B d   1       0.114   0.001  -0.384  0.00  0.00    -0.075 A 
ATOM      2  C2  I4B d   1       1.357   0.376   0.062  0.00  0.00     0.003 A 
ATOM      3  C3  I4B d   1       1.667   0.312   1.442  0.00  0.00     0.002 A 
ATOM      4  C4  I4B d   1       0.696  -0.082   2.340  0.00  0.00    -0.004 A 
ATOM      5  C5  I4B d   1      -0.556  -0.484   1.883  0.00  0.00     0.002 A 
ATOM      6  C6  I4B d   1      -0.845  -0.454   0.511  0.00  0.00     0.003 A 
ENDROOT
BRANCH   1   7
ATOM      7  C1' I4B d   1      -0.190   0.112  -1.845  0.00  0.00     0.060 C 
BRANCH   7   8
ATOM      8  C2' I4B d   1       0.848  -0.692  -2.601  0.00  0.00    -0.013 C 
ATOM      9  C4' I4B d   1       0.210  -1.818  -3.372  0.00  0.00     0.013 C 
ATOM     10  C3' I4B d   1       1.582   0.243  -3.515  0.00  0.00     0.013 C 
ENDBRANCH   7   8
ENDBRANCH   1   7
TORSDOF 2
ENDMDL
