MODEL 1
REMARK minimizedAffinity -4.8187561
REMARK minimizedRMSD -1
REMARK  2 active torsions:
REMARK  status: ('A' for Active; 'I' for Inactive)
REMARK    1  A    between atoms: C2'_3  and  C1'_4 
REMARK    2  A    between atoms: C1'_4  and  C1_5 
ROOT
ATOM      1  C1  I4B d   1      -0.426  -0.594   0.624  0.00  0.00    -0.075 A 
ATOM      2  C2  I4B d   1      -1.715  -0.696   1.086  0.00  0.00     0.003 A 
ATOM      3  C3  I4B d   1      -2.024  -0.335   2.420  0.00  0.00     0.002 A 
ATOM      4  C4  I4B d   1      -1.012   0.072   3.266  0.00  0.00    -0.004 A 
ATOM      5  C5  I4B d   1       0.290   0.196   2.789  0.00  0.00     0.002 A 
ATOM      6  C6  I4B d   1       0.583  -0.127   1.456  0.00  0.00     0.003 A 
ENDROOT
BRANCH   1   7
ATOM      7  C1' I4B d   1      -0.129  -1.015  -0.781  0.00  0.00     0.060 C 
BRANCH   7   8
ATOM      8  C2' I4B d   1       0.162   0.232  -1.590  0.00  0.00    -0.013 C 
ATOM      9  C4' I4B d   1       1.015  -0.084  -2.791  0.00  0.00     0.013 C 
ATOM     10  C3' I4B d   1      -1.148   0.834  -2.000  0.00  0.00     0.013 C 
ENDBRANCH   7   8
ENDBRANCH   1   7
TORSDOF 2
ENDMDL
