MODEL 1
REMARK minimizedAffinity -5.52822924
REMARK minimizedRMSD -1
REMARK  2 active torsions:
REMARK  status: ('A' for Active; 'I' for Inactive)
REMARK    1  A    between atoms: C2'_3  and  C1'_4 
REMARK    2  A    between atoms: C1'_4  and  C1_5 
ROOT
ATOM      1  C1  I4B d   1      -0.272  -0.012  -0.085  0.00  0.00    -0.075 A 
ATOM      2  C2  I4B d   1      -1.425  -0.455   0.514  0.00  0.00     0.003 A 
ATOM      3  C3  I4B d   1      -1.432  -0.780   1.892  0.00  0.00     0.002 A 
ATOM      4  C4  I4B d   1      -0.260  -0.697   2.616  0.00  0.00    -0.004 A 
ATOM      5  C5  I4B d   1       0.902  -0.226   2.013  0.00  0.00     0.002 A 
ATOM      6  C6  I4B d   1       0.894   0.131   0.656  0.00  0.00     0.003 A 
ENDROOT
BRANCH   1   7
ATOM      7  C1' I4B d   1      -0.292   0.292  -1.550  0.00  0.00     0.060 C 
BRANCH   7   8
ATOM      8  C2' I4B d   1       0.591  -0.722  -2.248  0.00  0.00    -0.013 C 
ATOM      9  C4' I4B d   1      -0.232  -1.754  -2.974  0.00  0.00     0.013 C 
ATOM     10  C3' I4B d   1       1.487   0.020  -3.195  0.00  0.00     0.013 C 
ENDBRANCH   7   8
ENDBRANCH   1   7
TORSDOF 2
ENDMDL
