MODEL 1
REMARK minimizedAffinity -6.69747782
REMARK minimizedRMSD -1
REMARK  2 active torsions:
REMARK  status: ('A' for Active; 'I' for Inactive)
REMARK    1  A    between atoms: C2'_3  and  C1'_4 
REMARK    2  A    between atoms: C1'_4  and  C1_5 
ROOT
ATOM      1  C1  I4B d   1      -0.484  -0.077   0.933  0.00  0.00    -0.075 A 
ATOM      2  C2  I4B d   1      -0.020  -0.357   2.194  0.00  0.00     0.003 A 
ATOM      3  C3  I4B d   1      -0.929  -0.643   3.240  0.00  0.00     0.002 A 
ATOM      4  C4  I4B d   1      -2.286  -0.590   2.996  0.00  0.00    -0.004 A 
ATOM      5  C5  I4B d   1      -2.755  -0.328   1.711  0.00  0.00     0.002 A 
ATOM      6  C6  I4B d   1      -1.848  -0.082   0.670  0.00  0.00     0.003 A 
ENDROOT
BRANCH   1   7
ATOM      7  C1' I4B d   1       0.503   0.254  -0.142  0.00  0.00     0.060 C 
BRANCH   7   8
ATOM      8  C2' I4B d   1      -0.142  -0.053  -1.478  0.00  0.00    -0.013 C 
ATOM      9  C4' I4B d   1      -0.808   1.168  -2.056  0.00  0.00     0.013 C 
ATOM     10  C3' I4B d   1       0.923  -0.575  -2.397  0.00  0.00     0.013 C 
ENDBRANCH   7   8
ENDBRANCH   1   7
TORSDOF 2
ENDMDL
