MODEL 1
REMARK minimizedAffinity -4.24694157
REMARK minimizedRMSD -1
REMARK  2 active torsions:
REMARK  status: ('A' for Active; 'I' for Inactive)
REMARK    1  A    between atoms: C2'_3  and  C1'_4 
REMARK    2  A    between atoms: C1'_4  and  C1_5 
ROOT
ATOM      1  C1  I4B d   1       0.394   0.125  -0.969  0.00  0.00    -0.075 A 
ATOM      2  C2  I4B d   1      -0.728  -0.279  -0.291  0.00  0.00     0.003 A 
ATOM      3  C3  I4B d   1      -0.724  -0.334   1.124  0.00  0.00     0.002 A 
ATOM      4  C4  I4B d   1       0.431  -0.027   1.813  0.00  0.00    -0.004 A 
ATOM      5  C5  I4B d   1       1.561   0.405   1.125  0.00  0.00     0.002 A 
ATOM      6  C6  I4B d   1       1.539   0.494  -0.275  0.00  0.00     0.003 A 
ENDROOT
BRANCH   1   7
ATOM      7  C1' I4B d   1       0.366   0.141  -2.465  0.00  0.00     0.060 C 
BRANCH   7   8
ATOM      8  C2' I4B d   1       0.142  -1.280  -2.942  0.00  0.00    -0.013 C 
ATOM      9  C4' I4B d   1      -0.930  -1.337  -3.999  0.00  0.00     0.013 C 
ATOM     10  C3' I4B d   1       1.446  -1.804  -3.465  0.00  0.00     0.013 C 
ENDBRANCH   7   8
ENDBRANCH   1   7
TORSDOF 2
ENDMDL
