MODEL 1
REMARK minimizedAffinity -5.21918392
REMARK minimizedRMSD -1
REMARK  2 active torsions:
REMARK  status: ('A' for Active; 'I' for Inactive)
REMARK    1  A    between atoms: C2'_3  and  C1'_4 
REMARK    2  A    between atoms: C1'_4  and  C1_5 
ROOT
ATOM      1  C1  I4B d   1      -0.274   0.225  -0.209  0.00  0.00    -0.075 A 
ATOM      2  C2  I4B d   1       0.775   0.124   0.671  0.00  0.00     0.003 A 
ATOM      3  C3  I4B d   1       0.537  -0.199   2.029  0.00  0.00     0.002 A 
ATOM      4  C4  I4B d   1      -0.760  -0.360   2.472  0.00  0.00    -0.004 A 
ATOM      5  C5  I4B d   1      -1.820  -0.279   1.573  0.00  0.00     0.002 A 
ATOM      6  C6  I4B d   1      -1.575   0.004   0.222  0.00  0.00     0.003 A 
ENDROOT
BRANCH   1   7
ATOM      7  C1' I4B d   1       0.011   0.599  -1.629  0.00  0.00     0.060 C 
BRANCH   7   8
ATOM      8  C2' I4B d   1       0.993  -0.409  -2.190  0.00  0.00    -0.013 C 
ATOM      9  C4' I4B d   1       0.282  -1.506  -2.937  0.00  0.00     0.013 C 
ATOM     10  C3' I4B d   1       1.950   0.323  -3.083  0.00  0.00     0.013 C 
ENDBRANCH   7   8
ENDBRANCH   1   7
TORSDOF 2
ENDMDL
