MODEL 1
REMARK minimizedAffinity -4.84721756
REMARK minimizedRMSD -1
REMARK  0 active torsions:
REMARK  status: ('A' for Active; 'I' for Inactive)
ROOT
ATOM      1  C1  BNZ d   1      -2.303   6.000   0.043  0.00  0.00     0.000 A 
ATOM      2  C2  BNZ d   1      -1.480   4.987   0.458  0.00  0.00     0.000 A 
ATOM      3  C3  BNZ d   1      -1.497   3.771  -0.165  0.00  0.00     0.000 A 
ATOM      4  C4  BNZ d   1      -2.364   3.556  -1.175  0.00  0.00     0.000 A 
ATOM      5  C5  BNZ d   1      -3.207   4.563  -1.600  0.00  0.00     0.000 A 
ATOM      6  C6  BNZ d   1      -3.159   5.799  -0.996  0.00  0.00     0.000 A 
ENDROOT
TORSDOF 0
ENDMDL
