MODEL 1
REMARK minimizedAffinity -4.35317564
REMARK minimizedRMSD -1
REMARK  0 active torsions:
REMARK  status: ('A' for Active; 'I' for Inactive)
ROOT
ATOM      1  C1  BNZ d   1       0.830  -0.900   1.349  0.00  0.00     0.000 A 
ATOM      2  C2  BNZ d   1       0.902  -2.251   1.141  0.00  0.00     0.000 A 
ATOM      3  C3  BNZ d   1      -0.101  -2.914   0.490  0.00  0.00     0.000 A 
ATOM      4  C4  BNZ d   1      -1.191  -2.232   0.083  0.00  0.00     0.000 A 
ATOM      5  C5  BNZ d   1      -1.283  -0.871   0.293  0.00  0.00     0.000 A 
ATOM      6  C6  BNZ d   1      -0.254  -0.200   0.915  0.00  0.00     0.000 A 
ENDROOT
TORSDOF 0
ENDMDL
