MODEL 1
REMARK minimizedAffinity -2.86469626
REMARK minimizedRMSD -1
REMARK  0 active torsions:
REMARK  status: ('A' for Active; 'I' for Inactive)
ROOT
ATOM      1  C1  BNZ d   1      -0.121   1.469  -1.355  0.00  0.00     0.000 A 
ATOM      2  C2  BNZ d   1      -0.469   0.173  -1.085  0.00  0.00     0.000 A 
ATOM      3  C3  BNZ d   1      -0.124  -0.412   0.102  0.00  0.00     0.000 A 
ATOM      4  C4  BNZ d   1       0.602   0.287   0.999  0.00  0.00     0.000 A 
ATOM      5  C5  BNZ d   1       0.968   1.592   0.737  0.00  0.00     0.000 A 
ATOM      6  C6  BNZ d   1       0.586   2.190  -0.442  0.00  0.00     0.000 A 
ENDROOT
TORSDOF 0
ENDMDL
