MODEL 1
REMARK minimizedAffinity -3.57311916
REMARK minimizedRMSD -1
REMARK  0 active torsions:
REMARK  status: ('A' for Active; 'I' for Inactive)
ROOT
ATOM      1  C1  BNZ d   1       3.631   4.015  -0.746  0.00  0.00     0.000 A 
ATOM      2  C2  BNZ d   1       2.884   3.433   0.243  0.00  0.00     0.000 A 
ATOM      3  C3  BNZ d   1       1.605   3.016   0.000  0.00  0.00     0.000 A 
ATOM      4  C4  BNZ d   1       1.062   3.217  -1.218  0.00  0.00     0.000 A 
ATOM      5  C5  BNZ d   1       1.800   3.810  -2.223  0.00  0.00     0.000 A 
ATOM      6  C6  BNZ d   1       3.100   4.194  -1.986  0.00  0.00     0.000 A 
ENDROOT
TORSDOF 0
ENDMDL
