MODEL 1
REMARK minimizedAffinity -4.27214432
REMARK minimizedRMSD -1
REMARK  0 active torsions:
REMARK  status: ('A' for Active; 'I' for Inactive)
ROOT
ATOM      1  C1  BNZ d   1      -0.765   4.925   1.946  0.00  0.00     0.000 A 
ATOM      2  C2  BNZ d   1      -1.280   4.132   0.956  0.00  0.00     0.000 A 
ATOM      3  C3  BNZ d   1      -0.458   3.398   0.147  0.00  0.00     0.000 A 
ATOM      4  C4  BNZ d   1       0.879   3.490   0.302  0.00  0.00     0.000 A 
ATOM      5  C5  BNZ d   1       1.414   4.293   1.290  0.00  0.00     0.000 A 
ATOM      6  C6  BNZ d   1       0.582   4.999   2.128  0.00  0.00     0.000 A 
ENDROOT
TORSDOF 0
ENDMDL
