MODEL 1
REMARK minimizedAffinity -4.3085618
REMARK minimizedRMSD -1
REMARK  0 active torsions:
REMARK  status: ('A' for Active; 'I' for Inactive)
ROOT
ATOM      1  C1  BNZ d   1       1.612   4.317   1.343  0.00  0.00     0.000 A 
ATOM      2  C2  BNZ d   1       0.720   5.081   2.046  0.00  0.00     0.000 A 
ATOM      3  C3  BNZ d   1      -0.624   4.971   1.823  0.00  0.00     0.000 A 
ATOM      4  C4  BNZ d   1      -1.071   4.128   0.870  0.00  0.00     0.000 A 
ATOM      5  C5  BNZ d   1      -0.183   3.357   0.146  0.00  0.00     0.000 A 
ATOM      6  C6  BNZ d   1       1.166   3.442   0.401  0.00  0.00     0.000 A 
ENDROOT
TORSDOF 0
ENDMDL
