MODEL 1
REMARK minimizedAffinity -3.81370831
REMARK minimizedRMSD -1
REMARK  0 active torsions:
REMARK  status: ('A' for Active; 'I' for Inactive)
ROOT
ATOM      1  C1  BNZ d   1      -1.158   1.299   0.247  0.00  0.00     0.000 A 
ATOM      2  C2  BNZ d   1      -1.285   0.118   0.929  0.00  0.00     0.000 A 
ATOM      3  C3  BNZ d   1      -0.740  -1.035   0.438  0.00  0.00     0.000 A 
ATOM      4  C4  BNZ d   1      -0.105  -1.014  -0.752  0.00  0.00     0.000 A 
ATOM      5  C5  BNZ d   1       0.022   0.166  -1.456  0.00  0.00     0.000 A 
ATOM      6  C6  BNZ d   1      -0.493   1.333  -0.939  0.00  0.00     0.000 A 
ENDROOT
TORSDOF 0
ENDMDL
