MODEL 1
REMARK minimizedAffinity -3.12095666
REMARK minimizedRMSD -1
REMARK  0 active torsions:
REMARK  status: ('A' for Active; 'I' for Inactive)
ROOT
ATOM      1  C1  BNZ d   1       0.175  -0.882  -0.845  0.00  0.00     0.000 A 
ATOM      2  C2  BNZ d   1       0.228   0.280  -1.568  0.00  0.00     0.000 A 
ATOM      3  C3  BNZ d   1      -0.433   1.399  -1.144  0.00  0.00     0.000 A 
ATOM      4  C4  BNZ d   1      -1.177   1.344  -0.021  0.00  0.00     0.000 A 
ATOM      5  C5  BNZ d   1      -1.248   0.177   0.714  0.00  0.00     0.000 A 
ATOM      6  C6  BNZ d   1      -0.550  -0.936   0.306  0.00  0.00     0.000 A 
ENDROOT
TORSDOF 0
ENDMDL
