MODEL 1
REMARK minimizedAffinity -2.94102383
REMARK minimizedRMSD -1
REMARK  0 active torsions:
REMARK  status: ('A' for Active; 'I' for Inactive)
ROOT
ATOM      1  C1  BNZ d   1      -1.451   0.784   0.375  0.00  0.00     0.000 A 
ATOM      2  C2  BNZ d   1      -1.736  -0.334   1.113  0.00  0.00     0.000 A 
ATOM      3  C3  BNZ d   1      -1.182  -1.542   0.795  0.00  0.00     0.000 A 
ATOM      4  C4  BNZ d   1      -0.378  -1.640  -0.283  0.00  0.00     0.000 A 
ATOM      5  C5  BNZ d   1      -0.089  -0.524  -1.043  0.00  0.00     0.000 A 
ATOM      6  C6  BNZ d   1      -0.617   0.698  -0.697  0.00  0.00     0.000 A 
ENDROOT
TORSDOF 0
ENDMDL
