MODEL 1
REMARK minimizedAffinity -4.52860451
REMARK minimizedRMSD -1
REMARK  0 active torsions:
REMARK  status: ('A' for Active; 'I' for Inactive)
ROOT
ATOM      1  C1  BNZ d   1      -1.166   1.274   0.047  0.00  0.00     0.000 A 
ATOM      2  C2  BNZ d   1      -0.529   1.295  -1.165  0.00  0.00     0.000 A 
ATOM      3  C3  BNZ d   1      -0.062   0.142  -1.730  0.00  0.00     0.000 A 
ATOM      4  C4  BNZ d   1      -0.196  -1.024  -1.066  0.00  0.00     0.000 A 
ATOM      5  C5  BNZ d   1      -0.828  -1.060   0.162  0.00  0.00     0.000 A 
ATOM      6  C6  BNZ d   1      -1.332   0.097   0.710  0.00  0.00     0.000 A 
ENDROOT
TORSDOF 0
ENDMDL
