MODEL 1
REMARK minimizedAffinity -2.56062675
REMARK minimizedRMSD -1
REMARK  0 active torsions:
REMARK  status: ('A' for Active; 'I' for Inactive)
ROOT
ATOM      1  C1  BNZ d   1       0.001  -1.059  -0.861  0.00  0.00     0.000 A 
ATOM      2  C2  BNZ d   1      -0.527  -0.877   0.390  0.00  0.00     0.000 A 
ATOM      3  C3  BNZ d   1      -1.042   0.333   0.762  0.00  0.00     0.000 A 
ATOM      4  C4  BNZ d   1      -0.993   1.369  -0.100  0.00  0.00     0.000 A 
ATOM      5  C5  BNZ d   1      -0.456   1.204  -1.361  0.00  0.00     0.000 A 
ATOM      6  C6  BNZ d   1       0.027  -0.026  -1.747  0.00  0.00     0.000 A 
ENDROOT
TORSDOF 0
ENDMDL
