MODEL 1
REMARK minimizedAffinity -4.37632608
REMARK minimizedRMSD -1
REMARK  0 active torsions:
REMARK  status: ('A' for Active; 'I' for Inactive)
ROOT
ATOM      1  C1  BNZ d   1      -1.340   0.016   0.890  0.00  0.00     0.000 A 
ATOM      2  C2  BNZ d   1      -0.739  -1.196   0.681  0.00  0.00     0.000 A 
ATOM      3  C3  BNZ d   1      -0.070  -1.454  -0.483  0.00  0.00     0.000 A 
ATOM      4  C4  BNZ d   1      -0.038  -0.515  -1.451  0.00  0.00     0.000 A 
ATOM      5  C5  BNZ d   1      -0.647   0.708  -1.259  0.00  0.00     0.000 A 
ATOM      6  C6  BNZ d   1      -1.286   0.979  -0.070  0.00  0.00     0.000 A 
ENDROOT
TORSDOF 0
ENDMDL
