MODEL 1
REMARK minimizedAffinity -3.22459793
REMARK minimizedRMSD -1
REMARK  0 active torsions:
REMARK  status: ('A' for Active; 'I' for Inactive)
ROOT
ATOM      1  C1  BNZ d   1       0.873   0.778   0.462  0.00  0.00     0.000 A 
ATOM      2  C2  BNZ d   1       0.105  -0.322   0.737  0.00  0.00     0.000 A 
ATOM      3  C3  BNZ d   1      -1.251  -0.212   0.875  0.00  0.00     0.000 A 
ATOM      4  C4  BNZ d   1      -1.831   1.002   0.777  0.00  0.00     0.000 A 
ATOM      5  C5  BNZ d   1      -1.069   2.121   0.509  0.00  0.00     0.000 A 
ATOM      6  C6  BNZ d   1       0.291   2.001   0.332  0.00  0.00     0.000 A 
ENDROOT
TORSDOF 0
ENDMDL
