MODEL 1
REMARK minimizedAffinity -4.30030584
REMARK minimizedRMSD -1
REMARK  0 active torsions:
REMARK  status: ('A' for Active; 'I' for Inactive)
ROOT
ATOM      1  C1  BNZ d   1      -1.271   1.330   0.325  0.00  0.00     0.000 A 
ATOM      2  C2  BNZ d   1      -0.365   1.516  -0.684  0.00  0.00     0.000 A 
ATOM      3  C3  BNZ d   1       0.217   0.449  -1.309  0.00  0.00     0.000 A 
ATOM      4  C4  BNZ d   1      -0.077  -0.802  -0.897  0.00  0.00     0.000 A 
ATOM      5  C5  BNZ d   1      -0.982  -1.006   0.125  0.00  0.00     0.000 A 
ATOM      6  C6  BNZ d   1      -1.596   0.070   0.725  0.00  0.00     0.000 A 
ENDROOT
TORSDOF 0
ENDMDL
