MODEL 1
REMARK minimizedAffinity -2.7634871
REMARK minimizedRMSD -1
REMARK  0 active torsions:
REMARK  status: ('A' for Active; 'I' for Inactive)
ROOT
ATOM      1  C1  BNZ d   1      -0.109  -0.111  -1.729  0.00  0.00     0.000 A 
ATOM      2  C2  BNZ d   1      -0.040  -0.659  -0.476  0.00  0.00     0.000 A 
ATOM      3  C3  BNZ d   1      -0.016   0.137   0.636  0.00  0.00     0.000 A 
ATOM      4  C4  BNZ d   1      -0.021   1.478   0.492  0.00  0.00     0.000 A 
ATOM      5  C5  BNZ d   1      -0.081   2.045  -0.765  0.00  0.00     0.000 A 
ATOM      6  C6  BNZ d   1      -0.144   1.241  -1.880  0.00  0.00     0.000 A 
ENDROOT
TORSDOF 0
ENDMDL
