MODEL 1
REMARK minimizedAffinity 4.52447271
REMARK minimizedRMSD -1
REMARK  1 active torsions:
REMARK  status: ('A' for Active; 'I' for Inactive)
REMARK    1  A    between atoms: C1_2  and  C2_3 
ROOT
ATOM      1  C2  UNL d   1       1.294   0.287   1.764  0.00  0.00    -0.081 A 
ATOM      2  C3  UNL d   1       0.032  -0.029   1.247  0.00  0.00     0.006 A 
ATOM      3  C4  UNL d   1      -1.108   0.637   1.705  0.00  0.00     0.002 A 
ATOM      4  C5  UNL d   1      -1.003   1.635   2.680  0.00  0.00    -0.080 A 
ATOM      5  C6  UNL d   1      -2.215   2.378   3.159  0.00  0.00     0.076 C 
ATOM      6  C7  UNL d   1       0.256   1.938   3.209  0.00  0.00     0.002 A 
ATOM      7  C8  UNL d   1       1.396   1.272   2.752  0.00  0.00     0.006 A 
ENDROOT
BRANCH   1   8
ATOM      8  C1  UNL d   1       2.532  -0.384   1.226  0.00  0.00     0.054 C 
ATOM      9  C   UNL d   1       3.200   0.465   0.153  0.00  0.00     0.018 C 
ENDBRANCH   1   8
TORSDOF 1
ENDMDL
