MODEL 1
REMARK minimizedAffinity 0.99464035
REMARK minimizedRMSD -1
REMARK  1 active torsions:
REMARK  status: ('A' for Active; 'I' for Inactive)
REMARK    1  A    between atoms: C1_2  and  C2_3 
ROOT
ATOM      1  C2  UNL d   1      -2.635   1.689   3.996  0.00  0.00    -0.081 A 
ATOM      2  C3  UNL d   1      -3.420   1.322   2.897  0.00  0.00     0.006 A 
ATOM      3  C4  UNL d   1      -2.821   0.877   1.716  0.00  0.00     0.002 A 
ATOM      4  C5  UNL d   1      -1.429   0.784   1.617  0.00  0.00    -0.080 A 
ATOM      5  C6  UNL d   1      -0.774   0.279   0.366  0.00  0.00     0.076 C 
ATOM      6  C7  UNL d   1      -0.643   1.167   2.710  0.00  0.00     0.002 A 
ATOM      7  C8  UNL d   1      -1.242   1.613   3.891  0.00  0.00     0.006 A 
ENDROOT
BRANCH   1   8
ATOM      8  C1  UNL d   1      -3.280   2.108   5.293  0.00  0.00     0.054 C 
ATOM      9  C   UNL d   1      -4.011   0.945   5.948  0.00  0.00     0.018 C 
ENDBRANCH   1   8
TORSDOF 1
ENDMDL
