MODEL 1
REMARK minimizedAffinity 5.29089642
REMARK minimizedRMSD -1
REMARK  1 active torsions:
REMARK  status: ('A' for Active; 'I' for Inactive)
REMARK    1  A    between atoms: C1_2  and  C2_3 
ROOT
ATOM      1  C2  UNL d   1       0.108   0.348   1.209  0.00  0.00    -0.081 A 
ATOM      2  C3  UNL d   1       0.204   0.849   2.513  0.00  0.00     0.006 A 
ATOM      3  C4  UNL d   1      -0.913   1.405   3.142  0.00  0.00     0.002 A 
ATOM      4  C5  UNL d   1      -2.144   1.463   2.480  0.00  0.00    -0.080 A 
ATOM      5  C6  UNL d   1      -3.358   2.030   3.155  0.00  0.00     0.076 C 
ATOM      6  C7  UNL d   1      -2.236   0.979   1.171  0.00  0.00     0.002 A 
ATOM      7  C8  UNL d   1      -1.120   0.423   0.542  0.00  0.00     0.006 A 
ENDROOT
BRANCH   1   8
ATOM      8  C1  UNL d   1       1.294  -0.311   0.552  0.00  0.00     0.054 C 
ATOM      9  C   UNL d   1       2.328   0.717   0.117  0.00  0.00     0.018 C 
ENDBRANCH   1   8
TORSDOF 1
ENDMDL
