MODEL 1
REMARK minimizedAffinity 14.6856737
REMARK minimizedRMSD -1
REMARK  1 active torsions:
REMARK  status: ('A' for Active; 'I' for Inactive)
REMARK    1  A    between atoms: C1_2  and  C2_3 
ROOT
ATOM      1  C2  UNL d   1      -3.376  -1.663   2.319  0.00  0.00    -0.081 A 
ATOM      2  C3  UNL d   1      -2.854  -1.207   3.535  0.00  0.00     0.006 A 
ATOM      3  C4  UNL d   1      -3.168  -1.859   4.730  0.00  0.00     0.002 A 
ATOM      4  C5  UNL d   1      -4.001  -2.982   4.728  0.00  0.00    -0.080 A 
ATOM      5  C6  UNL d   1      -4.322  -3.710   5.999  0.00  0.00     0.076 C 
ATOM      6  C7  UNL d   1      -4.537  -3.428   3.515  0.00  0.00     0.002 A 
ATOM      7  C8  UNL d   1      -4.224  -2.776   2.320  0.00  0.00     0.006 A 
ENDROOT
BRANCH   1   8
ATOM      8  C1  UNL d   1      -2.988  -1.001   1.021  0.00  0.00     0.054 C 
ATOM      9  C   UNL d   1      -4.043  -1.227  -0.052  0.00  0.00     0.018 C 
ENDBRANCH   1   8
TORSDOF 1
ENDMDL
