MODEL 1
REMARK minimizedAffinity 13.3560286
REMARK minimizedRMSD -1
REMARK  1 active torsions:
REMARK  status: ('A' for Active; 'I' for Inactive)
REMARK    1  A    between atoms: C1_2  and  C2_3 
ROOT
ATOM      1  C2  UNL d   1       2.213  -0.450   1.928  0.00  0.00    -0.081 A 
ATOM      2  C3  UNL d   1       1.994   0.598   1.025  0.00  0.00     0.006 A 
ATOM      3  C4  UNL d   1       3.055   1.405   0.606  0.00  0.00     0.002 A 
ATOM      4  C5  UNL d   1       4.352   1.173   1.076  0.00  0.00    -0.080 A 
ATOM      5  C6  UNL d   1       5.504   2.012   0.610  0.00  0.00     0.076 C 
ATOM      6  C7  UNL d   1       4.567   0.137   1.991  0.00  0.00     0.002 A 
ATOM      7  C8  UNL d   1       3.507  -0.669   2.411  0.00  0.00     0.006 A 
ENDROOT
BRANCH   1   8
ATOM      8  C1  UNL d   1       1.083  -1.362   2.332  0.00  0.00     0.054 C 
ATOM      9  C   UNL d   1       0.989  -2.569   1.409  0.00  0.00     0.018 C 
ENDBRANCH   1   8
TORSDOF 1
ENDMDL
