MODEL 1
REMARK minimizedAffinity -0.456663162
REMARK minimizedRMSD -1
REMARK  1 active torsions:
REMARK  status: ('A' for Active; 'I' for Inactive)
REMARK    1  A    between atoms: C1_2  and  C2_3 
ROOT
ATOM      1  C2  UNL d   1      -4.105  -4.277   3.261  0.00  0.00    -0.081 A 
ATOM      2  C3  UNL d   1      -3.722  -3.018   2.781  0.00  0.00     0.006 A 
ATOM      3  C4  UNL d   1      -3.311  -2.018   3.665  0.00  0.00     0.002 A 
ATOM      4  C5  UNL d   1      -3.269  -2.262   5.042  0.00  0.00    -0.080 A 
ATOM      5  C6  UNL d   1      -2.801  -1.206   6.000  0.00  0.00     0.076 C 
ATOM      6  C7  UNL d   1      -3.669  -3.513   5.523  0.00  0.00     0.002 A 
ATOM      7  C8  UNL d   1      -4.080  -4.513   4.640  0.00  0.00     0.006 A 
ENDROOT
BRANCH   1   8
ATOM      8  C1  UNL d   1      -4.487  -5.378   2.305  0.00  0.00     0.054 C 
ATOM      9  C   UNL d   1      -5.994  -5.593   2.282  0.00  0.00     0.018 C 
ENDBRANCH   1   8
TORSDOF 1
ENDMDL
