MODEL 1
REMARK minimizedAffinity 9.61640453
REMARK minimizedRMSD -1
REMARK  1 active torsions:
REMARK  status: ('A' for Active; 'I' for Inactive)
REMARK    1  A    between atoms: C1_2  and  C2_3 
ROOT
ATOM      1  C2  UNL d   1       3.786  -0.139  -3.746  0.00  0.00    -0.081 A 
ATOM      2  C3  UNL d   1       3.006  -1.170  -3.207  0.00  0.00     0.006 A 
ATOM      3  C4  UNL d   1       1.897  -1.657  -3.903  0.00  0.00     0.002 A 
ATOM      4  C5  UNL d   1       1.554  -1.127  -5.151  0.00  0.00    -0.080 A 
ATOM      5  C6  UNL d   1       0.384  -1.661  -5.922  0.00  0.00     0.076 C 
ATOM      6  C7  UNL d   1       2.322  -0.085  -5.682  0.00  0.00     0.002 A 
ATOM      7  C8  UNL d   1       3.431   0.403  -4.986  0.00  0.00     0.006 A 
ENDROOT
BRANCH   1   8
ATOM      8  C1  UNL d   1       5.020   0.344  -3.028  0.00  0.00     0.054 C 
ATOM      9  C   UNL d   1       6.000  -0.795  -2.784  0.00  0.00     0.018 C 
ENDBRANCH   1   8
TORSDOF 1
ENDMDL
