MODEL 1
REMARK minimizedAffinity 8.36082172
REMARK minimizedRMSD -1
REMARK  1 active torsions:
REMARK  status: ('A' for Active; 'I' for Inactive)
REMARK    1  A    between atoms: C1_2  and  C2_3 
ROOT
ATOM      1  C2  UNL d   1       5.089   0.423   2.360  0.00  0.00    -0.081 A 
ATOM      2  C3  UNL d   1       5.551   1.455   1.534  0.00  0.00     0.006 A 
ATOM      3  C4  UNL d   1       4.693   2.065   0.616  0.00  0.00     0.002 A 
ATOM      4  C5  UNL d   1       3.358   1.659   0.513  0.00  0.00    -0.080 A 
ATOM      5  C6  UNL d   1       2.419   2.326  -0.447  0.00  0.00     0.076 C 
ATOM      6  C7  UNL d   1       2.901   0.615   1.326  0.00  0.00     0.002 A 
ATOM      7  C8  UNL d   1       3.758   0.005   2.244  0.00  0.00     0.006 A 
ENDROOT
BRANCH   1   8
ATOM      8  C1  UNL d   1       5.994  -0.193   3.396  0.00  0.00     0.054 C 
ATOM      9  C   UNL d   1       6.000   0.623   4.681  0.00  0.00     0.018 C 
ENDBRANCH   1   8
TORSDOF 1
ENDMDL
