MODEL 1
REMARK minimizedAffinity 11.3485689
REMARK minimizedRMSD -1
REMARK  1 active torsions:
REMARK  status: ('A' for Active; 'I' for Inactive)
REMARK    1  A    between atoms: C1_2  and  C2_3 
ROOT
ATOM      1  C2  UNL d   1       3.609  -0.091  -3.018  0.00  0.00    -0.081 A 
ATOM      2  C3  UNL d   1       2.993  -1.299  -2.668  0.00  0.00     0.006 A 
ATOM      3  C4  UNL d   1       2.125  -1.935  -3.558  0.00  0.00     0.002 A 
ATOM      4  C5  UNL d   1       1.863  -1.378  -4.815  0.00  0.00    -0.080 A 
ATOM      5  C6  UNL d   1       0.957  -2.066  -5.792  0.00  0.00     0.076 C 
ATOM      6  C7  UNL d   1       2.464  -0.162  -5.157  0.00  0.00     0.002 A 
ATOM      7  C8  UNL d   1       3.332   0.475  -4.268  0.00  0.00     0.006 A 
ENDROOT
BRANCH   1   8
ATOM      8  C1  UNL d   1       4.596   0.565  -2.086  0.00  0.00     0.054 C 
ATOM      9  C   UNL d   1       6.000   0.015  -2.292  0.00  0.00     0.018 C 
ENDBRANCH   1   8
TORSDOF 1
ENDMDL
