MODEL 1
REMARK minimizedAffinity 7.67824793
REMARK minimizedRMSD -1
REMARK  1 active torsions:
REMARK  status: ('A' for Active; 'I' for Inactive)
REMARK    1  A    between atoms: C1_2  and  C2_3 
ROOT
ATOM      1  C2  UNL d   1      -3.859   1.744   5.820  0.00  0.00    -0.081 A 
ATOM      2  C3  UNL d   1      -2.528   2.180   5.815  0.00  0.00     0.006 A 
ATOM      3  C4  UNL d   1      -2.230   3.544   5.858  0.00  0.00     0.002 A 
ATOM      4  C5  UNL d   1      -3.256   4.493   5.915  0.00  0.00    -0.080 A 
ATOM      5  C6  UNL d   1      -2.949   5.959   5.992  0.00  0.00     0.076 C 
ATOM      6  C7  UNL d   1      -4.586   4.058   5.902  0.00  0.00     0.002 A 
ATOM      7  C8  UNL d   1      -4.884   2.694   5.859  0.00  0.00     0.006 A 
ENDROOT
BRANCH   1   8
ATOM      8  C1  UNL d   1      -4.183   0.271   5.839  0.00  0.00     0.054 C 
ATOM      9  C   UNL d   1      -2.928  -0.573   5.666  0.00  0.00     0.018 C 
ENDBRANCH   1   8
TORSDOF 1
ENDMDL
