MODEL 1
REMARK minimizedAffinity 8.48903465
REMARK minimizedRMSD -1
REMARK  1 active torsions:
REMARK  status: ('A' for Active; 'I' for Inactive)
REMARK    1  A    between atoms: C1_2  and  C2_3 
ROOT
ATOM      1  C2  UNL d   1       2.566  -1.856   2.591  0.00  0.00    -0.081 A 
ATOM      2  C3  UNL d   1       1.566  -1.616   1.641  0.00  0.00     0.006 A 
ATOM      3  C4  UNL d   1       1.563  -0.433   0.898  0.00  0.00     0.002 A 
ATOM      4  C5  UNL d   1       2.564   0.526   1.088  0.00  0.00    -0.080 A 
ATOM      5  C6  UNL d   1       2.590   1.787   0.276  0.00  0.00     0.076 C 
ATOM      6  C7  UNL d   1       3.553   0.294   2.049  0.00  0.00     0.002 A 
ATOM      7  C8  UNL d   1       3.556  -0.888   2.793  0.00  0.00     0.006 A 
ENDROOT
BRANCH   1   8
ATOM      8  C1  UNL d   1       2.608  -3.159   3.347  0.00  0.00     0.054 C 
ATOM      9  C   UNL d   1       2.996  -4.315   2.436  0.00  0.00     0.018 C 
ENDBRANCH   1   8
TORSDOF 1
ENDMDL
