MODEL 1
REMARK minimizedAffinity 1.96666574
REMARK minimizedRMSD -1
REMARK  1 active torsions:
REMARK  status: ('A' for Active; 'I' for Inactive)
REMARK    1  A    between atoms: C1_2  and  C2_3 
ROOT
ATOM      1  C2  UNL d   1       4.325  -0.353   2.253  0.00  0.00    -0.081 A 
ATOM      2  C3  UNL d   1       4.178  -1.688   2.650  0.00  0.00     0.006 A 
ATOM      3  C4  UNL d   1       2.955  -2.344   2.488  0.00  0.00     0.002 A 
ATOM      4  C5  UNL d   1       1.863  -1.679   1.920  0.00  0.00    -0.080 A 
ATOM      5  C6  UNL d   1       0.553  -2.381   1.713  0.00  0.00     0.076 C 
ATOM      6  C7  UNL d   1       2.005  -0.340   1.540  0.00  0.00     0.002 A 
ATOM      7  C8  UNL d   1       3.227   0.316   1.702  0.00  0.00     0.006 A 
ENDROOT
BRANCH   1   8
ATOM      8  C1  UNL d   1       5.661   0.337   2.367  0.00  0.00     0.054 C 
ATOM      9  C   UNL d   1       5.989   0.671   3.815  0.00  0.00     0.018 C 
ENDBRANCH   1   8
TORSDOF 1
ENDMDL
