MODEL 1
REMARK minimizedAffinity 4.46030521
REMARK minimizedRMSD -1
REMARK  1 active torsions:
REMARK  status: ('A' for Active; 'I' for Inactive)
REMARK    1  A    between atoms: C1_2  and  C2_3 
ROOT
ATOM      1  C2  UNL d   1       3.122   0.836   0.506  0.00  0.00    -0.081 A 
ATOM      2  C3  UNL d   1       2.742   0.085   1.625  0.00  0.00     0.006 A 
ATOM      3  C4  UNL d   1       3.672  -0.222   2.621  0.00  0.00     0.002 A 
ATOM      4  C5  UNL d   1       4.994   0.223   2.519  0.00  0.00    -0.080 A 
ATOM      5  C6  UNL d   1       5.995  -0.074   3.595  0.00  0.00     0.076 C 
ATOM      6  C7  UNL d   1       5.378   0.958   1.392  0.00  0.00     0.002 A 
ATOM      7  C8  UNL d   1       4.449   1.264   0.396  0.00  0.00     0.006 A 
ENDROOT
BRANCH   1   8
ATOM      8  C1  UNL d   1       2.106   1.223  -0.538  0.00  0.00     0.054 C 
ATOM      9  C   UNL d   1       2.584   0.862  -1.937  0.00  0.00     0.018 C 
ENDBRANCH   1   8
TORSDOF 1
ENDMDL
