MODEL 1
REMARK minimizedAffinity -4.19400644
REMARK minimizedRMSD -1
REMARK  0 active torsions:
REMARK  status: ('A' for Active; 'I' for Inactive)
ROOT
ATOM      1  C   UNL d   1       2.636  -1.063   2.257  0.00  0.00     0.020 A 
ATOM      2  C1  UNL d   1       1.494  -0.772   3.001  0.00  0.00     0.020 A 
ATOM      3  C2  UNL d   1       0.257  -0.649   2.364  0.00  0.00     0.034 A 
ATOM      4  C3  UNL d   1       0.160  -0.818   0.978  0.00  0.00     0.017 A 
ATOM      5  C4  UNL d   1       1.308  -1.110   0.231  0.00  0.00     0.017 A 
ATOM      6  C5  UNL d   1       2.543  -1.232   0.875  0.00  0.00     0.034 A 
ATOM      7 Cl   UNL d   1       1.267  -1.333  -1.482  0.00  0.00    -0.070 Cl
ATOM      8 Cl1  UNL d   1      -1.401  -0.653   0.256  0.00  0.00    -0.070 Cl
ENDROOT
TORSDOF 0
ENDMDL
