MODEL 1
REMARK minimizedAffinity -2.97290492
REMARK minimizedRMSD -1
REMARK  0 active torsions:
REMARK  status: ('A' for Active; 'I' for Inactive)
ROOT
ATOM      1  C   UNL d   1      -0.574  -0.840   1.918  0.00  0.00     0.020 A 
ATOM      2  C1  UNL d   1      -0.575   0.025   0.825  0.00  0.00     0.020 A 
ATOM      3  C2  UNL d   1       0.337  -0.164  -0.216  0.00  0.00     0.034 A 
ATOM      4  C3  UNL d   1       1.252  -1.221  -0.167  0.00  0.00     0.017 A 
ATOM      5  C4  UNL d   1       1.253  -2.089   0.931  0.00  0.00     0.017 A 
ATOM      6  C5  UNL d   1       0.338  -1.895   1.971  0.00  0.00     0.034 A 
ATOM      7 Cl   UNL d   1       2.352  -3.416   1.063  0.00  0.00    -0.070 Cl
ATOM      8 Cl1  UNL d   1       2.350  -1.396  -1.489  0.00  0.00    -0.070 Cl
ENDROOT
TORSDOF 0
ENDMDL
