MODEL 1
REMARK minimizedAffinity -5.20978451
REMARK minimizedRMSD -1
REMARK  0 active torsions:
REMARK  status: ('A' for Active; 'I' for Inactive)
ROOT
ATOM      1  C   UNL d   1       2.074  -1.464   2.484  0.00  0.00     0.020 A 
ATOM      2  C1  UNL d   1       2.724  -1.750   1.284  0.00  0.00     0.020 A 
ATOM      3  C2  UNL d   1       2.107  -1.454   0.067  0.00  0.00     0.034 A 
ATOM      4  C3  UNL d   1       0.835  -0.870   0.048  0.00  0.00     0.017 A 
ATOM      5  C4  UNL d   1       0.183  -0.584   1.252  0.00  0.00     0.017 A 
ATOM      6  C5  UNL d   1       0.806  -0.882   2.468  0.00  0.00     0.034 A 
ATOM      7 Cl   UNL d   1      -1.388   0.136   1.308  0.00  0.00    -0.070 Cl
ATOM      8 Cl1  UNL d   1       0.131  -0.531  -1.493  0.00  0.00    -0.070 Cl
ENDROOT
TORSDOF 0
ENDMDL
