MODEL 1
REMARK minimizedAffinity -3.1940918
REMARK minimizedRMSD -1
REMARK  0 active torsions:
REMARK  status: ('A' for Active; 'I' for Inactive)
ROOT
ATOM      1  C   UNL d   1       0.594  -0.805   3.039  0.00  0.00     0.020 A 
ATOM      2  C1  UNL d   1       1.778  -0.349   2.462  0.00  0.00     0.020 A 
ATOM      3  C2  UNL d   1       1.785   0.090   1.136  0.00  0.00     0.034 A 
ATOM      4  C3  UNL d   1       0.605   0.074   0.384  0.00  0.00     0.017 A 
ATOM      5  C4  UNL d   1      -0.583  -0.385   0.964  0.00  0.00     0.017 A 
ATOM      6  C5  UNL d   1      -0.584  -0.823   2.292  0.00  0.00     0.034 A 
ATOM      7 Cl   UNL d   1      -2.079  -0.435   0.099  0.00  0.00    -0.070 Cl
ATOM      8 Cl1  UNL d   1       0.685   0.631  -1.250  0.00  0.00    -0.070 Cl
ENDROOT
TORSDOF 0
ENDMDL
