MODEL 1
REMARK minimizedAffinity -5.9354105
REMARK minimizedRMSD -1
REMARK  0 active torsions:
REMARK  status: ('A' for Active; 'I' for Inactive)
ROOT
ATOM      1  C   UNL d   1       1.489  -1.077   2.438  0.00  0.00     0.020 A 
ATOM      2  C1  UNL d   1       0.334  -0.302   2.533  0.00  0.00     0.020 A 
ATOM      3  C2  UNL d   1      -0.377   0.035   1.379  0.00  0.00     0.034 A 
ATOM      4  C3  UNL d   1       0.066  -0.402   0.126  0.00  0.00     0.017 A 
ATOM      5  C4  UNL d   1       1.226  -1.180   0.032  0.00  0.00     0.017 A 
ATOM      6  C5  UNL d   1       1.934  -1.515   1.190  0.00  0.00     0.034 A 
ATOM      7 Cl   UNL d   1       1.835  -1.757  -1.479  0.00  0.00    -0.070 Cl
ATOM      8 Cl1  UNL d   1      -0.862   0.052  -1.258  0.00  0.00    -0.070 Cl
ENDROOT
TORSDOF 0
ENDMDL
