MODEL 1
REMARK minimizedAffinity -4.38407707
REMARK minimizedRMSD -1
REMARK  0 active torsions:
REMARK  status: ('A' for Active; 'I' for Inactive)
ROOT
ATOM      1  C   UNL d   1       2.220  -1.792   1.681  0.00  0.00     0.020 A 
ATOM      2  C1  UNL d   1       1.203  -0.968   2.164  0.00  0.00     0.020 A 
ATOM      3  C2  UNL d   1       0.347  -0.320   1.271  0.00  0.00     0.034 A 
ATOM      4  C3  UNL d   1       0.506  -0.494  -0.109  0.00  0.00     0.017 A 
ATOM      5  C4  UNL d   1       1.526  -1.321  -0.592  0.00  0.00     0.017 A 
ATOM      6  C5  UNL d   1       2.381  -1.968   0.307  0.00  0.00     0.034 A 
ATOM      7 Cl   UNL d   1       1.784  -1.585  -2.280  0.00  0.00    -0.070 Cl
ATOM      8 Cl1  UNL d   1      -0.589   0.337  -1.155  0.00  0.00    -0.070 Cl
ENDROOT
TORSDOF 0
ENDMDL
