MODEL 1
REMARK minimizedAffinity -3.35730886
REMARK minimizedRMSD -1
REMARK  0 active torsions:
REMARK  status: ('A' for Active; 'I' for Inactive)
ROOT
ATOM      1  C   UNL d   1      -0.225  -0.350  -1.265  0.00  0.00     0.020 A 
ATOM      2  C1  UNL d   1       1.123  -0.460  -0.928  0.00  0.00     0.020 A 
ATOM      3  C2  UNL d   1       1.514  -0.417   0.412  0.00  0.00     0.034 A 
ATOM      4  C3  UNL d   1       0.555  -0.263   1.420  0.00  0.00     0.017 A 
ATOM      5  C4  UNL d   1      -0.798  -0.152   1.081  0.00  0.00     0.017 A 
ATOM      6  C5  UNL d   1      -1.184  -0.197  -0.263  0.00  0.00     0.034 A 
ATOM      7 Cl   UNL d   1      -2.038   0.040   2.269  0.00  0.00    -0.070 Cl
ATOM      8 Cl1  UNL d   1       1.110  -0.217   3.056  0.00  0.00    -0.070 Cl
ENDROOT
TORSDOF 0
ENDMDL
