MODEL 1
REMARK minimizedAffinity -2.69456196
REMARK minimizedRMSD -1
REMARK  0 active torsions:
REMARK  status: ('A' for Active; 'I' for Inactive)
ROOT
ATOM      1  C   UNL d   1       1.830  -1.636   2.610  0.00  0.00     0.020 A 
ATOM      2  C1  UNL d   1       2.520  -1.849   1.418  0.00  0.00     0.020 A 
ATOM      3  C2  UNL d   1       1.990  -1.385   0.212  0.00  0.00     0.034 A 
ATOM      4  C3  UNL d   1       0.767  -0.706   0.196  0.00  0.00     0.017 A 
ATOM      5  C4  UNL d   1       0.075  -0.493   1.393  0.00  0.00     0.017 A 
ATOM      6  C5  UNL d   1       0.610  -0.959   2.598  0.00  0.00     0.034 A 
ATOM      7 Cl   UNL d   1      -1.440   0.337   1.453  0.00  0.00    -0.070 Cl
ATOM      8 Cl1  UNL d   1       0.171  -0.160  -1.331  0.00  0.00    -0.070 Cl
ENDROOT
TORSDOF 0
ENDMDL
