MODEL 1
REMARK minimizedAffinity -2.83593488
REMARK minimizedRMSD -1
REMARK  0 active torsions:
REMARK  status: ('A' for Active; 'I' for Inactive)
ROOT
ATOM      1  C   UNL d   1      -0.730   0.040  -0.849  0.00  0.00     0.020 A 
ATOM      2  C1  UNL d   1      -1.416  -0.060   0.361  0.00  0.00     0.020 A 
ATOM      3  C2  UNL d   1      -0.725  -0.385   1.530  0.00  0.00     0.034 A 
ATOM      4  C3  UNL d   1       0.656  -0.612   1.492  0.00  0.00     0.017 A 
ATOM      5  C4  UNL d   1       1.343  -0.512   0.277  0.00  0.00     0.017 A 
ATOM      6  C5  UNL d   1       0.647  -0.186  -0.891  0.00  0.00     0.034 A 
ATOM      7 Cl   UNL d   1       3.046  -0.778   0.151  0.00  0.00    -0.070 Cl
ATOM      8 Cl1  UNL d   1       1.446  -1.010   2.976  0.00  0.00    -0.070 Cl
ENDROOT
TORSDOF 0
ENDMDL
