MODEL 1
REMARK minimizedAffinity -0.223158047
REMARK minimizedRMSD -1
REMARK  0 active torsions:
REMARK  status: ('A' for Active; 'I' for Inactive)
ROOT
ATOM      1  C   UNL d   1       0.079  -0.355  -1.950  0.00  0.00     0.020 A 
ATOM      2  C1  UNL d   1       1.284  -0.691  -1.336  0.00  0.00     0.020 A 
ATOM      3  C2  UNL d   1       1.312  -1.005   0.025  0.00  0.00     0.034 A 
ATOM      4  C3  UNL d   1       0.131  -0.982   0.776  0.00  0.00     0.017 A 
ATOM      5  C4  UNL d   1      -1.079  -0.644   0.159  0.00  0.00     0.017 A 
ATOM      6  C5  UNL d   1      -1.100  -0.331  -1.204  0.00  0.00     0.034 A 
ATOM      7 Cl   UNL d   1      -2.577  -0.594   1.020  0.00  0.00    -0.070 Cl
ATOM      8 Cl1  UNL d   1       0.238  -1.381   2.454  0.00  0.00    -0.070 Cl
ENDROOT
TORSDOF 0
ENDMDL
