MODEL 1
REMARK minimizedAffinity -5.0447216
REMARK minimizedRMSD -1
REMARK  1 active torsions:
REMARK  status: ('A' for Active; 'I' for Inactive)
REMARK    1  A    between atoms: C3_4  and  O_7 
ROOT
ATOM      1  C   UNL d   1       0.204  -0.141   0.117  0.00  0.00    -0.033 A 
ATOM      2  C1  UNL d   1      -0.211   0.871  -0.751  0.00  0.00     0.039 A 
ATOM      3  C2  UNL d   1      -1.212   1.762  -0.359  0.00  0.00    -0.080 A 
ATOM      4  C3  UNL d   1      -1.787   1.632   0.902  0.00  0.00     0.150 A 
ATOM      5  C4  UNL d   1      -1.376   0.628   1.773  0.00  0.00    -0.007 A 
ATOM      6  C5  UNL d   1      -0.377  -0.261   1.379  0.00  0.00     0.039 A 
ENDROOT
BRANCH   4   7
ATOM      7  O   UNL d   1      -2.771   2.475   1.327  0.00  0.00    -0.526 OA
ATOM      8  H5  UNL d   1      -2.973   3.099   0.610  0.00  0.00     0.418 HD
ENDBRANCH   4   7
TORSDOF 1
ENDMDL
