MODEL 1
REMARK minimizedAffinity -4.73534203
REMARK minimizedRMSD -1
REMARK  1 active torsions:
REMARK  status: ('A' for Active; 'I' for Inactive)
REMARK    1  A    between atoms: C3_4  and  O_7 
ROOT
ATOM      1  C   UNL d   1       0.685  -0.557   0.117  0.00  0.00    -0.033 A 
ATOM      2  C1  UNL d   1       0.208  -0.494   1.428  0.00  0.00     0.039 A 
ATOM      3  C2  UNL d   1      -0.920   0.273   1.727  0.00  0.00    -0.080 A 
ATOM      4  C3  UNL d   1      -1.561   0.971   0.707  0.00  0.00     0.150 A 
ATOM      5  C4  UNL d   1      -1.094   0.910  -0.602  0.00  0.00    -0.007 A 
ATOM      6  C5  UNL d   1       0.033   0.144  -0.898  0.00  0.00     0.039 A 
ENDROOT
BRANCH   4   7
ATOM      7  O   UNL d   1      -2.663   1.736   0.951  0.00  0.00    -0.526 OA
ATOM      8  H5  UNL d   1      -2.854   1.706   1.903  0.00  0.00     0.418 HD
ENDBRANCH   4   7
TORSDOF 1
ENDMDL
