MODEL 1
REMARK minimizedAffinity -3.64965653
REMARK minimizedRMSD -1
REMARK  1 active torsions:
REMARK  status: ('A' for Active; 'I' for Inactive)
REMARK    1  A    between atoms: C3_4  and  O_7 
ROOT
ATOM      1  C   UNL d   1       0.205  -0.586   0.580  0.00  0.00    -0.033 A 
ATOM      2  C1  UNL d   1      -0.296  -0.606   1.883  0.00  0.00     0.039 A 
ATOM      3  C2  UNL d   1      -1.182   0.386   2.308  0.00  0.00    -0.080 A 
ATOM      4  C3  UNL d   1      -1.559   1.390   1.420  0.00  0.00     0.150 A 
ATOM      5  C4  UNL d   1      -1.067   1.414   0.120  0.00  0.00    -0.007 A 
ATOM      6  C5  UNL d   1      -0.181   0.423  -0.302  0.00  0.00     0.039 A 
ENDROOT
BRANCH   4   7
ATOM      7  O   UNL d   1      -2.417   2.383   1.791  0.00  0.00    -0.526 OA
ATOM      8  H5  UNL d   1      -2.653   2.254   2.724  0.00  0.00     0.418 HD
ENDBRANCH   4   7
TORSDOF 1
ENDMDL
