MODEL 1
REMARK minimizedAffinity -4.27748108
REMARK minimizedRMSD -1
REMARK  1 active torsions:
REMARK  status: ('A' for Active; 'I' for Inactive)
REMARK    1  A    between atoms: C3_4  and  O_7 
ROOT
ATOM      1  C   UNL d   1       0.499  -0.690   0.010  0.00  0.00    -0.033 A 
ATOM      2  C1  UNL d   1      -0.190   0.222  -0.792  0.00  0.00     0.039 A 
ATOM      3  C2  UNL d   1      -1.108   1.104  -0.218  0.00  0.00    -0.080 A 
ATOM      4  C3  UNL d   1      -1.327   1.064   1.156  0.00  0.00     0.150 A 
ATOM      5  C4  UNL d   1      -0.642   0.160   1.961  0.00  0.00    -0.007 A 
ATOM      6  C5  UNL d   1       0.274  -0.720   1.387  0.00  0.00     0.039 A 
ENDROOT
BRANCH   4   7
ATOM      7  O   UNL d   1      -2.217   1.901   1.760  0.00  0.00    -0.526 OA
ATOM      8  H5  UNL d   1      -2.637   2.450   1.076  0.00  0.00     0.418 HD
ENDBRANCH   4   7
TORSDOF 1
ENDMDL
