MODEL 1
REMARK minimizedAffinity -3.94759274
REMARK minimizedRMSD -1
REMARK  1 active torsions:
REMARK  status: ('A' for Active; 'I' for Inactive)
REMARK    1  A    between atoms: C3_4  and  O_7 
ROOT
ATOM      1  C   UNL d   1       0.545  -0.146   0.440  0.00  0.00    -0.033 A 
ATOM      2  C1  UNL d   1       0.090  -0.228   1.758  0.00  0.00     0.039 A 
ATOM      3  C2  UNL d   1      -1.036   0.494   2.155  0.00  0.00    -0.080 A 
ATOM      4  C3  UNL d   1      -1.699   1.292   1.227  0.00  0.00     0.150 A 
ATOM      5  C4  UNL d   1      -1.254   1.375  -0.088  0.00  0.00    -0.007 A 
ATOM      6  C5  UNL d   1      -0.128   0.654  -0.483  0.00  0.00     0.039 A 
ENDROOT
BRANCH   4   7
ATOM      7  O   UNL d   1      -2.801   2.019   1.569  0.00  0.00    -0.526 OA
ATOM      8  H5  UNL d   1      -2.975   1.886   2.516  0.00  0.00     0.418 HD
ENDBRANCH   4   7
TORSDOF 1
ENDMDL
