MODEL 1
REMARK minimizedAffinity -3.93302011
REMARK minimizedRMSD -1
REMARK  1 active torsions:
REMARK  status: ('A' for Active; 'I' for Inactive)
REMARK    1  A    between atoms: C3_4  and  O_7 
ROOT
ATOM      1  C   UNL d   1       0.298  -0.188   0.893  0.00  0.00    -0.033 A 
ATOM      2  C1  UNL d   1      -0.131   0.706  -0.090  0.00  0.00     0.039 A 
ATOM      3  C2  UNL d   1      -1.119   1.648   0.204  0.00  0.00    -0.080 A 
ATOM      4  C3  UNL d   1      -1.668   1.686   1.482  0.00  0.00     0.150 A 
ATOM      5  C4  UNL d   1      -1.243   0.801   2.467  0.00  0.00    -0.007 A 
ATOM      6  C5  UNL d   1      -0.257  -0.140   2.172  0.00  0.00     0.039 A 
ENDROOT
BRANCH   4   7
ATOM      7  O   UNL d   1      -2.638   2.585   1.815  0.00  0.00    -0.526 OA
ATOM      8  H5  UNL d   1      -2.852   3.112   1.027  0.00  0.00     0.418 HD
ENDBRANCH   4   7
TORSDOF 1
ENDMDL
