MODEL 1
REMARK minimizedAffinity -3.21006441
REMARK minimizedRMSD -1
REMARK  1 active torsions:
REMARK  status: ('A' for Active; 'I' for Inactive)
REMARK    1  A    between atoms: C3_4  and  O_7 
ROOT
ATOM      1  C   UNL d   1       1.213  -0.023  -1.215  0.00  0.00    -0.033 A 
ATOM      2  C1  UNL d   1       1.359  -0.894  -2.296  0.00  0.00     0.039 A 
ATOM      3  C2  UNL d   1       0.853  -2.193  -2.222  0.00  0.00    -0.080 A 
ATOM      4  C3  UNL d   1       0.203  -2.608  -1.064  0.00  0.00     0.150 A 
ATOM      5  C4  UNL d   1       0.050  -1.745   0.016  0.00  0.00    -0.007 A 
ATOM      6  C5  UNL d   1       0.557  -0.448  -0.059  0.00  0.00     0.039 A 
ENDROOT
BRANCH   4   7
ATOM      7  O   UNL d   1      -0.303  -3.868  -0.943  0.00  0.00    -0.526 OA
ATOM      8  H5  UNL d   1      -0.098  -4.361  -1.755  0.00  0.00     0.418 HD
ENDBRANCH   4   7
TORSDOF 1
ENDMDL
