MODEL 1
REMARK minimizedAffinity -3.50866461
REMARK minimizedRMSD -1
REMARK  1 active torsions:
REMARK  status: ('A' for Active; 'I' for Inactive)
REMARK    1  A    between atoms: C3_4  and  O_7 
ROOT
ATOM      1  C   UNL d   1       0.112   0.051   0.271  0.00  0.00    -0.033 A 
ATOM      2  C1  UNL d   1      -0.517   0.949  -0.594  0.00  0.00     0.039 A 
ATOM      3  C2  UNL d   1      -1.585   1.726  -0.141  0.00  0.00    -0.080 A 
ATOM      4  C3  UNL d   1      -2.014   1.595   1.177  0.00  0.00     0.150 A 
ATOM      5  C4  UNL d   1      -1.390   0.705   2.045  0.00  0.00    -0.007 A 
ATOM      6  C5  UNL d   1      -0.324  -0.070   1.591  0.00  0.00     0.039 A 
ENDROOT
BRANCH   4   7
ATOM      7  O   UNL d   1      -3.056   2.328   1.663  0.00  0.00    -0.526 OA
ATOM      8  H5  UNL d   1      -3.407   2.879   0.943  0.00  0.00     0.418 HD
ENDBRANCH   4   7
TORSDOF 1
ENDMDL
