MODEL 1
REMARK minimizedAffinity -4.82825565
REMARK minimizedRMSD -1
REMARK  1 active torsions:
REMARK  status: ('A' for Active; 'I' for Inactive)
REMARK    1  A    between atoms: C3_4  and  O_7 
ROOT
ATOM      1  C   UNL d   1       0.561  -0.241   0.196  0.00  0.00    -0.033 A 
ATOM      2  C1  UNL d   1       0.038   0.797  -0.577  0.00  0.00     0.039 A 
ATOM      3  C2  UNL d   1      -0.910   1.666  -0.033  0.00  0.00    -0.080 A 
ATOM      4  C3  UNL d   1      -1.326   1.486   1.283  0.00  0.00     0.150 A 
ATOM      5  C4  UNL d   1      -0.806   0.457   2.061  0.00  0.00    -0.007 A 
ATOM      6  C5  UNL d   1       0.140  -0.411   1.516  0.00  0.00     0.039 A 
ENDROOT
BRANCH   4   7
ATOM      7  O   UNL d   1      -2.252   2.306   1.856  0.00  0.00    -0.526 OA
ATOM      8  H5  UNL d   1      -2.543   2.953   1.192  0.00  0.00     0.418 HD
ENDBRANCH   4   7
TORSDOF 1
ENDMDL
