MODEL 1
REMARK minimizedAffinity -2.66136932
REMARK minimizedRMSD -1
REMARK  1 active torsions:
REMARK  status: ('A' for Active; 'I' for Inactive)
REMARK    1  A    between atoms: C3_4  and  O_7 
ROOT
ATOM      1  C   UNL d   1       0.810   0.391  -0.602  0.00  0.00    -0.033 A 
ATOM      2  C1  UNL d   1       0.808  -0.637   0.343  0.00  0.00     0.039 A 
ATOM      3  C2  UNL d   1       0.046  -0.517   1.506  0.00  0.00    -0.080 A 
ATOM      4  C3  UNL d   1      -0.709   0.634   1.713  0.00  0.00     0.150 A 
ATOM      5  C4  UNL d   1      -0.715   1.661   0.774  0.00  0.00    -0.007 A 
ATOM      6  C5  UNL d   1       0.048   1.540  -0.387  0.00  0.00     0.039 A 
ENDROOT
BRANCH   4   7
ATOM      7  O   UNL d   1      -1.465   0.799   2.835  0.00  0.00    -0.526 OA
ATOM      8  H5  UNL d   1      -1.341   0.022   3.406  0.00  0.00     0.418 HD
ENDBRANCH   4   7
TORSDOF 1
ENDMDL
