MODEL 1
REMARK minimizedAffinity -4.96060848
REMARK minimizedRMSD -1
REMARK  1 active torsions:
REMARK  status: ('A' for Active; 'I' for Inactive)
REMARK    1  A    between atoms: C3_4  and  O_7 
ROOT
ATOM      1  C   UNL d   1       0.980   0.528  -0.590  0.00  0.00    -0.033 A 
ATOM      2  C1  UNL d   1       0.491  -0.276   0.442  0.00  0.00     0.039 A 
ATOM      3  C2  UNL d   1      -0.551   0.181   1.251  0.00  0.00    -0.080 A 
ATOM      4  C3  UNL d   1      -1.095   1.441   1.018  0.00  0.00     0.150 A 
ATOM      5  C4  UNL d   1      -0.615   2.246  -0.010  0.00  0.00    -0.007 A 
ATOM      6  C5  UNL d   1       0.427   1.788  -0.816  0.00  0.00     0.039 A 
ENDROOT
BRANCH   4   7
ATOM      7  O   UNL d   1      -2.109   1.932   1.785  0.00  0.00    -0.526 OA
ATOM      8  H5  UNL d   1      -2.318   1.279   2.474  0.00  0.00     0.418 HD
ENDBRANCH   4   7
TORSDOF 1
ENDMDL
