MODEL 1
REMARK minimizedAffinity -3.30263066
REMARK minimizedRMSD -1
REMARK  1 active torsions:
REMARK  status: ('A' for Active; 'I' for Inactive)
REMARK    1  A    between atoms: C3_4  and  O_7 
ROOT
ATOM      1  C   UNL d   1      -0.163  -0.427   2.245  0.00  0.00    -0.033 A 
ATOM      2  C1  UNL d   1      -0.155   0.628   3.159  0.00  0.00     0.039 A 
ATOM      3  C2  UNL d   1      -1.093   1.657   3.049  0.00  0.00    -0.080 A 
ATOM      4  C3  UNL d   1      -2.032   1.618   2.022  0.00  0.00     0.150 A 
ATOM      5  C4  UNL d   1      -2.049   0.567   1.110  0.00  0.00    -0.007 A 
ATOM      6  C5  UNL d   1      -1.111  -0.458   1.222  0.00  0.00     0.039 A 
ENDROOT
BRANCH   4   7
ATOM      7  O   UNL d   1      -2.964   2.601   1.871  0.00  0.00    -0.526 OA
ATOM      8  H5  UNL d   1      -2.814   3.275   2.555  0.00  0.00     0.418 HD
ENDBRANCH   4   7
TORSDOF 1
ENDMDL
