MODEL 1
REMARK minimizedAffinity -4.13519859
REMARK minimizedRMSD -1
REMARK  1 active torsions:
REMARK  status: ('A' for Active; 'I' for Inactive)
REMARK    1  A    between atoms: C3_4  and  O_7 
ROOT
ATOM      1  C   UNL d   1      -2.162   1.102   2.009  0.00  0.00    -0.033 A 
ATOM      2  C1  UNL d   1      -2.282   1.669   0.739  0.00  0.00     0.039 A 
ATOM      3  C2  UNL d   1      -1.317   1.413  -0.237  0.00  0.00    -0.080 A 
ATOM      4  C3  UNL d   1      -0.238   0.588   0.069  0.00  0.00     0.150 A 
ATOM      5  C4  UNL d   1      -0.114   0.015   1.331  0.00  0.00    -0.007 A 
ATOM      6  C5  UNL d   1      -1.079   0.273   2.304  0.00  0.00     0.039 A 
ENDROOT
BRANCH   4   7
ATOM      7  O   UNL d   1       0.731   0.312  -0.849  0.00  0.00    -0.526 OA
ATOM      8  H5  UNL d   1       0.529   0.799  -1.665  0.00  0.00     0.418 HD
ENDBRANCH   4   7
TORSDOF 1
ENDMDL
