MODEL 1
REMARK minimizedAffinity -5.41464043
REMARK minimizedRMSD -1
REMARK  1 active torsions:
REMARK  status: ('A' for Active; 'I' for Inactive)
REMARK    1  A    between atoms: C3_4  and  O_7 
ROOT
ATOM      1  C   UNL d   1      -1.642   1.977   1.641  0.00  0.00    -0.033 A 
ATOM      2  C1  UNL d   1      -1.235   0.802   2.277  0.00  0.00     0.039 A 
ATOM      3  C2  UNL d   1      -0.504  -0.158   1.575  0.00  0.00    -0.080 A 
ATOM      4  C3  UNL d   1      -0.186   0.069   0.238  0.00  0.00     0.150 A 
ATOM      5  C4  UNL d   1      -0.584   1.239  -0.401  0.00  0.00    -0.007 A 
ATOM      6  C5  UNL d   1      -1.315   2.196   0.302  0.00  0.00     0.039 A 
ENDROOT
BRANCH   4   7
ATOM      7  O   UNL d   1       0.522  -0.841  -0.490  0.00  0.00    -0.526 OA
ATOM      8  H5  UNL d   1       0.704  -1.611   0.074  0.00  0.00     0.418 HD
ENDBRANCH   4   7
TORSDOF 1
ENDMDL
