MODEL 1
REMARK minimizedAffinity -4.67074156
REMARK minimizedRMSD -1
REMARK  1 active torsions:
REMARK  status: ('A' for Active; 'I' for Inactive)
REMARK    1  A    between atoms: C3_4  and  O_7 
ROOT
ATOM      1  C   UNL d   1      -0.429  -0.376   0.673  0.00  0.00    -0.033 A 
ATOM      2  C1  UNL d   1      -0.852   0.589  -0.242  0.00  0.00     0.039 A 
ATOM      3  C2  UNL d   1      -1.614   1.677   0.190  0.00  0.00    -0.080 A 
ATOM      4  C3  UNL d   1      -1.945   1.787   1.537  0.00  0.00     0.150 A 
ATOM      5  C4  UNL d   1      -1.524   0.831   2.455  0.00  0.00    -0.007 A 
ATOM      6  C5  UNL d   1      -0.764  -0.255   2.022  0.00  0.00     0.039 A 
ENDROOT
BRANCH   4   7
ATOM      7  O   UNL d   1      -2.690   2.828   2.005  0.00  0.00    -0.526 OA
ATOM      8  H5  UNL d   1      -2.934   3.395   1.254  0.00  0.00     0.418 HD
ENDBRANCH   4   7
TORSDOF 1
ENDMDL
