MODEL 1
REMARK minimizedAffinity 3.1203053
REMARK minimizedRMSD -1
REMARK  0 active torsions:
REMARK  status: ('A' for Active; 'I' for Inactive)
ROOT
ATOM      1  C   UNL d   1      -1.785  -1.900   2.871  0.00  0.00     0.172 C 
ATOM      2  N   UNL d   1      -1.601  -2.066   1.448  0.00  0.00    -0.070 N 
ATOM      3  C1  UNL d   1      -0.664  -2.867   0.853  0.00  0.00    -0.004 A 
ATOM      4  C2  UNL d   1      -0.814  -2.749  -0.512  0.00  0.00    -0.047 A 
ATOM      5  C3  UNL d   1      -1.879  -1.847  -0.745  0.00  0.00    -0.047 A 
ATOM      6  C4  UNL d   1      -2.348  -1.439   0.486  0.00  0.00    -0.004 A 
ENDROOT
TORSDOF 0
ENDMDL
