MODEL 1
REMARK minimizedAffinity 1.52627039
REMARK minimizedRMSD -1
REMARK  0 active torsions:
REMARK  status: ('A' for Active; 'I' for Inactive)
ROOT
ATOM      1  C   UNL d   1      -4.595   2.704  -5.971  0.00  0.00     0.172 C 
ATOM      2  N   UNL d   1      -4.926   4.045  -5.549  0.00  0.00    -0.070 N 
ATOM      3  C1  UNL d   1      -5.995   4.779  -5.990  0.00  0.00    -0.004 A 
ATOM      4  C2  UNL d   1      -5.960   6.000  -5.352  0.00  0.00    -0.047 A 
ATOM      5  C3  UNL d   1      -4.831   5.999  -4.498  0.00  0.00    -0.047 A 
ATOM      6  C4  UNL d   1      -4.210   4.777  -4.640  0.00  0.00    -0.004 A 
ENDROOT
TORSDOF 0
ENDMDL
