MODEL 1
REMARK minimizedAffinity 5.28615284
REMARK minimizedRMSD -1
REMARK  0 active torsions:
REMARK  status: ('A' for Active; 'I' for Inactive)
ROOT
ATOM      1  C   UNL d   1       2.339   0.157  -2.076  0.00  0.00     0.172 C 
ATOM      2  N   UNL d   1       1.044  -0.444  -2.289  0.00  0.00    -0.070 N 
ATOM      3  C1  UNL d   1       0.127  -0.733  -1.313  0.00  0.00    -0.004 A 
ATOM      4  C2  UNL d   1      -0.974  -1.295  -1.922  0.00  0.00    -0.047 A 
ATOM      5  C3  UNL d   1      -0.710  -1.347  -3.311  0.00  0.00    -0.047 A 
ATOM      6  C4  UNL d   1       0.546  -0.813  -3.511  0.00  0.00    -0.004 A 
ENDROOT
TORSDOF 0
ENDMDL
