MODEL 1
REMARK minimizedAffinity 5.91747427
REMARK minimizedRMSD -1
REMARK  0 active torsions:
REMARK  status: ('A' for Active; 'I' for Inactive)
ROOT
ATOM      1  C   UNL d   1      -3.290   4.221  -3.653  0.00  0.00     0.172 C 
ATOM      2  N   UNL d   1      -4.377   4.692  -4.479  0.00  0.00    -0.070 N 
ATOM      3  C1  UNL d   1      -4.917   5.950  -4.448  0.00  0.00    -0.004 A 
ATOM      4  C2  UNL d   1      -5.926   6.000  -5.384  0.00  0.00    -0.047 A 
ATOM      5  C3  UNL d   1      -5.996   4.727  -6.000  0.00  0.00    -0.047 A 
ATOM      6  C4  UNL d   1      -5.025   3.937  -5.420  0.00  0.00    -0.004 A 
ENDROOT
TORSDOF 0
ENDMDL
