MODEL 1
REMARK minimizedAffinity 8.59810257
REMARK minimizedRMSD -1
REMARK  0 active torsions:
REMARK  status: ('A' for Active; 'I' for Inactive)
ROOT
ATOM      1  C   UNL d   1       1.134   0.582  -1.674  0.00  0.00     0.172 C 
ATOM      2  N   UNL d   1      -0.108  -0.153  -1.723  0.00  0.00    -0.070 N 
ATOM      3  C1  UNL d   1      -0.698  -0.651  -2.854  0.00  0.00    -0.004 A 
ATOM      4  C2  UNL d   1      -1.863  -1.285  -2.480  0.00  0.00    -0.047 A 
ATOM      5  C3  UNL d   1      -1.978  -1.163  -1.075  0.00  0.00    -0.047 A 
ATOM      6  C4  UNL d   1      -0.879  -0.458  -0.632  0.00  0.00    -0.004 A 
ENDROOT
TORSDOF 0
ENDMDL
