MODEL 1
REMARK minimizedAffinity 8.23549175
REMARK minimizedRMSD -1
REMARK  0 active torsions:
REMARK  status: ('A' for Active; 'I' for Inactive)
ROOT
ATOM      1  C   UNL d   1      -0.742  -1.436  -2.193  0.00  0.00     0.172 C 
ATOM      2  N   UNL d   1      -0.942  -2.075  -0.914  0.00  0.00    -0.070 N 
ATOM      3  C1  UNL d   1      -1.913  -1.752  -0.004  0.00  0.00    -0.004 A 
ATOM      4  C2  UNL d   1      -1.770  -2.589   1.081  0.00  0.00    -0.047 A 
ATOM      5  C3  UNL d   1      -0.674  -3.444   0.814  0.00  0.00    -0.047 A 
ATOM      6  C4  UNL d   1      -0.181  -3.104  -0.427  0.00  0.00    -0.004 A 
ENDROOT
TORSDOF 0
ENDMDL
