MODEL 1
REMARK minimizedAffinity 11.571372
REMARK minimizedRMSD -1
REMARK  0 active torsions:
REMARK  status: ('A' for Active; 'I' for Inactive)
ROOT
ATOM      1  C   UNL d   1      -3.299   1.005  -4.100  0.00  0.00     0.172 C 
ATOM      2  N   UNL d   1      -2.165   1.863  -4.353  0.00  0.00    -0.070 N 
ATOM      3  C1  UNL d   1      -1.045   1.518  -5.061  0.00  0.00    -0.004 A 
ATOM      4  C2  UNL d   1      -0.202   2.609  -5.076  0.00  0.00    -0.047 A 
ATOM      5  C3  UNL d   1      -0.838   3.644  -4.350  0.00  0.00    -0.047 A 
ATOM      6  C4  UNL d   1      -2.051   3.155  -3.914  0.00  0.00    -0.004 A 
ENDROOT
TORSDOF 0
ENDMDL
