MODEL 1
REMARK minimizedAffinity 6.03393221
REMARK minimizedRMSD -1
REMARK  0 active torsions:
REMARK  status: ('A' for Active; 'I' for Inactive)
ROOT
ATOM      1  C   UNL d   1      -3.644   5.933  -3.334  0.00  0.00     0.172 C 
ATOM      2  N   UNL d   1      -4.431   5.382  -4.412  0.00  0.00    -0.070 N 
ATOM      3  C1  UNL d   1      -4.214   4.176  -5.023  0.00  0.00    -0.004 A 
ATOM      4  C2  UNL d   1      -5.177   4.017  -5.996  0.00  0.00    -0.047 A 
ATOM      5  C3  UNL d   1      -6.000   5.167  -5.970  0.00  0.00    -0.047 A 
ATOM      6  C4  UNL d   1      -5.516   5.996  -4.980  0.00  0.00    -0.004 A 
ENDROOT
TORSDOF 0
ENDMDL
