MODEL 1
REMARK minimizedAffinity 9.35578537
REMARK minimizedRMSD -1
REMARK  0 active torsions:
REMARK  status: ('A' for Active; 'I' for Inactive)
ROOT
ATOM      1  C   UNL d   1       3.158   2.654   0.491  0.00  0.00     0.172 C 
ATOM      2  N   UNL d   1       4.222   3.486  -0.019  0.00  0.00    -0.070 N 
ATOM      3  C1  UNL d   1       4.469   4.782   0.348  0.00  0.00    -0.004 A 
ATOM      4  C2  UNL d   1       5.567   5.220  -0.361  0.00  0.00    -0.047 A 
ATOM      5  C3  UNL d   1       5.993   4.151  -1.184  0.00  0.00    -0.047 A 
ATOM      6  C4  UNL d   1       5.144   3.090  -0.953  0.00  0.00    -0.004 A 
ENDROOT
TORSDOF 0
ENDMDL
