MODEL 1
REMARK minimizedAffinity 12.069315
REMARK minimizedRMSD -1
REMARK  0 active torsions:
REMARK  status: ('A' for Active; 'I' for Inactive)
ROOT
ATOM      1  C   UNL d   1       2.254   2.413  -0.674  0.00  0.00     0.172 C 
ATOM      2  N   UNL d   1       1.989   1.246  -1.483  0.00  0.00    -0.070 N 
ATOM      3  C1  UNL d   1       0.814   0.544  -1.510  0.00  0.00    -0.004 A 
ATOM      4  C2  UNL d   1       0.964  -0.494  -2.405  0.00  0.00    -0.047 A 
ATOM      5  C3  UNL d   1       2.274  -0.412  -2.934  0.00  0.00    -0.047 A 
ATOM      6  C4  UNL d   1       2.887   0.674  -2.346  0.00  0.00    -0.004 A 
ENDROOT
TORSDOF 0
ENDMDL
