MODEL 1
REMARK minimizedAffinity 4.96946192
REMARK minimizedRMSD -1
REMARK  0 active torsions:
REMARK  status: ('A' for Active; 'I' for Inactive)
ROOT
ATOM      1  C   UNL d   1      -4.614   2.621  -6.000  0.00  0.00     0.172 C 
ATOM      2  N   UNL d   1      -4.860   3.994  -5.626  0.00  0.00    -0.070 N 
ATOM      3  C1  UNL d   1      -5.945   4.741  -6.000  0.00  0.00    -0.004 A 
ATOM      4  C2  UNL d   1      -5.809   5.993  -5.440  0.00  0.00    -0.047 A 
ATOM      5  C3  UNL d   1      -4.599   5.999  -4.705  0.00  0.00    -0.047 A 
ATOM      6  C4  UNL d   1      -4.032   4.749  -4.838  0.00  0.00    -0.004 A 
ENDROOT
TORSDOF 0
ENDMDL
