MODEL 1
REMARK minimizedAffinity 11.5581551
REMARK minimizedRMSD -1
REMARK  0 active torsions:
REMARK  status: ('A' for Active; 'I' for Inactive)
ROOT
ATOM      1  C   UNL d   1       2.945   2.168  -0.151  0.00  0.00     0.172 C 
ATOM      2  N   UNL d   1       2.873   1.166  -1.189  0.00  0.00    -0.070 N 
ATOM      3  C1  UNL d   1       3.874   0.858  -2.071  0.00  0.00    -0.004 A 
ATOM      4  C2  UNL d   1       3.414  -0.145  -2.896  0.00  0.00    -0.047 A 
ATOM      5  C3  UNL d   1       2.091  -0.450  -2.497  0.00  0.00    -0.047 A 
ATOM      6  C4  UNL d   1       1.781   0.377  -1.438  0.00  0.00    -0.004 A 
ENDROOT
TORSDOF 0
ENDMDL
