MODEL 1
REMARK minimizedAffinity 0.785606563
REMARK minimizedRMSD -1
REMARK  0 active torsions:
REMARK  status: ('A' for Active; 'I' for Inactive)
ROOT
ATOM      1  C   UNL d   1      -4.553   5.998  -2.593  0.00  0.00     0.172 C 
ATOM      2  N   UNL d   1      -4.790   5.483  -1.265  0.00  0.00    -0.070 N 
ATOM      3  C1  UNL d   1      -5.675   5.997  -0.355  0.00  0.00    -0.004 A 
ATOM      4  C2  UNL d   1      -5.604   5.226   0.785  0.00  0.00    -0.047 A 
ATOM      5  C3  UNL d   1      -4.642   4.213   0.552  0.00  0.00    -0.047 A 
ATOM      6  C4  UNL d   1      -4.154   4.396  -0.724  0.00  0.00    -0.004 A 
ENDROOT
TORSDOF 0
ENDMDL
