MODEL 1
REMARK minimizedAffinity 8.75747108
REMARK minimizedRMSD -1
REMARK  0 active torsions:
REMARK  status: ('A' for Active; 'I' for Inactive)
ROOT
ATOM      1  C   UNL d   1       3.036   2.360   0.788  0.00  0.00     0.172 C 
ATOM      2  N   UNL d   1       2.572   1.667  -0.391  0.00  0.00    -0.070 N 
ATOM      3  C1  UNL d   1       2.234   0.342  -0.457  0.00  0.00    -0.004 A 
ATOM      4  C2  UNL d   1       1.843   0.070  -1.750  0.00  0.00    -0.047 A 
ATOM      5  C3  UNL d   1       1.951   1.273  -2.487  0.00  0.00    -0.047 A 
ATOM      6  C4  UNL d   1       2.405   2.246  -1.621  0.00  0.00    -0.004 A 
ENDROOT
TORSDOF 0
ENDMDL
