MODEL 1
REMARK minimizedAffinity 0.34477666
REMARK minimizedRMSD -1
REMARK  0 active torsions:
REMARK  status: ('A' for Active; 'I' for Inactive)
ROOT
ATOM      1  C   UNL d   1      -2.949   2.966  -4.812  0.00  0.00     0.172 C 
ATOM      2  N   UNL d   1      -4.098   3.794  -5.093  0.00  0.00    -0.070 N 
ATOM      3  C1  UNL d   1      -4.379   4.996  -4.500  0.00  0.00    -0.004 A 
ATOM      4  C2  UNL d   1      -5.557   5.467  -5.039  0.00  0.00    -0.047 A 
ATOM      5  C3  UNL d   1      -6.000   4.514  -5.987  0.00  0.00    -0.047 A 
ATOM      6  C4  UNL d   1      -5.078   3.489  -6.000  0.00  0.00    -0.004 A 
ENDROOT
TORSDOF 0
ENDMDL
