MODEL 1
REMARK minimizedAffinity 7.77672482
REMARK minimizedRMSD -1
REMARK  0 active torsions:
REMARK  status: ('A' for Active; 'I' for Inactive)
ROOT
ATOM      1  C   UNL d   1      -4.881   1.799  -0.005  0.00  0.00     0.172 C 
ATOM      2  N   UNL d   1      -4.957   3.176   0.423  0.00  0.00    -0.070 N 
ATOM      3  C1  UNL d   1      -4.010   4.137   0.192  0.00  0.00    -0.004 A 
ATOM      4  C2  UNL d   1      -4.455   5.312   0.758  0.00  0.00    -0.047 A 
ATOM      5  C3  UNL d   1      -5.713   5.047   1.350  0.00  0.00    -0.047 A 
ATOM      6  C4  UNL d   1      -6.000   3.717   1.128  0.00  0.00    -0.004 A 
ENDROOT
TORSDOF 0
ENDMDL
