MODEL 1
REMARK minimizedAffinity 0.501780391
REMARK minimizedRMSD -1
REMARK  1 active torsions:
REMARK  status: ('A' for Active; 'I' for Inactive)
REMARK    1  A    between atoms: C1_2  and  C2_3 
ROOT
ATOM      1  C2  UNL d   1       0.932  -0.835  -0.160  0.00  0.00    -0.076 A 
ATOM      2  C3  UNL d   1       1.173   0.311   0.618  0.00  0.00     0.004 A 
ATOM      3  C4  UNL d   1       0.262   1.365   0.645  0.00  0.00    -0.003 A 
ATOM      4  C5  UNL d   1      -0.907   1.290  -0.105  0.00  0.00     0.000 A 
ATOM      5  C6  UNL d   1      -1.171   0.153  -0.869  0.00  0.00     0.000 A 
ATOM      6  C7  UNL d   1      -0.269  -0.925  -0.894  0.00  0.00    -0.073 A 
ATOM      7  C8  UNL d   1      -0.602  -2.124  -1.739  0.00  0.00     0.078 C 
ENDROOT
BRANCH   1   8
ATOM      8  C1  UNL d   1       1.970  -1.934  -0.171  0.00  0.00     0.053 C 
ATOM      9  C   UNL d   1       2.911  -1.836  -1.362  0.00  0.00     0.018 C 
ENDBRANCH   1   8
TORSDOF 1
ENDMDL
