MODEL 1
REMARK minimizedAffinity -4.92810631
REMARK minimizedRMSD -1
REMARK  1 active torsions:
REMARK  status: ('A' for Active; 'I' for Inactive)
REMARK    1  A    between atoms: C1_2  and  C2_3 
ROOT
ATOM      1  C2  UNL d   1       0.446  -0.307   0.230  0.00  0.00    -0.076 A 
ATOM      2  C3  UNL d   1       1.064  -0.012   1.458  0.00  0.00     0.004 A 
ATOM      3  C4  UNL d   1       2.028  -0.860   1.998  0.00  0.00    -0.003 A 
ATOM      4  C5  UNL d   1       2.391  -2.018   1.319  0.00  0.00     0.000 A 
ATOM      5  C6  UNL d   1       1.802  -2.318   0.091  0.00  0.00     0.000 A 
ATOM      6  C7  UNL d   1       0.839  -1.465  -0.475  0.00  0.00    -0.073 A 
ATOM      7  C8  UNL d   1       0.231  -1.840  -1.799  0.00  0.00     0.078 C 
ENDROOT
BRANCH   1   8
ATOM      8  C1  UNL d   1      -0.613   0.637  -0.293  0.00  0.00     0.053 C 
ATOM      9  C   UNL d   1      -1.717   0.894   0.721  0.00  0.00     0.018 C 
ENDBRANCH   1   8
TORSDOF 1
ENDMDL
