MODEL 1
REMARK minimizedAffinity -3.40654731
REMARK minimizedRMSD -1
REMARK  1 active torsions:
REMARK  status: ('A' for Active; 'I' for Inactive)
REMARK    1  A    between atoms: C1_2  and  C2_3 
ROOT
ATOM      1  C2  UNL d   1       0.153  -0.112  -0.200  0.00  0.00    -0.076 A 
ATOM      2  C3  UNL d   1       0.832   0.308   0.957  0.00  0.00     0.004 A 
ATOM      3  C4  UNL d   1       1.934  -0.397   1.438  0.00  0.00    -0.003 A 
ATOM      4  C5  UNL d   1       2.375  -1.534   0.769  0.00  0.00     0.000 A 
ATOM      5  C6  UNL d   1       1.724  -1.955  -0.390  0.00  0.00     0.000 A 
ATOM      6  C7  UNL d   1       0.622  -1.246  -0.897  0.00  0.00    -0.073 A 
ATOM      7  C8  UNL d   1      -0.046  -1.748  -2.148  0.00  0.00     0.078 C 
ENDROOT
BRANCH   1   8
ATOM      8  C1  UNL d   1      -1.053   0.677  -0.658  0.00  0.00     0.053 C 
ATOM      9  C   UNL d   1      -1.975   1.053   0.491  0.00  0.00     0.018 C 
ENDBRANCH   1   8
TORSDOF 1
ENDMDL
