MODEL 1
REMARK minimizedAffinity -3.18197107
REMARK minimizedRMSD -1
REMARK  1 active torsions:
REMARK  status: ('A' for Active; 'I' for Inactive)
REMARK    1  A    between atoms: C1_2  and  C2_3 
ROOT
ATOM      1  C2  UNL d   1      -0.327   0.413  -0.436  0.00  0.00    -0.076 A 
ATOM      2  C3  UNL d   1      -0.692  -0.810  -1.025  0.00  0.00     0.004 A 
ATOM      3  C4  UNL d   1       0.218  -1.862  -1.116  0.00  0.00    -0.003 A 
ATOM      4  C5  UNL d   1       1.508  -1.708  -0.619  0.00  0.00     0.000 A 
ATOM      5  C6  UNL d   1       1.881  -0.508  -0.015  0.00  0.00     0.000 A 
ATOM      6  C7  UNL d   1       0.971   0.557   0.099  0.00  0.00    -0.073 A 
ATOM      7  C8  UNL d   1       1.430   1.831   0.754  0.00  0.00     0.078 C 
ENDROOT
BRANCH   1   8
ATOM      8  C1  UNL d   1      -1.347   1.528  -0.390  0.00  0.00     0.053 C 
ATOM      9  C   UNL d   1      -2.764   1.013  -0.184  0.00  0.00     0.018 C 
ENDBRANCH   1   8
TORSDOF 1
ENDMDL
