MODEL 1
REMARK minimizedAffinity -0.346419603
REMARK minimizedRMSD -1
REMARK  1 active torsions:
REMARK  status: ('A' for Active; 'I' for Inactive)
REMARK    1  A    between atoms: N_2  and  C1_3 
ROOT
ATOM      1  C1  UNL d   1      -3.594   1.758   3.815  0.00  0.00     0.143 A 
ATOM      2  C2  UNL d   1      -3.447   0.535   3.153  0.00  0.00    -0.057 A 
ATOM      3  C3  UNL d   1      -2.336   0.276   2.342  0.00  0.00     0.033 A 
ATOM      4  C4  UNL d   1      -1.363   1.252   2.155  0.00  0.00    -0.042 A 
ATOM      5  C5  UNL d   1      -1.500   2.485   2.782  0.00  0.00     0.033 A 
ATOM      6  C6  UNL d   1      -2.610   2.735   3.597  0.00  0.00    -0.057 A 
ENDROOT
BRANCH   1   7
ATOM      7  N   UNL d   1      -4.725   2.111   4.556  0.00  0.00    -0.732 N 
ATOM      8  C   UNL d   1      -4.596   2.584   5.917  0.00  0.00     0.284 C 
ATOM      9  H3  UNL d   1      -5.409   2.622   4.001  0.00  0.00     0.395 HD
ENDBRANCH   1   7
TORSDOF 1
ENDMDL
