MODEL 1
REMARK minimizedAffinity 0.0919375122
REMARK minimizedRMSD -1
REMARK  1 active torsions:
REMARK  status: ('A' for Active; 'I' for Inactive)
REMARK    1  A    between atoms: N_2  and  C1_3 
ROOT
ATOM      1  C1  UNL d   1      -0.999   1.631   1.643  0.00  0.00     0.143 A 
ATOM      2  C2  UNL d   1      -1.000   0.280   2.008  0.00  0.00    -0.057 A 
ATOM      3  C3  UNL d   1      -0.018  -0.599   1.537  0.00  0.00     0.033 A 
ATOM      4  C4  UNL d   1       0.969  -0.148   0.666  0.00  0.00    -0.042 A 
ATOM      5  C5  UNL d   1       0.974   1.185   0.270  0.00  0.00     0.033 A 
ATOM      6  C6  UNL d   1      -0.005   2.060   0.750  0.00  0.00    -0.057 A 
ENDROOT
BRANCH   1   7
ATOM      7  N   UNL d   1      -2.005   2.533   2.000  0.00  0.00    -0.732 N 
ATOM      8  C   UNL d   1      -2.838   2.289   3.157  0.00  0.00     0.284 C 
ATOM      9  H3  UNL d   1      -1.712   3.502   1.895  0.00  0.00     0.395 HD
ENDBRANCH   1   7
TORSDOF 1
ENDMDL
