MODEL 1
REMARK minimizedAffinity 3.82281661
REMARK minimizedRMSD -1
REMARK  1 active torsions:
REMARK  status: ('A' for Active; 'I' for Inactive)
REMARK    1  A    between atoms: N_2  and  C1_3 
ROOT
ATOM      1  C1  UNL d   1       1.801   0.257   0.256  0.00  0.00     0.143 A 
ATOM      2  C2  UNL d   1       1.156   1.491   0.118  0.00  0.00    -0.057 A 
ATOM      3  C3  UNL d   1       0.012   1.801   0.863  0.00  0.00     0.033 A 
ATOM      4  C4  UNL d   1      -0.527   0.867   1.742  0.00  0.00    -0.042 A 
ATOM      5  C5  UNL d   1       0.082  -0.375   1.877  0.00  0.00     0.033 A 
ATOM      6  C6  UNL d   1       1.229  -0.676   1.135  0.00  0.00    -0.057 A 
ENDROOT
BRANCH   1   7
ATOM      7  N   UNL d   1       2.884  -0.147  -0.528  0.00  0.00    -0.732 N 
ATOM      8  C   UNL d   1       3.158   0.497  -1.794  0.00  0.00     0.284 C 
ATOM      9  H3  UNL d   1       3.713  -0.343   0.027  0.00  0.00     0.395 HD
ENDBRANCH   1   7
TORSDOF 1
ENDMDL
