MODEL 1
REMARK minimizedAffinity 1.63762057
REMARK minimizedRMSD -1
REMARK  1 active torsions:
REMARK  status: ('A' for Active; 'I' for Inactive)
REMARK    1  A    between atoms: N_2  and  C1_3 
ROOT
ATOM      1  C1  UNL d   1      -3.885   1.557   3.642  0.00  0.00     0.143 A 
ATOM      2  C2  UNL d   1      -3.045   2.604   3.247  0.00  0.00    -0.057 A 
ATOM      3  C3  UNL d   1      -1.962   2.380   2.389  0.00  0.00     0.033 A 
ATOM      4  C4  UNL d   1      -1.682   1.096   1.932  0.00  0.00    -0.042 A 
ATOM      5  C5  UNL d   1      -2.489   0.037   2.332  0.00  0.00     0.033 A 
ATOM      6  C6  UNL d   1      -3.573   0.268   3.184  0.00  0.00    -0.057 A 
ENDROOT
BRANCH   1   7
ATOM      7  N   UNL d   1      -4.919   1.699   4.572  0.00  0.00    -0.732 N 
ATOM      8  C   UNL d   1      -4.793   2.621   5.679  0.00  0.00     0.284 C 
ATOM      9  H3  UNL d   1      -5.837   1.697   4.134  0.00  0.00     0.395 HD
ENDBRANCH   1   7
TORSDOF 1
ENDMDL
