MODEL 1
REMARK minimizedAffinity -3.3833909
REMARK minimizedRMSD -1
REMARK  1 active torsions:
REMARK  status: ('A' for Active; 'I' for Inactive)
REMARK    1  A    between atoms: N_2  and  C1_3 
ROOT
ATOM      1  C1  UNL d   1      -1.742   1.710   2.303  0.00  0.00     0.143 A 
ATOM      2  C2  UNL d   1      -0.609   2.161   1.618  0.00  0.00    -0.057 A 
ATOM      3  C3  UNL d   1       0.184   1.283   0.868  0.00  0.00     0.033 A 
ATOM      4  C4  UNL d   1      -0.128  -0.071   0.814  0.00  0.00    -0.042 A 
ATOM      5  C5  UNL d   1      -1.235  -0.547   1.508  0.00  0.00     0.033 A 
ATOM      6  C6  UNL d   1      -2.026   0.336   2.250  0.00  0.00    -0.057 A 
ENDROOT
BRANCH   1   7
ATOM      7  N   UNL d   1      -2.513   2.514   3.145  0.00  0.00    -0.732 N 
ATOM      8  C   UNL d   1      -3.675   1.976   3.818  0.00  0.00     0.284 C 
ATOM      9  H3  UNL d   1      -1.944   3.127   3.725  0.00  0.00     0.395 HD
ENDBRANCH   1   7
TORSDOF 1
ENDMDL
