MODEL 1
REMARK minimizedAffinity -2.33603406
REMARK minimizedRMSD -1
REMARK  1 active torsions:
REMARK  status: ('A' for Active; 'I' for Inactive)
REMARK    1  A    between atoms: N_2  and  C1_3 
ROOT
ATOM      1  C1  UNL d   1      -1.631  -4.832   0.733  0.00  0.00     0.143 A 
ATOM      2  C2  UNL d   1      -1.147  -4.194   1.879  0.00  0.00    -0.057 A 
ATOM      3  C3  UNL d   1      -1.678  -2.972   2.309  0.00  0.00     0.033 A 
ATOM      4  C4  UNL d   1      -2.687  -2.350   1.580  0.00  0.00    -0.042 A 
ATOM      5  C5  UNL d   1      -3.166  -2.955   0.423  0.00  0.00     0.033 A 
ATOM      6  C6  UNL d   1      -2.636  -4.178   0.003  0.00  0.00    -0.057 A 
ENDROOT
BRANCH   1   7
ATOM      7  N   UNL d   1      -1.077  -5.999   0.200  0.00  0.00    -0.732 N 
ATOM      8  C   UNL d   1      -0.337  -5.963  -1.043  0.00  0.00     0.284 C 
ATOM      9  H3  UNL d   1      -0.662  -6.593   0.914  0.00  0.00     0.395 HD
ENDBRANCH   1   7
TORSDOF 1
ENDMDL
