MODEL 1
REMARK minimizedAffinity -0.652775705
REMARK minimizedRMSD -1
REMARK  1 active torsions:
REMARK  status: ('A' for Active; 'I' for Inactive)
REMARK    1  A    between atoms: N_2  and  C1_3 
ROOT
ATOM      1  C1  UNL d   1      -1.092   1.654   1.789  0.00  0.00     0.143 A 
ATOM      2  C2  UNL d   1       0.238   1.530   1.373  0.00  0.00    -0.057 A 
ATOM      3  C3  UNL d   1       0.774   0.287   1.014  0.00  0.00     0.033 A 
ATOM      4  C4  UNL d   1      -0.006  -0.863   1.095  0.00  0.00    -0.042 A 
ATOM      5  C5  UNL d   1      -1.322  -0.767   1.530  0.00  0.00     0.033 A 
ATOM      6  C6  UNL d   1      -1.854   0.478   1.880  0.00  0.00    -0.057 A 
ENDROOT
BRANCH   1   7
ATOM      7  N   UNL d   1      -1.654   2.846   2.253  0.00  0.00    -0.732 N 
ATOM      8  C   UNL d   1      -2.722   2.827   3.228  0.00  0.00     0.284 C 
ATOM      9  H3  UNL d   1      -0.955   3.567   2.416  0.00  0.00     0.395 HD
ENDBRANCH   1   7
TORSDOF 1
ENDMDL
