MODEL 1
REMARK minimizedAffinity 6.85440636
REMARK minimizedRMSD -1
REMARK  1 active torsions:
REMARK  status: ('A' for Active; 'I' for Inactive)
REMARK    1  A    between atoms: N_2  and  C1_3 
ROOT
ATOM      1  C1  UNL d   1      -0.604   1.754   1.827  0.00  0.00     0.143 A 
ATOM      2  C2  UNL d   1       0.392   1.710   0.846  0.00  0.00    -0.057 A 
ATOM      3  C3  UNL d   1       1.099   0.530   0.581  0.00  0.00     0.033 A 
ATOM      4  C4  UNL d   1       0.841  -0.622   1.316  0.00  0.00    -0.042 A 
ATOM      5  C5  UNL d   1      -0.128  -0.595   2.313  0.00  0.00     0.033 A 
ATOM      6  C6  UNL d   1      -0.835   0.584   2.568  0.00  0.00    -0.057 A 
ENDROOT
BRANCH   1   7
ATOM      7  N   UNL d   1      -1.273   2.921   2.204  0.00  0.00    -0.732 N 
ATOM      8  C   UNL d   1      -2.163   2.924   3.346  0.00  0.00     0.284 C 
ATOM      9  H3  UNL d   1      -0.683   3.747   2.135  0.00  0.00     0.395 HD
ENDBRANCH   1   7
TORSDOF 1
ENDMDL
