MODEL 1
REMARK minimizedAffinity -2.01070309
REMARK minimizedRMSD -1
REMARK  1 active torsions:
REMARK  status: ('A' for Active; 'I' for Inactive)
REMARK    1  A    between atoms: N_2  and  C1_3 
ROOT
ATOM      1  C1  UNL d   1      -1.828   1.738   2.371  0.00  0.00     0.143 A 
ATOM      2  C2  UNL d   1      -0.670   2.314   1.838  0.00  0.00    -0.057 A 
ATOM      3  C3  UNL d   1       0.320   1.529   1.234  0.00  0.00     0.033 A 
ATOM      4  C4  UNL d   1       0.182   0.146   1.179  0.00  0.00    -0.042 A 
ATOM      5  C5  UNL d   1      -0.949  -0.451   1.725  0.00  0.00     0.033 A 
ATOM      6  C6  UNL d   1      -1.938   0.339   2.321  0.00  0.00    -0.057 A 
ENDROOT
BRANCH   1   7
ATOM      7  N   UNL d   1      -2.802   2.454   3.071  0.00  0.00    -0.732 N 
ATOM      8  C   UNL d   1      -3.809   1.764   3.848  0.00  0.00     0.284 C 
ATOM      9  H3  UNL d   1      -2.424   3.284   3.524  0.00  0.00     0.395 HD
ENDBRANCH   1   7
TORSDOF 1
ENDMDL
