MODEL 1
REMARK minimizedAffinity -1.2963469
REMARK minimizedRMSD -1
REMARK  1 active torsions:
REMARK  status: ('A' for Active; 'I' for Inactive)
REMARK    1  A    between atoms: N_2  and  C1_3 
ROOT
ATOM      1  C1  UNL d   1      -0.965   1.696   1.498  0.00  0.00     0.143 A 
ATOM      2  C2  UNL d   1       0.366   1.956   1.155  0.00  0.00    -0.057 A 
ATOM      3  C3  UNL d   1       1.236   0.922   0.787  0.00  0.00     0.033 A 
ATOM      4  C4  UNL d   1       0.796  -0.397   0.786  0.00  0.00    -0.042 A 
ATOM      5  C5  UNL d   1      -0.516  -0.681   1.149  0.00  0.00     0.033 A 
ATOM      6  C6  UNL d   1      -1.382   0.356   1.508  0.00  0.00    -0.057 A 
ENDROOT
BRANCH   1   7
ATOM      7  N   UNL d   1      -1.851   2.669   1.967  0.00  0.00    -0.732 N 
ATOM      8  C   UNL d   1      -2.872   2.331   2.936  0.00  0.00     0.284 C 
ATOM      9  H3  UNL d   1      -1.393   3.561   2.140  0.00  0.00     0.395 HD
ENDBRANCH   1   7
TORSDOF 1
ENDMDL
