MODEL 1
REMARK minimizedAffinity -3.94543409
REMARK minimizedRMSD -1
REMARK  1 active torsions:
REMARK  status: ('A' for Active; 'I' for Inactive)
REMARK    1  A    between atoms: N_2  and  C1_3 
ROOT
ATOM      1  C1  UNL d   1      -1.795   1.486   2.240  0.00  0.00     0.143 A 
ATOM      2  C2  UNL d   1      -0.602   1.719   1.547  0.00  0.00    -0.057 A 
ATOM      3  C3  UNL d   1       0.199   0.661   1.102  0.00  0.00     0.033 A 
ATOM      4  C4  UNL d   1      -0.165  -0.655   1.370  0.00  0.00    -0.042 A 
ATOM      5  C5  UNL d   1      -1.333  -0.910   2.079  0.00  0.00     0.033 A 
ATOM      6  C6  UNL d   1      -2.133   0.151   2.515  0.00  0.00    -0.057 A 
ENDROOT
BRANCH   1   7
ATOM      7  N   UNL d   1      -2.584   2.497   2.793  0.00  0.00    -0.732 N 
ATOM      8  C   UNL d   1      -3.601   2.184   3.774  0.00  0.00     0.284 C 
ATOM      9  H3  UNL d   1      -2.049   3.336   3.003  0.00  0.00     0.395 HD
ENDBRANCH   1   7
TORSDOF 1
ENDMDL
