MODEL 1
REMARK minimizedAffinity 1.0213629
REMARK minimizedRMSD -1
REMARK  0 active torsions:
REMARK  status: ('A' for Active; 'I' for Inactive)
ROOT
ATOM      1  C   UNL d   1      -0.242   1.370  -0.245  0.00  0.00     0.023 A 
ATOM      2  C1  UNL d   1       1.058   1.787   0.043  0.00  0.00     0.003 A 
ATOM      3  C2  UNL d   1       2.057   0.843   0.291  0.00  0.00     0.048 A 
ATOM      4  C3  UNL d   1       1.748  -0.517   0.250  0.00  0.00     0.023 A 
ATOM      5  C4  UNL d   1       0.449  -0.938  -0.038  0.00  0.00     0.048 A 
ATOM      6  C5  UNL d   1      -0.546   0.010  -0.285  0.00  0.00     0.003 A 
ATOM      7  I   UNL d   1       3.232  -1.924   0.619  0.00  0.00    -0.146 I 
ENDROOT
TORSDOF 0
ENDMDL
