MODEL 1
REMARK minimizedAffinity -1.47762632
REMARK minimizedRMSD -1
REMARK  0 active torsions:
REMARK  status: ('A' for Active; 'I' for Inactive)
ROOT
ATOM      1  C   UNL d   1       2.675  -1.158   0.159  0.00  0.00     0.023 A 
ATOM      2  C1  UNL d   1       1.712  -1.805  -0.617  0.00  0.00     0.003 A 
ATOM      3  C2  UNL d   1       0.366  -1.453  -0.497  0.00  0.00     0.048 A 
ATOM      4  C3  UNL d   1      -0.010  -0.453   0.399  0.00  0.00     0.023 A 
ATOM      5  C4  UNL d   1       0.949   0.197   1.176  0.00  0.00     0.048 A 
ATOM      6  C5  UNL d   1       2.294  -0.158   1.054  0.00  0.00     0.003 A 
ATOM      7  I   UNL d   1      -2.013   0.072   0.578  0.00  0.00    -0.146 I 
ENDROOT
TORSDOF 0
ENDMDL
