MODEL 1
REMARK minimizedAffinity -3.14116454
REMARK minimizedRMSD -1
REMARK  0 active torsions:
REMARK  status: ('A' for Active; 'I' for Inactive)
ROOT
ATOM      1  C   UNL d   1      -1.380  -0.121   1.522  0.00  0.00     0.023 A 
ATOM      2  C1  UNL d   1      -0.967  -1.381   1.954  0.00  0.00     0.003 A 
ATOM      3  C2  UNL d   1       0.121  -2.008   1.343  0.00  0.00     0.048 A 
ATOM      4  C3  UNL d   1       0.791  -1.369   0.300  0.00  0.00     0.023 A 
ATOM      5  C4  UNL d   1       0.381  -0.108  -0.135  0.00  0.00     0.048 A 
ATOM      6  C5  UNL d   1      -0.707   0.515   0.478  0.00  0.00     0.003 A 
ATOM      7  I   UNL d   1       2.410  -2.301  -0.611  0.00  0.00    -0.146 I 
ENDROOT
TORSDOF 0
ENDMDL
