MODEL 1
REMARK minimizedAffinity -2.72015214
REMARK minimizedRMSD -1
REMARK  0 active torsions:
REMARK  status: ('A' for Active; 'I' for Inactive)
ROOT
ATOM      1  C   UNL d   1       1.964   0.816   1.109  0.00  0.00     0.023 A 
ATOM      2  C1  UNL d   1       1.345   1.910   0.504  0.00  0.00     0.003 A 
ATOM      3  C2  UNL d   1       0.307   1.710  -0.408  0.00  0.00     0.048 A 
ATOM      4  C3  UNL d   1      -0.107   0.414  -0.711  0.00  0.00     0.023 A 
ATOM      5  C4  UNL d   1       0.509  -0.684  -0.107  0.00  0.00     0.048 A 
ATOM      6  C5  UNL d   1       1.547  -0.479   0.804  0.00  0.00     0.003 A 
ATOM      7  I   UNL d   1      -1.652   0.113  -2.068  0.00  0.00    -0.146 I 
ENDROOT
TORSDOF 0
ENDMDL
