MODEL 1
REMARK minimizedAffinity -2.87241817
REMARK minimizedRMSD -1
REMARK  0 active torsions:
REMARK  status: ('A' for Active; 'I' for Inactive)
ROOT
ATOM      1  C   UNL d   1       2.159  -0.656   0.929  0.00  0.00     0.023 A 
ATOM      2  C1  UNL d   1       2.162  -1.851   0.208  0.00  0.00     0.003 A 
ATOM      3  C2  UNL d   1       1.266  -2.034  -0.847  0.00  0.00     0.048 A 
ATOM      4  C3  UNL d   1       0.370  -1.017  -1.177  0.00  0.00     0.023 A 
ATOM      5  C4  UNL d   1       0.364   0.180  -0.460  0.00  0.00     0.048 A 
ATOM      6  C5  UNL d   1       1.261   0.358   0.595  0.00  0.00     0.003 A 
ATOM      7  I   UNL d   1      -0.965  -1.287  -2.747  0.00  0.00    -0.146 I 
ENDROOT
TORSDOF 0
ENDMDL
