MODEL 1
REMARK minimizedAffinity 4.17126274
REMARK minimizedRMSD -1
REMARK  0 active torsions:
REMARK  status: ('A' for Active; 'I' for Inactive)
ROOT
ATOM      1  C   UNL d   1      -1.898  -0.417  -4.144  0.00  0.00     0.023 A 
ATOM      2  C1  UNL d   1      -2.006   0.796  -3.463  0.00  0.00     0.003 A 
ATOM      3  C2  UNL d   1      -1.418   0.947  -2.205  0.00  0.00     0.048 A 
ATOM      4  C3  UNL d   1      -0.721  -0.118  -1.635  0.00  0.00     0.023 A 
ATOM      5  C4  UNL d   1      -0.609  -1.333  -2.313  0.00  0.00     0.048 A 
ATOM      6  C5  UNL d   1      -1.200  -1.480  -3.570  0.00  0.00     0.003 A 
ATOM      7  I   UNL d   1       0.155   0.105   0.236  0.00  0.00    -0.146 I 
ENDROOT
TORSDOF 0
ENDMDL
