MODEL 1
REMARK minimizedAffinity 0.144659057
REMARK minimizedRMSD -1
REMARK  0 active torsions:
REMARK  status: ('A' for Active; 'I' for Inactive)
ROOT
ATOM      1  C   UNL d   1       2.803   1.077   1.461  0.00  0.00     0.023 A 
ATOM      2  C1  UNL d   1       2.070   2.021   0.741  0.00  0.00     0.003 A 
ATOM      3  C2  UNL d   1       0.832   1.677   0.195  0.00  0.00     0.048 A 
ATOM      4  C3  UNL d   1       0.332   0.387   0.374  0.00  0.00     0.023 A 
ATOM      5  C4  UNL d   1       1.061  -0.560   1.094  0.00  0.00     0.048 A 
ATOM      6  C5  UNL d   1       2.299  -0.212   1.637  0.00  0.00     0.003 A 
ATOM      7  I   UNL d   1      -1.511  -0.127  -0.438  0.00  0.00    -0.146 I 
ENDROOT
TORSDOF 0
ENDMDL
