MODEL 1
REMARK minimizedAffinity 3.15728188
REMARK minimizedRMSD -1
REMARK  1 active torsions:
REMARK  status: ('A' for Active; 'I' for Inactive)
REMARK    1  A    between atoms: N_2  and  C1_3 
ROOT
ATOM      1  C1  UNL d   1       5.571   3.194  -4.028  0.00  0.00     0.143 A 
ATOM      2  C2  UNL d   1       5.048   3.123  -5.324  0.00  0.00    -0.057 A 
ATOM      3  C3  UNL d   1       4.914   1.897  -5.986  0.00  0.00     0.033 A 
ATOM      4  C4  UNL d   1       5.329   0.719  -5.374  0.00  0.00    -0.042 A 
ATOM      5  C5  UNL d   1       5.875   0.769  -4.096  0.00  0.00     0.033 A 
ATOM      6  C6  UNL d   1       6.000   1.995  -3.437  0.00  0.00    -0.057 A 
ENDROOT
BRANCH   1   7
ATOM      7  N   UNL d   1       5.821   4.392  -3.355  0.00  0.00    -0.732 N 
ATOM      8  C   UNL d   1       4.821   5.438  -3.315  0.00  0.00     0.284 C 
ATOM      9  H3  UNL d   1       6.306   4.248  -2.472  0.00  0.00     0.395 HD
ENDBRANCH   1   7
TORSDOF 1
ENDMDL
