MODEL 1
REMARK minimizedAffinity 1.27713406
REMARK minimizedRMSD -1
REMARK  1 active torsions:
REMARK  status: ('A' for Active; 'I' for Inactive)
REMARK    1  A    between atoms: N_2  and  C1_3 
ROOT
ATOM      1  C1  UNL d   1       1.626  -2.319   0.362  0.00  0.00     0.143 A 
ATOM      2  C2  UNL d   1       2.259  -1.393  -0.473  0.00  0.00    -0.057 A 
ATOM      3  C3  UNL d   1       1.522  -0.455  -1.207  0.00  0.00     0.033 A 
ATOM      4  C4  UNL d   1       0.133  -0.448  -1.141  0.00  0.00    -0.042 A 
ATOM      5  C5  UNL d   1      -0.519  -1.376  -0.336  0.00  0.00     0.033 A 
ATOM      6  C6  UNL d   1       0.223  -2.305   0.400  0.00  0.00    -0.057 A 
ENDROOT
BRANCH   1   7
ATOM      7  N   UNL d   1       2.297  -3.340   1.041  0.00  0.00    -0.732 N 
ATOM      8  C   UNL d   1       1.721  -4.664   1.138  0.00  0.00     0.284 C 
ATOM      9  H3  UNL d   1       3.298  -3.334   0.859  0.00  0.00     0.395 HD
ENDBRANCH   1   7
TORSDOF 1
ENDMDL
