MODEL 1
REMARK minimizedAffinity -3.34773231
REMARK minimizedRMSD -1
REMARK  1 active torsions:
REMARK  status: ('A' for Active; 'I' for Inactive)
REMARK    1  A    between atoms: N_2  and  C1_3 
ROOT
ATOM      1  C1  UNL d   1      -3.743   1.116   4.008  0.00  0.00     0.143 A 
ATOM      2  C2  UNL d   1      -2.776   0.129   4.226  0.00  0.00    -0.057 A 
ATOM      3  C3  UNL d   1      -2.915  -1.155   3.685  0.00  0.00     0.033 A 
ATOM      4  C4  UNL d   1      -4.042  -1.484   2.938  0.00  0.00    -0.042 A 
ATOM      5  C5  UNL d   1      -5.027  -0.526   2.730  0.00  0.00     0.033 A 
ATOM      6  C6  UNL d   1      -4.880   0.757   3.267  0.00  0.00    -0.057 A 
ENDROOT
BRANCH   1   7
ATOM      7  N   UNL d   1      -3.711   2.381   4.601  0.00  0.00    -0.732 N 
ATOM      8  C   UNL d   1      -4.051   2.550   5.997  0.00  0.00     0.284 C 
ATOM      9  H3  UNL d   1      -2.910   2.931   4.298  0.00  0.00     0.395 HD
ENDBRANCH   1   7
TORSDOF 1
ENDMDL
