MODEL 1
REMARK minimizedAffinity -0.671350658
REMARK minimizedRMSD -1
REMARK  1 active torsions:
REMARK  status: ('A' for Active; 'I' for Inactive)
REMARK    1  A    between atoms: N_2  and  C1_3 
ROOT
ATOM      1  C1  UNL d   1      -4.009   3.686   5.348  0.00  0.00     0.143 A 
ATOM      2  C2  UNL d   1      -4.707   4.709   6.000  0.00  0.00    -0.057 A 
ATOM      3  C3  UNL d   1      -5.136   5.849   5.310  0.00  0.00     0.033 A 
ATOM      4  C4  UNL d   1      -4.849   6.000   3.958  0.00  0.00    -0.042 A 
ATOM      5  C5  UNL d   1      -4.135   5.008   3.295  0.00  0.00     0.033 A 
ATOM      6  C6  UNL d   1      -3.714   3.869   3.988  0.00  0.00    -0.057 A 
ENDROOT
BRANCH   1   7
ATOM      7  N   UNL d   1      -3.469   2.574   6.000  0.00  0.00    -0.732 N 
ATOM      8  C   UNL d   1      -3.022   1.423   5.246  0.00  0.00     0.284 C 
ATOM      9  H3  UNL d   1      -2.853   2.835   6.766  0.00  0.00     0.395 HD
ENDBRANCH   1   7
TORSDOF 1
ENDMDL
