MODEL 1
REMARK minimizedAffinity -2.01318121
REMARK minimizedRMSD -1
REMARK  1 active torsions:
REMARK  status: ('A' for Active; 'I' for Inactive)
REMARK    1  A    between atoms: N_2  and  C1_3 
ROOT
ATOM      1  C1  UNL d   1       1.179  -3.008   0.486  0.00  0.00     0.143 A 
ATOM      2  C2  UNL d   1       2.030  -2.144  -0.211  0.00  0.00    -0.057 A 
ATOM      3  C3  UNL d   1       1.524  -1.081  -0.969  0.00  0.00     0.033 A 
ATOM      4  C4  UNL d   1       0.151  -0.881  -1.067  0.00  0.00    -0.042 A 
ATOM      5  C5  UNL d   1      -0.715  -1.743  -0.403  0.00  0.00     0.033 A 
ATOM      6  C6  UNL d   1      -0.203  -2.798   0.358  0.00  0.00    -0.057 A 
ENDROOT
BRANCH   1   7
ATOM      7  N   UNL d   1       1.616  -4.142   1.176  0.00  0.00    -0.732 N 
ATOM      8  C   UNL d   1       0.725  -5.260   1.396  0.00  0.00     0.284 C 
ATOM      9  H3  UNL d   1       2.564  -4.409   0.922  0.00  0.00     0.395 HD
ENDBRANCH   1   7
TORSDOF 1
ENDMDL
