MODEL 1
REMARK minimizedAffinity 4.11462307
REMARK minimizedRMSD -1
REMARK  1 active torsions:
REMARK  status: ('A' for Active; 'I' for Inactive)
REMARK    1  A    between atoms: N_2  and  C1_3 
ROOT
ATOM      1  C1  UNL d   1      -4.028   5.584   3.462  0.00  0.00     0.143 A 
ATOM      2  C2  UNL d   1      -5.416   5.668   3.612  0.00  0.00    -0.057 A 
ATOM      3  C3  UNL d   1      -6.000   5.889   4.865  0.00  0.00     0.033 A 
ATOM      4  C4  UNL d   1      -5.203   6.000   6.000  0.00  0.00    -0.042 A 
ATOM      5  C5  UNL d   1      -3.822   5.894   5.879  0.00  0.00     0.033 A 
ATOM      6  C6  UNL d   1      -3.245   5.681   4.623  0.00  0.00    -0.057 A 
ENDROOT
BRANCH   1   7
ATOM      7  N   UNL d   1      -3.393   5.268   2.259  0.00  0.00    -0.732 N 
ATOM      8  C   UNL d   1      -3.757   5.946   1.033  0.00  0.00     0.284 C 
ATOM      9  H3  UNL d   1      -2.392   5.126   2.373  0.00  0.00     0.395 HD
ENDBRANCH   1   7
TORSDOF 1
ENDMDL
