MODEL 1
REMARK minimizedAffinity -1.34546173
REMARK minimizedRMSD -1
REMARK  1 active torsions:
REMARK  status: ('A' for Active; 'I' for Inactive)
REMARK    1  A    between atoms: N_2  and  C1_3 
ROOT
ATOM      1  C1  UNL d   1       1.428   1.223  -3.503  0.00  0.00     0.143 A 
ATOM      2  C2  UNL d   1       0.631   1.998  -2.654  0.00  0.00    -0.057 A 
ATOM      3  C3  UNL d   1       0.385   1.607  -1.332  0.00  0.00     0.033 A 
ATOM      4  C4  UNL d   1       0.909   0.415  -0.843  0.00  0.00    -0.042 A 
ATOM      5  C5  UNL d   1       1.684  -0.384  -1.677  0.00  0.00     0.033 A 
ATOM      6  C6  UNL d   1       1.932   0.016  -2.994  0.00  0.00    -0.057 A 
ENDROOT
BRANCH   1   7
ATOM      7  N   UNL d   1       1.628   1.508  -4.856  0.00  0.00    -0.732 N 
ATOM      8  C   UNL d   1       2.962   1.520  -5.417  0.00  0.00     0.284 C 
ATOM      9  H3  UNL d   1       0.931   1.070  -5.453  0.00  0.00     0.395 HD
ENDBRANCH   1   7
TORSDOF 1
ENDMDL
