MODEL 1
REMARK minimizedAffinity 1.44350052
REMARK minimizedRMSD -1
REMARK  1 active torsions:
REMARK  status: ('A' for Active; 'I' for Inactive)
REMARK    1  A    between atoms: N_2  and  C1_3 
ROOT
ATOM      1  C1  UNL d   1       1.118  -0.863  -1.783  0.00  0.00     0.143 A 
ATOM      2  C2  UNL d   1       1.361  -2.191  -2.150  0.00  0.00    -0.057 A 
ATOM      3  C3  UNL d   1       1.570  -2.548  -3.487  0.00  0.00     0.033 A 
ATOM      4  C4  UNL d   1       1.511  -1.584  -4.488  0.00  0.00    -0.042 A 
ATOM      5  C5  UNL d   1       1.247  -0.261  -4.149  0.00  0.00     0.033 A 
ATOM      6  C6  UNL d   1       1.045   0.090  -2.811  0.00  0.00    -0.057 A 
ENDROOT
BRANCH   1   7
ATOM      7  N   UNL d   1       0.805  -0.460  -0.482  0.00  0.00    -0.732 N 
ATOM      8  C   UNL d   1      -0.324  -1.036   0.216  0.00  0.00     0.284 C 
ATOM      9  H3  UNL d   1       1.633  -0.336   0.096  0.00  0.00     0.395 HD
ENDBRANCH   1   7
TORSDOF 1
ENDMDL
