MODEL 1
REMARK minimizedAffinity 6.59660339
REMARK minimizedRMSD -1
REMARK  1 active torsions:
REMARK  status: ('A' for Active; 'I' for Inactive)
REMARK    1  A    between atoms: N_2  and  C1_3 
ROOT
ATOM      1  C1  UNL d   1       1.920   1.788  -4.356  0.00  0.00     0.143 A 
ATOM      2  C2  UNL d   1       1.966   0.660  -3.529  0.00  0.00    -0.057 A 
ATOM      3  C3  UNL d   1       1.265   0.620  -2.318  0.00  0.00     0.033 A 
ATOM      4  C4  UNL d   1       0.527   1.721  -1.897  0.00  0.00    -0.042 A 
ATOM      5  C5  UNL d   1       0.487   2.862  -2.691  0.00  0.00     0.033 A 
ATOM      6  C6  UNL d   1       1.183   2.894  -3.903  0.00  0.00    -0.057 A 
ENDROOT
BRANCH   1   7
ATOM      7  N   UNL d   1       2.673   1.927  -5.525  0.00  0.00    -0.732 N 
ATOM      8  C   UNL d   1       4.116   2.015  -5.465  0.00  0.00     0.284 C 
ATOM      9  H3  UNL d   1       2.323   1.346  -6.284  0.00  0.00     0.395 HD
ENDBRANCH   1   7
TORSDOF 1
ENDMDL
