MODEL 1
REMARK minimizedAffinity 10.570303
REMARK minimizedRMSD -1
REMARK  1 active torsions:
REMARK  status: ('A' for Active; 'I' for Inactive)
REMARK    1  A    between atoms: N_2  and  C1_3 
ROOT
ATOM      1  C1  UNL d   1       0.983  -0.688  -1.907  0.00  0.00     0.143 A 
ATOM      2  C2  UNL d   1       0.644   0.265  -0.941  0.00  0.00    -0.057 A 
ATOM      3  C3  UNL d   1       0.646   1.634  -1.238  0.00  0.00     0.033 A 
ATOM      4  C4  UNL d   1       1.017   2.076  -2.504  0.00  0.00    -0.042 A 
ATOM      5  C5  UNL d   1       1.382   1.148  -3.473  0.00  0.00     0.033 A 
ATOM      6  C6  UNL d   1       1.372  -0.218  -3.172  0.00  0.00    -0.057 A 
ENDROOT
BRANCH   1   7
ATOM      7  N   UNL d   1       1.095  -2.055  -1.645  0.00  0.00    -0.732 N 
ATOM      8  C   UNL d   1       0.701  -3.031  -2.639  0.00  0.00     0.284 C 
ATOM      9  H3  UNL d   1       1.955  -2.287  -1.153  0.00  0.00     0.395 HD
ENDBRANCH   1   7
TORSDOF 1
ENDMDL
