MODEL 1
REMARK minimizedAffinity 7.9675622
REMARK minimizedRMSD -1
REMARK  1 active torsions:
REMARK  status: ('A' for Active; 'I' for Inactive)
REMARK    1  A    between atoms: N_2  and  C1_3 
ROOT
ATOM      1  C1  UNL d   1       0.842  -0.317  -0.916  0.00  0.00     0.143 A 
ATOM      2  C2  UNL d   1       1.527  -0.951  -1.958  0.00  0.00    -0.057 A 
ATOM      3  C3  UNL d   1       1.713  -0.320  -3.194  0.00  0.00     0.033 A 
ATOM      4  C4  UNL d   1       1.190   0.949  -3.420  0.00  0.00    -0.042 A 
ATOM      5  C5  UNL d   1       0.484   1.588  -2.407  0.00  0.00     0.033 A 
ATOM      6  C6  UNL d   1       0.307   0.956  -1.173  0.00  0.00    -0.057 A 
ENDROOT
BRANCH   1   7
ATOM      7  N   UNL d   1       0.539  -0.930   0.302  0.00  0.00    -0.732 N 
ATOM      8  C   UNL d   1      -0.566  -1.859   0.405  0.00  0.00     0.284 C 
ATOM      9  H3  UNL d   1       1.372  -1.217   0.810  0.00  0.00     0.395 HD
ENDBRANCH   1   7
TORSDOF 1
ENDMDL
