MODEL 1
REMARK minimizedAffinity 0.39713499
REMARK minimizedRMSD -1
REMARK  1 active torsions:
REMARK  status: ('A' for Active; 'I' for Inactive)
REMARK    1  A    between atoms: N_2  and  C1_3 
ROOT
ATOM      1  C1  UNL d   1       0.718  -0.275  -0.746  0.00  0.00     0.143 A 
ATOM      2  C2  UNL d   1       0.373   1.023  -1.138  0.00  0.00    -0.057 A 
ATOM      3  C3  UNL d   1       0.584   1.465  -2.449  0.00  0.00     0.033 A 
ATOM      4  C4  UNL d   1       1.172   0.623  -3.388  0.00  0.00    -0.042 A 
ATOM      5  C5  UNL d   1       1.545  -0.663  -3.014  0.00  0.00     0.033 A 
ATOM      6  C6  UNL d   1       1.326  -1.101  -1.704  0.00  0.00    -0.057 A 
ENDROOT
BRANCH   1   7
ATOM      7  N   UNL d   1       0.624  -0.741   0.568  0.00  0.00    -0.732 N 
ATOM      8  C   UNL d   1      -0.408  -1.684   0.944  0.00  0.00     0.284 C 
ATOM      9  H3  UNL d   1       1.535  -0.938   0.976  0.00  0.00     0.395 HD
ENDBRANCH   1   7
TORSDOF 1
ENDMDL
