MODEL 1
REMARK minimizedAffinity -3.54843545
REMARK minimizedRMSD -1
REMARK  1 active torsions:
REMARK  status: ('A' for Active; 'I' for Inactive)
REMARK    1  A    between atoms: N_2  and  C1_3 
ROOT
ATOM      1  C1  UNL d   1      -3.818   3.482   5.267  0.00  0.00     0.143 A 
ATOM      2  C2  UNL d   1      -3.768   4.674   5.998  0.00  0.00    -0.057 A 
ATOM      3  C3  UNL d   1      -3.717   5.918   5.357  0.00  0.00     0.033 A 
ATOM      4  C4  UNL d   1      -3.686   5.990   3.968  0.00  0.00    -0.042 A 
ATOM      5  C5  UNL d   1      -3.710   4.818   3.221  0.00  0.00     0.033 A 
ATOM      6  C6  UNL d   1      -3.767   3.579   3.867  0.00  0.00    -0.057 A 
ENDROOT
BRANCH   1   7
ATOM      7  N   UNL d   1      -3.771   2.212   5.846  0.00  0.00    -0.732 N 
ATOM      8  C   UNL d   1      -3.822   1.024   5.022  0.00  0.00     0.284 C 
ATOM      9  H3  UNL d   1      -3.103   2.159   6.611  0.00  0.00     0.395 HD
ENDBRANCH   1   7
TORSDOF 1
ENDMDL
