MODEL 1
REMARK minimizedAffinity 1.73199236
REMARK minimizedRMSD -1
REMARK  1 active torsions:
REMARK  status: ('A' for Active; 'I' for Inactive)
REMARK    1  A    between atoms: N_2  and  C1_3 
ROOT
ATOM      1  C1  UNL d   1       1.256  -0.784  -2.988  0.00  0.00     0.143 A 
ATOM      2  C2  UNL d   1       1.399   0.461  -3.610  0.00  0.00    -0.057 A 
ATOM      3  C3  UNL d   1       1.082   1.648  -2.939  0.00  0.00     0.033 A 
ATOM      4  C4  UNL d   1       0.587   1.609  -1.639  0.00  0.00    -0.042 A 
ATOM      5  C5  UNL d   1       0.414   0.382  -1.010  0.00  0.00     0.033 A 
ATOM      6  C6  UNL d   1       0.738  -0.800  -1.683  0.00  0.00    -0.057 A 
ENDROOT
BRANCH   1   7
ATOM      7  N   UNL d   1       1.461  -2.005  -3.635  0.00  0.00    -0.732 N 
ATOM      8  C   UNL d   1       1.506  -3.240  -2.882  0.00  0.00     0.284 C 
ATOM      9  H3  UNL d   1       0.948  -2.071  -4.511  0.00  0.00     0.395 HD
ENDBRANCH   1   7
TORSDOF 1
ENDMDL
