MODEL 1
REMARK minimizedAffinity 10.4827557
REMARK minimizedRMSD -1
REMARK  1 active torsions:
REMARK  status: ('A' for Active; 'I' for Inactive)
REMARK    1  A    between atoms: N_2  and  C1_3 
ROOT
ATOM      1  C1  UNL d   1       1.027  -5.377   2.248  0.00  0.00     0.143 A 
ATOM      2  C2  UNL d   1      -0.213  -6.000   2.072  0.00  0.00    -0.057 A 
ATOM      3  C3  UNL d   1      -1.317  -5.294   1.579  0.00  0.00     0.033 A 
ATOM      4  C4  UNL d   1      -1.207  -3.940   1.279  0.00  0.00    -0.042 A 
ATOM      5  C5  UNL d   1       0.009  -3.294   1.469  0.00  0.00     0.033 A 
ATOM      6  C6  UNL d   1       1.110  -4.006   1.956  0.00  0.00    -0.057 A 
ENDROOT
BRANCH   1   7
ATOM      7  N   UNL d   1       2.136  -6.000   2.826  0.00  0.00    -0.732 N 
ATOM      8  C   UNL d   1       2.317  -5.996   4.262  0.00  0.00     0.284 C 
ATOM      9  H3  UNL d   1       2.359  -6.887   2.381  0.00  0.00     0.395 HD
ENDBRANCH   1   7
TORSDOF 1
ENDMDL
