MODEL 1
REMARK minimizedAffinity 2.74135423
REMARK minimizedRMSD -1
REMARK  0 active torsions:
REMARK  status: ('A' for Active; 'I' for Inactive)
ROOT
ATOM      1  O1  BZF d   1       1.229  -3.491   1.443  0.00  0.00    -0.204 OA
ATOM      2  C2  BZF d   1       2.002  -2.662   0.653  0.00  0.00     0.174 A 
ATOM      3  C3  BZF d   1       1.501  -1.411   0.638  0.00  0.00    -0.012 A 
ATOM      4  C3A BZF d   1       0.394  -1.438   1.544  0.00  0.00    -0.107 A 
ATOM      5  C4  BZF d   1      -0.496  -0.492   1.968  0.00  0.00     0.055 A 
ATOM      6  C5  BZF d   1      -1.503  -0.861   2.802  0.00  0.00    -0.016 A 
ATOM      7  C6  BZF d   1      -1.653  -2.164   3.229  0.00  0.00     0.022 A 
ATOM      8  C7  BZF d   1      -0.792  -3.136   2.840  0.00  0.00     0.029 A 
ATOM      9  C7A BZF d   1       0.246  -2.760   2.023  0.00  0.00     0.058 A 
ENDROOT
TORSDOF 0
ENDMDL
