MODEL 1
REMARK minimizedAffinity 4.84207916
REMARK minimizedRMSD -1
REMARK  0 active torsions:
REMARK  status: ('A' for Active; 'I' for Inactive)
ROOT
ATOM      1  O1  BZF d   1       1.625  -2.342   0.300  0.00  0.00    -0.204 OA
ATOM      2  C2  BZF d   1       1.980  -3.431   1.073  0.00  0.00     0.174 A 
ATOM      3  C3  BZF d   1       1.269  -3.456   2.218  0.00  0.00    -0.012 A 
ATOM      4  C3A BZF d   1       0.350  -2.364   2.115  0.00  0.00    -0.107 A 
ATOM      5  C4  BZF d   1      -0.631  -1.882   2.934  0.00  0.00     0.055 A 
ATOM      6  C5  BZF d   1      -1.298  -0.754   2.573  0.00  0.00    -0.016 A 
ATOM      7  C6  BZF d   1      -1.006  -0.081   1.404  0.00  0.00     0.022 A 
ATOM      8  C7  BZF d   1      -0.044  -0.523   0.558  0.00  0.00     0.029 A 
ATOM      9  C7A BZF d   1       0.609  -1.681   0.904  0.00  0.00     0.058 A 
ENDROOT
TORSDOF 0
ENDMDL
