MODEL 1
REMARK minimizedAffinity 9.44888115
REMARK minimizedRMSD -1
REMARK  0 active torsions:
REMARK  status: ('A' for Active; 'I' for Inactive)
ROOT
ATOM      1  O1  BZF d   1       0.798  -2.241   1.224  0.00  0.00    -0.204 OA
ATOM      2  C2  BZF d   1       0.828  -3.002   2.376  0.00  0.00     0.174 A 
ATOM      3  C3  BZF d   1       0.016  -2.479   3.317  0.00  0.00    -0.012 A 
ATOM      4  C3A BZF d   1      -0.629  -1.370   2.683  0.00  0.00    -0.107 A 
ATOM      5  C4  BZF d   1      -1.560  -0.462   3.098  0.00  0.00     0.055 A 
ATOM      6  C5  BZF d   1      -1.926   0.541   2.258  0.00  0.00    -0.016 A 
ATOM      7  C6  BZF d   1      -1.378   0.669   0.998  0.00  0.00     0.022 A 
ATOM      8  C7  BZF d   1      -0.454  -0.210   0.540  0.00  0.00     0.029 A 
ATOM      9  C7A BZF d   1      -0.107  -1.244   1.374  0.00  0.00     0.058 A 
ENDROOT
TORSDOF 0
ENDMDL
