MODEL 1
REMARK minimizedAffinity 7.89018202
REMARK minimizedRMSD -1
REMARK  0 active torsions:
REMARK  status: ('A' for Active; 'I' for Inactive)
ROOT
ATOM      1  O1  BZF d   1       3.602   4.688  -0.176  0.00  0.00    -0.204 OA
ATOM      2  C2  BZF d   1       3.944   5.232   1.047  0.00  0.00     0.174 A 
ATOM      3  C3  BZF d   1       4.617   4.336   1.797  0.00  0.00    -0.012 A 
ATOM      4  C3A BZF d   1       4.781   3.189   0.957  0.00  0.00    -0.107 A 
ATOM      5  C4  BZF d   1       5.384   1.976   1.131  0.00  0.00     0.055 A 
ATOM      6  C5  BZF d   1       5.303   1.050   0.140  0.00  0.00    -0.016 A 
ATOM      7  C6  BZF d   1       4.625   1.302  -1.035  0.00  0.00     0.022 A 
ATOM      8  C7  BZF d   1       4.016   2.492  -1.256  0.00  0.00     0.029 A 
ATOM      9  C7A BZF d   1       4.123   3.442  -0.269  0.00  0.00     0.058 A 
ENDROOT
TORSDOF 0
ENDMDL
