MODEL 1
REMARK minimizedAffinity -2.21728873
REMARK minimizedRMSD -1
REMARK  0 active torsions:
REMARK  status: ('A' for Active; 'I' for Inactive)
ROOT
ATOM      1  O1  BZF d   1       0.630  -4.807   1.655  0.00  0.00    -0.204 OA
ATOM      2  C2  BZF d   1       1.878  -4.371   1.255  0.00  0.00     0.174 A 
ATOM      3  C3  BZF d   1       2.041  -3.062   1.536  0.00  0.00    -0.012 A 
ATOM      4  C3A BZF d   1       0.852  -2.677   2.234  0.00  0.00    -0.107 A 
ATOM      5  C4  BZF d   1       0.427  -1.503   2.787  0.00  0.00     0.055 A 
ATOM      6  C5  BZF d   1      -0.816  -1.441   3.330  0.00  0.00    -0.016 A 
ATOM      7  C6  BZF d   1      -1.662  -2.531   3.334  0.00  0.00     0.022 A 
ATOM      8  C7  BZF d   1      -1.283  -3.718   2.802  0.00  0.00     0.029 A 
ATOM      9  C7A BZF d   1      -0.014  -3.793   2.281  0.00  0.00     0.058 A 
ENDROOT
TORSDOF 0
ENDMDL
