MODEL 1
REMARK minimizedAffinity -1.04755783
REMARK minimizedRMSD -1
REMARK  0 active torsions:
REMARK  status: ('A' for Active; 'I' for Inactive)
ROOT
ATOM      1  O1  BZF d   1      -1.106  -0.414  -0.416  0.00  0.00    -0.204 OA
ATOM      2  C2  BZF d   1      -2.247  -0.106   0.299  0.00  0.00     0.174 A 
ATOM      3  C3  BZF d   1      -2.131  -0.508   1.581  0.00  0.00    -0.012 A 
ATOM      4  C3A BZF d   1      -0.801  -1.023   1.695  0.00  0.00    -0.107 A 
ATOM      5  C4  BZF d   1      -0.087  -1.556   2.730  0.00  0.00     0.055 A 
ATOM      6  C5  BZF d   1       1.164  -2.031   2.493  0.00  0.00    -0.016 A 
ATOM      7  C6  BZF d   1       1.729  -1.993   1.234  0.00  0.00     0.022 A 
ATOM      8  C7  BZF d   1       1.061  -1.468   0.178  0.00  0.00     0.029 A 
ATOM      9  C7A BZF d   1      -0.190  -0.958   0.421  0.00  0.00     0.058 A 
ENDROOT
TORSDOF 0
ENDMDL
