MODEL 1
REMARK minimizedAffinity -3.29260588
REMARK minimizedRMSD -1
REMARK  0 active torsions:
REMARK  status: ('A' for Active; 'I' for Inactive)
ROOT
ATOM      1  O1  BZF d   1       2.623   5.480   4.686  0.00  0.00    -0.204 OA
ATOM      2  C2  BZF d   1       3.119   5.794   5.937  0.00  0.00     0.174 A 
ATOM      3  C3  BZF d   1       4.451   5.995   5.887  0.00  0.00    -0.012 A 
ATOM      4  C3A BZF d   1       4.797   5.884   4.503  0.00  0.00    -0.107 A 
ATOM      5  C4  BZF d   1       5.972   6.000   3.816  0.00  0.00     0.055 A 
ATOM      6  C5  BZF d   1       5.981   5.761   2.478  0.00  0.00    -0.016 A 
ATOM      7  C6  BZF d   1       4.837   5.401   1.797  0.00  0.00     0.022 A 
ATOM      8  C7  BZF d   1       3.647   5.278   2.434  0.00  0.00     0.029 A 
ATOM      9  C7A BZF d   1       3.628   5.551   3.780  0.00  0.00     0.058 A 
ENDROOT
TORSDOF 0
ENDMDL
