MODEL 1
REMARK minimizedAffinity -2.32426834
REMARK minimizedRMSD -1
REMARK  0 active torsions:
REMARK  status: ('A' for Active; 'I' for Inactive)
ROOT
ATOM      1  O1  BZF d   1      -0.249  -2.068   2.987  0.00  0.00    -0.204 OA
ATOM      2  C2  BZF d   1       0.975  -2.595   2.622  0.00  0.00     0.174 A 
ATOM      3  C3  BZF d   1       1.244  -2.331   1.327  0.00  0.00    -0.012 A 
ATOM      4  C3A BZF d   1       0.159  -1.514   0.878  0.00  0.00    -0.107 A 
ATOM      5  C4  BZF d   1      -0.136  -0.918  -0.316  0.00  0.00     0.055 A 
ATOM      6  C5  BZF d   1      -1.311  -0.248  -0.447  0.00  0.00    -0.016 A 
ATOM      7  C6  BZF d   1      -2.215  -0.158   0.591  0.00  0.00     0.022 A 
ATOM      8  C7  BZF d   1      -1.964  -0.728   1.795  0.00  0.00     0.029 A 
ATOM      9  C7A BZF d   1      -0.763  -1.378   1.941  0.00  0.00     0.058 A 
ENDROOT
TORSDOF 0
ENDMDL
