MODEL 1
REMARK minimizedAffinity -1.09867072
REMARK minimizedRMSD -1
REMARK  0 active torsions:
REMARK  status: ('A' for Active; 'I' for Inactive)
ROOT
ATOM      1  O1  BZF d   1       1.420  -3.332   0.701  0.00  0.00    -0.204 OA
ATOM      2  C2  BZF d   1       1.745  -4.366   1.557  0.00  0.00     0.174 A 
ATOM      3  C3  BZF d   1       1.100  -4.234   2.734  0.00  0.00    -0.012 A 
ATOM      4  C3A BZF d   1       0.251  -3.093   2.571  0.00  0.00    -0.107 A 
ATOM      5  C4  BZF d   1      -0.648  -2.468   3.387  0.00  0.00     0.055 A 
ATOM      6  C5  BZF d   1      -1.258  -1.334   2.953  0.00  0.00    -0.016 A 
ATOM      7  C6  BZF d   1      -0.988  -0.795   1.712  0.00  0.00     0.022 A 
ATOM      8  C7  BZF d   1      -0.108  -1.382   0.865  0.00  0.00     0.029 A 
ATOM      9  C7A BZF d   1       0.485  -2.546   1.288  0.00  0.00     0.058 A 
ENDROOT
TORSDOF 0
ENDMDL
