MODEL 1
REMARK minimizedAffinity 3.92277193
REMARK minimizedRMSD -1
REMARK  0 active torsions:
REMARK  status: ('A' for Active; 'I' for Inactive)
ROOT
ATOM      1  O1  BZF d   1      -3.596  -0.482   0.049  0.00  0.00    -0.204 OA
ATOM      2  C2  BZF d   1      -4.291  -0.377   1.238  0.00  0.00     0.174 A 
ATOM      3  C3  BZF d   1      -3.446  -0.388   2.289  0.00  0.00    -0.012 A 
ATOM      4  C3A BZF d   1      -2.134  -0.415   1.717  0.00  0.00    -0.107 A 
ATOM      5  C4  BZF d   1      -0.877  -0.422   2.251  0.00  0.00     0.055 A 
ATOM      6  C5  BZF d   1       0.193  -0.525   1.419  0.00  0.00    -0.016 A 
ATOM      7  C6  BZF d   1       0.042  -0.628   0.052  0.00  0.00     0.022 A 
ATOM      8  C7  BZF d   1      -1.185  -0.621  -0.524  0.00  0.00     0.029 A 
ATOM      9  C7A BZF d   1      -2.267  -0.484   0.311  0.00  0.00     0.058 A 
ENDROOT
TORSDOF 0
ENDMDL
