MODEL 1
REMARK minimizedAffinity -1.84300756
REMARK minimizedRMSD -1
REMARK  0 active torsions:
REMARK  status: ('A' for Active; 'I' for Inactive)
ROOT
ATOM      1  C   UNL d   1      -0.521   1.074   1.331  0.00  0.00    -0.002 A 
ATOM      2  C1  UNL d   1       0.326   0.345   2.152  0.00  0.00     0.010 A 
ATOM      3  C2  UNL d   1       1.373  -0.403   1.609  0.00  0.00     0.041 A 
ATOM      4  C3  UNL d   1       1.557  -0.403   0.212  0.00  0.00    -0.075 A 
ATOM      5  S   UNL d   1       2.772  -1.244  -0.676  0.00  0.00     0.015 SA
ATOM      6  C4  UNL d   1       2.195  -0.654  -2.167  0.00  0.00     0.022 A 
ATOM      7  C5  UNL d   1       1.103   0.166  -2.010  0.00  0.00     0.026 A 
ATOM      8  C6  UNL d   1       0.717   0.324  -0.636  0.00  0.00    -0.082 A 
ATOM      9  C7  UNL d   1      -0.336   1.071  -0.055  0.00  0.00     0.045 A 
ENDROOT
TORSDOF 0
ENDMDL
