MODEL 1
REMARK minimizedAffinity -1.94648564
REMARK minimizedRMSD -1
REMARK  0 active torsions:
REMARK  status: ('A' for Active; 'I' for Inactive)
ROOT
ATOM      1  C   UNL d   1      -0.915   1.255   3.003  0.00  0.00    -0.002 A 
ATOM      2  C1  UNL d   1       0.234   0.478   2.972  0.00  0.00     0.010 A 
ATOM      3  C2  UNL d   1       0.766   0.043   1.756  0.00  0.00     0.041 A 
ATOM      4  C3  UNL d   1       0.117   0.407   0.560  0.00  0.00    -0.075 A 
ATOM      5  S   UNL d   1       0.587  -0.010  -1.046  0.00  0.00     0.015 SA
ATOM      6  C4  UNL d   1      -0.727   0.835  -1.729  0.00  0.00     0.022 A 
ATOM      7  C5  UNL d   1      -1.515   1.425  -0.770  0.00  0.00     0.026 A 
ATOM      8  C6  UNL d   1      -1.041   1.189   0.565  0.00  0.00    -0.082 A 
ATOM      9  C7  UNL d   1      -1.556   1.614   1.814  0.00  0.00     0.045 A 
ENDROOT
TORSDOF 0
ENDMDL
