MODEL 1
REMARK minimizedAffinity -5.87659597
REMARK minimizedRMSD -1
REMARK  0 active torsions:
REMARK  status: ('A' for Active; 'I' for Inactive)
ROOT
ATOM      1  C   UNL d   1      -0.965   1.131   3.316  0.00  0.00    -0.002 A 
ATOM      2  C1  UNL d   1       0.334   0.827   3.697  0.00  0.00     0.010 A 
ATOM      3  C2  UNL d   1       1.189   0.147   2.827  0.00  0.00     0.041 A 
ATOM      4  C3  UNL d   1       0.712  -0.223   1.554  0.00  0.00    -0.075 A 
ATOM      5  S   UNL d   1       1.581  -1.060   0.323  0.00  0.00     0.015 SA
ATOM      6  C4  UNL d   1       0.248  -1.033  -0.739  0.00  0.00     0.022 A 
ATOM      7  C5  UNL d   1      -0.841  -0.405  -0.184  0.00  0.00     0.026 A 
ATOM      8  C6  UNL d   1      -0.592   0.073   1.147  0.00  0.00    -0.082 A 
ATOM      9  C7  UNL d   1      -1.435   0.762   2.052  0.00  0.00     0.045 A 
ENDROOT
TORSDOF 0
ENDMDL
