MODEL 1
REMARK minimizedAffinity -0.941203654
REMARK minimizedRMSD -1
REMARK  0 active torsions:
REMARK  status: ('A' for Active; 'I' for Inactive)
ROOT
ATOM      1  C   UNL d   1      -0.826   0.955   1.094  0.00  0.00    -0.002 A 
ATOM      2  C1  UNL d   1      -1.150  -0.393   1.035  0.00  0.00     0.010 A 
ATOM      3  C2  UNL d   1      -0.746  -1.174  -0.050  0.00  0.00     0.041 A 
ATOM      4  C3  UNL d   1      -0.000  -0.573  -1.083  0.00  0.00    -0.075 A 
ATOM      5  S   UNL d   1       0.604  -1.333  -2.507  0.00  0.00     0.015 SA
ATOM      6  C4  UNL d   1       1.308   0.114  -3.070  0.00  0.00     0.022 A 
ATOM      7  C5  UNL d   1       1.097   1.161  -2.205  0.00  0.00     0.026 A 
ATOM      8  C6  UNL d   1       0.340   0.783  -1.045  0.00  0.00    -0.082 A 
ATOM      9  C7  UNL d   1      -0.086   1.548   0.067  0.00  0.00     0.045 A 
ENDROOT
TORSDOF 0
ENDMDL
