MODEL 1
REMARK minimizedAffinity -4.83993816
REMARK minimizedRMSD -1
REMARK  0 active torsions:
REMARK  status: ('A' for Active; 'I' for Inactive)
ROOT
ATOM      1  C   UNL d   1      -1.057   0.785   2.078  0.00  0.00    -0.002 A 
ATOM      2  C1  UNL d   1      -1.142   1.969   1.359  0.00  0.00     0.010 A 
ATOM      3  C2  UNL d   1      -0.613   2.057   0.070  0.00  0.00     0.041 A 
ATOM      4  C3  UNL d   1       0.008   0.923  -0.490  0.00  0.00    -0.075 A 
ATOM      5  S   UNL d   1       0.726   0.797  -2.053  0.00  0.00     0.015 SA
ATOM      6  C4  UNL d   1       1.162  -0.832  -1.803  0.00  0.00     0.022 A 
ATOM      7  C5  UNL d   1       0.777  -1.284  -0.563  0.00  0.00     0.026 A 
ATOM      8  C6  UNL d   1       0.105  -0.281   0.214  0.00  0.00    -0.082 A 
ATOM      9  C7  UNL d   1      -0.441  -0.338   1.519  0.00  0.00     0.045 A 
ENDROOT
TORSDOF 0
ENDMDL
