MODEL 1
REMARK minimizedAffinity -3.76897717
REMARK minimizedRMSD -1
REMARK  0 active torsions:
REMARK  status: ('A' for Active; 'I' for Inactive)
ROOT
ATOM      1  C   UNL d   1      -1.484   0.654   2.961  0.00  0.00    -0.002 A 
ATOM      2  C1  UNL d   1      -2.001   0.427   1.694  0.00  0.00     0.010 A 
ATOM      3  C2  UNL d   1      -1.209  -0.142   0.695  0.00  0.00     0.041 A 
ATOM      4  C3  UNL d   1       0.124  -0.485   0.995  0.00  0.00    -0.075 A 
ATOM      5  S   UNL d   1       1.280  -1.195  -0.070  0.00  0.00     0.015 SA
ATOM      6  C4  UNL d   1       2.487  -1.215   1.133  0.00  0.00     0.022 A 
ATOM      7  C5  UNL d   1       2.037  -0.697   2.324  0.00  0.00     0.026 A 
ATOM      8  C6  UNL d   1       0.667  -0.268   2.264  0.00  0.00    -0.082 A 
ATOM      9  C7  UNL d   1      -0.161   0.312   3.255  0.00  0.00     0.045 A 
ENDROOT
TORSDOF 0
ENDMDL
