MODEL 1
REMARK minimizedAffinity 1.12295604
REMARK minimizedRMSD -1
REMARK  0 active torsions:
REMARK  status: ('A' for Active; 'I' for Inactive)
ROOT
ATOM      1  C   UNL d   1       0.414   0.064   3.802  0.00  0.00    -0.002 A 
ATOM      2  C1  UNL d   1       1.527  -0.462   3.161  0.00  0.00     0.010 A 
ATOM      3  C2  UNL d   1       1.554  -0.586   1.771  0.00  0.00     0.041 A 
ATOM      4  C3  UNL d   1       0.433  -0.166   1.027  0.00  0.00    -0.075 A 
ATOM      5  S   UNL d   1       0.242  -0.221  -0.685  0.00  0.00     0.015 SA
ATOM      6  C4  UNL d   1      -1.321   0.454  -0.607  0.00  0.00     0.022 A 
ATOM      7  C5  UNL d   1      -1.704   0.720   0.686  0.00  0.00     0.026 A 
ATOM      8  C6  UNL d   1      -0.699   0.368   1.649  0.00  0.00    -0.082 A 
ATOM      9  C7  UNL d   1      -0.696   0.479   3.061  0.00  0.00     0.045 A 
ENDROOT
TORSDOF 0
ENDMDL
