MODEL 1
REMARK minimizedAffinity -2.78247619
REMARK minimizedRMSD -1
REMARK  0 active torsions:
REMARK  status: ('A' for Active; 'I' for Inactive)
ROOT
ATOM      1  C   UNL d   1      -2.300   0.896   1.185  0.00  0.00    -0.002 A 
ATOM      2  C1  UNL d   1      -1.803   0.302   0.033  0.00  0.00     0.010 A 
ATOM      3  C2  UNL d   1      -0.561  -0.334   0.041  0.00  0.00     0.041 A 
ATOM      4  C3  UNL d   1       0.181  -0.366   1.238  0.00  0.00    -0.075 A 
ATOM      5  S   UNL d   1       1.727  -1.089   1.484  0.00  0.00     0.015 SA
ATOM      6  C4  UNL d   1       1.764  -0.628   3.125  0.00  0.00     0.022 A 
ATOM      7  C5  UNL d   1       0.633   0.062   3.493  0.00  0.00     0.026 A 
ATOM      8  C6  UNL d   1      -0.298   0.224   2.412  0.00  0.00    -0.082 A 
ATOM      9  C7  UNL d   1      -1.561   0.862   2.371  0.00  0.00     0.045 A 
ENDROOT
TORSDOF 0
ENDMDL
