MODEL 1
REMARK minimizedAffinity 0.942468882
REMARK minimizedRMSD -1
REMARK  0 active torsions:
REMARK  status: ('A' for Active; 'I' for Inactive)
ROOT
ATOM      1  C   UNL d   1       2.755   1.540   0.851  0.00  0.00     0.172 C 
ATOM      2  N   UNL d   1       2.099   2.690   0.274  0.00  0.00    -0.070 N 
ATOM      3  C1  UNL d   1       0.747   2.908   0.248  0.00  0.00    -0.004 A 
ATOM      4  C2  UNL d   1       0.527   4.111  -0.387  0.00  0.00    -0.047 A 
ATOM      5  C3  UNL d   1       1.789   4.634  -0.755  0.00  0.00    -0.047 A 
ATOM      6  C4  UNL d   1       2.745   3.734  -0.334  0.00  0.00    -0.004 A 
ENDROOT
TORSDOF 0
ENDMDL
