MODEL 1
REMARK minimizedAffinity 2.36378241
REMARK minimizedRMSD -1
REMARK  0 active torsions:
REMARK  status: ('A' for Active; 'I' for Inactive)
ROOT
ATOM      1  C   UNL d   1       5.892  -1.747   3.055  0.00  0.00     0.172 C 
ATOM      2  N   UNL d   1       4.560  -1.243   2.815  0.00  0.00    -0.070 N 
ATOM      3  C1  UNL d   1       4.241  -0.177   2.016  0.00  0.00    -0.004 A 
ATOM      4  C2  UNL d   1       2.873  -0.018   2.051  0.00  0.00    -0.047 A 
ATOM      5  C3  UNL d   1       2.351  -1.022   2.901  0.00  0.00    -0.047 A 
ATOM      6  C4  UNL d   1       3.417  -1.765   3.361  0.00  0.00    -0.004 A 
ENDROOT
TORSDOF 0
ENDMDL
