MODEL 1
REMARK minimizedAffinity 1.58394372
REMARK minimizedRMSD -1
REMARK  0 active torsions:
REMARK  status: ('A' for Active; 'I' for Inactive)
ROOT
ATOM      1  C   UNL d   1       3.791  -2.626   5.999  0.00  0.00     0.172 C 
ATOM      2  N   UNL d   1       2.947  -2.303   4.873  0.00  0.00    -0.070 N 
ATOM      3  C1  UNL d   1       2.246  -3.204   4.117  0.00  0.00    -0.004 A 
ATOM      4  C2  UNL d   1       1.567  -2.502   3.145  0.00  0.00    -0.047 A 
ATOM      5  C3  UNL d   1       1.873  -1.131   3.321  0.00  0.00    -0.047 A 
ATOM      6  C4  UNL d   1       2.729  -1.037   4.398  0.00  0.00    -0.004 A 
ENDROOT
TORSDOF 0
ENDMDL
