MODEL 1
REMARK minimizedAffinity 2.4437809
REMARK minimizedRMSD -1
REMARK  0 active torsions:
REMARK  status: ('A' for Active; 'I' for Inactive)
ROOT
ATOM      1  C   UNL d   1       2.299  -5.002   4.752  0.00  0.00     0.172 C 
ATOM      2  N   UNL d   1       2.359  -3.560   4.720  0.00  0.00    -0.070 N 
ATOM      3  C1  UNL d   1       2.990  -2.766   5.641  0.00  0.00    -0.004 A 
ATOM      4  C2  UNL d   1       2.818  -1.454   5.256  0.00  0.00    -0.047 A 
ATOM      5  C3  UNL d   1       2.058  -1.459   4.062  0.00  0.00    -0.047 A 
ATOM      6  C4  UNL d   1       1.787  -2.775   3.753  0.00  0.00    -0.004 A 
ENDROOT
TORSDOF 0
ENDMDL
