MODEL 1
REMARK minimizedAffinity -0.586076081
REMARK minimizedRMSD -1
REMARK  0 active torsions:
REMARK  status: ('A' for Active; 'I' for Inactive)
ROOT
ATOM      1  C   UNL d   1       5.472  -1.754   4.434  0.00  0.00     0.172 C 
ATOM      2  N   UNL d   1       4.119  -1.747   3.929  0.00  0.00    -0.070 N 
ATOM      3  C1  UNL d   1       3.570  -0.780   3.130  0.00  0.00    -0.004 A 
ATOM      4  C2  UNL d   1       2.266  -1.140   2.868  0.00  0.00    -0.047 A 
ATOM      5  C3  UNL d   1       2.022  -2.366   3.532  0.00  0.00    -0.047 A 
ATOM      6  C4  UNL d   1       3.187  -2.719   4.181  0.00  0.00    -0.004 A 
ENDROOT
TORSDOF 0
ENDMDL
