MODEL 1
REMARK minimizedAffinity 2.60652995
REMARK minimizedRMSD -1
REMARK  0 active torsions:
REMARK  status: ('A' for Active; 'I' for Inactive)
ROOT
ATOM      1  C   UNL d   1      -5.999  -0.969  -5.289  0.00  0.00     0.172 C 
ATOM      2  N   UNL d   1      -5.995   0.285  -4.572  0.00  0.00    -0.070 N 
ATOM      3  C1  UNL d   1      -5.999   0.425  -3.210  0.00  0.00    -0.004 A 
ATOM      4  C2  UNL d   1      -5.993   1.774  -2.924  0.00  0.00    -0.047 A 
ATOM      5  C3  UNL d   1      -5.985   2.467  -4.158  0.00  0.00    -0.047 A 
ATOM      6  C4  UNL d   1      -5.987   1.522  -5.161  0.00  0.00    -0.004 A 
ENDROOT
TORSDOF 0
ENDMDL
