MODEL 1
REMARK minimizedAffinity -1.29447234
REMARK minimizedRMSD -1
REMARK  0 active torsions:
REMARK  status: ('A' for Active; 'I' for Inactive)
ROOT
ATOM      1  C4' PXY d   1       4.084   0.722   3.161  0.00  0.00     0.077 C 
ATOM      2  C1' PXY d   1       5.999  -3.937   5.997  0.00  0.00     0.077 C 
ATOM      3  C1  PXY d   1       5.501  -2.707   5.264  0.00  0.00    -0.082 A 
ATOM      4  C2  PXY d   1       4.587  -2.837   4.316  0.00  0.00     0.003 A 
ATOM      5  C3  PXY d   1       4.148  -1.740   3.620  0.00  0.00     0.003 A 
ATOM      6  C4  PXY d   1       4.610  -0.490   3.935  0.00  0.00    -0.082 A 
ATOM      7  C5  PXY d   1       5.535  -0.348   4.908  0.00  0.00     0.003 A 
ATOM      8  C6  PXY d   1       5.998  -1.479   5.574  0.00  0.00     0.003 A 
ENDROOT
TORSDOF 0
ENDMDL
