MODEL 1
REMARK minimizedAffinity -2.5216248
REMARK minimizedRMSD -1
REMARK  0 active torsions:
REMARK  status: ('A' for Active; 'I' for Inactive)
ROOT
ATOM      1  C4' PXY d   1      -0.105   0.513   0.139  0.00  0.00     0.077 C 
ATOM      2  C1' PXY d   1      -3.243   1.277   4.932  0.00  0.00     0.077 C 
ATOM      3  C1  PXY d   1      -2.429   1.068   3.671  0.00  0.00    -0.082 A 
ATOM      4  C2  PXY d   1      -1.121   1.265   3.696  0.00  0.00     0.003 A 
ATOM      5  C3  PXY d   1      -0.374   1.112   2.556  0.00  0.00     0.003 A 
ATOM      6  C4  PXY d   1      -0.965   0.702   1.391  0.00  0.00    -0.082 A 
ATOM      7  C5  PXY d   1      -2.298   0.489   1.359  0.00  0.00     0.003 A 
ATOM      8  C6  PXY d   1      -3.044   0.690   2.517  0.00  0.00     0.003 A 
ENDROOT
TORSDOF 0
ENDMDL
