MODEL 1
REMARK minimizedAffinity 5.53626347
REMARK minimizedRMSD -1
REMARK  0 active torsions:
REMARK  status: ('A' for Active; 'I' for Inactive)
ROOT
ATOM      1  C4' PXY d   1       0.993   2.155  -4.982  0.00  0.00     0.077 C 
ATOM      2  C1' PXY d   1       0.189  -1.105  -0.277  0.00  0.00     0.077 C 
ATOM      3  C1  PXY d   1       0.409  -0.259  -1.515  0.00  0.00    -0.082 A 
ATOM      4  C2  PXY d   1       0.177   1.043  -1.467  0.00  0.00     0.003 A 
ATOM      5  C3  PXY d   1       0.340   1.818  -2.587  0.00  0.00     0.003 A 
ATOM      6  C4  PXY d   1       0.795   1.263  -3.753  0.00  0.00    -0.082 A 
ATOM      7  C5  PXY d   1       1.043  -0.062  -3.807  0.00  0.00     0.003 A 
ATOM      8  C6  PXY d   1       0.833  -0.838  -2.671  0.00  0.00     0.003 A 
ENDROOT
TORSDOF 0
ENDMDL
