MODEL 1
REMARK minimizedAffinity 2.2120316
REMARK minimizedRMSD -1
REMARK  0 active torsions:
REMARK  status: ('A' for Active; 'I' for Inactive)
ROOT
ATOM      1  C4' PXY d   1       1.083   1.378  -4.249  0.00  0.00     0.077 C 
ATOM      2  C1' PXY d   1      -0.084  -1.538   0.604  0.00  0.00     0.077 C 
ATOM      3  C1  PXY d   1       0.230  -0.783  -0.673  0.00  0.00    -0.082 A 
ATOM      4  C2  PXY d   1       0.112   0.534  -0.700  0.00  0.00     0.003 A 
ATOM      5  C3  PXY d   1       0.361   1.230  -1.855  0.00  0.00     0.003 A 
ATOM      6  C4  PXY d   1       0.786   0.575  -2.980  0.00  0.00    -0.082 A 
ATOM      7  C5  PXY d   1       0.919  -0.768  -2.958  0.00  0.00     0.003 A 
ATOM      8  C6  PXY d   1       0.622  -1.460  -1.787  0.00  0.00     0.003 A 
ENDROOT
TORSDOF 0
ENDMDL
