MODEL 1
REMARK minimizedAffinity 11.5040064
REMARK minimizedRMSD -1
REMARK  0 active torsions:
REMARK  status: ('A' for Active; 'I' for Inactive)
ROOT
ATOM      1  C4' PXY d   1      -0.725  -2.543   0.542  0.00  0.00     0.077 C 
ATOM      2  C1' PXY d   1      -3.090  -0.108   5.221  0.00  0.00     0.077 C 
ATOM      3  C1  PXY d   1      -2.460  -0.738   3.995  0.00  0.00    -0.082 A 
ATOM      4  C2  PXY d   1      -3.209  -1.448   3.167  0.00  0.00     0.003 A 
ATOM      5  C3  PXY d   1      -2.649  -2.051   2.070  0.00  0.00     0.003 A 
ATOM      6  C4  PXY d   1      -1.320  -1.881   1.788  0.00  0.00    -0.082 A 
ATOM      7  C5  PXY d   1      -0.552  -1.149   2.622  0.00  0.00     0.003 A 
ATOM      8  C6  PXY d   1      -1.130  -0.580   3.753  0.00  0.00     0.003 A 
ENDROOT
TORSDOF 0
ENDMDL
