MODEL 1
REMARK minimizedAffinity -5.02450657
REMARK minimizedRMSD -1
REMARK  0 active torsions:
REMARK  status: ('A' for Active; 'I' for Inactive)
ROOT
ATOM      1  C4' PXY d   1      -3.733   6.000   4.757  0.00  0.00     0.077 C 
ATOM      2  C1' PXY d   1      -3.072   0.258   4.821  0.00  0.00     0.077 C 
ATOM      3  C1  PXY d   1      -3.251   1.763   4.816  0.00  0.00    -0.082 A 
ATOM      4  C2  PXY d   1      -3.322   2.410   3.664  0.00  0.00     0.003 A 
ATOM      5  C3  PXY d   1      -3.451   3.774   3.641  0.00  0.00     0.003 A 
ATOM      6  C4  PXY d   1      -3.562   4.479   4.810  0.00  0.00    -0.082 A 
ATOM      7  C5  PXY d   1      -3.502   3.826   5.989  0.00  0.00     0.003 A 
ATOM      8  C6  PXY d   1      -3.329   2.445   5.991  0.00  0.00     0.003 A 
ENDROOT
TORSDOF 0
ENDMDL
