MODEL 1
REMARK minimizedAffinity 8.08202648
REMARK minimizedRMSD -1
REMARK  0 active torsions:
REMARK  status: ('A' for Active; 'I' for Inactive)
ROOT
ATOM      1  C4' PXY d   1       0.847  -3.297  -2.875  0.00  0.00     0.077 C 
ATOM      2  C1' PXY d   1       0.431   2.043  -0.700  0.00  0.00     0.077 C 
ATOM      3  C1  PXY d   1       0.540   0.648  -1.283  0.00  0.00    -0.082 A 
ATOM      4  C2  PXY d   1       0.113  -0.389  -0.581  0.00  0.00     0.003 A 
ATOM      5  C3  PXY d   1       0.233  -1.661  -1.079  0.00  0.00     0.003 A 
ATOM      6  C4  PXY d   1       0.748  -1.869  -2.330  0.00  0.00    -0.082 A 
ATOM      7  C5  PXY d   1       1.177  -0.815  -3.057  0.00  0.00     0.003 A 
ATOM      8  C6  PXY d   1       1.084   0.464  -2.516  0.00  0.00     0.003 A 
ENDROOT
TORSDOF 0
ENDMDL
