MODEL 1
REMARK minimizedAffinity 8.60853958
REMARK minimizedRMSD -1
REMARK  0 active torsions:
REMARK  status: ('A' for Active; 'I' for Inactive)
ROOT
ATOM      1  C4' PXY d   1      -0.764  -1.496   0.698  0.00  0.00     0.077 C 
ATOM      2  C1' PXY d   1       1.661  -0.663  -4.482  0.00  0.00     0.077 C 
ATOM      3  C1  PXY d   1       1.029  -0.869  -3.120  0.00  0.00    -0.082 A 
ATOM      4  C2  PXY d   1       0.858  -2.097  -2.658  0.00  0.00     0.003 A 
ATOM      5  C3  PXY d   1       0.258  -2.303  -1.442  0.00  0.00     0.003 A 
ATOM      6  C4  PXY d   1      -0.122  -1.240  -0.667  0.00  0.00    -0.082 A 
ATOM      7  C5  PXY d   1       0.059   0.017  -1.127  0.00  0.00     0.003 A 
ATOM      8  C6  PXY d   1       0.632   0.203  -2.382  0.00  0.00     0.003 A 
ENDROOT
TORSDOF 0
ENDMDL
