MODEL 1
REMARK minimizedAffinity 3.9802084
REMARK minimizedRMSD -1
REMARK  0 active torsions:
REMARK  status: ('A' for Active; 'I' for Inactive)
ROOT
ATOM      1  C4' PXY d   1       3.531   2.992   1.855  0.00  0.00     0.077 C 
ATOM      2  C1' PXY d   1       5.999  -1.593   4.366  0.00  0.00     0.077 C 
ATOM      3  C1  PXY d   1       5.356  -0.383   3.717  0.00  0.00    -0.082 A 
ATOM      4  C2  PXY d   1       4.300  -0.543   2.936  0.00  0.00     0.003 A 
ATOM      5  C3  PXY d   1       3.726   0.537   2.315  0.00  0.00     0.003 A 
ATOM      6  C4  PXY d   1       4.206   1.800   2.539  0.00  0.00    -0.082 A 
ATOM      7  C5  PXY d   1       5.277   1.973   3.342  0.00  0.00     0.003 A 
ATOM      8  C6  PXY d   1       5.870   0.859   3.930  0.00  0.00     0.003 A 
ENDROOT
TORSDOF 0
ENDMDL
