MODEL 1
REMARK minimizedAffinity 10.5008917
REMARK minimizedRMSD -1
REMARK  0 active torsions:
REMARK  status: ('A' for Active; 'I' for Inactive)
ROOT
ATOM      1  C4' PXY d   1       0.856  -3.607  -3.051  0.00  0.00     0.077 C 
ATOM      2  C1' PXY d   1       0.557   1.989  -1.635  0.00  0.00     0.077 C 
ATOM      3  C1  PXY d   1       0.637   0.525  -2.019  0.00  0.00    -0.082 A 
ATOM      4  C2  PXY d   1       0.095  -0.389  -1.230  0.00  0.00     0.003 A 
ATOM      5  C3  PXY d   1       0.186  -1.720  -1.545  0.00  0.00     0.003 A 
ATOM      6  C4  PXY d   1       0.791  -2.116  -2.708  0.00  0.00    -0.082 A 
ATOM      7  C5  PXY d   1       1.336  -1.189  -3.524  0.00  0.00     0.003 A 
ATOM      8  C6  PXY d   1       1.270   0.154  -3.165  0.00  0.00     0.003 A 
ENDROOT
TORSDOF 0
ENDMDL
