MODEL 1
REMARK minimizedAffinity 6.0958581
REMARK minimizedRMSD -1
REMARK  0 active torsions:
REMARK  status: ('A' for Active; 'I' for Inactive)
ROOT
ATOM      1  C4' PXY d   1       1.154  -0.446  -3.458  0.00  0.00     0.077 C 
ATOM      2  C1' PXY d   1       2.640   2.526   1.272  0.00  0.00     0.077 C 
ATOM      3  C1  PXY d   1       2.240   1.741   0.038  0.00  0.00    -0.082 A 
ATOM      4  C2  PXY d   1       3.153   1.442  -0.871  0.00  0.00     0.003 A 
ATOM      5  C3  PXY d   1       2.802   0.761  -2.009  0.00  0.00     0.003 A 
ATOM      6  C4  PXY d   1       1.514   0.336  -2.192  0.00  0.00    -0.082 A 
ATOM      7  C5  PXY d   1       0.578   0.629  -1.264  0.00  0.00     0.003 A 
ATOM      8  C6  PXY d   1       0.946   1.356  -0.136  0.00  0.00     0.003 A 
ENDROOT
TORSDOF 0
ENDMDL
