MODEL 1
REMARK minimizedAffinity 8.48047829
REMARK minimizedRMSD -1
REMARK  0 active torsions:
REMARK  status: ('A' for Active; 'I' for Inactive)
ROOT
ATOM      1  C4' PXY d   1       5.920  -1.834  -5.553  0.00  0.00     0.077 C 
ATOM      2  C1' PXY d   1       3.359   3.348  -5.550  0.00  0.00     0.077 C 
ATOM      3  C1  PXY d   1       4.042   1.995  -5.552  0.00  0.00    -0.082 A 
ATOM      4  C2  PXY d   1       3.386   0.931  -5.986  0.00  0.00     0.003 A 
ATOM      5  C3  PXY d   1       3.978  -0.306  -5.964  0.00  0.00     0.003 A 
ATOM      6  C4  PXY d   1       5.273  -0.447  -5.543  0.00  0.00    -0.082 A 
ATOM      7  C5  PXY d   1       5.953   0.636  -5.108  0.00  0.00     0.003 A 
ATOM      8  C6  PXY d   1       5.320   1.875  -5.100  0.00  0.00     0.003 A 
ENDROOT
TORSDOF 0
ENDMDL
