MODEL 1
REMARK minimizedAffinity 2.05684495
REMARK minimizedRMSD -1
REMARK  0 active torsions:
REMARK  status: ('A' for Active; 'I' for Inactive)
ROOT
ATOM      1  C4' PXY d   1       5.704  -0.033  -5.992  0.00  0.00     0.077 C 
ATOM      2  C1' PXY d   1       3.686   5.134  -4.365  0.00  0.00     0.077 C 
ATOM      3  C1  PXY d   1       4.204   3.774  -4.787  0.00  0.00    -0.082 A 
ATOM      4  C2  PXY d   1       5.507   3.583  -4.922  0.00  0.00     0.003 A 
ATOM      5  C3  PXY d   1       5.991   2.368  -5.334  0.00  0.00     0.003 A 
ATOM      6  C4  PXY d   1       5.136   1.322  -5.559  0.00  0.00    -0.082 A 
ATOM      7  C5  PXY d   1       3.807   1.505  -5.413  0.00  0.00     0.003 A 
ATOM      8  C6  PXY d   1       3.333   2.758  -5.034  0.00  0.00     0.003 A 
ENDROOT
TORSDOF 0
ENDMDL
