MODEL 1
REMARK minimizedAffinity 7.63624716
REMARK minimizedRMSD -1
REMARK  0 active torsions:
REMARK  status: ('A' for Active; 'I' for Inactive)
ROOT
ATOM      1  C4' PXY d   1      -4.127   0.921   6.000  0.00  0.00     0.077 C 
ATOM      2  C1' PXY d   1      -1.809  -2.491   1.950  0.00  0.00     0.077 C 
ATOM      3  C1  PXY d   1      -2.423  -1.589   3.003  0.00  0.00    -0.082 A 
ATOM      4  C2  PXY d   1      -1.856  -1.495   4.195  0.00  0.00     0.003 A 
ATOM      5  C3  PXY d   1      -2.416  -0.709   5.169  0.00  0.00     0.003 A 
ATOM      6  C4  PXY d   1      -3.537   0.030   4.903  0.00  0.00    -0.082 A 
ATOM      7  C5  PXY d   1      -4.115  -0.051   3.686  0.00  0.00     0.003 A 
ATOM      8  C6  PXY d   1      -3.555  -0.887   2.724  0.00  0.00     0.003 A 
ENDROOT
TORSDOF 0
ENDMDL
