MODEL 1
REMARK minimizedAffinity 12.917963
REMARK minimizedRMSD -1
REMARK  0 active torsions:
REMARK  status: ('A' for Active; 'I' for Inactive)
ROOT
ATOM      1  C4' PXY d   1      -1.515  -2.895   0.657  0.00  0.00     0.077 C 
ATOM      2  C1' PXY d   1       1.381   0.816  -2.699  0.00  0.00     0.077 C 
ATOM      3  C1  PXY d   1       0.625  -0.167  -1.827  0.00  0.00    -0.082 A 
ATOM      4  C2  PXY d   1      -0.347   0.268  -1.042  0.00  0.00     0.003 A 
ATOM      5  C3  PXY d   1      -1.020  -0.602  -0.223  0.00  0.00     0.003 A 
ATOM      6  C4  PXY d   1      -0.731  -1.940  -0.247  0.00  0.00    -0.082 A 
ATOM      7  C5  PXY d   1       0.253  -2.393  -1.053  0.00  0.00     0.003 A 
ATOM      8  C6  PXY d   1       0.952  -1.488  -1.846  0.00  0.00     0.003 A 
ENDROOT
TORSDOF 0
ENDMDL
