MODEL 1
REMARK minimizedAffinity 6.61584711
REMARK minimizedRMSD -1
REMARK  0 active torsions:
REMARK  status: ('A' for Active; 'I' for Inactive)
ROOT
ATOM      1  C4' PXY d   1       6.000   2.407  -4.155  0.00  0.00     0.077 C 
ATOM      2  C1' PXY d   1       1.378   5.348  -6.000  0.00  0.00     0.077 C 
ATOM      3  C1  PXY d   1       2.596   4.588  -5.513  0.00  0.00    -0.082 A 
ATOM      4  C2  PXY d   1       2.854   3.385  -5.999  0.00  0.00     0.003 A 
ATOM      5  C3  PXY d   1       3.933   2.671  -5.546  0.00  0.00     0.003 A 
ATOM      6  C4  PXY d   1       4.787   3.215  -4.625  0.00  0.00    -0.082 A 
ATOM      7  C5  PXY d   1       4.536   4.446  -4.131  0.00  0.00     0.003 A 
ATOM      8  C6  PXY d   1       3.413   5.138  -4.574  0.00  0.00     0.003 A 
ENDROOT
TORSDOF 0
ENDMDL
