MODEL 1
REMARK minimizedAffinity 7.84988308
REMARK minimizedRMSD -1
REMARK  0 active torsions:
REMARK  status: ('A' for Active; 'I' for Inactive)
ROOT
ATOM      1  C4' PXY d   1       1.489   5.615  -5.738  0.00  0.00     0.077 C 
ATOM      2  C1' PXY d   1       6.000   2.134  -4.765  0.00  0.00     0.077 C 
ATOM      3  C1  PXY d   1       4.820   3.053  -5.009  0.00  0.00    -0.082 A 
ATOM      4  C2  PXY d   1       3.802   2.631  -5.742  0.00  0.00     0.003 A 
ATOM      5  C3  PXY d   1       2.742   3.461  -6.000  0.00  0.00     0.003 A 
ATOM      6  C4  PXY d   1       2.697   4.717  -5.457  0.00  0.00    -0.082 A 
ATOM      7  C5  PXY d   1       3.726   5.152  -4.699  0.00  0.00     0.003 A 
ATOM      8  C6  PXY d   1       4.813   4.308  -4.484  0.00  0.00     0.003 A 
ENDROOT
TORSDOF 0
ENDMDL
