MODEL 1
REMARK minimizedAffinity 7.32051182
REMARK minimizedRMSD -1
REMARK  0 active torsions:
REMARK  status: ('A' for Active; 'I' for Inactive)
ROOT
ATOM      1  C4' PXY d   1      -1.572   5.789   1.974  0.00  0.00     0.077 C 
ATOM      2  C1' PXY d   1      -5.716   5.973   6.000  0.00  0.00     0.077 C 
ATOM      3  C1  PXY d   1      -4.621   5.931   4.952  0.00  0.00    -0.082 A 
ATOM      4  C2  PXY d   1      -4.943   5.823   3.673  0.00  0.00     0.003 A 
ATOM      5  C3  PXY d   1      -3.965   5.751   2.715  0.00  0.00     0.003 A 
ATOM      6  C4  PXY d   1      -2.644   5.844   3.066  0.00  0.00    -0.082 A 
ATOM      7  C5  PXY d   1      -2.308   5.965   4.367  0.00  0.00     0.003 A 
ATOM      8  C6  PXY d   1      -3.315   5.995   5.328  0.00  0.00     0.003 A 
ENDROOT
TORSDOF 0
ENDMDL
