MODEL 1
REMARK minimizedAffinity 12.0750494
REMARK minimizedRMSD -1
REMARK  0 active torsions:
REMARK  status: ('A' for Active; 'I' for Inactive)
ROOT
ATOM      1  C4' PXY d   1       0.308  -2.329  -0.378  0.00  0.00     0.077 C 
ATOM      2  C1' PXY d   1      -2.460  -1.038   4.529  0.00  0.00     0.077 C 
ATOM      3  C1  PXY d   1      -1.744  -1.383   3.238  0.00  0.00    -0.082 A 
ATOM      4  C2  PXY d   1      -0.422  -1.349   3.194  0.00  0.00     0.003 A 
ATOM      5  C3  PXY d   1       0.240  -1.628   2.026  0.00  0.00     0.003 A 
ATOM      6  C4  PXY d   1      -0.456  -1.997   0.906  0.00  0.00    -0.082 A 
ATOM      7  C5  PXY d   1      -1.805  -2.045   0.946  0.00  0.00     0.003 A 
ATOM      8  C6  PXY d   1      -2.460  -1.718   2.130  0.00  0.00     0.003 A 
ENDROOT
TORSDOF 0
ENDMDL
