MODEL 1
REMARK minimizedAffinity -1.23870921
REMARK minimizedRMSD -1
REMARK  0 active torsions:
REMARK  status: ('A' for Active; 'I' for Inactive)
ROOT
ATOM      1  C4' PXY d   1       0.498  -2.166  -0.083  0.00  0.00     0.077 C 
ATOM      2  C1' PXY d   1       1.948   3.294  -1.305  0.00  0.00     0.077 C 
ATOM      3  C1  PXY d   1       1.555   1.865  -0.987  0.00  0.00    -0.082 A 
ATOM      4  C2  PXY d   1       2.313   1.143  -0.178  0.00  0.00     0.003 A 
ATOM      5  C3  PXY d   1       1.990  -0.162   0.095  0.00  0.00     0.003 A 
ATOM      6  C4  PXY d   1       0.850  -0.716  -0.424  0.00  0.00    -0.082 A 
ATOM      7  C5  PXY d   1       0.066   0.018  -1.242  0.00  0.00     0.003 A 
ATOM      8  C6  PXY d   1       0.434   1.327  -1.540  0.00  0.00     0.003 A 
ENDROOT
TORSDOF 0
ENDMDL
