MODEL 1
REMARK minimizedAffinity 7.49901342
REMARK minimizedRMSD -1
REMARK  0 active torsions:
REMARK  status: ('A' for Active; 'I' for Inactive)
ROOT
ATOM      1  C   UNL d   1       0.820   1.873   2.472  0.00  0.00    -0.002 A 
ATOM      2  C1  UNL d   1       0.834   2.268   3.802  0.00  0.00     0.010 A 
ATOM      3  C2  UNL d   1      -0.328   2.205   4.574  0.00  0.00     0.041 A 
ATOM      4  C3  UNL d   1      -1.515   1.733   3.981  0.00  0.00    -0.075 A 
ATOM      5  S   UNL d   1      -3.058   1.567   4.732  0.00  0.00     0.015 SA
ATOM      6  C4  UNL d   1      -3.772   0.967   3.305  0.00  0.00     0.022 A 
ATOM      7  C5  UNL d   1      -2.869   0.889   2.271  0.00  0.00     0.026 A 
ATOM      8  C6  UNL d   1      -1.554   1.328   2.643  0.00  0.00    -0.082 A 
ATOM      9  C7  UNL d   1      -0.359   1.404   1.887  0.00  0.00     0.045 A 
ENDROOT
TORSDOF 0
ENDMDL
