MODEL 1
REMARK minimizedAffinity 20.8958244
REMARK minimizedRMSD -1
REMARK  0 active torsions:
REMARK  status: ('A' for Active; 'I' for Inactive)
ROOT
ATOM      1  C   UNL d   1      -1.579  -3.759  -2.625  0.00  0.00    -0.002 A 
ATOM      2  C1  UNL d   1      -2.247  -4.957  -2.415  0.00  0.00     0.010 A 
ATOM      3  C2  UNL d   1      -3.364  -5.292  -3.183  0.00  0.00     0.041 A 
ATOM      4  C3  UNL d   1      -3.800  -4.395  -4.178  0.00  0.00    -0.075 A 
ATOM      5  S   UNL d   1      -5.143  -4.594  -5.241  0.00  0.00     0.015 SA
ATOM      6  C4  UNL d   1      -4.861  -3.095  -6.000  0.00  0.00     0.022 A 
ATOM      7  C5  UNL d   1      -3.773  -2.444  -5.467  0.00  0.00     0.026 A 
ATOM      8  C6  UNL d   1      -3.143  -3.183  -4.409  0.00  0.00    -0.082 A 
ATOM      9  C7  UNL d   1      -2.015  -2.872  -3.613  0.00  0.00     0.045 A 
ENDROOT
TORSDOF 0
ENDMDL
