MODEL 1
REMARK minimizedAffinity 30.6426086
REMARK minimizedRMSD -1
REMARK  0 active torsions:
REMARK  status: ('A' for Active; 'I' for Inactive)
ROOT
ATOM      1  C   UNL d   1      -3.632  -1.600   3.858  0.00  0.00    -0.002 A 
ATOM      2  C1  UNL d   1      -3.379  -1.574   5.222  0.00  0.00     0.010 A 
ATOM      3  C2  UNL d   1      -3.580  -0.405   5.960  0.00  0.00     0.041 A 
ATOM      4  C3  UNL d   1      -4.047   0.747   5.297  0.00  0.00    -0.075 A 
ATOM      5  S   UNL d   1      -4.367   2.290   5.996  0.00  0.00     0.015 SA
ATOM      6  C4  UNL d   1      -4.848   2.951   4.500  0.00  0.00     0.022 A 
ATOM      7  C5  UNL d   1      -4.772   2.030   3.481  0.00  0.00     0.026 A 
ATOM      8  C6  UNL d   1      -4.310   0.745   3.924  0.00  0.00    -0.082 A 
ATOM      9  C7  UNL d   1      -4.095  -0.455   3.204  0.00  0.00     0.045 A 
ENDROOT
TORSDOF 0
ENDMDL
