MODEL 1
REMARK minimizedAffinity 15.5574999
REMARK minimizedRMSD -1
REMARK  0 active torsions:
REMARK  status: ('A' for Active; 'I' for Inactive)
ROOT
ATOM      1  C   UNL d   1       0.331   1.353   1.402  0.00  0.00    -0.002 A 
ATOM      2  C1  UNL d   1       0.848   1.309   2.689  0.00  0.00     0.010 A 
ATOM      3  C2  UNL d   1      -0.003   1.247   3.794  0.00  0.00     0.041 A 
ATOM      4  C3  UNL d   1      -1.395   1.228   3.583  0.00  0.00    -0.075 A 
ATOM      5  S   UNL d   1      -2.629   1.153   4.785  0.00  0.00     0.015 SA
ATOM      6  C4  UNL d   1      -3.871   1.177   3.619  0.00  0.00     0.022 A 
ATOM      7  C5  UNL d   1      -3.375   1.241   2.338  0.00  0.00     0.026 A 
ATOM      8  C6  UNL d   1      -1.940   1.271   2.296  0.00  0.00    -0.082 A 
ATOM      9  C7  UNL d   1      -1.051   1.334   1.196  0.00  0.00     0.045 A 
ENDROOT
TORSDOF 0
ENDMDL
