MODEL 1
REMARK minimizedAffinity 26.2814808
REMARK minimizedRMSD -1
REMARK  0 active torsions:
REMARK  status: ('A' for Active; 'I' for Inactive)
ROOT
ATOM      1  C   UNL d   1       3.596   1.464  -1.174  0.00  0.00    -0.002 A 
ATOM      2  C1  UNL d   1       3.299   1.528   0.180  0.00  0.00     0.010 A 
ATOM      3  C2  UNL d   1       2.611   2.624   0.705  0.00  0.00     0.041 A 
ATOM      4  C3  UNL d   1       2.222   3.663  -0.163  0.00  0.00    -0.075 A 
ATOM      5  S   UNL d   1       1.369   5.102   0.255  0.00  0.00     0.015 SA
ATOM      6  C4  UNL d   1       1.379   5.665  -1.354  0.00  0.00     0.022 A 
ATOM      7  C5  UNL d   1       2.014   4.789  -2.203  0.00  0.00     0.026 A 
ATOM      8  C6  UNL d   1       2.509   3.621  -1.531  0.00  0.00    -0.082 A 
ATOM      9  C7  UNL d   1       3.209   2.496  -2.032  0.00  0.00     0.045 A 
ENDROOT
TORSDOF 0
ENDMDL
