MODEL 1
REMARK minimizedAffinity 19.0495434
REMARK minimizedRMSD -1
REMARK  0 active torsions:
REMARK  status: ('A' for Active; 'I' for Inactive)
ROOT
ATOM      1  C   UNL d   1      -4.646   3.304   4.935  0.00  0.00    -0.002 A 
ATOM      2  C1  UNL d   1      -5.760   3.155   4.121  0.00  0.00     0.010 A 
ATOM      3  C2  UNL d   1      -5.999   1.950   3.457  0.00  0.00     0.041 A 
ATOM      4  C3  UNL d   1      -5.091   0.886   3.629  0.00  0.00    -0.075 A 
ATOM      5  S   UNL d   1      -5.180  -0.681   2.916  0.00  0.00     0.015 SA
ATOM      6  C4  UNL d   1      -3.742  -1.190   3.677  0.00  0.00     0.022 A 
ATOM      7  C5  UNL d   1      -3.194  -0.201   4.458  0.00  0.00     0.026 A 
ATOM      8  C6  UNL d   1      -3.963   1.012   4.444  0.00  0.00    -0.082 A 
ATOM      9  C7  UNL d   1      -3.748   2.247   5.102  0.00  0.00     0.045 A 
ENDROOT
TORSDOF 0
ENDMDL
