MODEL 1
REMARK minimizedAffinity 17.3381271
REMARK minimizedRMSD -1
REMARK  0 active torsions:
REMARK  status: ('A' for Active; 'I' for Inactive)
ROOT
ATOM      1  C   UNL d   1       4.174   0.717  -0.407  0.00  0.00    -0.002 A 
ATOM      2  C1  UNL d   1       4.835  -0.419   0.038  0.00  0.00     0.010 A 
ATOM      3  C2  UNL d   1       4.228  -1.674  -0.049  0.00  0.00     0.041 A 
ATOM      4  C3  UNL d   1       2.934  -1.768  -0.597  0.00  0.00    -0.075 A 
ATOM      5  S   UNL d   1       1.995  -3.199  -0.804  0.00  0.00     0.015 SA
ATOM      6  C4  UNL d   1       0.694  -2.336  -1.488  0.00  0.00     0.022 A 
ATOM      7  C5  UNL d   1       0.953  -0.988  -1.564  0.00  0.00     0.026 A 
ATOM      8  C6  UNL d   1       2.248  -0.639  -1.052  0.00  0.00    -0.082 A 
ATOM      9  C7  UNL d   1       2.890   0.619  -0.950  0.00  0.00     0.045 A 
ENDROOT
TORSDOF 0
ENDMDL
