MODEL 1
REMARK minimizedAffinity 23.4088688
REMARK minimizedRMSD -1
REMARK  0 active torsions:
REMARK  status: ('A' for Active; 'I' for Inactive)
ROOT
ATOM      1  C   UNL d   1       1.510   1.874   6.000  0.00  0.00    -0.002 A 
ATOM      2  C1  UNL d   1       0.426   2.739   5.991  0.00  0.00     0.010 A 
ATOM      3  C2  UNL d   1      -0.489   2.722   4.937  0.00  0.00     0.041 A 
ATOM      4  C3  UNL d   1      -0.295   1.809   3.881  0.00  0.00    -0.075 A 
ATOM      5  S   UNL d   1      -1.286   1.608   2.485  0.00  0.00     0.015 SA
ATOM      6  C4  UNL d   1      -0.294   0.368   1.867  0.00  0.00     0.022 A 
ATOM      7  C5  UNL d   1       0.773   0.101   2.693  0.00  0.00     0.026 A 
ATOM      8  C6  UNL d   1       0.790   0.927   3.867  0.00  0.00    -0.082 A 
ATOM      9  C7  UNL d   1       1.700   0.970   4.951  0.00  0.00     0.045 A 
ENDROOT
TORSDOF 0
ENDMDL
