MODEL 1
REMARK minimizedAffinity 17.8191967
REMARK minimizedRMSD -1
REMARK  0 active torsions:
REMARK  status: ('A' for Active; 'I' for Inactive)
ROOT
ATOM      1  C   UNL d   1       1.396   1.126   4.857  0.00  0.00    -0.002 A 
ATOM      2  C1  UNL d   1       0.752   1.578   6.000  0.00  0.00     0.010 A 
ATOM      3  C2  UNL d   1      -0.627   1.794   6.000  0.00  0.00     0.041 A 
ATOM      4  C3  UNL d   1      -1.356   1.544   4.821  0.00  0.00    -0.075 A 
ATOM      5  S   UNL d   1      -3.053   1.737   4.587  0.00  0.00     0.015 SA
ATOM      6  C4  UNL d   1      -2.964   1.224   2.965  0.00  0.00     0.022 A 
ATOM      7  C5  UNL d   1      -1.678   0.909   2.593  0.00  0.00     0.026 A 
ATOM      8  C6  UNL d   1      -0.730   1.088   3.657  0.00  0.00    -0.082 A 
ATOM      9  C7  UNL d   1       0.670   0.879   3.689  0.00  0.00     0.045 A 
ENDROOT
TORSDOF 0
ENDMDL
