MODEL 1
REMARK minimizedAffinity 9.2456913
REMARK minimizedRMSD -1
REMARK  0 active torsions:
REMARK  status: ('A' for Active; 'I' for Inactive)
ROOT
ATOM      1  C   UNL d   1      -3.118   6.000  -5.327  0.00  0.00    -0.002 A 
ATOM      2  C1  UNL d   1      -2.218   5.904  -4.275  0.00  0.00     0.010 A 
ATOM      3  C2  UNL d   1      -1.795   4.655  -3.814  0.00  0.00     0.041 A 
ATOM      4  C3  UNL d   1      -2.295   3.494  -4.435  0.00  0.00    -0.075 A 
ATOM      5  S   UNL d   1      -1.918   1.859  -4.041  0.00  0.00     0.015 SA
ATOM      6  C4  UNL d   1      -2.942   1.250  -5.259  0.00  0.00     0.022 A 
ATOM      7  C5  UNL d   1      -3.565   2.255  -5.959  0.00  0.00     0.026 A 
ATOM      8  C6  UNL d   1      -3.202   3.566  -5.497  0.00  0.00    -0.082 A 
ATOM      9  C7  UNL d   1      -3.613   4.846  -5.940  0.00  0.00     0.045 A 
ENDROOT
TORSDOF 0
ENDMDL
