MODEL 1
REMARK minimizedAffinity 27.0699902
REMARK minimizedRMSD -1
REMARK  0 active torsions:
REMARK  status: ('A' for Active; 'I' for Inactive)
ROOT
ATOM      1  C   UNL d   1       1.552  -0.201  -3.010  0.00  0.00    -0.002 A 
ATOM      2  C1  UNL d   1       1.531  -1.137  -1.987  0.00  0.00     0.010 A 
ATOM      3  C2  UNL d   1       2.251  -0.920  -0.810  0.00  0.00     0.041 A 
ATOM      4  C3  UNL d   1       2.998   0.267  -0.678  0.00  0.00    -0.075 A 
ATOM      5  S   UNL d   1       3.956   0.748   0.672  0.00  0.00     0.015 SA
ATOM      6  C4  UNL d   1       4.415   2.208  -0.078  0.00  0.00     0.022 A 
ATOM      7  C5  UNL d   1       3.860   2.342  -1.329  0.00  0.00     0.026 A 
ATOM      8  C6  UNL d   1       3.034   1.226  -1.695  0.00  0.00    -0.082 A 
ATOM      9  C7  UNL d   1       2.294   0.975  -2.876  0.00  0.00     0.045 A 
ENDROOT
TORSDOF 0
ENDMDL
