MODEL 1
REMARK minimizedAffinity 7.25637531
REMARK minimizedRMSD -1
REMARK  0 active torsions:
REMARK  status: ('A' for Active; 'I' for Inactive)
ROOT
ATOM      1  C   UNL d   1       5.938   5.588   5.238  0.00  0.00    -0.002 A 
ATOM      2  C1  UNL d   1       5.562   5.803   3.919  0.00  0.00     0.010 A 
ATOM      3  C2  UNL d   1       4.558   5.030   3.332  0.00  0.00     0.041 A 
ATOM      4  C3  UNL d   1       3.931   4.030   4.100  0.00  0.00    -0.075 A 
ATOM      5  S   UNL d   1       2.676   2.963   3.591  0.00  0.00     0.015 SA
ATOM      6  C4  UNL d   1       2.608   2.197   5.113  0.00  0.00     0.022 A 
ATOM      7  C5  UNL d   1       3.514   2.730   5.999  0.00  0.00     0.026 A 
ATOM      8  C6  UNL d   1       4.291   3.795   5.430  0.00  0.00    -0.082 A 
ATOM      9  C7  UNL d   1       5.313   4.595   5.997  0.00  0.00     0.045 A 
ENDROOT
TORSDOF 0
ENDMDL
