MODEL 1
REMARK minimizedAffinity 5.09449005
REMARK minimizedRMSD -1
REMARK  0 active torsions:
REMARK  status: ('A' for Active; 'I' for Inactive)
ROOT
ATOM      1  C   UNL d   1       3.314   1.079  -0.433  0.00  0.00    -0.002 A 
ATOM      2  C1  UNL d   1       2.498   1.638   0.540  0.00  0.00     0.010 A 
ATOM      3  C2  UNL d   1       1.212   1.140   0.761  0.00  0.00     0.041 A 
ATOM      4  C3  UNL d   1       0.757   0.059  -0.018  0.00  0.00    -0.075 A 
ATOM      5  S   UNL d   1      -0.780  -0.717   0.076  0.00  0.00     0.015 SA
ATOM      6  C4  UNL d   1      -0.389  -1.810  -1.172  0.00  0.00     0.022 A 
ATOM      7  C5  UNL d   1       0.879  -1.602  -1.661  0.00  0.00     0.026 A 
ATOM      8  C6  UNL d   1       1.561  -0.522  -1.004  0.00  0.00    -0.082 A 
ATOM      9  C7  UNL d   1       2.859   0.007  -1.204  0.00  0.00     0.045 A 
ENDROOT
TORSDOF 0
ENDMDL
