MODEL 1
REMARK minimizedAffinity 12.2191133
REMARK minimizedRMSD -1
REMARK  0 active torsions:
REMARK  status: ('A' for Active; 'I' for Inactive)
ROOT
ATOM      1  C   UNL d   1       2.744  -0.328  -1.652  0.00  0.00    -0.002 A 
ATOM      2  C1  UNL d   1       2.329  -0.003  -0.368  0.00  0.00     0.010 A 
ATOM      3  C2  UNL d   1       2.982   0.994   0.359  0.00  0.00     0.041 A 
ATOM      4  C3  UNL d   1       4.070   1.666  -0.233  0.00  0.00    -0.075 A 
ATOM      5  S   UNL d   1       5.020   2.923   0.468  0.00  0.00     0.015 SA
ATOM      6  C4  UNL d   1       6.000   3.058  -0.920  0.00  0.00     0.022 A 
ATOM      7  C5  UNL d   1       5.625   2.174  -1.904  0.00  0.00     0.026 A 
ATOM      8  C6  UNL d   1       4.506   1.358  -1.524  0.00  0.00    -0.082 A 
ATOM      9  C7  UNL d   1       3.823   0.341  -2.235  0.00  0.00     0.045 A 
ENDROOT
TORSDOF 0
ENDMDL
