MODEL 1
REMARK minimizedAffinity 14.0832357
REMARK minimizedRMSD -1
REMARK  0 active torsions:
REMARK  status: ('A' for Active; 'I' for Inactive)
ROOT
ATOM      1  C   UNL d   1       0.758   3.002   2.820  0.00  0.00    -0.002 A 
ATOM      2  C1  UNL d   1       0.401   2.701   4.127  0.00  0.00     0.010 A 
ATOM      3  C2  UNL d   1       1.305   2.895   5.172  0.00  0.00     0.041 A 
ATOM      4  C3  UNL d   1       2.586   3.403   4.880  0.00  0.00    -0.075 A 
ATOM      5  S   UNL d   1       3.858   3.723   5.999  0.00  0.00     0.015 SA
ATOM      6  C4  UNL d   1       4.905   4.267   4.769  0.00  0.00     0.022 A 
ATOM      7  C5  UNL d   1       4.315   4.212   3.529  0.00  0.00     0.026 A 
ATOM      8  C6  UNL d   1       2.969   3.714   3.572  0.00  0.00    -0.082 A 
ATOM      9  C7  UNL d   1       2.029   3.505   2.534  0.00  0.00     0.045 A 
ENDROOT
TORSDOF 0
ENDMDL
