MODEL 1
REMARK minimizedAffinity 10.4668007
REMARK minimizedRMSD -1
REMARK  0 active torsions:
REMARK  status: ('A' for Active; 'I' for Inactive)
ROOT
ATOM      1  C   UNL d   1       0.389   1.884   4.694  0.00  0.00    -0.002 A 
ATOM      2  C1  UNL d   1       0.758   2.427   5.917  0.00  0.00     0.010 A 
ATOM      3  C2  UNL d   1       1.806   3.345   5.999  0.00  0.00     0.041 A 
ATOM      4  C3  UNL d   1       2.483   3.714   4.820  0.00  0.00    -0.075 A 
ATOM      5  S   UNL d   1       3.797   4.822   4.679  0.00  0.00     0.015 SA
ATOM      6  C4  UNL d   1       3.899   4.601   2.992  0.00  0.00     0.022 A 
ATOM      7  C5  UNL d   1       2.962   3.708   2.531  0.00  0.00     0.026 A 
ATOM      8  C6  UNL d   1       2.130   3.182   3.577  0.00  0.00    -0.082 A 
ATOM      9  C7  UNL d   1       1.064   2.252   3.527  0.00  0.00     0.045 A 
ENDROOT
TORSDOF 0
ENDMDL
