MODEL 1
REMARK minimizedAffinity 11.0478334
REMARK minimizedRMSD -1
REMARK  0 active torsions:
REMARK  status: ('A' for Active; 'I' for Inactive)
ROOT
ATOM      1  C   UNL d   1       2.240   0.376  -0.176  0.00  0.00    -0.002 A 
ATOM      2  C1  UNL d   1       2.976   0.890   0.882  0.00  0.00     0.010 A 
ATOM      3  C2  UNL d   1       4.156   1.599   0.649  0.00  0.00     0.041 A 
ATOM      4  C3  UNL d   1       4.587   1.786  -0.679  0.00  0.00    -0.075 A 
ATOM      5  S   UNL d   1       6.000   2.622  -1.206  0.00  0.00     0.015 SA
ATOM      6  C4  UNL d   1       5.660   2.317  -2.848  0.00  0.00     0.022 A 
ATOM      7  C5  UNL d   1       4.501   1.596  -3.009  0.00  0.00     0.026 A 
ATOM      8  C6  UNL d   1       3.863   1.278  -1.762  0.00  0.00    -0.082 A 
ATOM      9  C7  UNL d   1       2.671   0.563  -1.492  0.00  0.00     0.045 A 
ENDROOT
TORSDOF 0
ENDMDL
