MODEL 1
REMARK minimizedAffinity 7.81741714
REMARK minimizedRMSD -1
REMARK  0 active torsions:
REMARK  status: ('A' for Active; 'I' for Inactive)
ROOT
ATOM      1  C   UNL d   1      -1.819   1.440  -1.356  0.00  0.00    -0.002 A 
ATOM      2  C1  UNL d   1      -1.676   2.113  -0.151  0.00  0.00     0.010 A 
ATOM      3  C2  UNL d   1      -0.447   2.132   0.511  0.00  0.00     0.041 A 
ATOM      4  C3  UNL d   1       0.648   1.458  -0.065  0.00  0.00    -0.075 A 
ATOM      5  S   UNL d   1       2.249   1.346   0.565  0.00  0.00     0.015 SA
ATOM      6  C4  UNL d   1       2.781   0.403  -0.751  0.00  0.00     0.022 A 
ATOM      7  C5  UNL d   1       1.775   0.169  -1.659  0.00  0.00     0.026 A 
ATOM      8  C6  UNL d   1       0.529   0.774  -1.279  0.00  0.00    -0.082 A 
ATOM      9  C7  UNL d   1      -0.731   0.772  -1.925  0.00  0.00     0.045 A 
ENDROOT
TORSDOF 0
ENDMDL
