MODEL 1
REMARK minimizedAffinity -4.93334436
REMARK minimizedRMSD -1
REMARK  2 active torsions:
REMARK  status: ('A' for Active; 'I' for Inactive)
REMARK    1  A    between atoms: C1_2  and  C2_3 
REMARK    2  A    between atoms: C2_3  and  C3_4 
ROOT
ATOM      1  C3  UNL d   1      -0.287  -0.045   0.067  0.00  0.00    -0.075 A 
ATOM      2  C4  UNL d   1      -1.675   0.099  -0.072  0.00  0.00     0.002 A 
ATOM      3  C5  UNL d   1      -2.454   0.526   1.004  0.00  0.00     0.002 A 
ATOM      4  C6  UNL d   1      -1.858   0.803   2.233  0.00  0.00    -0.004 A 
ATOM      5  C7  UNL d   1      -0.482   0.647   2.387  0.00  0.00     0.002 A 
ATOM      6  C8  UNL d   1       0.300   0.224   1.311  0.00  0.00     0.002 A 
ENDROOT
BRANCH   1   7
ATOM      7  C2  UNL d   1       0.566  -0.478  -1.101  0.00  0.00     0.056 C 
BRANCH   7   8
ATOM      8  C1  UNL d   1       0.022  -0.042  -2.466  0.00  0.00     0.007 C 
ATOM      9  C   UNL d   1       1.109   0.435  -3.420  0.00  0.00     0.009 C 
ENDBRANCH   7   8
ENDBRANCH   1   7
TORSDOF 2
ENDMDL
