MODEL 1
REMARK minimizedAffinity -5.18996668
REMARK minimizedRMSD -1
REMARK  2 active torsions:
REMARK  status: ('A' for Active; 'I' for Inactive)
REMARK    1  A    between atoms: C1_2  and  C2_3 
REMARK    2  A    between atoms: C2_3  and  C3_4 
ROOT
ATOM      1  C3  UNL d   1      -0.054  -0.029   0.323  0.00  0.00    -0.075 A 
ATOM      2  C4  UNL d   1       0.542   0.406   1.517  0.00  0.00     0.002 A 
ATOM      3  C5  UNL d   1      -0.245   0.848   2.581  0.00  0.00     0.002 A 
ATOM      4  C6  UNL d   1      -1.633   0.872   2.462  0.00  0.00    -0.004 A 
ATOM      5  C7  UNL d   1      -2.234   0.459   1.276  0.00  0.00     0.002 A 
ATOM      6  C8  UNL d   1      -1.450   0.011   0.211  0.00  0.00     0.002 A 
ENDROOT
BRANCH   1   7
ATOM      7  C2  UNL d   1       0.790  -0.537  -0.821  0.00  0.00     0.056 C 
BRANCH   7   8
ATOM      8  C1  UNL d   1       0.373   0.006  -2.192  0.00  0.00     0.007 C 
ATOM      9  C   UNL d   1       1.540   0.152  -3.160  0.00  0.00     0.009 C 
ENDBRANCH   7   8
ENDBRANCH   1   7
TORSDOF 2
ENDMDL
