MODEL 1
REMARK minimizedAffinity -4.00591326
REMARK minimizedRMSD -1
REMARK  2 active torsions:
REMARK  status: ('A' for Active; 'I' for Inactive)
REMARK    1  A    between atoms: C1_2  and  C2_3 
REMARK    2  A    between atoms: C2_3  and  C3_4 
ROOT
ATOM      1  C3  UNL d   1       0.019   0.148   0.792  0.00  0.00    -0.075 A 
ATOM      2  C4  UNL d   1       0.841   1.024   1.515  0.00  0.00     0.002 A 
ATOM      3  C5  UNL d   1       0.390   1.600   2.703  0.00  0.00     0.002 A 
ATOM      4  C6  UNL d   1      -0.889   1.317   3.177  0.00  0.00    -0.004 A 
ATOM      5  C7  UNL d   1      -1.720   0.461   2.458  0.00  0.00     0.002 A 
ATOM      6  C8  UNL d   1      -1.270  -0.120   1.271  0.00  0.00     0.002 A 
ENDROOT
BRANCH   1   7
ATOM      7  C2  UNL d   1       0.511  -0.501  -0.479  0.00  0.00     0.056 C 
BRANCH   7   8
ATOM      8  C1  UNL d   1      -0.607  -1.027  -1.385  0.00  0.00     0.007 C 
ATOM      9  C   UNL d   1      -1.123  -2.398  -0.969  0.00  0.00     0.009 C 
ENDBRANCH   7   8
ENDBRANCH   1   7
TORSDOF 2
ENDMDL
