MODEL 1
REMARK minimizedAffinity -4.60417795
REMARK minimizedRMSD -1
REMARK  2 active torsions:
REMARK  status: ('A' for Active; 'I' for Inactive)
REMARK    1  A    between atoms: C1_2  and  C2_3 
REMARK    2  A    between atoms: C2_3  and  C3_4 
ROOT
ATOM      1  C3  UNL d   1      -0.415  -0.241   0.493  0.00  0.00    -0.075 A 
ATOM      2  C4  UNL d   1       0.576   0.550   1.093  0.00  0.00     0.002 A 
ATOM      3  C5  UNL d   1       0.310   1.242   2.275  0.00  0.00     0.002 A 
ATOM      4  C6  UNL d   1      -0.948   1.160   2.866  0.00  0.00    -0.004 A 
ATOM      5  C7  UNL d   1      -1.945   0.390   2.270  0.00  0.00     0.002 A 
ATOM      6  C8  UNL d   1      -1.681  -0.306   1.090  0.00  0.00     0.002 A 
ENDROOT
BRANCH   1   7
ATOM      7  C2  UNL d   1      -0.126  -1.015  -0.771  0.00  0.00     0.056 C 
BRANCH   7   8
ATOM      8  C1  UNL d   1       0.755  -0.264  -1.774  0.00  0.00     0.007 C 
ATOM      9  C   UNL d   1       0.003   0.170  -3.025  0.00  0.00     0.009 C 
ENDBRANCH   7   8
ENDBRANCH   1   7
TORSDOF 2
ENDMDL
