MODEL 1
REMARK minimizedAffinity -5.78841257
REMARK minimizedRMSD -1
REMARK  2 active torsions:
REMARK  status: ('A' for Active; 'I' for Inactive)
REMARK    1  A    between atoms: C1_2  and  C2_3 
REMARK    2  A    between atoms: C2_3  and  C3_4 
ROOT
ATOM      1  C3  UNL d   1      -0.011   0.140   0.578  0.00  0.00    -0.075 A 
ATOM      2  C4  UNL d   1      -1.369  -0.111   0.822  0.00  0.00     0.002 A 
ATOM      3  C5  UNL d   1      -2.025   0.514   1.883  0.00  0.00     0.002 A 
ATOM      4  C6  UNL d   1      -1.332   1.387   2.718  0.00  0.00    -0.004 A 
ATOM      5  C7  UNL d   1       0.022   1.630   2.495  0.00  0.00     0.002 A 
ATOM      6  C8  UNL d   1       0.680   1.010   1.431  0.00  0.00     0.002 A 
ENDROOT
BRANCH   1   7
ATOM      7  C2  UNL d   1       0.698  -0.510  -0.586  0.00  0.00     0.056 C 
BRANCH   7   8
ATOM      8  C1  UNL d   1       0.287   0.044  -1.955  0.00  0.00     0.007 C 
ATOM      9  C   UNL d   1       1.475   0.433  -2.826  0.00  0.00     0.009 C 
ENDBRANCH   7   8
ENDBRANCH   1   7
TORSDOF 2
ENDMDL
