MODEL 1
REMARK minimizedAffinity -4.79891348
REMARK minimizedRMSD -1
REMARK  2 active torsions:
REMARK  status: ('A' for Active; 'I' for Inactive)
REMARK    1  A    between atoms: C1_2  and  C2_3 
REMARK    2  A    between atoms: C2_3  and  C3_4 
ROOT
ATOM      1  C3  UNL d   1      -0.403   0.098   0.546  0.00  0.00    -0.075 A 
ATOM      2  C4  UNL d   1       0.701   0.564   1.277  0.00  0.00     0.002 A 
ATOM      3  C5  UNL d   1       0.520   1.188   2.511  0.00  0.00     0.002 A 
ATOM      4  C6  UNL d   1      -0.762   1.364   3.025  0.00  0.00    -0.004 A 
ATOM      5  C7  UNL d   1      -1.866   0.921   2.301  0.00  0.00     0.002 A 
ATOM      6  C8  UNL d   1      -1.689   0.291   1.068  0.00  0.00     0.002 A 
ENDROOT
BRANCH   1   7
ATOM      7  C2  UNL d   1      -0.212  -0.605  -0.776  0.00  0.00     0.056 C 
BRANCH   7   8
ATOM      8  C1  UNL d   1       0.721   0.129  -1.744  0.00  0.00     0.007 C 
ATOM      9  C   UNL d   1       0.188   0.180  -3.170  0.00  0.00     0.009 C 
ENDBRANCH   7   8
ENDBRANCH   1   7
TORSDOF 2
ENDMDL
