MODEL 1
REMARK minimizedAffinity -4.40626955
REMARK minimizedRMSD -1
REMARK  2 active torsions:
REMARK  status: ('A' for Active; 'I' for Inactive)
REMARK    1  A    between atoms: C1_2  and  C2_3 
REMARK    2  A    between atoms: C2_3  and  C3_4 
ROOT
ATOM      1  C3  UNL d   1       0.288   0.134   0.090  0.00  0.00    -0.075 A 
ATOM      2  C4  UNL d   1      -0.964   0.517   0.594  0.00  0.00     0.002 A 
ATOM      3  C5  UNL d   1      -1.075   1.066   1.871  0.00  0.00     0.002 A 
ATOM      4  C6  UNL d   1       0.059   1.230   2.664  0.00  0.00    -0.004 A 
ATOM      5  C7  UNL d   1       1.305   0.838   2.180  0.00  0.00     0.002 A 
ATOM      6  C8  UNL d   1       1.420   0.292   0.900  0.00  0.00     0.002 A 
ENDROOT
BRANCH   1   7
ATOM      7  C2  UNL d   1       0.419  -0.433  -1.303  0.00  0.00     0.056 C 
BRANCH   7   8
ATOM      8  C1  UNL d   1       1.221   0.451  -2.264  0.00  0.00     0.007 C 
ATOM      9  C   UNL d   1       0.596   0.553  -3.649  0.00  0.00     0.009 C 
ENDBRANCH   7   8
ENDBRANCH   1   7
TORSDOF 2
ENDMDL
