MODEL 1
REMARK minimizedAffinity -3.80052495
REMARK minimizedRMSD -1
REMARK  2 active torsions:
REMARK  status: ('A' for Active; 'I' for Inactive)
REMARK    1  A    between atoms: C1_2  and  C2_3 
REMARK    2  A    between atoms: C2_3  and  C3_4 
ROOT
ATOM      1  C3  UNL d   1      -0.212   0.413   0.601  0.00  0.00    -0.075 A 
ATOM      2  C4  UNL d   1      -1.551   0.274   0.994  0.00  0.00     0.002 A 
ATOM      3  C5  UNL d   1      -2.038   0.962   2.106  0.00  0.00     0.002 A 
ATOM      4  C6  UNL d   1      -1.192   1.788   2.843  0.00  0.00    -0.004 A 
ATOM      5  C7  UNL d   1       0.144   1.921   2.471  0.00  0.00     0.002 A 
ATOM      6  C8  UNL d   1       0.633   1.237   1.356  0.00  0.00     0.002 A 
ENDROOT
BRANCH   1   7
ATOM      7  C2  UNL d   1       0.313  -0.306  -0.619  0.00  0.00     0.056 C 
BRANCH   7   8
ATOM      8  C1  UNL d   1       0.824   0.628  -1.722  0.00  0.00     0.007 C 
ATOM      9  C   UNL d   1      -0.021   0.580  -2.988  0.00  0.00     0.009 C 
ENDBRANCH   7   8
ENDBRANCH   1   7
TORSDOF 2
ENDMDL
