MODEL 1
REMARK minimizedAffinity 13.0532675
REMARK minimizedRMSD -1
REMARK  0 active torsions:
REMARK  status: ('A' for Active; 'I' for Inactive)
ROOT
ATOM      1  C4' PXY d   1       1.895  -0.604  -1.904  0.00  0.00     0.077 C 
ATOM      2  C1' PXY d   1      -3.686  -0.473  -0.405  0.00  0.00     0.077 C 
ATOM      3  C1  PXY d   1      -2.222  -0.495  -0.799  0.00  0.00    -0.082 A 
ATOM      4  C2  PXY d   1      -1.700  -1.595  -1.317  0.00  0.00     0.003 A 
ATOM      5  C3  PXY d   1      -0.371  -1.642  -1.649  0.00  0.00     0.003 A 
ATOM      6  C4  PXY d   1       0.420  -0.534  -1.500  0.00  0.00    -0.082 A 
ATOM      7  C5  PXY d   1      -0.108   0.596  -0.983  0.00  0.00     0.003 A 
ATOM      8  C6  PXY d   1      -1.450   0.610  -0.613  0.00  0.00     0.003 A 
ENDROOT
TORSDOF 0
ENDMDL
