MODEL 1
REMARK minimizedAffinity -3.88585329
REMARK minimizedRMSD -1
REMARK  0 active torsions:
REMARK  status: ('A' for Active; 'I' for Inactive)
ROOT
ATOM      1  C4' PXY d   1       2.295  -4.888   0.449  0.00  0.00     0.077 C 
ATOM      2  C1' PXY d   1       0.888  -1.014  -3.603  0.00  0.00     0.077 C 
ATOM      3  C1  PXY d   1       1.269  -2.027  -2.542  0.00  0.00    -0.082 A 
ATOM      4  C2  PXY d   1       0.440  -3.017  -2.254  0.00  0.00     0.003 A 
ATOM      5  C3  PXY d   1       0.755  -3.924  -1.275  0.00  0.00     0.003 A 
ATOM      6  C4  PXY d   1       1.956  -3.848  -0.621  0.00  0.00    -0.082 A 
ATOM      7  C5  PXY d   1       2.812  -2.847  -0.917  0.00  0.00     0.003 A 
ATOM      8  C6  PXY d   1       2.455  -1.913  -1.885  0.00  0.00     0.003 A 
ENDROOT
TORSDOF 0
ENDMDL
