MODEL 1
REMARK minimizedAffinity 5.95371151
REMARK minimizedRMSD -1
REMARK  0 active torsions:
REMARK  status: ('A' for Active; 'I' for Inactive)
ROOT
ATOM      1  C4' PXY d   1       2.052  -3.572  -4.764  0.00  0.00     0.077 C 
ATOM      2  C1' PXY d   1      -3.133  -5.841  -5.940  0.00  0.00     0.077 C 
ATOM      3  C1  PXY d   1      -1.772  -5.254  -5.622  0.00  0.00    -0.082 A 
ATOM      4  C2  PXY d   1      -1.487  -4.018  -6.000  0.00  0.00     0.003 A 
ATOM      5  C3  PXY d   1      -0.250  -3.484  -5.748  0.00  0.00     0.003 A 
ATOM      6  C4  PXY d   1       0.688  -4.202  -5.056  0.00  0.00    -0.082 A 
ATOM      7  C5  PXY d   1       0.401  -5.459  -4.657  0.00  0.00     0.003 A 
ATOM      8  C6  PXY d   1      -0.846  -5.999  -4.958  0.00  0.00     0.003 A 
ENDROOT
TORSDOF 0
ENDMDL
