MODEL 1
REMARK minimizedAffinity 3.22705221
REMARK minimizedRMSD -1
REMARK  0 active torsions:
REMARK  status: ('A' for Active; 'I' for Inactive)
ROOT
ATOM      1  C4' PXY d   1       3.417  -5.999  -1.013  0.00  0.00     0.077 C 
ATOM      2  C1' PXY d   1       5.230  -1.592  -4.285  0.00  0.00     0.077 C 
ATOM      3  C1  PXY d   1       4.763  -2.756  -3.433  0.00  0.00    -0.082 A 
ATOM      4  C2  PXY d   1       3.563  -2.719  -2.876  0.00  0.00     0.003 A 
ATOM      5  C3  PXY d   1       3.138  -3.748  -2.077  0.00  0.00     0.003 A 
ATOM      6  C4  PXY d   1       3.927  -4.851  -1.889  0.00  0.00    -0.082 A 
ATOM      7  C5  PXY d   1       5.148  -4.901  -2.462  0.00  0.00     0.003 A 
ATOM      8  C6  PXY d   1       5.578  -3.827  -3.236  0.00  0.00     0.003 A 
ENDROOT
TORSDOF 0
ENDMDL
