MODEL 1
REMARK minimizedAffinity 1.57929742
REMARK minimizedRMSD -1
REMARK  0 active torsions:
REMARK  status: ('A' for Active; 'I' for Inactive)
ROOT
ATOM      1  C4' PXY d   1       2.049  -1.139   0.119  0.00  0.00     0.077 C 
ATOM      2  C1' PXY d   1       4.474  -4.980  -3.456  0.00  0.00     0.077 C 
ATOM      3  C1  PXY d   1       3.828  -3.981  -2.517  0.00  0.00    -0.082 A 
ATOM      4  C2  PXY d   1       4.174  -2.706  -2.581  0.00  0.00     0.003 A 
ATOM      5  C3  PXY d   1       3.623  -1.794  -1.718  0.00  0.00     0.003 A 
ATOM      6  C4  PXY d   1       2.669  -2.182  -0.816  0.00  0.00    -0.082 A 
ATOM      7  C5  PXY d   1       2.303  -3.480  -0.752  0.00  0.00     0.003 A 
ATOM      8  C6  PXY d   1       2.904  -4.397  -1.609  0.00  0.00     0.003 A 
ENDROOT
TORSDOF 0
ENDMDL
