MODEL 1
REMARK minimizedAffinity 2.19294596
REMARK minimizedRMSD -1
REMARK  0 active torsions:
REMARK  status: ('A' for Active; 'I' for Inactive)
ROOT
ATOM      1  C4' PXY d   1       3.641  -3.649   0.288  0.00  0.00     0.077 C 
ATOM      2  C1' PXY d   1       5.098  -1.190  -4.737  0.00  0.00     0.077 C 
ATOM      3  C1  PXY d   1       4.728  -1.839  -3.417  0.00  0.00    -0.082 A 
ATOM      4  C2  PXY d   1       3.488  -2.252  -3.216  0.00  0.00     0.003 A 
ATOM      5  C3  PXY d   1       3.128  -2.811  -2.017  0.00  0.00     0.003 A 
ATOM      6  C4  PXY d   1       4.062  -2.998  -1.032  0.00  0.00    -0.082 A 
ATOM      7  C5  PXY d   1       5.332  -2.588  -1.234  0.00  0.00     0.003 A 
ATOM      8  C6  PXY d   1       5.667  -1.986  -2.443  0.00  0.00     0.003 A 
ENDROOT
TORSDOF 0
ENDMDL
