MODEL 1
REMARK minimizedAffinity -2.27570891
REMARK minimizedRMSD -1
REMARK  0 active torsions:
REMARK  status: ('A' for Active; 'I' for Inactive)
ROOT
ATOM      1  C4' PXY d   1       3.820  -1.703  -3.822  0.00  0.00     0.077 C 
ATOM      2  C1' PXY d   1       5.582  -5.964  -0.336  0.00  0.00     0.077 C 
ATOM      3  C1  PXY d   1       5.123  -4.853  -1.261  0.00  0.00    -0.082 A 
ATOM      4  C2  PXY d   1       5.093  -3.606  -0.821  0.00  0.00     0.003 A 
ATOM      5  C3  PXY d   1       4.650  -2.594  -1.633  0.00  0.00     0.003 A 
ATOM      6  C4  PXY d   1       4.285  -2.854  -2.927  0.00  0.00    -0.082 A 
ATOM      7  C5  PXY d   1       4.323  -4.123  -3.387  0.00  0.00     0.003 A 
ATOM      8  C6  PXY d   1       4.736  -5.141  -2.533  0.00  0.00     0.003 A 
ENDROOT
TORSDOF 0
ENDMDL
