MODEL 1
REMARK minimizedAffinity 8.94598198
REMARK minimizedRMSD -1
REMARK  0 active torsions:
REMARK  status: ('A' for Active; 'I' for Inactive)
ROOT
ATOM      1  C4' PXY d   1       1.901  -5.260  -0.265  0.00  0.00     0.077 C 
ATOM      2  C1' PXY d   1       4.802  -1.703  -3.779  0.00  0.00     0.077 C 
ATOM      3  C1  PXY d   1       4.047  -2.630  -2.847  0.00  0.00    -0.082 A 
ATOM      4  C2  PXY d   1       3.599  -3.790  -3.300  0.00  0.00     0.003 A 
ATOM      5  C3  PXY d   1       2.887  -4.627  -2.479  0.00  0.00     0.003 A 
ATOM      6  C4  PXY d   1       2.676  -4.296  -1.167  0.00  0.00    -0.082 A 
ATOM      7  C5  PXY d   1       3.139  -3.119  -0.695  0.00  0.00     0.003 A 
ATOM      8  C6  PXY d   1       3.824  -2.266  -1.555  0.00  0.00     0.003 A 
ENDROOT
TORSDOF 0
ENDMDL
