MODEL 1
REMARK minimizedAffinity 6.9832325
REMARK minimizedRMSD -1
REMARK  0 active torsions:
REMARK  status: ('A' for Active; 'I' for Inactive)
ROOT
ATOM      1  C4' PXY d   1       4.367  -2.163  -4.181  0.00  0.00     0.077 C 
ATOM      2  C1' PXY d   1       3.005  -3.946   1.146  0.00  0.00     0.077 C 
ATOM      3  C1  PXY d   1       3.364  -3.491  -0.255  0.00  0.00    -0.082 A 
ATOM      4  C2  PXY d   1       3.856  -2.277  -0.442  0.00  0.00     0.003 A 
ATOM      5  C3  PXY d   1       4.155  -1.838  -1.706  0.00  0.00     0.003 A 
ATOM      6  C4  PXY d   1       4.000  -2.669  -2.783  0.00  0.00    -0.082 A 
ATOM      7  C5  PXY d   1       3.509  -3.913  -2.599  0.00  0.00     0.003 A 
ATOM      8  C6  PXY d   1       3.172  -4.325  -1.313  0.00  0.00     0.003 A 
ENDROOT
TORSDOF 0
ENDMDL
