MODEL 1
REMARK minimizedAffinity 7.70165157
REMARK minimizedRMSD -1
REMARK  0 active torsions:
REMARK  status: ('A' for Active; 'I' for Inactive)
ROOT
ATOM      1  C4' PXY d   1       6.000  -5.636  -4.358  0.00  0.00     0.077 C 
ATOM      2  C1' PXY d   1       1.815  -4.546  -0.522  0.00  0.00     0.077 C 
ATOM      3  C1  PXY d   1       2.920  -4.836  -1.518  0.00  0.00    -0.082 A 
ATOM      4  C2  PXY d   1       2.929  -4.212  -2.685  0.00  0.00     0.003 A 
ATOM      5  C3  PXY d   1       3.903  -4.486  -3.610  0.00  0.00     0.003 A 
ATOM      6  C4  PXY d   1       4.909  -5.368  -3.317  0.00  0.00    -0.082 A 
ATOM      7  C5  PXY d   1       4.913  -6.000  -2.125  0.00  0.00     0.003 A 
ATOM      8  C6  PXY d   1       3.892  -5.739  -1.215  0.00  0.00     0.003 A 
ENDROOT
TORSDOF 0
ENDMDL
