MODEL 1
REMARK minimizedAffinity 2.94575405
REMARK minimizedRMSD -1
REMARK  0 active torsions:
REMARK  status: ('A' for Active; 'I' for Inactive)
ROOT
ATOM      1  C4' PXY d   1       1.787  -5.995  -2.285  0.00  0.00     0.077 C 
ATOM      2  C1' PXY d   1       5.437  -1.901  -0.459  0.00  0.00     0.077 C 
ATOM      3  C1  PXY d   1       4.475  -2.966  -0.947  0.00  0.00    -0.082 A 
ATOM      4  C2  PXY d   1       4.088  -3.926  -0.122  0.00  0.00     0.003 A 
ATOM      5  C3  PXY d   1       3.244  -4.915  -0.556  0.00  0.00     0.003 A 
ATOM      6  C4  PXY d   1       2.749  -4.893  -1.833  0.00  0.00    -0.082 A 
ATOM      7  C5  PXY d   1       3.131  -3.911  -2.677  0.00  0.00     0.003 A 
ATOM      8  C6  PXY d   1       4.021  -2.940  -2.229  0.00  0.00     0.003 A 
ENDROOT
TORSDOF 0
ENDMDL
