MODEL 1
REMARK minimizedAffinity -6.09191895
REMARK minimizedRMSD -1
REMARK  0 active torsions:
REMARK  status: ('A' for Active; 'I' for Inactive)
ROOT
ATOM      1  N1  IND d   1      -0.632  -0.779   1.492  0.00  0.00    -0.196 N 
ATOM      2  C2  IND d   1      -0.675   0.299   0.651  0.00  0.00     0.054 A 
ATOM      3  C3  IND d   1       0.574   0.648   0.269  0.00  0.00    -0.031 A 
ATOM      4  C4  IND d   1       2.825  -0.472   0.820  0.00  0.00     0.051 A 
ATOM      5  C5  IND d   1       3.377  -1.466   1.578  0.00  0.00    -0.031 A 
ATOM      6  C6  IND d   1       2.605  -2.300   2.361  0.00  0.00     0.015 A 
ATOM      7  C7  IND d   1       1.245  -2.178   2.405  0.00  0.00    -0.016 A 
ATOM      8  C8  IND d   1       0.682  -1.166   1.641  0.00  0.00    -0.047 A 
ATOM      9  C9  IND d   1       1.464  -0.289   0.879  0.00  0.00    -0.096 A 
ATOM     10  HN1 IND d   1      -1.311  -1.152   1.864  0.00  0.00     0.298 HD
ENDROOT
TORSDOF 0
ENDMDL
