MODEL 1
REMARK minimizedAffinity -4.34582281
REMARK minimizedRMSD -1
REMARK  0 active torsions:
REMARK  status: ('A' for Active; 'I' for Inactive)
ROOT
ATOM      1  N1  IND d   1      -0.609  -0.690   0.930  0.00  0.00    -0.196 N 
ATOM      2  C2  IND d   1      -0.562   0.387   0.089  0.00  0.00     0.054 A 
ATOM      3  C3  IND d   1       0.714   0.808  -0.065  0.00  0.00    -0.031 A 
ATOM      4  C4  IND d   1       2.890  -0.185   0.887  0.00  0.00     0.051 A 
ATOM      5  C5  IND d   1       3.352  -1.150   1.738  0.00  0.00    -0.031 A 
ATOM      6  C6  IND d   1       2.500  -2.030   2.374  0.00  0.00     0.015 A 
ATOM      7  C7  IND d   1       1.150  -1.985   2.173  0.00  0.00    -0.016 A 
ATOM      8  C8  IND d   1       0.676  -1.003   1.315  0.00  0.00    -0.047 A 
ATOM      9  C9  IND d   1       1.532  -0.079   0.700  0.00  0.00    -0.096 A 
ATOM     10  HN1 IND d   1      -1.322  -1.103   1.177  0.00  0.00     0.298 HD
ENDROOT
TORSDOF 0
ENDMDL
