MODEL 1
REMARK minimizedAffinity -5.0920372
REMARK minimizedRMSD -1
REMARK  0 active torsions:
REMARK  status: ('A' for Active; 'I' for Inactive)
ROOT
ATOM      1  N1  IND d   1      -0.905   0.278  -0.023  0.00  0.00    -0.196 N 
ATOM      2  C2  IND d   1      -1.566  -0.727   0.628  0.00  0.00     0.054 A 
ATOM      3  C3  IND d   1      -0.684  -1.593   1.174  0.00  0.00    -0.031 A 
ATOM      4  C4  IND d   1       1.889  -1.503   1.210  0.00  0.00     0.051 A 
ATOM      5  C5  IND d   1       2.949  -0.794   0.719  0.00  0.00    -0.031 A 
ATOM      6  C6  IND d   1       2.775   0.333  -0.059  0.00  0.00     0.015 A 
ATOM      7  C7  IND d   1       1.529   0.801  -0.366  0.00  0.00    -0.016 A 
ATOM      8  C8  IND d   1       0.450   0.080   0.126  0.00  0.00    -0.047 A 
ATOM      9  C9  IND d   1       0.620  -1.089   0.880  0.00  0.00    -0.096 A 
ATOM     10  HN1 IND d   1      -1.274   0.924  -0.454  0.00  0.00     0.298 HD
ENDROOT
TORSDOF 0
ENDMDL
