MODEL 1
REMARK minimizedAffinity -0.516370654
REMARK minimizedRMSD -1
REMARK  0 active torsions:
REMARK  status: ('A' for Active; 'I' for Inactive)
ROOT
ATOM      1  N1  IND d   1       2.001   1.718   1.091  0.00  0.00    -0.196 N 
ATOM      2  C2  IND d   1       2.942   1.283   1.982  0.00  0.00     0.054 A 
ATOM      3  C3  IND d   1       2.666   0.021   2.379  0.00  0.00    -0.031 A 
ATOM      4  C4  IND d   1       0.779  -1.557   1.620  0.00  0.00     0.051 A 
ATOM      5  C5  IND d   1      -0.348  -1.595   0.847  0.00  0.00    -0.031 A 
ATOM      6  C6  IND d   1      -0.756  -0.509   0.100  0.00  0.00     0.015 A 
ATOM      7  C7  IND d   1      -0.043   0.656   0.088  0.00  0.00    -0.016 A 
ATOM      8  C8  IND d   1       1.098   0.700   0.876  0.00  0.00    -0.047 A 
ATOM      9  C9  IND d   1       1.494  -0.384   1.670  0.00  0.00    -0.096 A 
ATOM     10  HN1 IND d   1       1.977   2.496   0.727  0.00  0.00     0.298 HD
ENDROOT
TORSDOF 0
ENDMDL
