MODEL 1
REMARK minimizedAffinity -2.13072252
REMARK minimizedRMSD -1
REMARK  0 active torsions:
REMARK  status: ('A' for Active; 'I' for Inactive)
ROOT
ATOM      1  N1  IND d   1      -1.407  -0.632   0.348  0.00  0.00    -0.196 N 
ATOM      2  C2  IND d   1      -0.296   0.152   0.205  0.00  0.00     0.054 A 
ATOM      3  C3  IND d   1      -0.191   0.589  -1.070  0.00  0.00    -0.031 A 
ATOM      4  C4  IND d   1      -1.782   0.225  -3.061  0.00  0.00     0.051 A 
ATOM      5  C5  IND d   1      -2.912  -0.452  -3.427  0.00  0.00    -0.031 A 
ATOM      6  C6  IND d   1      -3.613  -1.237  -2.535  0.00  0.00     0.015 A 
ATOM      7  C7  IND d   1      -3.215  -1.366  -1.234  0.00  0.00    -0.016 A 
ATOM      8  C8  IND d   1      -2.065  -0.686  -0.861  0.00  0.00    -0.047 A 
ATOM      9  C9  IND d   1      -1.325   0.078  -1.773  0.00  0.00    -0.096 A 
ATOM     10  HN1 IND d   1      -1.653  -1.025   1.072  0.00  0.00     0.298 HD
ENDROOT
TORSDOF 0
ENDMDL
