MODEL 1
REMARK minimizedAffinity -5.08761644
REMARK minimizedRMSD -1
REMARK  0 active torsions:
REMARK  status: ('A' for Active; 'I' for Inactive)
ROOT
ATOM      1  N1  IND d   1      -0.753   0.211   0.739  0.00  0.00    -0.196 N 
ATOM      2  C2  IND d   1       0.515  -0.099   0.335  0.00  0.00     0.054 A 
ATOM      3  C3  IND d   1       1.249   1.027   0.186  0.00  0.00    -0.031 A 
ATOM      4  C4  IND d   1       0.601   3.475   0.648  0.00  0.00     0.051 A 
ATOM      5  C5  IND d   1      -0.461   4.261   0.997  0.00  0.00    -0.031 A 
ATOM      6  C6  IND d   1      -1.699   3.726   1.287  0.00  0.00     0.015 A 
ATOM      7  C7  IND d   1      -1.920   2.378   1.249  0.00  0.00    -0.016 A 
ATOM      8  C8  IND d   1      -0.845   1.578   0.888  0.00  0.00    -0.047 A 
ATOM      9  C9  IND d   1       0.403   2.118   0.551  0.00  0.00    -0.096 A 
ATOM     10  HN1 IND d   1      -1.388  -0.353   0.877  0.00  0.00     0.298 HD
ENDROOT
TORSDOF 0
ENDMDL
