MODEL 1
REMARK minimizedAffinity 1.16391635
REMARK minimizedRMSD -1
REMARK  0 active torsions:
REMARK  status: ('A' for Active; 'I' for Inactive)
ROOT
ATOM      1  N1  IND d   1      -1.789   1.031   0.480  0.00  0.00    -0.196 N 
ATOM      2  C2  IND d   1      -1.137   2.166   0.085  0.00  0.00     0.054 A 
ATOM      3  C3  IND d   1       0.173   1.906  -0.127  0.00  0.00    -0.031 A 
ATOM      4  C4  IND d   1       1.440  -0.330   0.016  0.00  0.00     0.051 A 
ATOM      5  C5  IND d   1       1.278  -1.640   0.373  0.00  0.00    -0.031 A 
ATOM      6  C6  IND d   1       0.060  -2.136   0.790  0.00  0.00     0.015 A 
ATOM      7  C7  IND d   1      -1.049  -1.341   0.855  0.00  0.00    -0.016 A 
ATOM      8  C8  IND d   1      -0.886  -0.009   0.500  0.00  0.00    -0.047 A 
ATOM      9  C9  IND d   1       0.357   0.510   0.116  0.00  0.00    -0.096 A 
ATOM     10  HN1 IND d   1      -2.623   0.977   0.683  0.00  0.00     0.298 HD
ENDROOT
TORSDOF 0
ENDMDL
