MODEL 1
REMARK minimizedAffinity -4.60174847
REMARK minimizedRMSD -1
REMARK  0 active torsions:
REMARK  status: ('A' for Active; 'I' for Inactive)
ROOT
ATOM      1  N1  IND d   1      -0.568   1.186   0.316  0.00  0.00    -0.196 N 
ATOM      2  C2  IND d   1       0.000   2.419   0.479  0.00  0.00     0.054 A 
ATOM      3  C3  IND d   1       1.319   2.296   0.751  0.00  0.00    -0.031 A 
ATOM      4  C4  IND d   1       2.773   0.175   0.874  0.00  0.00     0.051 A 
ATOM      5  C5  IND d   1       2.694  -1.189   0.831  0.00  0.00    -0.031 A 
ATOM      6  C6  IND d   1       1.501  -1.844   0.606  0.00  0.00     0.015 A 
ATOM      7  C7  IND d   1       0.338  -1.156   0.405  0.00  0.00    -0.016 A 
ATOM      8  C8  IND d   1       0.412   0.229   0.455  0.00  0.00    -0.047 A 
ATOM      9  C9  IND d   1       1.613   0.898   0.724  0.00  0.00    -0.096 A 
ATOM     10  HN1 IND d   1      -1.399   1.035   0.153  0.00  0.00     0.298 HD
ENDROOT
TORSDOF 0
ENDMDL
