MODEL 1
REMARK minimizedAffinity -1.15956354
REMARK minimizedRMSD -1
REMARK  0 active torsions:
REMARK  status: ('A' for Active; 'I' for Inactive)
ROOT
ATOM      1  O1  BZF d   1      -0.872   2.070   0.218  0.00  0.00    -0.204 OA
ATOM      2  C2  BZF d   1      -1.360   2.145   1.508  0.00  0.00     0.174 A 
ATOM      3  C3  BZF d   1      -1.193   0.972   2.153  0.00  0.00    -0.012 A 
ATOM      4  C3A BZF d   1      -0.477   0.139   1.236  0.00  0.00    -0.107 A 
ATOM      5  C4  BZF d   1      -0.002  -1.140   1.304  0.00  0.00     0.055 A 
ATOM      6  C5  BZF d   1       0.590  -1.684   0.209  0.00  0.00    -0.016 A 
ATOM      7  C6  BZF d   1       0.718  -0.981  -0.971  0.00  0.00     0.022 A 
ATOM      8  C7  BZF d   1       0.267   0.292  -1.086  0.00  0.00     0.029 A 
ATOM      9  C7A BZF d   1      -0.302   0.856   0.030  0.00  0.00     0.058 A 
ENDROOT
TORSDOF 0
ENDMDL
