MODEL 1
REMARK minimizedAffinity -3.50299835
REMARK minimizedRMSD -1
REMARK  0 active torsions:
REMARK  status: ('A' for Active; 'I' for Inactive)
ROOT
ATOM      1  O1  BZF d   1       0.484   0.764  -0.592  0.00  0.00    -0.204 OA
ATOM      2  C2  BZF d   1       0.423  -0.509  -0.060  0.00  0.00     0.174 A 
ATOM      3  C3  BZF d   1      -0.380  -0.537   1.023  0.00  0.00    -0.012 A 
ATOM      4  C3A BZF d   1      -0.924   0.783   1.123  0.00  0.00    -0.107 A 
ATOM      5  C4  BZF d   1      -1.802   1.374   1.986  0.00  0.00     0.055 A 
ATOM      6  C5  BZF d   1      -2.068   2.700   1.851  0.00  0.00    -0.016 A 
ATOM      7  C6  BZF d   1      -1.472   3.464   0.870  0.00  0.00     0.022 A 
ATOM      8  C7  BZF d   1      -0.598   2.921  -0.012  0.00  0.00     0.029 A 
ATOM      9  C7A BZF d   1      -0.352   1.575   0.100  0.00  0.00     0.058 A 
ENDROOT
TORSDOF 0
ENDMDL
