MODEL 1
REMARK minimizedAffinity -0.913987637
REMARK minimizedRMSD -1
REMARK  0 active torsions:
REMARK  status: ('A' for Active; 'I' for Inactive)
ROOT
ATOM      1  O1  BZF d   1      -1.078  -3.577  -1.134  0.00  0.00    -0.204 OA
ATOM      2  C2  BZF d   1      -0.414  -3.895  -2.303  0.00  0.00     0.174 A 
ATOM      3  C3  BZF d   1       0.375  -2.875  -2.697  0.00  0.00    -0.012 A 
ATOM      4  C3A BZF d   1       0.263  -1.891  -1.664  0.00  0.00    -0.107 A 
ATOM      5  C4  BZF d   1       0.824  -0.660  -1.474  0.00  0.00     0.055 A 
ATOM      6  C5  BZF d   1       0.450   0.077  -0.396  0.00  0.00    -0.016 A 
ATOM      7  C6  BZF d   1      -0.485  -0.383   0.509  0.00  0.00     0.022 A 
ATOM      8  C7  BZF d   1      -1.064  -1.600   0.366  0.00  0.00     0.029 A 
ATOM      9  C7A BZF d   1      -0.664  -2.361  -0.705  0.00  0.00     0.058 A 
ENDROOT
TORSDOF 0
ENDMDL
