MODEL 1
REMARK minimizedAffinity -3.46715307
REMARK minimizedRMSD -1
REMARK  0 active torsions:
REMARK  status: ('A' for Active; 'I' for Inactive)
ROOT
ATOM      1  O1  BZF d   1      -0.418   2.619   0.318  0.00  0.00    -0.204 OA
ATOM      2  C2  BZF d   1      -1.154   2.522   1.483  0.00  0.00     0.174 A 
ATOM      3  C3  BZF d   1      -1.182   1.249   1.927  0.00  0.00    -0.012 A 
ATOM      4  C3A BZF d   1      -0.338   0.520   1.031  0.00  0.00    -0.107 A 
ATOM      5  C4  BZF d   1       0.047  -0.789   0.959  0.00  0.00     0.055 A 
ATOM      6  C5  BZF d   1       0.820  -1.193  -0.082  0.00  0.00    -0.016 A 
ATOM      7  C6  BZF d   1       1.222  -0.319  -1.071  0.00  0.00     0.022 A 
ATOM      8  C7  BZF d   1       0.869   0.989  -1.040  0.00  0.00     0.029 A 
ATOM      9  C7A BZF d   1       0.115   1.408   0.029  0.00  0.00     0.058 A 
ENDROOT
TORSDOF 0
ENDMDL
