MODEL 1
REMARK minimizedAffinity -0.954339445
REMARK minimizedRMSD -1
REMARK  0 active torsions:
REMARK  status: ('A' for Active; 'I' for Inactive)
ROOT
ATOM      1  O1  BZF d   1      -0.725   2.546   0.478  0.00  0.00    -0.204 OA
ATOM      2  C2  BZF d   1      -1.270   2.542   1.747  0.00  0.00     0.174 A 
ATOM      3  C3  BZF d   1      -1.210   1.309   2.290  0.00  0.00    -0.012 A 
ATOM      4  C3A BZF d   1      -0.505   0.511   1.334  0.00  0.00    -0.107 A 
ATOM      5  C4  BZF d   1      -0.117  -0.798   1.308  0.00  0.00     0.055 A 
ATOM      6  C5  BZF d   1       0.491  -1.284   0.194  0.00  0.00    -0.016 A 
ATOM      7  C6  BZF d   1       0.722  -0.492  -0.911  0.00  0.00     0.022 A 
ATOM      8  C7  BZF d   1       0.360   0.814  -0.930  0.00  0.00     0.029 A 
ATOM      9  C7A BZF d   1      -0.225   1.316   0.206  0.00  0.00     0.058 A 
ENDROOT
TORSDOF 0
ENDMDL
