MODEL 1
REMARK minimizedAffinity -2.93168116
REMARK minimizedRMSD -1
REMARK  0 active torsions:
REMARK  status: ('A' for Active; 'I' for Inactive)
ROOT
ATOM      1  O1  BZF d   1      -1.281   1.382   1.200  0.00  0.00    -0.204 OA
ATOM      2  C2  BZF d   1      -1.196   0.391   2.159  0.00  0.00     0.174 A 
ATOM      3  C3  BZF d   1      -0.392  -0.609   1.743  0.00  0.00    -0.012 A 
ATOM      4  C3A BZF d   1       0.126  -0.175   0.482  0.00  0.00    -0.107 A 
ATOM      5  C4  BZF d   1       0.993  -0.728  -0.417  0.00  0.00     0.055 A 
ATOM      6  C5  BZF d   1       1.234  -0.079  -1.586  0.00  0.00    -0.016 A 
ATOM      7  C6  BZF d   1       0.624   1.119  -1.891  0.00  0.00     0.022 A 
ATOM      8  C7  BZF d   1      -0.239   1.709  -1.029  0.00  0.00     0.029 A 
ATOM      9  C7A BZF d   1      -0.460   1.073   0.168  0.00  0.00     0.058 A 
ENDROOT
TORSDOF 0
ENDMDL
