MODEL 1
REMARK minimizedAffinity -3.59450531
REMARK minimizedRMSD -1
REMARK  0 active torsions:
REMARK  status: ('A' for Active; 'I' for Inactive)
ROOT
ATOM      1  O1  BZF d   1      -1.387  -3.114  -1.582  0.00  0.00    -0.204 OA
ATOM      2  C2  BZF d   1      -0.565  -3.636  -2.562  0.00  0.00     0.174 A 
ATOM      3  C3  BZF d   1       0.603  -2.963  -2.615  0.00  0.00    -0.012 A 
ATOM      4  C3A BZF d   1       0.541  -2.017  -1.544  0.00  0.00    -0.107 A 
ATOM      5  C4  BZF d   1       1.408  -1.072  -1.075  0.00  0.00     0.055 A 
ATOM      6  C5  BZF d   1       1.015  -0.262  -0.057  0.00  0.00    -0.016 A 
ATOM      7  C6  BZF d   1      -0.238  -0.365   0.511  0.00  0.00     0.022 A 
ATOM      8  C7  BZF d   1      -1.131  -1.291   0.082  0.00  0.00     0.029 A 
ATOM      9  C7A BZF d   1      -0.724  -2.133  -0.924  0.00  0.00     0.058 A 
ENDROOT
TORSDOF 0
ENDMDL
