MODEL 1
REMARK minimizedAffinity 1.2972163
REMARK minimizedRMSD -1
REMARK  0 active torsions:
REMARK  status: ('A' for Active; 'I' for Inactive)
ROOT
ATOM      1  O1  BZF d   1      -0.730  -0.212   2.088  0.00  0.00    -0.204 OA
ATOM      2  C2  BZF d   1      -1.460   0.831   2.624  0.00  0.00     0.174 A 
ATOM      3  C3  BZF d   1      -1.417   1.910   1.816  0.00  0.00    -0.012 A 
ATOM      4  C3A BZF d   1      -0.685   1.487   0.662  0.00  0.00    -0.107 A 
ATOM      5  C4  BZF d   1      -0.322   2.107  -0.499  0.00  0.00     0.055 A 
ATOM      6  C5  BZF d   1       0.453   1.437  -1.392  0.00  0.00    -0.016 A 
ATOM      7  C6  BZF d   1       0.888   0.150  -1.153  0.00  0.00     0.022 A 
ATOM      8  C7  BZF d   1       0.549  -0.509  -0.018  0.00  0.00     0.029 A 
ATOM      9  C7A BZF d   1      -0.261   0.154   0.871  0.00  0.00     0.058 A 
ENDROOT
TORSDOF 0
ENDMDL
