MODEL 1
REMARK minimizedAffinity -4.3720479
REMARK minimizedRMSD -1
REMARK  0 active torsions:
REMARK  status: ('A' for Active; 'I' for Inactive)
ROOT
ATOM      1  O1  BZF d   1      -1.868   2.058  -0.027  0.00  0.00    -0.204 OA
ATOM      2  C2  BZF d   1      -2.169   2.118   1.320  0.00  0.00     0.174 A 
ATOM      3  C3  BZF d   1      -1.581   1.105   1.988  0.00  0.00    -0.012 A 
ATOM      4  C3A BZF d   1      -0.792   0.418   1.011  0.00  0.00    -0.107 A 
ATOM      5  C4  BZF d   1       0.036  -0.666   1.066  0.00  0.00     0.055 A 
ATOM      6  C5  BZF d   1       0.598  -1.127  -0.082  0.00  0.00    -0.016 A 
ATOM      7  C6  BZF d   1       0.349  -0.533  -1.302  0.00  0.00     0.022 A 
ATOM      8  C7  BZF d   1      -0.461   0.548  -1.406  0.00  0.00     0.029 A 
ATOM      9  C7A BZF d   1      -1.004   1.037  -0.243  0.00  0.00     0.058 A 
ENDROOT
TORSDOF 0
ENDMDL
