MODEL 1
REMARK minimizedAffinity -3.83975482
REMARK minimizedRMSD -1
REMARK  0 active torsions:
REMARK  status: ('A' for Active; 'I' for Inactive)
ROOT
ATOM      1  O1  BZF d   1      -0.186   0.691   0.437  0.00  0.00    -0.204 OA
ATOM      2  C2  BZF d   1       0.016  -0.202   1.472  0.00  0.00     0.174 A 
ATOM      3  C3  BZF d   1       0.361  -1.416   0.995  0.00  0.00    -0.012 A 
ATOM      4  C3A BZF d   1       0.466  -1.248  -0.421  0.00  0.00    -0.107 A 
ATOM      5  C4  BZF d   1       0.793  -2.091  -1.445  0.00  0.00     0.055 A 
ATOM      6  C5  BZF d   1       0.731  -1.633  -2.723  0.00  0.00    -0.016 A 
ATOM      7  C6  BZF d   1       0.342  -0.341  -3.014  0.00  0.00     0.022 A 
ATOM      8  C7  BZF d   1       0.014   0.533  -2.032  0.00  0.00     0.029 A 
ATOM      9  C7A BZF d   1       0.107   0.083  -0.737  0.00  0.00     0.058 A 
ENDROOT
TORSDOF 0
ENDMDL
