MODEL 1
REMARK minimizedAffinity -2.97587252
REMARK minimizedRMSD -1
REMARK  0 active torsions:
REMARK  status: ('A' for Active; 'I' for Inactive)
ROOT
ATOM      1  O1  BZF d   1       0.051   2.458  -0.723  0.00  0.00    -0.204 OA
ATOM      2  C2  BZF d   1      -0.001   3.747  -0.228  0.00  0.00     0.174 A 
ATOM      3  C3  BZF d   1      -0.540   3.764   1.008  0.00  0.00    -0.012 A 
ATOM      4  C3A BZF d   1      -0.759   2.390   1.341  0.00  0.00    -0.107 A 
ATOM      5  C4  BZF d   1      -1.258   1.760   2.445  0.00  0.00     0.055 A 
ATOM      6  C5  BZF d   1      -1.407   0.409   2.424  0.00  0.00    -0.016 A 
ATOM      7  C6  BZF d   1      -1.073  -0.341   1.315  0.00  0.00     0.022 A 
ATOM      8  C7  BZF d   1      -0.569   0.239   0.199  0.00  0.00     0.029 A 
ATOM      9  C7A BZF d   1      -0.386   1.600   0.229  0.00  0.00     0.058 A 
ENDROOT
TORSDOF 0
ENDMDL
