MODEL 1
REMARK minimizedAffinity -3.07473159
REMARK minimizedRMSD -1
REMARK  0 active torsions:
REMARK  status: ('A' for Active; 'I' for Inactive)
ROOT
ATOM      1  O1  BZF d   1      -0.530  -0.304  -1.233  0.00  0.00    -0.204 OA
ATOM      2  C2  BZF d   1       0.136   0.050  -0.076  0.00  0.00     0.174 A 
ATOM      3  C3  BZF d   1       0.991  -0.923   0.301  0.00  0.00    -0.012 A 
ATOM      4  C3A BZF d   1       0.917  -1.909  -0.732  0.00  0.00    -0.107 A 
ATOM      5  C4  BZF d   1       1.544  -3.105  -0.935  0.00  0.00     0.055 A 
ATOM      6  C5  BZF d   1       1.194  -3.862  -2.008  0.00  0.00    -0.016 A 
ATOM      7  C6  BZF d   1       0.218  -3.456  -2.894  0.00  0.00     0.022 A 
ATOM      8  C7  BZF d   1      -0.429  -2.275  -2.738  0.00  0.00     0.029 A 
ATOM      9  C7A BZF d   1      -0.054  -1.493  -1.673  0.00  0.00     0.058 A 
ENDROOT
TORSDOF 0
ENDMDL
