MODEL 1
REMARK minimizedAffinity -2.25893855
REMARK minimizedRMSD -1
REMARK  0 active torsions:
REMARK  status: ('A' for Active; 'I' for Inactive)
ROOT
ATOM      1  O1  BZF d   1       0.436   1.129   0.783  0.00  0.00    -0.204 OA
ATOM      2  C2  BZF d   1      -0.691   1.398   1.535  0.00  0.00     0.174 A 
ATOM      3  C3  BZF d   1      -1.675   0.519   1.254  0.00  0.00    -0.012 A 
ATOM      4  C3A BZF d   1      -1.097  -0.410   0.332  0.00  0.00    -0.107 A 
ATOM      5  C4  BZF d   1      -1.572  -1.523  -0.301  0.00  0.00     0.055 A 
ATOM      6  C5  BZF d   1      -0.776  -2.165  -1.196  0.00  0.00    -0.016 A 
ATOM      7  C6  BZF d   1       0.498  -1.719  -1.484  0.00  0.00     0.022 A 
ATOM      8  C7  BZF d   1       1.015  -0.623  -0.877  0.00  0.00     0.029 A 
ATOM      9  C7A BZF d   1       0.224   0.008   0.052  0.00  0.00     0.058 A 
ENDROOT
TORSDOF 0
ENDMDL
