MODEL 1
REMARK minimizedAffinity -6.18568945
REMARK minimizedRMSD -1
REMARK  0 active torsions:
REMARK  status: ('A' for Active; 'I' for Inactive)
ROOT
ATOM      1  O1  BZF d   1       0.818   0.854  -0.831  0.00  0.00    -0.204 OA
ATOM      2  C2  BZF d   1       0.494  -0.393  -0.335  0.00  0.00     0.174 A 
ATOM      3  C3  BZF d   1      -0.352  -0.288   0.710  0.00  0.00    -0.012 A 
ATOM      4  C3A BZF d   1      -0.643   1.109   0.819  0.00  0.00    -0.107 A 
ATOM      5  C4  BZF d   1      -1.436   1.840   1.657  0.00  0.00     0.055 A 
ATOM      6  C5  BZF d   1      -1.442   3.195   1.544  0.00  0.00    -0.016 A 
ATOM      7  C6  BZF d   1      -0.667   3.850   0.610  0.00  0.00     0.022 A 
ATOM      8  C7  BZF d   1       0.131   3.167  -0.246  0.00  0.00     0.029 A 
ATOM      9  C7A BZF d   1       0.115   1.796  -0.157  0.00  0.00     0.058 A 
ENDROOT
TORSDOF 0
ENDMDL
