MODEL 1
REMARK minimizedAffinity -5.52795124
REMARK minimizedRMSD -1
REMARK  0 active torsions:
REMARK  status: ('A' for Active; 'I' for Inactive)
ROOT
ATOM      1  O1  BZF d   1      -1.338   1.811   2.258  0.00  0.00    -0.204 OA
ATOM      2  C2  BZF d   1      -1.162   0.448   2.397  0.00  0.00     0.174 A 
ATOM      3  C3  BZF d   1      -0.550  -0.068   1.311  0.00  0.00    -0.012 A 
ATOM      4  C3A BZF d   1      -0.247   1.056   0.480  0.00  0.00    -0.107 A 
ATOM      5  C4  BZF d   1       0.375   1.189  -0.729  0.00  0.00     0.055 A 
ATOM      6  C5  BZF d   1       0.446   2.419  -1.303  0.00  0.00    -0.016 A 
ATOM      7  C6  BZF d   1      -0.098   3.534  -0.700  0.00  0.00     0.022 A 
ATOM      8  C7  BZF d   1      -0.720   3.452   0.502  0.00  0.00     0.029 A 
ATOM      9  C7A BZF d   1      -0.764   2.217   1.100  0.00  0.00     0.058 A 
ENDROOT
TORSDOF 0
ENDMDL
