MODEL 1
REMARK minimizedAffinity -2.42950606
REMARK minimizedRMSD -1
REMARK  0 active torsions:
REMARK  status: ('A' for Active; 'I' for Inactive)
ROOT
ATOM      1  O1  BZF d   1      -0.256  -0.123  -1.400  0.00  0.00    -0.204 OA
ATOM      2  C2  BZF d   1       0.471   0.309  -0.307  0.00  0.00     0.174 A 
ATOM      3  C3  BZF d   1       1.191  -0.702   0.219  0.00  0.00    -0.012 A 
ATOM      4  C3A BZF d   1       0.968  -1.816  -0.652  0.00  0.00    -0.107 A 
ATOM      5  C4  BZF d   1       1.425  -3.102  -0.665  0.00  0.00     0.055 A 
ATOM      6  C5  BZF d   1       0.958  -3.959  -1.612  0.00  0.00    -0.016 A 
ATOM      7  C6  BZF d   1       0.032  -3.564  -2.555  0.00  0.00     0.022 A 
ATOM      8  C7  BZF d   1      -0.447  -2.296  -2.584  0.00  0.00     0.029 A 
ATOM      9  C7A BZF d   1       0.048  -1.419  -1.649  0.00  0.00     0.058 A 
ENDROOT
TORSDOF 0
ENDMDL
