MODEL 1
REMARK minimizedAffinity 0.234040141
REMARK minimizedRMSD -1
REMARK  0 active torsions:
REMARK  status: ('A' for Active; 'I' for Inactive)
ROOT
ATOM      1  N1  IND d   1      -0.970   1.508   0.015  0.00  0.00    -0.196 N 
ATOM      2  C2  IND d   1      -0.899   1.578   1.379  0.00  0.00     0.054 A 
ATOM      3  C3  IND d   1      -0.398   2.773   1.763  0.00  0.00    -0.031 A 
ATOM      4  C4  IND d   1       0.277   4.801   0.328  0.00  0.00     0.051 A 
ATOM      5  C5  IND d   1       0.424   5.201  -0.970  0.00  0.00    -0.031 A 
ATOM      6  C6  IND d   1       0.105   4.374  -2.028  0.00  0.00     0.015 A 
ATOM      7  C7  IND d   1      -0.386   3.116  -1.826  0.00  0.00    -0.016 A 
ATOM      8  C8  IND d   1      -0.530   2.704  -0.508  0.00  0.00    -0.047 A 
ATOM      9  C9  IND d   1      -0.168   3.523   0.569  0.00  0.00    -0.096 A 
ATOM     10  HN1 IND d   1      -1.244   0.831  -0.439  0.00  0.00     0.298 HD
ENDROOT
TORSDOF 0
ENDMDL
