MODEL 1
REMARK minimizedAffinity -1.94035864
REMARK minimizedRMSD -1
REMARK  0 active torsions:
REMARK  status: ('A' for Active; 'I' for Inactive)
ROOT
ATOM      1  N1  IND d   1       0.653   4.366  -0.946  0.00  0.00    -0.196 N 
ATOM      2  C2  IND d   1      -0.188   3.738  -1.822  0.00  0.00     0.054 A 
ATOM      3  C3  IND d   1      -0.882   2.764  -1.191  0.00  0.00    -0.031 A 
ATOM      4  C4  IND d   1      -0.871   2.096   1.295  0.00  0.00     0.051 A 
ATOM      5  C5  IND d   1      -0.238   2.357   2.478  0.00  0.00    -0.031 A 
ATOM      6  C6  IND d   1       0.742   3.323   2.583  0.00  0.00     0.015 A 
ATOM      7  C7  IND d   1       1.119   4.075   1.506  0.00  0.00    -0.016 A 
ATOM      8  C8  IND d   1       0.484   3.807   0.302  0.00  0.00    -0.047 A 
ATOM      9  C9  IND d   1      -0.481   2.799   0.180  0.00  0.00    -0.096 A 
ATOM     10  HN1 IND d   1       1.197   5.003  -1.142  0.00  0.00     0.298 HD
ENDROOT
TORSDOF 0
ENDMDL
