MODEL 1
REMARK minimizedAffinity 0.50033325
REMARK minimizedRMSD -1
REMARK  0 active torsions:
REMARK  status: ('A' for Active; 'I' for Inactive)
ROOT
ATOM      1  N1  IND d   1       0.136   2.188   1.751  0.00  0.00    -0.196 N 
ATOM      2  C2  IND d   1       0.066   3.078   2.787  0.00  0.00     0.054 A 
ATOM      3  C3  IND d   1      -0.042   4.341   2.316  0.00  0.00    -0.031 A 
ATOM      4  C4  IND d   1      -0.224   5.170  -0.115  0.00  0.00     0.051 A 
ATOM      5  C5  IND d   1      -0.170   4.733  -1.409  0.00  0.00    -0.031 A 
ATOM      6  C6  IND d   1      -0.011   3.399  -1.722  0.00  0.00     0.015 A 
ATOM      7  C7  IND d   1       0.089   2.446  -0.748  0.00  0.00    -0.016 A 
ATOM      8  C8  IND d   1       0.042   2.886   0.567  0.00  0.00    -0.047 A 
ATOM      9  C9  IND d   1      -0.077   4.244   0.891  0.00  0.00    -0.096 A 
ATOM     10  HN1 IND d   1       0.225   1.337   1.826  0.00  0.00     0.298 HD
ENDROOT
TORSDOF 0
ENDMDL
