MODEL 1
REMARK minimizedAffinity -1.78922081
REMARK minimizedRMSD -1
REMARK  0 active torsions:
REMARK  status: ('A' for Active; 'I' for Inactive)
ROOT
ATOM      1  N1  IND d   1      -1.100   2.445  -0.623  0.00  0.00    -0.196 N 
ATOM      2  C2  IND d   1      -0.300   3.234  -1.401  0.00  0.00     0.054 A 
ATOM      3  C3  IND d   1       0.626   3.860  -0.640  0.00  0.00    -0.031 A 
ATOM      4  C4  IND d   1       1.074   3.658   1.886  0.00  0.00     0.051 A 
ATOM      5  C5  IND d   1       0.581   3.087   3.026  0.00  0.00    -0.031 A 
ATOM      6  C6  IND d   1      -0.519   2.254   3.006  0.00  0.00     0.015 A 
ATOM      7  C7  IND d   1      -1.162   1.950   1.840  0.00  0.00    -0.016 A 
ATOM      8  C8  IND d   1      -0.668   2.534   0.682  0.00  0.00    -0.047 A 
ATOM      9  C9  IND d   1       0.422   3.414   0.701  0.00  0.00    -0.096 A 
ATOM     10  HN1 IND d   1      -1.763   1.973  -0.901  0.00  0.00     0.298 HD
ENDROOT
TORSDOF 0
ENDMDL
