MODEL 1
REMARK minimizedAffinity 18.4750004
REMARK minimizedRMSD -1
REMARK  0 active torsions:
REMARK  status: ('A' for Active; 'I' for Inactive)
ROOT
ATOM      1  N1  IND d   1      -1.027   4.907  -2.641  0.00  0.00    -0.196 N 
ATOM      2  C2  IND d   1      -1.483   3.768  -3.244  0.00  0.00     0.054 A 
ATOM      3  C3  IND d   1      -1.042   2.675  -2.581  0.00  0.00    -0.031 A 
ATOM      4  C4  IND d   1       0.353   2.525  -0.423  0.00  0.00     0.051 A 
ATOM      5  C5  IND d   1       1.035   3.298   0.475  0.00  0.00    -0.031 A 
ATOM      6  C6  IND d   1       1.062   4.674   0.380  0.00  0.00     0.015 A 
ATOM      7  C7  IND d   1       0.397   5.332  -0.615  0.00  0.00    -0.016 A 
ATOM      8  C8  IND d   1      -0.291   4.551  -1.533  0.00  0.00    -0.047 A 
ATOM      9  C9  IND d   1      -0.287   3.152  -1.466  0.00  0.00    -0.096 A 
ATOM     10  HN1 IND d   1      -1.175   5.710  -2.909  0.00  0.00     0.298 HD
ENDROOT
TORSDOF 0
ENDMDL
