MODEL 1
REMARK minimizedAffinity 3.05792332
REMARK minimizedRMSD -1
REMARK  0 active torsions:
REMARK  status: ('A' for Active; 'I' for Inactive)
ROOT
ATOM      1  N1  IND d   1      -3.954  -2.318   6.000  0.00  0.00    -0.196 N 
ATOM      2  C2  IND d   1      -3.383  -1.572   5.008  0.00  0.00     0.054 A 
ATOM      3  C3  IND d   1      -3.666  -2.103   3.797  0.00  0.00    -0.031 A 
ATOM      4  C4  IND d   1      -5.133  -4.134   3.205  0.00  0.00     0.051 A 
ATOM      5  C5  IND d   1      -5.839  -5.156   3.775  0.00  0.00    -0.031 A 
ATOM      6  C6  IND d   1      -5.957  -5.285   5.144  0.00  0.00     0.015 A 
ATOM      7  C7  IND d   1      -5.381  -4.387   5.997  0.00  0.00    -0.016 A 
ATOM      8  C8  IND d   1      -4.658  -3.352   5.421  0.00  0.00    -0.047 A 
ATOM      9  C9  IND d   1      -4.499  -3.239   4.034  0.00  0.00    -0.096 A 
ATOM     10  HN1 IND d   1      -3.886  -2.167   6.844  0.00  0.00     0.298 HD
ENDROOT
TORSDOF 0
ENDMDL
