MODEL 1
REMARK minimizedAffinity 1.04684603
REMARK minimizedRMSD -1
REMARK  0 active torsions:
REMARK  status: ('A' for Active; 'I' for Inactive)
ROOT
ATOM      1  N1  IND d   1       1.204   4.340  -0.362  0.00  0.00    -0.196 N 
ATOM      2  C2  IND d   1       0.434   3.994  -1.437  0.00  0.00     0.054 A 
ATOM      3  C3  IND d   1      -0.480   3.063  -1.082  0.00  0.00    -0.031 A 
ATOM      4  C4  IND d   1      -0.957   2.039   1.231  0.00  0.00     0.051 A 
ATOM      5  C5  IND d   1      -0.490   2.015   2.516  0.00  0.00    -0.031 A 
ATOM      6  C6  IND d   1       0.585   2.783   2.915  0.00  0.00     0.015 A 
ATOM      7  C7  IND d   1       1.229   3.615   2.044  0.00  0.00    -0.016 A 
ATOM      8  C8  IND d   1       0.763   3.636   0.737  0.00  0.00    -0.047 A 
ATOM      9  C9  IND d   1      -0.301   2.828   0.316  0.00  0.00    -0.096 A 
ATOM     10  HN1 IND d   1       1.855   4.902  -0.371  0.00  0.00     0.298 HD
ENDROOT
TORSDOF 0
ENDMDL
