MODEL 1
REMARK minimizedAffinity 2.3512249
REMARK minimizedRMSD -1
REMARK  0 active torsions:
REMARK  status: ('A' for Active; 'I' for Inactive)
ROOT
ATOM      1  N1  IND d   1       0.966   2.544   1.592  0.00  0.00    -0.196 N 
ATOM      2  C2  IND d   1       0.402   3.150   0.504  0.00  0.00     0.054 A 
ATOM      3  C3  IND d   1      -0.930   2.918   0.475  0.00  0.00    -0.031 A 
ATOM      4  C4  IND d   1      -2.408   1.658   2.164  0.00  0.00     0.051 A 
ATOM      5  C5  IND d   1      -2.341   0.901   3.300  0.00  0.00    -0.031 A 
ATOM      6  C6  IND d   1      -1.144   0.650   3.939  0.00  0.00     0.015 A 
ATOM      7  C7  IND d   1       0.034   1.158   3.470  0.00  0.00    -0.016 A 
ATOM      8  C8  IND d   1      -0.029   1.922   2.313  0.00  0.00    -0.047 A 
ATOM      9  C9  IND d   1      -1.236   2.145   1.636  0.00  0.00    -0.096 A 
ATOM     10  HN1 IND d   1       1.802   2.550   1.792  0.00  0.00     0.298 HD
ENDROOT
TORSDOF 0
ENDMDL
