MODEL 1
REMARK minimizedAffinity 8.18362045
REMARK minimizedRMSD -1
REMARK  0 active torsions:
REMARK  status: ('A' for Active; 'I' for Inactive)
ROOT
ATOM      1  N1  IND d   1      -5.914  -4.172   2.093  0.00  0.00    -0.196 N 
ATOM      2  C2  IND d   1      -5.344  -2.974   1.764  0.00  0.00     0.054 A 
ATOM      3  C3  IND d   1      -4.719  -2.440   2.837  0.00  0.00    -0.031 A 
ATOM      4  C4  IND d   1      -4.417  -3.409   5.203  0.00  0.00     0.051 A 
ATOM      5  C5  IND d   1      -4.790  -4.460   5.992  0.00  0.00    -0.031 A 
ATOM      6  C6  IND d   1      -5.571  -5.492   5.511  0.00  0.00     0.015 A 
ATOM      7  C7  IND d   1      -5.999  -5.516   4.214  0.00  0.00    -0.016 A 
ATOM      8  C8  IND d   1      -5.628  -4.446   3.412  0.00  0.00    -0.047 A 
ATOM      9  C9  IND d   1      -4.872  -3.375   3.906  0.00  0.00    -0.096 A 
ATOM     10  HN1 IND d   1      -6.373  -4.671   1.564  0.00  0.00     0.298 HD
ENDROOT
TORSDOF 0
ENDMDL
