MODEL 1
REMARK minimizedAffinity 4.4436121
REMARK minimizedRMSD -1
REMARK  0 active torsions:
REMARK  status: ('A' for Active; 'I' for Inactive)
ROOT
ATOM      1  N1  IND d   1      -4.886  -4.929   3.733  0.00  0.00    -0.196 N 
ATOM      2  C2  IND d   1      -5.997  -5.085   4.514  0.00  0.00     0.054 A 
ATOM      3  C3  IND d   1      -6.000  -4.176   5.515  0.00  0.00    -0.031 A 
ATOM      4  C4  IND d   1      -4.336  -2.273   6.000  0.00  0.00     0.051 A 
ATOM      5  C5  IND d   1      -3.142  -1.753   5.584  0.00  0.00    -0.031 A 
ATOM      6  C6  IND d   1      -2.456  -2.275   4.506  0.00  0.00     0.015 A 
ATOM      7  C7  IND d   1      -2.947  -3.333   3.794  0.00  0.00    -0.016 A 
ATOM      8  C8  IND d   1      -4.155  -3.867   4.218  0.00  0.00    -0.047 A 
ATOM      9  C9  IND d   1      -4.834  -3.369   5.337  0.00  0.00    -0.096 A 
ATOM     10  HN1 IND d   1      -4.679  -5.413   3.053  0.00  0.00     0.298 HD
ENDROOT
TORSDOF 0
ENDMDL
