MODEL 1
REMARK minimizedAffinity 16.9212475
REMARK minimizedRMSD -1
REMARK  0 active torsions:
REMARK  status: ('A' for Active; 'I' for Inactive)
ROOT
ATOM      1  N1  IND d   1      -5.732  -3.747   5.998  0.00  0.00    -0.196 N 
ATOM      2  C2  IND d   1      -5.999  -4.862   5.254  0.00  0.00     0.054 A 
ATOM      3  C3  IND d   1      -5.022  -5.063   4.341  0.00  0.00    -0.031 A 
ATOM      4  C4  IND d   1      -2.844  -3.744   3.960  0.00  0.00     0.051 A 
ATOM      5  C5  IND d   1      -2.177  -2.624   4.370  0.00  0.00    -0.031 A 
ATOM      6  C6  IND d   1      -2.669  -1.806   5.366  0.00  0.00     0.015 A 
ATOM      7  C7  IND d   1      -3.847  -2.085   6.000  0.00  0.00    -0.016 A 
ATOM      8  C8  IND d   1      -4.531  -3.218   5.581  0.00  0.00    -0.047 A 
ATOM      9  C9  IND d   1      -4.057  -4.029   4.541  0.00  0.00    -0.096 A 
ATOM     10  HN1 IND d   1      -6.231  -3.429   6.622  0.00  0.00     0.298 HD
ENDROOT
TORSDOF 0
ENDMDL
