MODEL 1
REMARK minimizedAffinity 13.8930111
REMARK minimizedRMSD -1
REMARK  0 active torsions:
REMARK  status: ('A' for Active; 'I' for Inactive)
ROOT
ATOM      1  N1  IND d   1       2.654  -2.518  -4.705  0.00  0.00    -0.196 N 
ATOM      2  C2  IND d   1       3.185  -2.178  -5.918  0.00  0.00     0.054 A 
ATOM      3  C3  IND d   1       4.481  -2.555  -5.987  0.00  0.00    -0.031 A 
ATOM      4  C4  IND d   1       5.906  -3.834  -4.266  0.00  0.00     0.051 A 
ATOM      5  C5  IND d   1       5.870  -4.329  -2.992  0.00  0.00    -0.031 A 
ATOM      6  C6  IND d   1       4.737  -4.246  -2.210  0.00  0.00     0.015 A 
ATOM      7  C7  IND d   1       3.588  -3.673  -2.678  0.00  0.00    -0.016 A 
ATOM      8  C8  IND d   1       3.623  -3.163  -3.968  0.00  0.00    -0.047 A 
ATOM      9  C9  IND d   1       4.784  -3.206  -4.752  0.00  0.00    -0.096 A 
ATOM     10  HN1 IND d   1       1.851  -2.356  -4.446  0.00  0.00     0.298 HD
ENDROOT
TORSDOF 0
ENDMDL
