MODEL 1
REMARK minimizedAffinity 13.1411161
REMARK minimizedRMSD -1
REMARK  0 active torsions:
REMARK  status: ('A' for Active; 'I' for Inactive)
ROOT
ATOM      1  N1  IND d   1       0.404   2.298   1.725  0.00  0.00    -0.196 N 
ATOM      2  C2  IND d   1      -0.363   1.174   1.595  0.00  0.00     0.054 A 
ATOM      3  C3  IND d   1      -0.883   1.101   0.350  0.00  0.00    -0.031 A 
ATOM      4  C4  IND d   1      -0.524   2.661  -1.667  0.00  0.00     0.051 A 
ATOM      5  C5  IND d   1       0.066   3.841  -2.024  0.00  0.00    -0.031 A 
ATOM      6  C6  IND d   1       0.817   4.580  -1.133  0.00  0.00     0.015 A 
ATOM      7  C7  IND d   1       1.015   4.160   0.152  0.00  0.00    -0.016 A 
ATOM      8  C8  IND d   1       0.411   2.966   0.520  0.00  0.00    -0.047 A 
ATOM      9  C9  IND d   1      -0.387   2.233  -0.367  0.00  0.00    -0.096 A 
ATOM     10  HN1 IND d   1       0.813   2.547   2.440  0.00  0.00     0.298 HD
ENDROOT
TORSDOF 0
ENDMDL
