MODEL 1
REMARK minimizedAffinity 8.08758068
REMARK minimizedRMSD -1
REMARK  0 active torsions:
REMARK  status: ('A' for Active; 'I' for Inactive)
ROOT
ATOM      1  N1  IND d   1      -1.391   1.209   1.162  0.00  0.00    -0.196 N 
ATOM      2  C2  IND d   1      -1.109   1.558   2.453  0.00  0.00     0.054 A 
ATOM      3  C3  IND d   1      -0.449   2.737   2.489  0.00  0.00    -0.031 A 
ATOM      4  C4  IND d   1       0.184   4.315   0.556  0.00  0.00     0.051 A 
ATOM      5  C5  IND d   1       0.170   4.409  -0.807  0.00  0.00    -0.031 A 
ATOM      6  C6  IND d   1      -0.379   3.421  -1.600  0.00  0.00     0.015 A 
ATOM      7  C7  IND d   1      -0.947   2.304  -1.056  0.00  0.00    -0.016 A 
ATOM      8  C8  IND d   1      -0.928   2.203   0.328  0.00  0.00    -0.047 A 
ATOM      9  C9  IND d   1      -0.334   3.182   1.136  0.00  0.00    -0.096 A 
ATOM     10  HN1 IND d   1      -1.790   0.489   0.912  0.00  0.00     0.298 HD
ENDROOT
TORSDOF 0
ENDMDL
