MODEL 1
REMARK minimizedAffinity -3.66416645
REMARK minimizedRMSD -1
REMARK  0 active torsions:
REMARK  status: ('A' for Active; 'I' for Inactive)
ROOT
ATOM      1  N1  IND d   1      -6.000  -2.395  -1.120  0.00  0.00    -0.196 N 
ATOM      2  C2  IND d   1      -5.198  -2.592  -0.030  0.00  0.00     0.054 A 
ATOM      3  C3  IND d   1      -4.213  -1.666   0.002  0.00  0.00    -0.031 A 
ATOM      4  C4  IND d   1      -3.787   0.325  -1.573  0.00  0.00     0.051 A 
ATOM      5  C5  IND d   1      -4.231   0.894  -2.733  0.00  0.00    -0.031 A 
ATOM      6  C6  IND d   1      -5.311   0.388  -3.427  0.00  0.00     0.015 A 
ATOM      7  C7  IND d   1      -5.997  -0.705  -2.979  0.00  0.00    -0.016 A 
ATOM      8  C8  IND d   1      -5.545  -1.290  -1.805  0.00  0.00    -0.047 A 
ATOM      9  C9  IND d   1      -4.423  -0.807  -1.119  0.00  0.00    -0.096 A 
ATOM     10  HN1 IND d   1      -6.675  -2.880  -1.340  0.00  0.00     0.298 HD
ENDROOT
TORSDOF 0
ENDMDL
