MODEL 1
REMARK minimizedAffinity 4.63495111
REMARK minimizedRMSD -1
REMARK  0 active torsions:
REMARK  status: ('A' for Active; 'I' for Inactive)
ROOT
ATOM      1  N1  IND d   1       0.459   3.551   0.123  0.00  0.00    -0.196 N 
ATOM      2  C2  IND d   1       0.074   2.916  -1.025  0.00  0.00     0.054 A 
ATOM      3  C3  IND d   1      -0.597   1.780  -0.733  0.00  0.00    -0.031 A 
ATOM      4  C4  IND d   1      -1.267   0.820   1.560  0.00  0.00     0.051 A 
ATOM      5  C5  IND d   1      -1.108   1.026   2.902  0.00  0.00    -0.031 A 
ATOM      6  C6  IND d   1      -0.408   2.108   3.396  0.00  0.00     0.015 A 
ATOM      7  C7  IND d   1       0.153   3.034   2.563  0.00  0.00    -0.016 A 
ATOM      8  C8  IND d   1       0.001   2.824   1.200  0.00  0.00    -0.047 A 
ATOM      9  C9  IND d   1      -0.673   1.705   0.692  0.00  0.00    -0.096 A 
ATOM     10  HN1 IND d   1       0.911   4.281   0.166  0.00  0.00     0.298 HD
ENDROOT
TORSDOF 0
ENDMDL
