MODEL 1
REMARK minimizedAffinity 0.689077079
REMARK minimizedRMSD -1
REMARK  0 active torsions:
REMARK  status: ('A' for Active; 'I' for Inactive)
ROOT
ATOM      1  N1  IND d   1      -5.779  -3.750   2.194  0.00  0.00    -0.196 N 
ATOM      2  C2  IND d   1      -5.911  -4.916   1.492  0.00  0.00     0.054 A 
ATOM      3  C3  IND d   1      -5.979  -5.968   2.338  0.00  0.00    -0.031 A 
ATOM      4  C4  IND d   1      -5.997  -6.000   4.912  0.00  0.00     0.051 A 
ATOM      5  C5  IND d   1      -5.863  -5.184   6.000  0.00  0.00    -0.031 A 
ATOM      6  C6  IND d   1      -5.693  -3.821   5.872  0.00  0.00     0.015 A 
ATOM      7  C7  IND d   1      -5.662  -3.218   4.647  0.00  0.00    -0.016 A 
ATOM      8  C8  IND d   1      -5.792  -4.044   3.539  0.00  0.00    -0.047 A 
ATOM      9  C9  IND d   1      -5.922  -5.434   3.661  0.00  0.00    -0.096 A 
ATOM     10  HN1 IND d   1      -5.702  -2.965   1.852  0.00  0.00     0.298 HD
ENDROOT
TORSDOF 0
ENDMDL
