MODEL 1
REMARK minimizedAffinity 15.5076351
REMARK minimizedRMSD -1
REMARK  0 active torsions:
REMARK  status: ('A' for Active; 'I' for Inactive)
ROOT
ATOM      1  N1  IND d   1       0.654   4.432  -0.373  0.00  0.00    -0.196 N 
ATOM      2  C2  IND d   1       0.745   3.070  -0.448  0.00  0.00     0.054 A 
ATOM      3  C3  IND d   1      -0.398   2.497  -0.009  0.00  0.00    -0.031 A 
ATOM      4  C4  IND d   1      -2.584   3.604   0.780  0.00  0.00     0.051 A 
ATOM      5  C5  IND d   1      -3.135   4.824   1.056  0.00  0.00    -0.031 A 
ATOM      6  C6  IND d   1      -2.438   5.999   0.864  0.00  0.00     0.015 A 
ATOM      7  C7  IND d   1      -1.162   5.999   0.375  0.00  0.00    -0.016 A 
ATOM      8  C8  IND d   1      -0.597   4.762   0.100  0.00  0.00    -0.047 A 
ATOM      9  C9  IND d   1      -1.284   3.564   0.333  0.00  0.00    -0.096 A 
ATOM     10  HN1 IND d   1       1.274   4.988  -0.586  0.00  0.00     0.298 HD
ENDROOT
TORSDOF 0
ENDMDL
