MODEL 1
REMARK minimizedAffinity 3.04512286
REMARK minimizedRMSD -1
REMARK  0 active torsions:
REMARK  status: ('A' for Active; 'I' for Inactive)
ROOT
ATOM      1  O1  BZF d   1      -1.767   0.418   2.421  0.00  0.00    -0.204 OA
ATOM      2  C2  BZF d   1      -2.595   0.722   1.357  0.00  0.00     0.174 A 
ATOM      3  C3  BZF d   1      -1.958   0.526   0.185  0.00  0.00    -0.012 A 
ATOM      4  C3A BZF d   1      -0.682  -0.017   0.535  0.00  0.00    -0.107 A 
ATOM      5  C4  BZF d   1       0.393  -0.434  -0.196  0.00  0.00     0.055 A 
ATOM      6  C5  BZF d   1       1.514  -0.844   0.453  0.00  0.00    -0.016 A 
ATOM      7  C6  BZF d   1       1.596  -0.846   1.830  0.00  0.00     0.022 A 
ATOM      8  C7  BZF d   1       0.554  -0.446   2.598  0.00  0.00     0.029 A 
ATOM      9  C7A BZF d   1      -0.592  -0.062   1.945  0.00  0.00     0.058 A 
ENDROOT
TORSDOF 0
ENDMDL
