MODEL 1
REMARK minimizedAffinity 3.89334011
REMARK minimizedRMSD -1
REMARK  0 active torsions:
REMARK  status: ('A' for Active; 'I' for Inactive)
ROOT
ATOM      1  O1  BZF d   1      -0.739   0.977  -0.977  0.00  0.00    -0.204 OA
ATOM      2  C2  BZF d   1      -1.672   0.139  -0.397  0.00  0.00     0.174 A 
ATOM      3  C3  BZF d   1      -1.069  -0.777   0.388  0.00  0.00    -0.012 A 
ATOM      4  C3A BZF d   1       0.321  -0.437   0.365  0.00  0.00    -0.107 A 
ATOM      5  C4  BZF d   1       1.428  -0.967   0.964  0.00  0.00     0.055 A 
ATOM      6  C5  BZF d   1       2.649  -0.445   0.676  0.00  0.00    -0.016 A 
ATOM      7  C6  BZF d   1       2.800   0.603  -0.208  0.00  0.00     0.022 A 
ATOM      8  C7  BZF d   1       1.731   1.166  -0.823  0.00  0.00     0.029 A 
ATOM      9  C7A BZF d   1       0.493   0.662  -0.509  0.00  0.00     0.058 A 
ENDROOT
TORSDOF 0
ENDMDL
