MODEL 1
REMARK minimizedAffinity 10.621809
REMARK minimizedRMSD -1
REMARK  0 active torsions:
REMARK  status: ('A' for Active; 'I' for Inactive)
ROOT
ATOM      1  O1  BZF d   1       2.040   0.977  -2.585  0.00  0.00    -0.204 OA
ATOM      2  C2  BZF d   1       2.496   1.798  -3.599  0.00  0.00     0.174 A 
ATOM      3  C3  BZF d   1       1.737   1.659  -4.705  0.00  0.00    -0.012 A 
ATOM      4  C3A BZF d   1       0.689   0.760  -4.331  0.00  0.00    -0.107 A 
ATOM      5  C4  BZF d   1      -0.388   0.246  -4.995  0.00  0.00     0.055 A 
ATOM      6  C5  BZF d   1      -1.179  -0.664  -4.367  0.00  0.00    -0.016 A 
ATOM      7  C6  BZF d   1      -0.919  -1.085  -3.079  0.00  0.00     0.022 A 
ATOM      8  C7  BZF d   1       0.134  -0.599  -2.379  0.00  0.00     0.029 A 
ATOM      9  C7A BZF d   1       0.916   0.345  -2.999  0.00  0.00     0.058 A 
ENDROOT
TORSDOF 0
ENDMDL
