MODEL 1
REMARK minimizedAffinity -1.83514583
REMARK minimizedRMSD -1
REMARK  0 active torsions:
REMARK  status: ('A' for Active; 'I' for Inactive)
ROOT
ATOM      1  O1  BZF d   1       1.852   0.382  -0.082  0.00  0.00    -0.204 OA
ATOM      2  C2  BZF d   1       0.914  -0.502   0.416  0.00  0.00     0.174 A 
ATOM      3  C3  BZF d   1      -0.023  -0.779  -0.513  0.00  0.00    -0.012 A 
ATOM      4  C3A BZF d   1       0.405  -0.094  -1.695  0.00  0.00    -0.107 A 
ATOM      5  C4  BZF d   1      -0.101   0.002  -2.959  0.00  0.00     0.055 A 
ATOM      6  C5  BZF d   1       0.518   0.811  -3.859  0.00  0.00    -0.016 A 
ATOM      7  C6  BZF d   1       1.641   1.540  -3.526  0.00  0.00     0.022 A 
ATOM      8  C7  BZF d   1       2.183   1.473  -2.286  0.00  0.00     0.029 A 
ATOM      9  C7A BZF d   1       1.578   0.631  -1.385  0.00  0.00     0.058 A 
ENDROOT
TORSDOF 0
ENDMDL
