MODEL 1
REMARK minimizedAffinity -3.63817358
REMARK minimizedRMSD -1
REMARK  0 active torsions:
REMARK  status: ('A' for Active; 'I' for Inactive)
ROOT
ATOM      1  O1  BZF d   1       0.795  -0.644  -0.586  0.00  0.00    -0.204 OA
ATOM      2  C2  BZF d   1       1.968  -0.346   0.080  0.00  0.00     0.174 A 
ATOM      3  C3  BZF d   1       2.896   0.132  -0.775  0.00  0.00    -0.012 A 
ATOM      4  C3A BZF d   1       2.232   0.220  -2.039  0.00  0.00    -0.107 A 
ATOM      5  C4  BZF d   1       2.624   0.640  -3.278  0.00  0.00     0.055 A 
ATOM      6  C5  BZF d   1       1.757   0.530  -4.318  0.00  0.00    -0.016 A 
ATOM      7  C6  BZF d   1       0.493   0.001  -4.157  0.00  0.00     0.022 A 
ATOM      8  C7  BZF d   1       0.057  -0.424  -2.946  0.00  0.00     0.029 A 
ATOM      9  C7A BZF d   1       0.920  -0.284  -1.886  0.00  0.00     0.058 A 
ENDROOT
TORSDOF 0
ENDMDL
