MODEL 1
REMARK minimizedAffinity -4.7836237
REMARK minimizedRMSD -1
REMARK  0 active torsions:
REMARK  status: ('A' for Active; 'I' for Inactive)
ROOT
ATOM      1  O1  BZF d   1       1.524  -0.646   0.138  0.00  0.00    -0.204 OA
ATOM      2  C2  BZF d   1       0.719  -0.660  -0.985  0.00  0.00     0.174 A 
ATOM      3  C3  BZF d   1      -0.451  -0.035  -0.743  0.00  0.00    -0.012 A 
ATOM      4  C3A BZF d   1      -0.336   0.479   0.587  0.00  0.00    -0.107 A 
ATOM      5  C4  BZF d   1      -1.168   1.208   1.388  0.00  0.00     0.055 A 
ATOM      6  C5  BZF d   1      -0.784   1.483   2.662  0.00  0.00    -0.016 A 
ATOM      7  C6  BZF d   1       0.420   1.042   3.170  0.00  0.00     0.022 A 
ATOM      8  C7  BZF d   1       1.281   0.320   2.412  0.00  0.00     0.029 A 
ATOM      9  C7A BZF d   1       0.911   0.068   1.114  0.00  0.00     0.058 A 
ENDROOT
TORSDOF 0
ENDMDL
