MODEL 1
REMARK minimizedAffinity -5.87185287
REMARK minimizedRMSD -1
REMARK  0 active torsions:
REMARK  status: ('A' for Active; 'I' for Inactive)
ROOT
ATOM      1  O1  BZF d   1       0.794  -0.549  -0.406  0.00  0.00    -0.204 OA
ATOM      2  C2  BZF d   1      -0.310  -0.561  -1.236  0.00  0.00     0.174 A 
ATOM      3  C3  BZF d   1      -1.390  -0.059  -0.603  0.00  0.00    -0.012 A 
ATOM      4  C3A BZF d   1      -0.910   0.374   0.674  0.00  0.00    -0.107 A 
ATOM      5  C4  BZF d   1      -1.507   0.972   1.747  0.00  0.00     0.055 A 
ATOM      6  C5  BZF d   1      -0.774   1.196   2.869  0.00  0.00    -0.016 A 
ATOM      7  C6  BZF d   1       0.554   0.831   2.955  0.00  0.00     0.022 A 
ATOM      8  C7  BZF d   1       1.190   0.240   1.914  0.00  0.00     0.029 A 
ATOM      9  C7A BZF d   1       0.461   0.042   0.767  0.00  0.00     0.058 A 
ENDROOT
TORSDOF 0
ENDMDL
