MODEL 1
REMARK minimizedAffinity -4.10531902
REMARK minimizedRMSD -1
REMARK  0 active torsions:
REMARK  status: ('A' for Active; 'I' for Inactive)
ROOT
ATOM      1  O1  BZF d   1      -0.951   0.714  -0.283  0.00  0.00    -0.204 OA
ATOM      2  C2  BZF d   1       0.236   0.622  -0.983  0.00  0.00     0.174 A 
ATOM      3  C3  BZF d   1       1.282   0.519  -0.137  0.00  0.00    -0.012 A 
ATOM      4  C3A BZF d   1       0.705   0.456   1.170  0.00  0.00    -0.107 A 
ATOM      5  C4  BZF d   1       1.232   0.334   2.424  0.00  0.00     0.055 A 
ATOM      6  C5  BZF d   1       0.399   0.378   3.497  0.00  0.00    -0.016 A 
ATOM      7  C6  BZF d   1      -0.962   0.547   3.354  0.00  0.00     0.022 A 
ATOM      8  C7  BZF d   1      -1.532   0.668   2.130  0.00  0.00     0.029 A 
ATOM      9  C7A BZF d   1      -0.697   0.591   1.042  0.00  0.00     0.058 A 
ENDROOT
TORSDOF 0
ENDMDL
