MODEL 1
REMARK minimizedAffinity -3.34425712
REMARK minimizedRMSD -1
REMARK  0 active torsions:
REMARK  status: ('A' for Active; 'I' for Inactive)
ROOT
ATOM      1  O1  BZF d   1       1.112   0.851   0.037  0.00  0.00    -0.204 OA
ATOM      2  C2  BZF d   1       0.840  -0.096  -0.932  0.00  0.00     0.174 A 
ATOM      3  C3  BZF d   1      -0.151  -0.919  -0.532  0.00  0.00    -0.012 A 
ATOM      4  C3A BZF d   1      -0.586  -0.399   0.728  0.00  0.00    -0.107 A 
ATOM      5  C4  BZF d   1      -1.554  -0.775   1.615  0.00  0.00     0.055 A 
ATOM      6  C5  BZF d   1      -1.673  -0.100   2.788  0.00  0.00    -0.016 A 
ATOM      7  C6  BZF d   1      -0.839   0.951   3.109  0.00  0.00     0.022 A 
ATOM      8  C7  BZF d   1       0.133   1.363   2.260  0.00  0.00     0.029 A 
ATOM      9  C7A BZF d   1       0.235   0.704   1.059  0.00  0.00     0.058 A 
ENDROOT
TORSDOF 0
ENDMDL
