MODEL 1
REMARK minimizedAffinity -1.8910929
REMARK minimizedRMSD -1
REMARK  0 active torsions:
REMARK  status: ('A' for Active; 'I' for Inactive)
ROOT
ATOM      1  O1  BZF d   1      -1.163   0.881   2.302  0.00  0.00    -0.204 OA
ATOM      2  C2  BZF d   1      -0.158   0.624   3.215  0.00  0.00     0.174 A 
ATOM      3  C3  BZF d   1       0.837  -0.085   2.644  0.00  0.00    -0.012 A 
ATOM      4  C3A BZF d   1       0.471  -0.205   1.266  0.00  0.00    -0.107 A 
ATOM      5  C4  BZF d   1       1.065  -0.790   0.184  0.00  0.00     0.055 A 
ATOM      6  C5  BZF d   1       0.412  -0.793  -1.007  0.00  0.00    -0.016 A 
ATOM      7  C6  BZF d   1      -0.838  -0.226  -1.151  0.00  0.00     0.022 A 
ATOM      8  C7  BZF d   1      -1.465   0.370  -0.108  0.00  0.00     0.029 A 
ATOM      9  C7A BZF d   1      -0.793   0.403   1.089  0.00  0.00     0.058 A 
ENDROOT
TORSDOF 0
ENDMDL
