MODEL 1
REMARK minimizedAffinity -2.60642433
REMARK minimizedRMSD -1
REMARK  0 active torsions:
REMARK  status: ('A' for Active; 'I' for Inactive)
ROOT
ATOM      1  C1  BNZ d   1       0.003   0.631   0.694  0.00  0.00     0.000 A 
ATOM      2  C2  BNZ d   1      -0.193   0.587  -0.660  0.00  0.00     0.000 A 
ATOM      3  C3  BNZ d   1      -0.407   1.732  -1.375  0.00  0.00     0.000 A 
ATOM      4  C4  BNZ d   1      -0.463   2.915  -0.729  0.00  0.00     0.000 A 
ATOM      5  C5  BNZ d   1      -0.277   2.976   0.637  0.00  0.00     0.000 A 
ATOM      6  C6  BNZ d   1      -0.024   1.825   1.348  0.00  0.00     0.000 A 
ENDROOT
TORSDOF 0
ENDMDL
