MODEL 1
REMARK minimizedAffinity -3.21653795
REMARK minimizedRMSD -1
REMARK  0 active torsions:
REMARK  status: ('A' for Active; 'I' for Inactive)
ROOT
ATOM      1  C1  BNZ d   1      -0.139  -3.808  -0.627  0.00  0.00     0.000 A 
ATOM      2  C2  BNZ d   1       0.673  -2.797  -0.187  0.00  0.00     0.000 A 
ATOM      3  C3  BNZ d   1       0.369  -1.491  -0.452  0.00  0.00     0.000 A 
ATOM      4  C4  BNZ d   1      -0.722  -1.200  -1.189  0.00  0.00     0.000 A 
ATOM      5  C5  BNZ d   1      -1.545  -2.209  -1.648  0.00  0.00     0.000 A 
ATOM      6  C6  BNZ d   1      -1.258  -3.520  -1.346  0.00  0.00     0.000 A 
ENDROOT
TORSDOF 0
ENDMDL
