MODEL 1
REMARK minimizedAffinity 1.76635039
REMARK minimizedRMSD -1
REMARK  0 active torsions:
REMARK  status: ('A' for Active; 'I' for Inactive)
ROOT
ATOM      1  C1  BNZ d   1       0.386   1.319   2.584  0.00  0.00     0.000 A 
ATOM      2  C2  BNZ d   1       0.676   2.657   2.637  0.00  0.00     0.000 A 
ATOM      3  C3  BNZ d   1       0.642   3.425   1.507  0.00  0.00     0.000 A 
ATOM      4  C4  BNZ d   1       0.359   2.849   0.321  0.00  0.00     0.000 A 
ATOM      5  C5  BNZ d   1       0.074   1.500   0.250  0.00  0.00     0.000 A 
ATOM      6  C6  BNZ d   1       0.070   0.737   1.395  0.00  0.00     0.000 A 
ENDROOT
TORSDOF 0
ENDMDL
