MODEL 1
REMARK minimizedAffinity 4.07963228
REMARK minimizedRMSD -1
REMARK  0 active torsions:
REMARK  status: ('A' for Active; 'I' for Inactive)
ROOT
ATOM      1  C1  BNZ d   1       1.754   2.580   3.757  0.00  0.00     0.000 A 
ATOM      2  C2  BNZ d   1       2.374   3.750   3.407  0.00  0.00     0.000 A 
ATOM      3  C3  BNZ d   1       1.990   4.440   2.292  0.00  0.00     0.000 A 
ATOM      4  C4  BNZ d   1       1.015   3.941   1.506  0.00  0.00     0.000 A 
ATOM      5  C5  BNZ d   1       0.385   2.758   1.840  0.00  0.00     0.000 A 
ATOM      6  C6  BNZ d   1       0.748   2.086   2.985  0.00  0.00     0.000 A 
ENDROOT
TORSDOF 0
ENDMDL
