MODEL 1
REMARK minimizedAffinity -2.0706718
REMARK minimizedRMSD -1
REMARK  0 active torsions:
REMARK  status: ('A' for Active; 'I' for Inactive)
ROOT
ATOM      1  C1  BNZ d   1       0.223   0.635   0.366  0.00  0.00     0.000 A 
ATOM      2  C2  BNZ d   1       0.308   0.714   1.731  0.00  0.00     0.000 A 
ATOM      3  C3  BNZ d   1       0.365   1.926   2.360  0.00  0.00     0.000 A 
ATOM      4  C4  BNZ d   1       0.378   3.056   1.622  0.00  0.00     0.000 A 
ATOM      5  C5  BNZ d   1       0.303   2.992   0.245  0.00  0.00     0.000 A 
ATOM      6  C6  BNZ d   1       0.206   1.772  -0.382  0.00  0.00     0.000 A 
ENDROOT
TORSDOF 0
ENDMDL
