MODEL 1
REMARK minimizedAffinity -1.84756887
REMARK minimizedRMSD -1
REMARK  0 active torsions:
REMARK  status: ('A' for Active; 'I' for Inactive)
ROOT
ATOM      1  C1  BNZ d   1       0.469   0.391  -1.922  0.00  0.00     0.000 A 
ATOM      2  C2  BNZ d   1       1.293  -0.059  -0.926  0.00  0.00     0.000 A 
ATOM      3  C3  BNZ d   1       0.778  -0.519   0.254  0.00  0.00     0.000 A 
ATOM      4  C4  BNZ d   1      -0.555  -0.491   0.451  0.00  0.00     0.000 A 
ATOM      5  C5  BNZ d   1      -1.399  -0.031  -0.540  0.00  0.00     0.000 A 
ATOM      6  C6  BNZ d   1      -0.880   0.395  -1.741  0.00  0.00     0.000 A 
ENDROOT
TORSDOF 0
ENDMDL
