MODEL 1
REMARK minimizedAffinity 10.2274771
REMARK minimizedRMSD -1
REMARK  0 active torsions:
REMARK  status: ('A' for Active; 'I' for Inactive)
ROOT
ATOM      1  O1  BZF d   1       3.018  -2.235   1.546  0.00  0.00    -0.204 OA
ATOM      2  C2  BZF d   1       3.819  -2.084   2.661  0.00  0.00     0.174 A 
ATOM      3  C3  BZF d   1       4.331  -0.837   2.717  0.00  0.00    -0.012 A 
ATOM      4  C3A BZF d   1       3.744  -0.140   1.614  0.00  0.00    -0.107 A 
ATOM      5  C4  BZF d   1       3.849   1.140   1.150  0.00  0.00     0.055 A 
ATOM      6  C5  BZF d   1       3.201   1.483   0.006  0.00  0.00    -0.016 A 
ATOM      7  C6  BZF d   1       2.446   0.571  -0.702  0.00  0.00     0.022 A 
ATOM      8  C7  BZF d   1       2.308  -0.709  -0.278  0.00  0.00     0.029 A 
ATOM      9  C7A BZF d   1       2.934  -1.050   0.896  0.00  0.00     0.058 A 
ENDROOT
TORSDOF 0
ENDMDL
