MODEL 1
REMARK minimizedAffinity -2.94070888
REMARK minimizedRMSD -1
REMARK  0 active torsions:
REMARK  status: ('A' for Active; 'I' for Inactive)
ROOT
ATOM      1  O1  BZF d   1       4.715  -2.078   3.122  0.00  0.00    -0.204 OA
ATOM      2  C2  BZF d   1       5.820  -1.501   3.717  0.00  0.00     0.174 A 
ATOM      3  C3  BZF d   1       5.999  -0.240   3.273  0.00  0.00    -0.012 A 
ATOM      4  C3A BZF d   1       4.885   0.018   2.413  0.00  0.00    -0.107 A 
ATOM      5  C4  BZF d   1       4.492   1.104   1.684  0.00  0.00     0.055 A 
ATOM      6  C5  BZF d   1       3.394   1.005   0.891  0.00  0.00    -0.016 A 
ATOM      7  C6  BZF d   1       2.668  -0.164   0.798  0.00  0.00     0.022 A 
ATOM      8  C7  BZF d   1       3.016  -1.267   1.505  0.00  0.00     0.029 A 
ATOM      9  C7A BZF d   1       4.106  -1.160   2.333  0.00  0.00     0.058 A 
ENDROOT
TORSDOF 0
ENDMDL
