MODEL 1
REMARK minimizedAffinity 8.2494297
REMARK minimizedRMSD -1
REMARK  0 active torsions:
REMARK  status: ('A' for Active; 'I' for Inactive)
ROOT
ATOM      1  O1  BZF d   1       4.477   2.129  -2.755  0.00  0.00    -0.204 OA
ATOM      2  C2  BZF d   1       5.658   2.830  -2.610  0.00  0.00     0.174 A 
ATOM      3  C3  BZF d   1       5.998   2.932  -1.309  0.00  0.00    -0.012 A 
ATOM      4  C3A BZF d   1       5.013   2.173  -0.602  0.00  0.00    -0.107 A 
ATOM      5  C4  BZF d   1       4.820   1.884   0.719  0.00  0.00     0.055 A 
ATOM      6  C5  BZF d   1       3.719   1.176   1.086  0.00  0.00    -0.016 A 
ATOM      7  C6  BZF d   1       2.790   0.747   0.161  0.00  0.00     0.022 A 
ATOM      8  C7  BZF d   1       2.941   1.005  -1.161  0.00  0.00     0.029 A 
ATOM      9  C7A BZF d   1       4.069   1.692  -1.539  0.00  0.00     0.058 A 
ENDROOT
TORSDOF 0
ENDMDL
