MODEL 1
REMARK minimizedAffinity 8.97959709
REMARK minimizedRMSD -1
REMARK  0 active torsions:
REMARK  status: ('A' for Active; 'I' for Inactive)
ROOT
ATOM      1  O1  BZF d   1       2.998   0.656  -1.959  0.00  0.00    -0.204 OA
ATOM      2  C2  BZF d   1       2.418   0.458  -0.721  0.00  0.00     0.174 A 
ATOM      3  C3  BZF d   1       3.104   1.110   0.239  0.00  0.00    -0.012 A 
ATOM      4  C3A BZF d   1       4.127   1.831  -0.453  0.00  0.00    -0.107 A 
ATOM      5  C4  BZF d   1       5.119   2.677  -0.046  0.00  0.00     0.055 A 
ATOM      6  C5  BZF d   1       5.997   3.156  -0.966  0.00  0.00    -0.016 A 
ATOM      7  C6  BZF d   1       5.916   2.807  -2.298  0.00  0.00     0.022 A 
ATOM      8  C7  BZF d   1       4.946   1.975  -2.750  0.00  0.00     0.029 A 
ATOM      9  C7A BZF d   1       4.037   1.515  -1.829  0.00  0.00     0.058 A 
ENDROOT
TORSDOF 0
ENDMDL
