MODEL 1
REMARK minimizedAffinity 2.62853408
REMARK minimizedRMSD -1
REMARK  1 active torsions:
REMARK  status: ('A' for Active; 'I' for Inactive)
REMARK    1  A    between atoms: N_2  and  C1_3 
ROOT
ATOM      1  C1  UNL d   1       3.705   0.340   3.649  0.00  0.00     0.143 A 
ATOM      2  C2  UNL d   1       2.330   0.575   3.753  0.00  0.00    -0.057 A 
ATOM      3  C3  UNL d   1       1.537   0.763   2.615  0.00  0.00     0.033 A 
ATOM      4  C4  UNL d   1       2.113   0.747   1.349  0.00  0.00    -0.042 A 
ATOM      5  C5  UNL d   1       3.482   0.540   1.223  0.00  0.00     0.033 A 
ATOM      6  C6  UNL d   1       4.267   0.347   2.363  0.00  0.00    -0.057 A 
ENDROOT
BRANCH   1   7
ATOM      7  N   UNL d   1       4.563   0.245   4.748  0.00  0.00    -0.732 N 
ATOM      8  C   UNL d   1       5.434   1.345   5.101  0.00  0.00     0.284 C 
ATOM      9  H3  UNL d   1       4.124  -0.211   5.545  0.00  0.00     0.395 HD
ENDBRANCH   1   7
TORSDOF 1
ENDMDL
