MODEL 1
REMARK minimizedAffinity 1.20127332
REMARK minimizedRMSD -1
REMARK  1 active torsions:
REMARK  status: ('A' for Active; 'I' for Inactive)
REMARK    1  A    between atoms: N_2  and  C1_3 
ROOT
ATOM      1  C1  UNL d   1       0.408   1.775   0.579  0.00  0.00     0.143 A 
ATOM      2  C2  UNL d   1      -0.503   1.574   1.621  0.00  0.00    -0.057 A 
ATOM      3  C3  UNL d   1      -0.919   0.287   1.983  0.00  0.00     0.033 A 
ATOM      4  C4  UNL d   1      -0.452  -0.823   1.286  0.00  0.00    -0.042 A 
ATOM      5  C5  UNL d   1       0.434  -0.645   0.230  0.00  0.00     0.033 A 
ATOM      6  C6  UNL d   1       0.852   0.643  -0.121  0.00  0.00    -0.057 A 
ENDROOT
BRANCH   1   7
ATOM      7  N   UNL d   1       0.785   3.036   0.108  0.00  0.00    -0.732 N 
ATOM      8  C   UNL d   1       1.556   3.168  -1.109  0.00  0.00     0.284 C 
ATOM      9  H3  UNL d   1       0.043   3.725   0.207  0.00  0.00     0.395 HD
ENDBRANCH   1   7
TORSDOF 1
ENDMDL
