MODEL 1
REMARK minimizedAffinity -1.17092133
REMARK minimizedRMSD -1
REMARK  1 active torsions:
REMARK  status: ('A' for Active; 'I' for Inactive)
REMARK    1  A    between atoms: N_2  and  C1_3 
ROOT
ATOM      1  C1  UNL d   1      -2.974   5.999  -1.755  0.00  0.00     0.143 A 
ATOM      2  C2  UNL d   1      -2.339   5.989  -3.001  0.00  0.00    -0.057 A 
ATOM      3  C3  UNL d   1      -3.076   6.000  -4.192  0.00  0.00     0.033 A 
ATOM      4  C4  UNL d   1      -4.466   5.993  -4.156  0.00  0.00    -0.042 A 
ATOM      5  C5  UNL d   1      -5.119   5.979  -2.929  0.00  0.00     0.033 A 
ATOM      6  C6  UNL d   1      -4.378   5.974  -1.743  0.00  0.00    -0.057 A 
ENDROOT
BRANCH   1   7
ATOM      7  N   UNL d   1      -2.299   5.889  -0.537  0.00  0.00    -0.732 N 
ATOM      8  C   UNL d   1      -0.854   5.940  -0.488  0.00  0.00     0.284 C 
ATOM      9  H3  UNL d   1      -2.759   6.405   0.210  0.00  0.00     0.395 HD
ENDBRANCH   1   7
TORSDOF 1
ENDMDL
