MODEL 1
REMARK minimizedAffinity 6.18118
REMARK minimizedRMSD -1
REMARK  1 active torsions:
REMARK  status: ('A' for Active; 'I' for Inactive)
REMARK    1  A    between atoms: N_2  and  C1_3 
ROOT
ATOM      1  C1  UNL d   1       1.091  -0.024  -1.466  0.00  0.00     0.143 A 
ATOM      2  C2  UNL d   1       1.486   1.314  -1.351  0.00  0.00    -0.057 A 
ATOM      3  C3  UNL d   1       1.381   2.001  -0.136  0.00  0.00     0.033 A 
ATOM      4  C4  UNL d   1       0.850   1.369   0.983  0.00  0.00    -0.042 A 
ATOM      5  C5  UNL d   1       0.428   0.047   0.887  0.00  0.00     0.033 A 
ATOM      6  C6  UNL d   1       0.542  -0.635  -0.328  0.00  0.00    -0.057 A 
ENDROOT
BRANCH   1   7
ATOM      7  N   UNL d   1       1.079  -0.731  -2.670  0.00  0.00    -0.732 N 
ATOM      8  C   UNL d   1       2.219  -1.529  -3.068  0.00  0.00     0.284 C 
ATOM      9  H3  UNL d   1       0.180  -1.170  -2.853  0.00  0.00     0.395 HD
ENDBRANCH   1   7
TORSDOF 1
ENDMDL
