MODEL 1
REMARK minimizedAffinity 2.33559251
REMARK minimizedRMSD -1
REMARK  1 active torsions:
REMARK  status: ('A' for Active; 'I' for Inactive)
REMARK    1  A    between atoms: N_2  and  C1_3 
ROOT
ATOM      1  C1  UNL d   1       3.490   4.907  -5.576  0.00  0.00     0.143 A 
ATOM      2  C2  UNL d   1       2.726   6.000  -6.000  0.00  0.00    -0.057 A 
ATOM      3  C3  UNL d   1       1.330   5.995  -5.891  0.00  0.00     0.033 A 
ATOM      4  C4  UNL d   1       0.670   4.882  -5.382  0.00  0.00    -0.042 A 
ATOM      5  C5  UNL d   1       1.407   3.775  -4.978  0.00  0.00     0.033 A 
ATOM      6  C6  UNL d   1       2.801   3.788  -5.083  0.00  0.00    -0.057 A 
ENDROOT
BRANCH   1   7
ATOM      7  N   UNL d   1       4.873   4.811  -5.749  0.00  0.00    -0.732 N 
ATOM      8  C   UNL d   1       5.677   6.000  -5.932  0.00  0.00     0.284 C 
ATOM      9  H3  UNL d   1       5.294   4.115  -5.138  0.00  0.00     0.395 HD
ENDBRANCH   1   7
TORSDOF 1
ENDMDL
