MODEL 1
REMARK minimizedAffinity 3.4696424
REMARK minimizedRMSD -1
REMARK  1 active torsions:
REMARK  status: ('A' for Active; 'I' for Inactive)
REMARK    1  A    between atoms: N_2  and  C1_3 
ROOT
ATOM      1  C1  UNL d   1      -2.065   5.644  -0.814  0.00  0.00     0.143 A 
ATOM      2  C2  UNL d   1      -2.942   5.672   0.276  0.00  0.00    -0.057 A 
ATOM      3  C3  UNL d   1      -4.321   5.834   0.093  0.00  0.00     0.033 A 
ATOM      4  C4  UNL d   1      -4.845   6.000  -1.184  0.00  0.00    -0.042 A 
ATOM      5  C5  UNL d   1      -3.989   6.000  -2.280  0.00  0.00     0.033 A 
ATOM      6  C6  UNL d   1      -2.614   5.831  -2.092  0.00  0.00    -0.057 A 
ENDROOT
BRANCH   1   7
ATOM      7  N   UNL d   1      -0.675   5.585  -0.691  0.00  0.00    -0.732 N 
ATOM      8  C   UNL d   1       0.021   4.319  -0.781  0.00  0.00     0.284 C 
ATOM      9  H3  UNL d   1      -0.210   6.350  -1.174  0.00  0.00     0.395 HD
ENDBRANCH   1   7
TORSDOF 1
ENDMDL
