MODEL 1
REMARK minimizedAffinity -0.953791976
REMARK minimizedRMSD -1
REMARK  1 active torsions:
REMARK  status: ('A' for Active; 'I' for Inactive)
REMARK    1  A    between atoms: N_2  and  C1_3 
ROOT
ATOM      1  C1  UNL d   1      -1.641   5.994  -4.430  0.00  0.00     0.143 A 
ATOM      2  C2  UNL d   1      -3.036   5.970  -4.318  0.00  0.00    -0.057 A 
ATOM      3  C3  UNL d   1      -3.664   5.988  -3.066  0.00  0.00     0.033 A 
ATOM      4  C4  UNL d   1      -2.905   6.000  -1.901  0.00  0.00    -0.042 A 
ATOM      5  C5  UNL d   1      -1.517   5.998  -1.988  0.00  0.00     0.033 A 
ATOM      6  C6  UNL d   1      -0.896   5.987  -3.240  0.00  0.00    -0.057 A 
ENDROOT
BRANCH   1   7
ATOM      7  N   UNL d   1      -0.957   5.878  -5.642  0.00  0.00    -0.732 N 
ATOM      8  C   UNL d   1       0.488   5.953  -5.683  0.00  0.00     0.284 C 
ATOM      9  H3  UNL d   1      -1.353   5.161  -6.245  0.00  0.00     0.395 HD
ENDBRANCH   1   7
TORSDOF 1
ENDMDL
