MODEL 1
REMARK minimizedAffinity 4.12206793
REMARK minimizedRMSD -1
REMARK  1 active torsions:
REMARK  status: ('A' for Active; 'I' for Inactive)
REMARK    1  A    between atoms: N_2  and  C1_3 
ROOT
ATOM      1  C1  UNL d   1       0.346   1.213   1.838  0.00  0.00     0.143 A 
ATOM      2  C2  UNL d   1       0.433   0.488   0.645  0.00  0.00    -0.057 A 
ATOM      3  C3  UNL d   1       0.961   1.062  -0.518  0.00  0.00     0.033 A 
ATOM      4  C4  UNL d   1       1.386   2.386  -0.515  0.00  0.00    -0.042 A 
ATOM      5  C5  UNL d   1       1.287   3.134   0.653  0.00  0.00     0.033 A 
ATOM      6  C6  UNL d   1       0.765   2.553   1.812  0.00  0.00    -0.057 A 
ENDROOT
BRANCH   1   7
ATOM      7  N   UNL d   1      -0.259   0.730   3.001  0.00  0.00    -0.732 N 
ATOM      8  C   UNL d   1       0.178   1.185   4.303  0.00  0.00     0.284 C 
ATOM      9  H3  UNL d   1      -1.269   0.647   2.907  0.00  0.00     0.395 HD
ENDBRANCH   1   7
TORSDOF 1
ENDMDL
