MODEL 1
REMARK minimizedAffinity 0.797895193
REMARK minimizedRMSD -1
REMARK  1 active torsions:
REMARK  status: ('A' for Active; 'I' for Inactive)
REMARK    1  A    between atoms: N_2  and  C1_3 
ROOT
ATOM      1  C1  UNL d   1      -0.939   0.745   1.979  0.00  0.00     0.143 A 
ATOM      2  C2  UNL d   1      -0.342   1.989   2.211  0.00  0.00    -0.057 A 
ATOM      3  C3  UNL d   1       0.835   2.364   1.553  0.00  0.00     0.033 A 
ATOM      4  C4  UNL d   1       1.455   1.486   0.669  0.00  0.00    -0.042 A 
ATOM      5  C5  UNL d   1       0.893   0.235   0.441  0.00  0.00     0.033 A 
ATOM      6  C6  UNL d   1      -0.286  -0.131   1.097  0.00  0.00    -0.057 A 
ENDROOT
BRANCH   1   7
ATOM      7  N   UNL d   1      -2.055   0.275   2.675  0.00  0.00    -0.732 N 
ATOM      8  C   UNL d   1      -3.194   1.136   2.909  0.00  0.00     0.284 C 
ATOM      9  H3  UNL d   1      -2.300  -0.678   2.419  0.00  0.00     0.395 HD
ENDBRANCH   1   7
TORSDOF 1
ENDMDL
