MODEL 1
REMARK minimizedAffinity 4.92312956
REMARK minimizedRMSD -1
REMARK  1 active torsions:
REMARK  status: ('A' for Active; 'I' for Inactive)
REMARK    1  A    between atoms: N_2  and  C1_3 
ROOT
ATOM      1  C1  UNL d   1      -1.842  -0.289  -0.412  0.00  0.00     0.143 A 
ATOM      2  C2  UNL d   1      -2.437   0.608   0.481  0.00  0.00    -0.057 A 
ATOM      3  C3  UNL d   1      -1.686   1.259   1.466  0.00  0.00     0.033 A 
ATOM      4  C4  UNL d   1      -0.325   1.000   1.596  0.00  0.00    -0.042 A 
ATOM      5  C5  UNL d   1       0.283   0.093   0.736  0.00  0.00     0.033 A 
ATOM      6  C6  UNL d   1      -0.472  -0.549  -0.251  0.00  0.00    -0.057 A 
ENDROOT
BRANCH   1   7
ATOM      7  N   UNL d   1      -2.553  -1.042  -1.350  0.00  0.00    -0.732 N 
ATOM      8  C   UNL d   1      -3.322  -2.196  -0.938  0.00  0.00     0.284 C 
ATOM      9  H3  UNL d   1      -3.016  -0.460  -2.044  0.00  0.00     0.395 HD
ENDBRANCH   1   7
TORSDOF 1
ENDMDL
