MODEL 1
REMARK minimizedAffinity 4.34685469
REMARK minimizedRMSD -1
REMARK  1 active torsions:
REMARK  status: ('A' for Active; 'I' for Inactive)
REMARK    1  A    between atoms: N_2  and  C1_3 
ROOT
ATOM      1  C1  UNL d   1       0.790   1.389   0.430  0.00  0.00     0.143 A 
ATOM      2  C2  UNL d   1       1.149   2.449   1.271  0.00  0.00    -0.057 A 
ATOM      3  C3  UNL d   1       1.588   3.672   0.750  0.00  0.00     0.033 A 
ATOM      4  C4  UNL d   1       1.703   3.848  -0.625  0.00  0.00    -0.042 A 
ATOM      5  C5  UNL d   1       1.375   2.800  -1.479  0.00  0.00     0.033 A 
ATOM      6  C6  UNL d   1       0.931   1.583  -0.953  0.00  0.00    -0.057 A 
ENDROOT
BRANCH   1   7
ATOM      7  N   UNL d   1       0.440   0.117   0.889  0.00  0.00    -0.732 N 
ATOM      8  C   UNL d   1      -0.946  -0.295   0.937  0.00  0.00     0.284 C 
ATOM      9  H3  UNL d   1       1.077  -0.604   0.557  0.00  0.00     0.395 HD
ENDBRANCH   1   7
TORSDOF 1
ENDMDL
