MODEL 1
REMARK minimizedAffinity 0.391204804
REMARK minimizedRMSD -1
REMARK  1 active torsions:
REMARK  status: ('A' for Active; 'I' for Inactive)
REMARK    1  A    between atoms: N_2  and  C1_3 
ROOT
ATOM      1  C1  UNL d   1       0.406   1.280   1.336  0.00  0.00     0.143 A 
ATOM      2  C2  UNL d   1       0.041   1.663   2.631  0.00  0.00    -0.057 A 
ATOM      3  C3  UNL d   1      -1.120   1.165   3.235  0.00  0.00     0.033 A 
ATOM      4  C4  UNL d   1      -1.955   0.297   2.540  0.00  0.00    -0.042 A 
ATOM      5  C5  UNL d   1      -1.625  -0.077   1.242  0.00  0.00     0.033 A 
ATOM      6  C6  UNL d   1      -0.460   0.417   0.648  0.00  0.00    -0.057 A 
ENDROOT
BRANCH   1   7
ATOM      7  N   UNL d   1       1.496   1.816   0.645  0.00  0.00    -0.732 N 
ATOM      8  C   UNL d   1       1.345   3.012  -0.156  0.00  0.00     0.284 C 
ATOM      9  H3  UNL d   1       2.354   1.787   1.191  0.00  0.00     0.395 HD
ENDBRANCH   1   7
TORSDOF 1
ENDMDL
