MODEL 1
REMARK minimizedAffinity 4.28634787
REMARK minimizedRMSD -1
REMARK  1 active torsions:
REMARK  status: ('A' for Active; 'I' for Inactive)
REMARK    1  A    between atoms: N_2  and  C1_3 
ROOT
ATOM      1  C1  UNL d   1      -4.013  -3.319  -0.994  0.00  0.00     0.143 A 
ATOM      2  C2  UNL d   1      -4.057  -2.692  -2.244  0.00  0.00    -0.057 A 
ATOM      3  C3  UNL d   1      -4.092  -1.296  -2.356  0.00  0.00     0.033 A 
ATOM      4  C4  UNL d   1      -4.115  -0.502  -1.214  0.00  0.00    -0.042 A 
ATOM      5  C5  UNL d   1      -4.097  -1.104   0.039  0.00  0.00     0.033 A 
ATOM      6  C6  UNL d   1      -4.055  -2.498   0.143  0.00  0.00    -0.057 A 
ENDROOT
BRANCH   1   7
ATOM      7  N   UNL d   1      -4.075  -4.703  -0.816  0.00  0.00    -0.732 N 
ATOM      8  C   UNL d   1      -2.868  -5.476  -0.615  0.00  0.00     0.284 C 
ATOM      9  H3  UNL d   1      -4.852  -4.984  -0.222  0.00  0.00     0.395 HD
ENDBRANCH   1   7
TORSDOF 1
ENDMDL
