MODEL 1
REMARK minimizedAffinity 2.43238139
REMARK minimizedRMSD -1
REMARK  2 active torsions:
REMARK  status: ('A' for Active; 'I' for Inactive)
REMARK    1  A    between atoms: C2'_3  and  C1'_4 
REMARK    2  A    between atoms: C1'_4  and  C1_5 
ROOT
ATOM      1  C1  I4B d   1      -1.170   1.683   1.809  0.00  0.00    -0.075 A 
ATOM      2  C2  I4B d   1      -0.041   2.235   1.259  0.00  0.00     0.003 A 
ATOM      3  C3  I4B d   1       0.978   1.401   0.737  0.00  0.00     0.002 A 
ATOM      4  C4  I4B d   1       0.850   0.031   0.832  0.00  0.00    -0.004 A 
ATOM      5  C5  I4B d   1      -0.306  -0.527   1.370  0.00  0.00     0.002 A 
ATOM      6  C6  I4B d   1      -1.329   0.304   1.850  0.00  0.00     0.003 A 
ENDROOT
BRANCH   1   7
ATOM      7  C1' I4B d   1      -2.212   2.592   2.381  0.00  0.00     0.060 C 
BRANCH   7   8
ATOM      8  C2' I4B d   1      -2.930   1.844   3.485  0.00  0.00    -0.013 C 
ATOM      9  C4' I4B d   1      -4.185   2.563   3.904  0.00  0.00     0.013 C 
ATOM     10  C3' I4B d   1      -3.239   0.464   2.984  0.00  0.00     0.013 C 
ENDBRANCH   7   8
ENDBRANCH   1   7
TORSDOF 2
ENDMDL
