MODEL 1
REMARK minimizedAffinity 2.98293281
REMARK minimizedRMSD -1
REMARK  2 active torsions:
REMARK  status: ('A' for Active; 'I' for Inactive)
REMARK    1  A    between atoms: C2'_3  and  C1'_4 
REMARK    2  A    between atoms: C1'_4  and  C1_5 
ROOT
ATOM      1  C1  I4B d   1      -3.665   1.513   3.194  0.00  0.00    -0.075 A 
ATOM      2  C2  I4B d   1      -3.608   0.147   3.312  0.00  0.00     0.003 A 
ATOM      3  C3  I4B d   1      -2.467  -0.561   2.863  0.00  0.00     0.002 A 
ATOM      4  C4  I4B d   1      -1.433   0.127   2.262  0.00  0.00    -0.004 A 
ATOM      5  C5  I4B d   1      -1.482   1.515   2.164  0.00  0.00     0.002 A 
ATOM      6  C6  I4B d   1      -2.599   2.214   2.644  0.00  0.00     0.003 A 
ENDROOT
BRANCH   1   7
ATOM      7  C1' I4B d   1      -4.899   2.225   3.647  0.00  0.00     0.060 C 
BRANCH   7   8
ATOM      8  C2' I4B d   1      -4.667   2.704   5.066  0.00  0.00    -0.013 C 
ATOM      9  C4' I4B d   1      -5.255   4.074   5.282  0.00  0.00     0.013 C 
ATOM     10  C3' I4B d   1      -5.276   1.701   5.999  0.00  0.00     0.013 C 
ENDBRANCH   7   8
ENDBRANCH   1   7
TORSDOF 2
ENDMDL
