MODEL 1
REMARK minimizedAffinity -3.25972438
REMARK minimizedRMSD -1
REMARK  2 active torsions:
REMARK  status: ('A' for Active; 'I' for Inactive)
REMARK    1  A    between atoms: C2'_3  and  C1'_4 
REMARK    2  A    between atoms: C1'_4  and  C1_5 
ROOT
ATOM      1  C1  I4B d   1       0.525   0.564   0.993  0.00  0.00    -0.075 A 
ATOM      2  C2  I4B d   1       1.178   0.087   2.101  0.00  0.00     0.003 A 
ATOM      3  C3  I4B d   1       0.612  -0.961   2.867  0.00  0.00     0.002 A 
ATOM      4  C4  I4B d   1      -0.625  -1.464   2.520  0.00  0.00    -0.004 A 
ATOM      5  C5  I4B d   1      -1.276  -0.994   1.382  0.00  0.00     0.002 A 
ATOM      6  C6  I4B d   1      -0.692   0.017   0.607  0.00  0.00     0.003 A 
ENDROOT
BRANCH   1   7
ATOM      7  C1' I4B d   1       1.136   1.694   0.226  0.00  0.00     0.060 C 
BRANCH   7   8
ATOM      8  C2' I4B d   1       1.242   2.885   1.155  0.00  0.00    -0.013 C 
ATOM      9  C4' I4B d   1       2.302   3.848   0.688  0.00  0.00     0.013 C 
ATOM     10  C3' I4B d   1      -0.102   3.547   1.215  0.00  0.00     0.013 C 
ENDBRANCH   7   8
ENDBRANCH   1   7
TORSDOF 2
ENDMDL
