MODEL 1
REMARK minimizedAffinity 6.76306057
REMARK minimizedRMSD -1
REMARK  2 active torsions:
REMARK  status: ('A' for Active; 'I' for Inactive)
REMARK    1  A    between atoms: C2'_3  and  C1'_4 
REMARK    2  A    between atoms: C1'_4  and  C1_5 
ROOT
ATOM      1  C1  I4B d   1      -4.135   1.671   3.827  0.00  0.00    -0.075 A 
ATOM      2  C2  I4B d   1      -5.118   0.755   4.110  0.00  0.00     0.003 A 
ATOM      3  C3  I4B d   1      -6.000   0.970   5.197  0.00  0.00     0.002 A 
ATOM      4  C4  I4B d   1      -5.833   2.080   6.000  0.00  0.00    -0.004 A 
ATOM      5  C5  I4B d   1      -4.851   3.019   5.697  0.00  0.00     0.002 A 
ATOM      6  C6  I4B d   1      -4.004   2.820   4.597  0.00  0.00     0.003 A 
ENDROOT
BRANCH   1   7
ATOM      7  C1' I4B d   1      -3.200   1.397   2.692  0.00  0.00     0.060 C 
BRANCH   7   8
ATOM      8  C2' I4B d   1      -2.339   2.627   2.490  0.00  0.00    -0.013 C 
ATOM      9  C4' I4B d   1      -0.900   2.252   2.251  0.00  0.00     0.013 C 
ATOM     10  C3' I4B d   1      -2.897   3.398   1.331  0.00  0.00     0.013 C 
ENDBRANCH   7   8
ENDBRANCH   1   7
TORSDOF 2
ENDMDL
