MODEL 1
REMARK minimizedAffinity 6.77773571
REMARK minimizedRMSD -1
REMARK  2 active torsions:
REMARK  status: ('A' for Active; 'I' for Inactive)
REMARK    1  A    between atoms: C2'_3  and  C1'_4 
REMARK    2  A    between atoms: C1'_4  and  C1_5 
ROOT
ATOM      1  C1  I4B d   1      -0.274   0.057   1.773  0.00  0.00    -0.075 A 
ATOM      2  C2  I4B d   1      -1.096   0.881   2.501  0.00  0.00     0.003 A 
ATOM      3  C3  I4B d   1      -1.455   2.155   1.999  0.00  0.00     0.002 A 
ATOM      4  C4  I4B d   1      -0.932   2.583   0.796  0.00  0.00    -0.004 A 
ATOM      5  C5  I4B d   1      -0.117   1.738   0.048  0.00  0.00     0.002 A 
ATOM      6  C6  I4B d   1       0.204   0.462   0.533  0.00  0.00     0.003 A 
ENDROOT
BRANCH   1   7
ATOM      7  C1' I4B d   1       0.111  -1.269   2.348  0.00  0.00     0.060 C 
BRANCH   7   8
ATOM      8  C2' I4B d   1       0.373  -1.077   3.828  0.00  0.00    -0.013 C 
ATOM      9  C4' I4B d   1      -0.502  -1.978   4.658  0.00  0.00     0.013 C 
ATOM     10  C3' I4B d   1       1.826  -1.351   4.080  0.00  0.00     0.013 C 
ENDBRANCH   7   8
ENDBRANCH   1   7
TORSDOF 2
ENDMDL
