MODEL 1
REMARK minimizedAffinity 5.35021591
REMARK minimizedRMSD -1
REMARK  2 active torsions:
REMARK  status: ('A' for Active; 'I' for Inactive)
REMARK    1  A    between atoms: C2'_3  and  C1'_4 
REMARK    2  A    between atoms: C1'_4  and  C1_5 
ROOT
ATOM      1  C1  I4B d   1      -2.270   1.985   2.426  0.00  0.00    -0.075 A 
ATOM      2  C2  I4B d   1      -2.240   0.614   2.488  0.00  0.00     0.003 A 
ATOM      3  C3  I4B d   1      -1.157  -0.101   1.922  0.00  0.00     0.002 A 
ATOM      4  C4  I4B d   1      -0.157   0.586   1.266  0.00  0.00    -0.004 A 
ATOM      5  C5  I4B d   1      -0.177   1.978   1.224  0.00  0.00     0.002 A 
ATOM      6  C6  I4B d   1      -1.234   2.682   1.819  0.00  0.00     0.003 A 
ENDROOT
BRANCH   1   7
ATOM      7  C1' I4B d   1      -3.445   2.707   3.004  0.00  0.00     0.060 C 
BRANCH   7   8
ATOM      8  C2' I4B d   1      -3.797   2.046   4.322  0.00  0.00    -0.013 C 
ATOM      9  C4' I4B d   1      -4.256   3.061   5.336  0.00  0.00     0.013 C 
ATOM     10  C3' I4B d   1      -4.864   1.025   4.057  0.00  0.00     0.013 C 
ENDBRANCH   7   8
ENDBRANCH   1   7
TORSDOF 2
ENDMDL
