MODEL 1
REMARK minimizedAffinity 7.06434441
REMARK minimizedRMSD -1
REMARK  2 active torsions:
REMARK  status: ('A' for Active; 'I' for Inactive)
REMARK    1  A    between atoms: C2'_3  and  C1'_4 
REMARK    2  A    between atoms: C1'_4  and  C1_5 
ROOT
ATOM      1  C1  I4B d   1      -2.564   3.189   1.894  0.00  0.00    -0.075 A 
ATOM      2  C2  I4B d   1      -2.837   3.759   0.676  0.00  0.00     0.003 A 
ATOM      3  C3  I4B d   1      -4.047   4.466   0.474  0.00  0.00     0.002 A 
ATOM      4  C4  I4B d   1      -4.972   4.535   1.495  0.00  0.00    -0.004 A 
ATOM      5  C5  I4B d   1      -4.684   3.976   2.737  0.00  0.00     0.002 A 
ATOM      6  C6  I4B d   1      -3.468   3.309   2.942  0.00  0.00     0.003 A 
ENDROOT
BRANCH   1   7
ATOM      7  C1' I4B d   1      -1.292   2.421   2.063  0.00  0.00     0.060 C 
BRANCH   7   8
ATOM      8  C2' I4B d   1      -1.238   1.364   0.979  0.00  0.00    -0.013 C 
ATOM      9  C4' I4B d   1       0.032   1.471   0.175  0.00  0.00     0.013 C 
ATOM     10  C3' I4B d   1      -1.350   0.021   1.636  0.00  0.00     0.013 C 
ENDBRANCH   7   8
ENDBRANCH   1   7
TORSDOF 2
ENDMDL
