MODEL 1
REMARK minimizedAffinity 4.49743366
REMARK minimizedRMSD -1
REMARK  2 active torsions:
REMARK  status: ('A' for Active; 'I' for Inactive)
REMARK    1  A    between atoms: C2'_3  and  C1'_4 
REMARK    2  A    between atoms: C1'_4  and  C1_5 
ROOT
ATOM      1  C1  I4B d   1      -1.096   0.994   0.636  0.00  0.00    -0.075 A 
ATOM      2  C2  I4B d   1      -1.391  -0.147   1.341  0.00  0.00     0.003 A 
ATOM      3  C3  I4B d   1      -0.350  -0.991   1.800  0.00  0.00     0.002 A 
ATOM      4  C4  I4B d   1       0.959  -0.685   1.491  0.00  0.00    -0.004 A 
ATOM      5  C5  I4B d   1       1.258   0.484   0.796  0.00  0.00     0.002 A 
ATOM      6  C6  I4B d   1       0.225   1.335   0.377  0.00  0.00     0.003 A 
ENDROOT
BRANCH   1   7
ATOM      7  C1' I4B d   1      -2.220   1.845   0.138  0.00  0.00     0.060 C 
BRANCH   7   8
ATOM      8  C2' I4B d   1      -2.272   3.096   0.991  0.00  0.00    -0.013 C 
ATOM      9  C4' I4B d   1      -3.358   4.029   0.525  0.00  0.00     0.013 C 
ATOM     10  C3' I4B d   1      -2.491   2.678   2.414  0.00  0.00     0.013 C 
ENDBRANCH   7   8
ENDBRANCH   1   7
TORSDOF 2
ENDMDL
