MODEL 1
REMARK minimizedAffinity 5.58488512
REMARK minimizedRMSD -1
REMARK  2 active torsions:
REMARK  status: ('A' for Active; 'I' for Inactive)
REMARK    1  A    between atoms: C2'_3  and  C1'_4 
REMARK    2  A    between atoms: C1'_4  and  C1_5 
ROOT
ATOM      1  C1  I4B d   1      -3.374  -4.239  -2.237  0.00  0.00    -0.075 A 
ATOM      2  C2  I4B d   1      -2.603  -3.771  -3.272  0.00  0.00     0.003 A 
ATOM      3  C3  I4B d   1      -2.527  -2.381  -3.532  0.00  0.00     0.002 A 
ATOM      4  C4  I4B d   1      -3.273  -1.505  -2.770  0.00  0.00    -0.004 A 
ATOM      5  C5  I4B d   1      -4.036  -1.980  -1.707  0.00  0.00     0.002 A 
ATOM      6  C6  I4B d   1      -4.078  -3.354  -1.431  0.00  0.00     0.003 A 
ENDROOT
BRANCH   1   7
ATOM      7  C1' I4B d   1      -3.458  -5.716  -2.011  0.00  0.00     0.060 C 
BRANCH   7   8
ATOM      8  C2' I4B d   1      -3.187  -5.979  -0.544  0.00  0.00    -0.013 C 
ATOM      9  C4' I4B d   1      -2.259  -4.943   0.034  0.00  0.00     0.013 C 
ATOM     10  C3' I4B d   1      -4.503  -5.990   0.175  0.00  0.00     0.013 C 
ENDBRANCH   7   8
ENDBRANCH   1   7
TORSDOF 2
ENDMDL
