MODEL 1
REMARK minimizedAffinity 2.42485785
REMARK minimizedRMSD -1
REMARK  2 active torsions:
REMARK  status: ('A' for Active; 'I' for Inactive)
REMARK    1  A    between atoms: C2'_3  and  C1'_4 
REMARK    2  A    between atoms: C1'_4  and  C1_5 
ROOT
ATOM      1  C1  I4B d   1      -1.406   0.209   1.586  0.00  0.00    -0.075 A 
ATOM      2  C2  I4B d   1      -1.562   1.508   2.002  0.00  0.00     0.003 A 
ATOM      3  C3  I4B d   1      -0.595   2.485   1.664  0.00  0.00     0.002 A 
ATOM      4  C4  I4B d   1       0.530   2.112   0.957  0.00  0.00    -0.004 A 
ATOM      5  C5  I4B d   1       0.675   0.799   0.517  0.00  0.00     0.002 A 
ATOM      6  C6  I4B d   1      -0.305  -0.156   0.823  0.00  0.00     0.003 A 
ENDROOT
BRANCH   1   7
ATOM      7  C1' I4B d   1      -2.430  -0.804   1.989  0.00  0.00     0.060 C 
BRANCH   7   8
ATOM      8  C2' I4B d   1      -1.784  -1.754   2.977  0.00  0.00    -0.013 C 
ATOM      9  C4' I4B d   1      -0.351  -1.374   3.241  0.00  0.00     0.013 C 
ATOM     10  C3' I4B d   1      -2.592  -1.731   4.239  0.00  0.00     0.013 C 
ENDBRANCH   7   8
ENDBRANCH   1   7
TORSDOF 2
ENDMDL
