MODEL 1
REMARK minimizedAffinity -3.74311304
REMARK minimizedRMSD -1
REMARK  1 active torsions:
REMARK  status: ('A' for Active; 'I' for Inactive)
REMARK    1  A    between atoms: C1_2  and  C2_3 
ROOT
ATOM      1  C2  UNL d   1       0.235  -1.340   0.690  0.00  0.00    -0.077 A 
ATOM      2  C3  UNL d   1       1.538  -1.782   0.964  0.00  0.00     0.002 A 
ATOM      3  C4  UNL d   1       2.637  -1.137   0.392  0.00  0.00     0.002 A 
ATOM      4  C5  UNL d   1       2.445  -0.046  -0.452  0.00  0.00    -0.004 A 
ATOM      5  C6  UNL d   1       1.154   0.400  -0.732  0.00  0.00     0.002 A 
ATOM      6  C7  UNL d   1       0.054  -0.244  -0.163  0.00  0.00     0.002 A 
ENDROOT
BRANCH   1   7
ATOM      7  C1  UNL d   1      -0.949  -2.003   1.344  0.00  0.00     0.055 C 
ATOM      8  C   UNL d   1      -1.671  -1.046   2.281  0.00  0.00     0.019 C 
ENDBRANCH   1   7
TORSDOF 1
ENDMDL
