MODEL 1
REMARK minimizedAffinity -2.2298727
REMARK minimizedRMSD -1
REMARK  1 active torsions:
REMARK  status: ('A' for Active; 'I' for Inactive)
REMARK    1  A    between atoms: C1_2  and  C2_3 
ROOT
ATOM      1  C2  UNL d   1      -1.353   3.804  -4.021  0.00  0.00    -0.077 A 
ATOM      2  C3  UNL d   1      -1.046   3.843  -2.654  0.00  0.00     0.002 A 
ATOM      3  C4  UNL d   1      -1.725   3.021  -1.753  0.00  0.00     0.002 A 
ATOM      4  C5  UNL d   1      -2.713   2.151  -2.209  0.00  0.00    -0.004 A 
ATOM      5  C6  UNL d   1      -3.028   2.106  -3.567  0.00  0.00     0.002 A 
ATOM      6  C7  UNL d   1      -2.351   2.928  -4.469  0.00  0.00     0.002 A 
ENDROOT
BRANCH   1   7
ATOM      7  C1  UNL d   1      -0.588   4.654  -5.001  0.00  0.00     0.055 C 
ATOM      8  C   UNL d   1       0.031   5.865  -4.317  0.00  0.00     0.019 C 
ENDBRANCH   1   7
TORSDOF 1
ENDMDL
