MODEL 1
REMARK minimizedAffinity -5.15221834
REMARK minimizedRMSD -1
REMARK  1 active torsions:
REMARK  status: ('A' for Active; 'I' for Inactive)
REMARK    1  A    between atoms: C1_2  and  C2_3 
ROOT
ATOM      1  C2  UNL d   1      -0.243   0.339   0.113  0.00  0.00    -0.077 A 
ATOM      2  C3  UNL d   1      -1.021   0.446   1.274  0.00  0.00     0.002 A 
ATOM      3  C4  UNL d   1      -1.176  -0.651   2.124  0.00  0.00     0.002 A 
ATOM      4  C5  UNL d   1      -0.552  -1.860   1.825  0.00  0.00    -0.004 A 
ATOM      5  C6  UNL d   1       0.222  -1.977   0.671  0.00  0.00     0.002 A 
ATOM      6  C7  UNL d   1       0.377  -0.883  -0.181  0.00  0.00     0.002 A 
ENDROOT
BRANCH   1   7
ATOM      7  C1  UNL d   1      -0.035   1.534  -0.780  0.00  0.00     0.055 C 
ATOM      8  C   UNL d   1      -1.272   1.821  -1.619  0.00  0.00     0.019 C 
ENDBRANCH   1   7
TORSDOF 1
ENDMDL
