MODEL 1
REMARK minimizedAffinity -5.1719985
REMARK minimizedRMSD -1
REMARK  1 active torsions:
REMARK  status: ('A' for Active; 'I' for Inactive)
REMARK    1  A    between atoms: C1_2  and  C2_3 
ROOT
ATOM      1  C2  UNL d   1       0.289   0.018  -0.079  0.00  0.00    -0.077 A 
ATOM      2  C3  UNL d   1      -0.555  -0.866   0.609  0.00  0.00     0.002 A 
ATOM      3  C4  UNL d   1      -0.019  -1.923   1.347  0.00  0.00     0.002 A 
ATOM      4  C5  UNL d   1       1.361  -2.103   1.409  0.00  0.00    -0.004 A 
ATOM      5  C6  UNL d   1       2.208  -1.231   0.727  0.00  0.00     0.002 A 
ATOM      6  C7  UNL d   1       1.675  -0.174  -0.013  0.00  0.00     0.002 A 
ENDROOT
BRANCH   1   7
ATOM      7  C1  UNL d   1      -0.285   1.188  -0.835  0.00  0.00     0.055 C 
ATOM      8  C   UNL d   1      -1.806   1.139  -0.860  0.00  0.00     0.019 C 
ENDBRANCH   1   7
TORSDOF 1
ENDMDL
