MODEL 1
REMARK minimizedAffinity -4.63418627
REMARK minimizedRMSD -1
REMARK  1 active torsions:
REMARK  status: ('A' for Active; 'I' for Inactive)
REMARK    1  A    between atoms: C1_2  and  C2_3 
ROOT
ATOM      1  C2  UNL d   1       0.265   0.181   0.097  0.00  0.00    -0.077 A 
ATOM      2  C3  UNL d   1      -0.058  -0.911   0.915  0.00  0.00     0.002 A 
ATOM      3  C4  UNL d   1       0.791  -2.018   0.982  0.00  0.00     0.002 A 
ATOM      4  C5  UNL d   1       1.968  -2.042   0.239  0.00  0.00    -0.004 A 
ATOM      5  C6  UNL d   1       2.297  -0.961  -0.579  0.00  0.00     0.002 A 
ATOM      6  C7  UNL d   1       1.450   0.145  -0.649  0.00  0.00     0.002 A 
ENDROOT
BRANCH   1   7
ATOM      7  C1  UNL d   1      -0.624   1.397   0.060  0.00  0.00     0.055 C 
ATOM      8  C   UNL d   1      -1.104   1.689  -1.354  0.00  0.00     0.019 C 
ENDBRANCH   1   7
TORSDOF 1
ENDMDL
