MODEL 1
REMARK minimizedAffinity -3.96544218
REMARK minimizedRMSD -1
REMARK  1 active torsions:
REMARK  status: ('A' for Active; 'I' for Inactive)
REMARK    1  A    between atoms: C1_2  and  C2_3 
ROOT
ATOM      1  C2  UNL d   1      -1.767   3.135  -3.869  0.00  0.00    -0.077 A 
ATOM      2  C3  UNL d   1      -3.157   3.188  -3.696  0.00  0.00     0.002 A 
ATOM      3  C4  UNL d   1      -3.826   2.158  -3.031  0.00  0.00     0.002 A 
ATOM      4  C5  UNL d   1      -3.112   1.071  -2.530  0.00  0.00    -0.004 A 
ATOM      5  C6  UNL d   1      -1.729   1.009  -2.699  0.00  0.00     0.002 A 
ATOM      6  C7  UNL d   1      -1.060   2.036  -3.365  0.00  0.00     0.002 A 
ENDROOT
BRANCH   1   7
ATOM      7  C1  UNL d   1      -1.038   4.268  -4.543  0.00  0.00     0.055 C 
ATOM      8  C   UNL d   1       0.121   4.764  -3.692  0.00  0.00     0.019 C 
ENDBRANCH   1   7
TORSDOF 1
ENDMDL
