MODEL 1
REMARK minimizedAffinity -4.31693792
REMARK minimizedRMSD -1
REMARK  1 active torsions:
REMARK  status: ('A' for Active; 'I' for Inactive)
REMARK    1  A    between atoms: C1_2  and  C2_3 
ROOT
ATOM      1  C2  UNL d   1       0.213  -0.498   0.240  0.00  0.00    -0.077 A 
ATOM      2  C3  UNL d   1      -0.718   0.538   0.085  0.00  0.00     0.002 A 
ATOM      3  C4  UNL d   1      -0.301   1.806  -0.326  0.00  0.00     0.002 A 
ATOM      4  C5  UNL d   1       1.045   2.047  -0.590  0.00  0.00    -0.004 A 
ATOM      5  C6  UNL d   1       1.979   1.023  -0.437  0.00  0.00     0.002 A 
ATOM      6  C7  UNL d   1       1.565  -0.244  -0.025  0.00  0.00     0.002 A 
ENDROOT
BRANCH   1   7
ATOM      7  C1  UNL d   1      -0.240  -1.879   0.636  0.00  0.00     0.055 C 
ATOM      8  C   UNL d   1       0.940  -2.828   0.787  0.00  0.00     0.019 C 
ENDBRANCH   1   7
TORSDOF 1
ENDMDL
