MODEL 1
REMARK minimizedAffinity -4.76786089
REMARK minimizedRMSD -1
REMARK  1 active torsions:
REMARK  status: ('A' for Active; 'I' for Inactive)
REMARK    1  A    between atoms: C1_2  and  C2_3 
ROOT
ATOM      1  C2  UNL d   1      -0.156   0.415  -0.405  0.00  0.00    -0.077 A 
ATOM      2  C3  UNL d   1       1.243   0.334  -0.426  0.00  0.00     0.002 A 
ATOM      3  C4  UNL d   1       1.901  -0.688   0.261  0.00  0.00     0.002 A 
ATOM      4  C5  UNL d   1       1.169  -1.638   0.970  0.00  0.00    -0.004 A 
ATOM      5  C6  UNL d   1      -0.223  -1.564   0.998  0.00  0.00     0.002 A 
ATOM      6  C7  UNL d   1      -0.883  -0.543   0.313  0.00  0.00     0.002 A 
ENDROOT
BRANCH   1   7
ATOM      7  C1  UNL d   1      -0.871   1.487  -1.186  0.00  0.00     0.055 C 
ATOM      8  C   UNL d   1      -1.920   0.891  -2.114  0.00  0.00     0.019 C 
ENDBRANCH   1   7
TORSDOF 1
ENDMDL
