MODEL 1
REMARK minimizedAffinity -4.08119965
REMARK minimizedRMSD -1
REMARK  1 active torsions:
REMARK  status: ('A' for Active; 'I' for Inactive)
REMARK    1  A    between atoms: C1_2  and  C2_3 
ROOT
ATOM      1  C2  UNL d   1      -0.084  -1.241   0.721  0.00  0.00    -0.077 A 
ATOM      2  C3  UNL d   1       1.060  -0.746   0.079  0.00  0.00     0.002 A 
ATOM      3  C4  UNL d   1       1.086   0.563  -0.407  0.00  0.00     0.002 A 
ATOM      4  C5  UNL d   1      -0.026   1.387  -0.253  0.00  0.00    -0.004 A 
ATOM      5  C6  UNL d   1      -1.169   0.903   0.382  0.00  0.00     0.002 A 
ATOM      6  C7  UNL d   1      -1.198  -0.405   0.867  0.00  0.00     0.002 A 
ENDROOT
BRANCH   1   7
ATOM      7  C1  UNL d   1      -0.096  -2.636   1.289  0.00  0.00     0.055 C 
ATOM      8  C   UNL d   1       1.316  -3.164   1.491  0.00  0.00     0.019 C 
ENDBRANCH   1   7
TORSDOF 1
ENDMDL
