MODEL 1
REMARK minimizedAffinity -3.85705996
REMARK minimizedRMSD -1
REMARK  1 active torsions:
REMARK  status: ('A' for Active; 'I' for Inactive)
REMARK    1  A    between atoms: C1_2  and  C2_3 
ROOT
ATOM      1  C2  UNL d   1      -0.215  -0.063  -0.258  0.00  0.00    -0.077 A 
ATOM      2  C3  UNL d   1      -1.045  -1.172  -0.045  0.00  0.00     0.002 A 
ATOM      3  C4  UNL d   1      -0.511  -2.374   0.424  0.00  0.00     0.002 A 
ATOM      4  C5  UNL d   1       0.853  -2.477   0.687  0.00  0.00    -0.004 A 
ATOM      5  C6  UNL d   1       1.688  -1.380   0.477  0.00  0.00     0.002 A 
ATOM      6  C7  UNL d   1       1.156  -0.178   0.007  0.00  0.00     0.002 A 
ENDROOT
BRANCH   1   7
ATOM      7  C1  UNL d   1      -0.796   1.249  -0.717  0.00  0.00     0.055 C 
ATOM      8  C   UNL d   1      -1.931   1.035  -1.708  0.00  0.00     0.019 C 
ENDBRANCH   1   7
TORSDOF 1
ENDMDL
