MODEL 1
REMARK minimizedAffinity -3.73282433
REMARK minimizedRMSD -1
REMARK  1 active torsions:
REMARK  status: ('A' for Active; 'I' for Inactive)
REMARK    1  A    between atoms: C1_2  and  C2_3 
ROOT
ATOM      1  C2  UNL d   1       0.121  -0.548  -0.029  0.00  0.00    -0.077 A 
ATOM      2  C3  UNL d   1      -0.472  -1.767   0.327  0.00  0.00     0.002 A 
ATOM      3  C4  UNL d   1       0.313  -2.827   0.785  0.00  0.00     0.002 A 
ATOM      4  C5  UNL d   1       1.694  -2.677   0.895  0.00  0.00    -0.004 A 
ATOM      5  C6  UNL d   1       2.293  -1.469   0.541  0.00  0.00     0.002 A 
ATOM      6  C7  UNL d   1       1.511  -0.409   0.082  0.00  0.00     0.002 A 
ENDROOT
BRANCH   1   7
ATOM      7  C1  UNL d   1      -0.729   0.613  -0.476  0.00  0.00     0.055 C 
ATOM      8  C   UNL d   1      -1.210   0.428  -1.908  0.00  0.00     0.019 C 
ENDBRANCH   1   7
TORSDOF 1
ENDMDL
