MODEL 1
REMARK minimizedAffinity -1.97855711
REMARK minimizedRMSD -1
REMARK  1 active torsions:
REMARK  status: ('A' for Active; 'I' for Inactive)
REMARK    1  A    between atoms: C1_2  and  C2_3 
ROOT
ATOM      1  C2  UNL d   1      -0.140  -1.089   0.892  0.00  0.00    -0.077 A 
ATOM      2  C3  UNL d   1      -1.195  -0.283   1.342  0.00  0.00     0.002 A 
ATOM      3  C4  UNL d   1      -1.290   1.049   0.936  0.00  0.00     0.002 A 
ATOM      4  C5  UNL d   1      -0.335   1.586   0.074  0.00  0.00    -0.004 A 
ATOM      5  C6  UNL d   1       0.719   0.793  -0.377  0.00  0.00     0.002 A 
ATOM      6  C7  UNL d   1       0.816  -0.538   0.029  0.00  0.00     0.002 A 
ENDROOT
BRANCH   1   7
ATOM      7  C1  UNL d   1      -0.063  -2.540   1.291  0.00  0.00     0.055 C 
ATOM      8  C   UNL d   1       1.353  -2.931   1.686  0.00  0.00     0.019 C 
ENDBRANCH   1   7
TORSDOF 1
ENDMDL
