MODEL 1
REMARK minimizedAffinity -4.94864988
REMARK minimizedRMSD -1
REMARK  1 active torsions:
REMARK  status: ('A' for Active; 'I' for Inactive)
REMARK    1  A    between atoms: C1_2  and  C2_3 
ROOT
ATOM      1  C2  UNL d   1       0.088   0.310  -0.070  0.00  0.00    -0.077 A 
ATOM      2  C3  UNL d   1       1.417   0.240  -0.509  0.00  0.00     0.002 A 
ATOM      3  C4  UNL d   1       2.177  -0.909  -0.279  0.00  0.00     0.002 A 
ATOM      4  C5  UNL d   1       1.616  -1.996   0.387  0.00  0.00    -0.004 A 
ATOM      5  C6  UNL d   1       0.295  -1.935   0.830  0.00  0.00     0.002 A 
ATOM      6  C7  UNL d   1      -0.466  -0.788   0.602  0.00  0.00     0.002 A 
ENDROOT
BRANCH   1   7
ATOM      7  C1  UNL d   1      -0.749   1.529  -0.360  0.00  0.00     0.055 C 
ATOM      8  C   UNL d   1      -1.562   1.351  -1.634  0.00  0.00     0.019 C 
ENDBRANCH   1   7
TORSDOF 1
ENDMDL
