MODEL 1
REMARK minimizedAffinity 17.0146084
REMARK minimizedRMSD -1
REMARK  0 active torsions:
REMARK  status: ('A' for Active; 'I' for Inactive)
ROOT
ATOM      1  C   UNL d   1       0.362  -0.203   1.930  0.00  0.00    -0.002 A 
ATOM      2  C1  UNL d   1      -0.200   0.435   0.833  0.00  0.00     0.010 A 
ATOM      3  C2  UNL d   1      -0.106   1.821   0.693  0.00  0.00     0.041 A 
ATOM      4  C3  UNL d   1       0.569   2.562   1.683  0.00  0.00    -0.075 A 
ATOM      5  S   UNL d   1       0.809   4.269   1.720  0.00  0.00     0.015 SA
ATOM      6  C4  UNL d   1       1.663   4.191   3.193  0.00  0.00     0.022 A 
ATOM      7  C5  UNL d   1       1.772   2.902   3.659  0.00  0.00     0.026 A 
ATOM      8  C6  UNL d   1       1.143   1.942   2.796  0.00  0.00    -0.082 A 
ATOM      9  C7  UNL d   1       1.031   0.535   2.910  0.00  0.00     0.045 A 
ENDROOT
TORSDOF 0
ENDMDL
