MODEL 1
REMARK minimizedAffinity 10.9417076
REMARK minimizedRMSD -1
REMARK  0 active torsions:
REMARK  status: ('A' for Active; 'I' for Inactive)
ROOT
ATOM      1  C   UNL d   1       0.082   4.221  -0.032  0.00  0.00    -0.002 A 
ATOM      2  C1  UNL d   1      -0.375   3.178  -0.826  0.00  0.00     0.010 A 
ATOM      3  C2  UNL d   1      -0.442   1.878  -0.320  0.00  0.00     0.041 A 
ATOM      4  C3  UNL d   1      -0.040   1.642   1.009  0.00  0.00    -0.075 A 
ATOM      5  S   UNL d   1      -0.036   0.132   1.841  0.00  0.00     0.015 SA
ATOM      6  C4  UNL d   1       0.572   0.836   3.270  0.00  0.00     0.022 A 
ATOM      7  C5  UNL d   1       0.773   2.189   3.132  0.00  0.00     0.026 A 
ATOM      8  C6  UNL d   1       0.424   2.676   1.827  0.00  0.00    -0.082 A 
ATOM      9  C7  UNL d   1       0.481   3.983   1.286  0.00  0.00     0.045 A 
ENDROOT
TORSDOF 0
ENDMDL
