MODEL 1
REMARK minimizedAffinity 1.03522503
REMARK minimizedRMSD -1
REMARK  0 active torsions:
REMARK  status: ('A' for Active; 'I' for Inactive)
ROOT
ATOM      1  C   UNL d   1       0.109   3.457   1.575  0.00  0.00    -0.002 A 
ATOM      2  C1  UNL d   1       0.193   3.463   0.189  0.00  0.00     0.010 A 
ATOM      3  C2  UNL d   1       0.412   2.277  -0.514  0.00  0.00     0.041 A 
ATOM      4  C3  UNL d   1       0.545   1.073   0.206  0.00  0.00    -0.075 A 
ATOM      5  S   UNL d   1       0.818  -0.501  -0.443  0.00  0.00     0.015 SA
ATOM      6  C4  UNL d   1       0.828  -1.218   1.103  0.00  0.00     0.022 A 
ATOM      7  C5  UNL d   1       0.631  -0.294   2.101  0.00  0.00     0.026 A 
ATOM      8  C6  UNL d   1       0.464   1.042   1.601  0.00  0.00    -0.082 A 
ATOM      9  C7  UNL d   1       0.242   2.261   2.285  0.00  0.00     0.045 A 
ENDROOT
TORSDOF 0
ENDMDL
