MODEL 1
REMARK minimizedAffinity 0.541773558
REMARK minimizedRMSD -1
REMARK  0 active torsions:
REMARK  status: ('A' for Active; 'I' for Inactive)
ROOT
ATOM      1  C   UNL d   1      -2.920   0.326  -2.641  0.00  0.00    -0.002 A 
ATOM      2  C1  UNL d   1      -2.418  -0.833  -3.216  0.00  0.00     0.010 A 
ATOM      3  C2  UNL d   1      -1.268  -1.438  -2.706  0.00  0.00     0.041 A 
ATOM      4  C3  UNL d   1      -0.625  -0.855  -1.597  0.00  0.00    -0.075 A 
ATOM      5  S   UNL d   1       0.796  -1.421  -0.802  0.00  0.00     0.015 SA
ATOM      6  C4  UNL d   1       0.770  -0.138   0.320  0.00  0.00     0.022 A 
ATOM      7  C5  UNL d   1      -0.290   0.711   0.108  0.00  0.00     0.026 A 
ATOM      8  C6  UNL d   1      -1.112   0.312  -0.999  0.00  0.00    -0.082 A 
ATOM      9  C7  UNL d   1      -2.280   0.902  -1.540  0.00  0.00     0.045 A 
ENDROOT
TORSDOF 0
ENDMDL
