MODEL 1
REMARK minimizedAffinity 2.38642192
REMARK minimizedRMSD -1
REMARK  3 active torsions:
REMARK  status: ('A' for Active; 'I' for Inactive)
REMARK    1  A    between atoms: C3'_2  and  C2'_3 
REMARK    2  A    between atoms: C2'_3  and  C1'_4 
REMARK    3  A    between atoms: C1'_4  and  C1_5 
ROOT
ATOM      1  C1  N4B d   1       3.336   4.218  -5.905  0.00  0.00    -0.075 A 
ATOM      2  C2  N4B d   1       3.627   2.836  -5.924  0.00  0.00     0.002 A 
ATOM      3  C3  N4B d   1       4.932   2.409  -5.926  0.00  0.00     0.002 A 
ATOM      4  C4  N4B d   1       5.959   3.342  -5.928  0.00  0.00    -0.004 A 
ATOM      5  C5  N4B d   1       5.669   4.674  -5.884  0.00  0.00     0.002 A 
ATOM      6  C6  N4B d   1       4.362   5.118  -5.878  0.00  0.00     0.002 A 
ENDROOT
BRANCH   1   7
ATOM      7  C1' N4B d   1       1.925   4.734  -5.990  0.00  0.00     0.057 C 
BRANCH   7   8
ATOM      8  C2' N4B d   1       1.004   3.801  -5.209  0.00  0.00     0.009 C 
BRANCH   8   9
ATOM      9  C3' N4B d   1       0.664   2.548  -5.997  0.00  0.00     0.004 C 
ATOM     10  C4' N4B d   1       1.669   1.451  -5.806  0.00  0.00     0.003 C 
ENDBRANCH   8   9
ENDBRANCH   7   8
ENDBRANCH   1   7
TORSDOF 3
ENDMDL
