MODEL 1
REMARK minimizedAffinity 7.52540255
REMARK minimizedRMSD -1
REMARK  3 active torsions:
REMARK  status: ('A' for Active; 'I' for Inactive)
REMARK    1  A    between atoms: C3'_2  and  C2'_3 
REMARK    2  A    between atoms: C2'_3  and  C1'_4 
REMARK    3  A    between atoms: C1'_4  and  C1_5 
ROOT
ATOM      1  C1  N4B d   1       3.350  -2.555   2.115  0.00  0.00    -0.075 A 
ATOM      2  C2  N4B d   1       3.236  -3.094   0.815  0.00  0.00     0.002 A 
ATOM      3  C3  N4B d   1       2.223  -2.679  -0.014  0.00  0.00     0.002 A 
ATOM      4  C4  N4B d   1       1.305  -1.744   0.440  0.00  0.00    -0.004 A 
ATOM      5  C5  N4B d   1       1.437  -1.209   1.688  0.00  0.00     0.002 A 
ATOM      6  C6  N4B d   1       2.453  -1.614   2.530  0.00  0.00     0.002 A 
ENDROOT
BRANCH   1   7
ATOM      7  C1' N4B d   1       4.390  -3.040   3.087  0.00  0.00     0.057 C 
BRANCH   7   8
ATOM      8  C2' N4B d   1       4.797  -1.888   4.002  0.00  0.00     0.009 C 
BRANCH   8   9
ATOM      9  C3' N4B d   1       5.555  -2.374   5.225  0.00  0.00     0.004 C 
ATOM     10  C4' N4B d   1       4.820  -3.444   5.976  0.00  0.00     0.003 C 
ENDBRANCH   8   9
ENDBRANCH   7   8
ENDBRANCH   1   7
TORSDOF 3
ENDMDL
