MODEL 1
REMARK minimizedAffinity 3.44721723
REMARK minimizedRMSD -1
REMARK  3 active torsions:
REMARK  status: ('A' for Active; 'I' for Inactive)
REMARK    1  A    between atoms: C3'_2  and  C2'_3 
REMARK    2  A    between atoms: C2'_3  and  C1'_4 
REMARK    3  A    between atoms: C1'_4  and  C1_5 
ROOT
ATOM      1  C1  N4B d   1       4.587  -4.206   3.352  0.00  0.00    -0.075 A 
ATOM      2  C2  N4B d   1       4.948  -3.301   4.374  0.00  0.00     0.002 A 
ATOM      3  C3  N4B d   1       5.260  -3.769   5.626  0.00  0.00     0.002 A 
ATOM      4  C4  N4B d   1       5.200  -5.130   5.885  0.00  0.00    -0.004 A 
ATOM      5  C5  N4B d   1       4.875  -6.000   4.885  0.00  0.00     0.002 A 
ATOM      6  C6  N4B d   1       4.563  -5.544   3.621  0.00  0.00     0.002 A 
ENDROOT
BRANCH   1   7
ATOM      7  C1' N4B d   1       4.154  -3.735   1.990  0.00  0.00     0.057 C 
BRANCH   7   8
ATOM      8  C2' N4B d   1       2.734  -3.185   2.079  0.00  0.00     0.009 C 
BRANCH   8   9
ATOM      9  C3' N4B d   1       2.272  -2.589   0.760  0.00  0.00     0.004 C 
ATOM     10  C4' N4B d   1       3.350  -2.579  -0.282  0.00  0.00     0.003 C 
ENDBRANCH   8   9
ENDBRANCH   7   8
ENDBRANCH   1   7
TORSDOF 3
ENDMDL
