MODEL 1
REMARK minimizedAffinity 11.0798874
REMARK minimizedRMSD -1
REMARK  3 active torsions:
REMARK  status: ('A' for Active; 'I' for Inactive)
REMARK    1  A    between atoms: C3'_2  and  C2'_3 
REMARK    2  A    between atoms: C2'_3  and  C1'_4 
REMARK    3  A    between atoms: C1'_4  and  C1_5 
ROOT
ATOM      1  C1  N4B d   1       2.206   2.778  -5.826  0.00  0.00    -0.075 A 
ATOM      2  C2  N4B d   1       3.171   1.748  -5.799  0.00  0.00     0.002 A 
ATOM      3  C3  N4B d   1       4.507   2.058  -5.876  0.00  0.00     0.002 A 
ATOM      4  C4  N4B d   1       4.898   3.382  -6.000  0.00  0.00    -0.004 A 
ATOM      5  C5  N4B d   1       3.960   4.373  -6.000  0.00  0.00     0.002 A 
ATOM      6  C6  N4B d   1       2.615   4.077  -5.918  0.00  0.00     0.002 A 
ENDROOT
BRANCH   1   7
ATOM      7  C1' N4B d   1       0.730   2.483  -5.830  0.00  0.00     0.057 C 
BRANCH   7   8
ATOM      8  C2' N4B d   1       0.303   2.048  -4.432  0.00  0.00     0.009 C 
BRANCH   8   9
ATOM      9  C3' N4B d   1      -0.985   2.725  -3.995  0.00  0.00     0.004 C 
ATOM     10  C4' N4B d   1      -1.434   2.295  -2.630  0.00  0.00     0.003 C 
ENDBRANCH   8   9
ENDBRANCH   7   8
ENDBRANCH   1   7
TORSDOF 3
ENDMDL
