MODEL 1
REMARK minimizedAffinity 3.85441041
REMARK minimizedRMSD -1
REMARK  3 active torsions:
REMARK  status: ('A' for Active; 'I' for Inactive)
REMARK    1  A    between atoms: C3'_2  and  C2'_3 
REMARK    2  A    between atoms: C2'_3  and  C1'_4 
REMARK    3  A    between atoms: C1'_4  and  C1_5 
ROOT
ATOM      1  C1  N4B d   1       1.322   0.218   1.375  0.00  0.00    -0.075 A 
ATOM      2  C2  N4B d   1       2.089  -0.727   0.659  0.00  0.00     0.002 A 
ATOM      3  C3  N4B d   1       2.052  -2.053   1.016  0.00  0.00     0.002 A 
ATOM      4  C4  N4B d   1       1.274  -2.452   2.093  0.00  0.00    -0.004 A 
ATOM      5  C5  N4B d   1       0.517  -1.537   2.763  0.00  0.00     0.002 A 
ATOM      6  C6  N4B d   1       0.540  -0.202   2.412  0.00  0.00     0.002 A 
ENDROOT
BRANCH   1   7
ATOM      7  C1' N4B d   1       1.395   1.691   1.076  0.00  0.00     0.057 C 
BRANCH   7   8
ATOM      8  C2' N4B d   1       2.733   2.235   1.569  0.00  0.00     0.009 C 
BRANCH   8   9
ATOM      9  C3' N4B d   1       3.654   2.605   0.420  0.00  0.00     0.004 C 
ATOM     10  C4' N4B d   1       4.335   1.414  -0.186  0.00  0.00     0.003 C 
ENDBRANCH   8   9
ENDBRANCH   7   8
ENDBRANCH   1   7
TORSDOF 3
ENDMDL
