MODEL 1
REMARK minimizedAffinity 3.61913323
REMARK minimizedRMSD -1
REMARK  3 active torsions:
REMARK  status: ('A' for Active; 'I' for Inactive)
REMARK    1  A    between atoms: C3'_2  and  C2'_3 
REMARK    2  A    between atoms: C2'_3  and  C1'_4 
REMARK    3  A    between atoms: C1'_4  and  C1_5 
ROOT
ATOM      1  C1  N4B d   1       4.731  -3.487   3.434  0.00  0.00    -0.075 A 
ATOM      2  C2  N4B d   1       5.241  -2.582   4.390  0.00  0.00     0.002 A 
ATOM      3  C3  N4B d   1       5.532  -3.017   5.660  0.00  0.00     0.002 A 
ATOM      4  C4  N4B d   1       5.305  -4.342   6.000  0.00  0.00    -0.004 A 
ATOM      5  C5  N4B d   1       4.837  -5.216   5.062  0.00  0.00     0.002 A 
ATOM      6  C6  N4B d   1       4.544  -4.794   3.781  0.00  0.00     0.002 A 
ENDROOT
BRANCH   1   7
ATOM      7  C1' N4B d   1       4.318  -3.039   2.058  0.00  0.00     0.057 C 
BRANCH   7   8
ATOM      8  C2' N4B d   1       2.858  -2.596   2.094  0.00  0.00     0.009 C 
BRANCH   8   9
ATOM      9  C3' N4B d   1       2.289  -2.402   0.699  0.00  0.00     0.004 C 
ATOM     10  C4' N4B d   1       0.807  -2.173   0.703  0.00  0.00     0.003 C 
ENDBRANCH   8   9
ENDBRANCH   7   8
ENDBRANCH   1   7
TORSDOF 3
ENDMDL
