MODEL 1
REMARK minimizedAffinity 3.20564151
REMARK minimizedRMSD -1
REMARK  0 active torsions:
REMARK  status: ('A' for Active; 'I' for Inactive)
ROOT
ATOM      1  C1  BNZ d   1       5.995  -0.497   0.299  0.00  0.00     0.000 A 
ATOM      2  C2  BNZ d   1       5.989   0.365  -0.765  0.00  0.00     0.000 A 
ATOM      3  C3  BNZ d   1       5.996   1.718  -0.570  0.00  0.00     0.000 A 
ATOM      4  C4  BNZ d   1       5.968   2.207   0.686  0.00  0.00     0.000 A 
ATOM      5  C5  BNZ d   1       5.965   1.351   1.769  0.00  0.00     0.000 A 
ATOM      6  C6  BNZ d   1       5.997  -0.010   1.570  0.00  0.00     0.000 A 
ENDROOT
TORSDOF 0
ENDMDL
