MODEL 1
REMARK minimizedAffinity 0.565043032
REMARK minimizedRMSD -1
REMARK  0 active torsions:
REMARK  status: ('A' for Active; 'I' for Inactive)
ROOT
ATOM      1  C1  BNZ d   1      -2.358  -3.584   0.592  0.00  0.00     0.000 A 
ATOM      2  C2  BNZ d   1      -2.811  -3.066  -0.591  0.00  0.00     0.000 A 
ATOM      3  C3  BNZ d   1      -2.041  -2.201  -1.317  0.00  0.00     0.000 A 
ATOM      4  C4  BNZ d   1      -0.836  -1.826  -0.840  0.00  0.00     0.000 A 
ATOM      5  C5  BNZ d   1      -0.369  -2.333   0.356  0.00  0.00     0.000 A 
ATOM      6  C6  BNZ d   1      -1.131  -3.233   1.065  0.00  0.00     0.000 A 
ENDROOT
TORSDOF 0
ENDMDL
