MODEL 1
REMARK minimizedAffinity -4.61945343
REMARK minimizedRMSD -1
REMARK  0 active torsions:
REMARK  status: ('A' for Active; 'I' for Inactive)
ROOT
ATOM      1  C1  BNZ d   1      -1.292  -4.312  -1.486  0.00  0.00     0.000 A 
ATOM      2  C2  BNZ d   1      -0.766  -3.923  -0.283  0.00  0.00     0.000 A 
ATOM      3  C3  BNZ d   1      -1.021  -2.679   0.222  0.00  0.00     0.000 A 
ATOM      4  C4  BNZ d   1      -1.766  -1.812  -0.494  0.00  0.00     0.000 A 
ATOM      5  C5  BNZ d   1      -2.295  -2.186  -1.713  0.00  0.00     0.000 A 
ATOM      6  C6  BNZ d   1      -2.069  -3.453  -2.200  0.00  0.00     0.000 A 
ENDROOT
TORSDOF 0
ENDMDL
