MODEL 1
REMARK minimizedAffinity 5.5368433
REMARK minimizedRMSD -1
REMARK  0 active torsions:
REMARK  status: ('A' for Active; 'I' for Inactive)
ROOT
ATOM      1  C1  BNZ d   1       4.202  -0.340   2.294  0.00  0.00     0.000 A 
ATOM      2  C2  BNZ d   1       2.866  -0.477   2.562  0.00  0.00     0.000 A 
ATOM      3  C3  BNZ d   1       1.965   0.452   2.122  0.00  0.00     0.000 A 
ATOM      4  C4  BNZ d   1       2.404   1.536   1.451  0.00  0.00     0.000 A 
ATOM      5  C5  BNZ d   1       3.749   1.694   1.182  0.00  0.00     0.000 A 
ATOM      6  C6  BNZ d   1       4.649   0.737   1.592  0.00  0.00     0.000 A 
ENDROOT
TORSDOF 0
ENDMDL
