MODEL 1
REMARK minimizedAffinity 5.52160215
REMARK minimizedRMSD -1
REMARK  0 active torsions:
REMARK  status: ('A' for Active; 'I' for Inactive)
ROOT
ATOM      1  C1  BNZ d   1      -4.833  -5.999  -1.605  0.00  0.00     0.000 A 
ATOM      2  C2  BNZ d   1      -5.975  -5.640  -2.271  0.00  0.00     0.000 A 
ATOM      3  C3  BNZ d   1      -6.000  -4.531  -3.070  0.00  0.00     0.000 A 
ATOM      4  C4  BNZ d   1      -4.897  -3.761  -3.169  0.00  0.00     0.000 A 
ATOM      5  C5  BNZ d   1      -3.741  -4.104  -2.496  0.00  0.00     0.000 A 
ATOM      6  C6  BNZ d   1      -3.708  -5.243  -1.724  0.00  0.00     0.000 A 
ENDROOT
TORSDOF 0
ENDMDL
