MODEL 1
REMARK minimizedAffinity -2.52556157
REMARK minimizedRMSD -1
REMARK  0 active torsions:
REMARK  status: ('A' for Active; 'I' for Inactive)
ROOT
ATOM      1  C1  BNZ d   1      -5.739  -4.834  -3.447  0.00  0.00     0.000 A 
ATOM      2  C2  BNZ d   1      -5.329  -4.258  -4.620  0.00  0.00     0.000 A 
ATOM      3  C3  BNZ d   1      -4.109  -4.559  -5.158  0.00  0.00     0.000 A 
ATOM      4  C4  BNZ d   1      -3.285  -5.402  -4.503  0.00  0.00     0.000 A 
ATOM      5  C5  BNZ d   1      -3.681  -5.983  -3.314  0.00  0.00     0.000 A 
ATOM      6  C6  BNZ d   1      -4.925  -5.708  -2.796  0.00  0.00     0.000 A 
ENDROOT
TORSDOF 0
ENDMDL
