MODEL 1
REMARK minimizedAffinity -3.22875905
REMARK minimizedRMSD -1
REMARK  0 active torsions:
REMARK  status: ('A' for Active; 'I' for Inactive)
ROOT
ATOM      1  C1  BNZ d   1      -3.310  -5.239  -4.233  0.00  0.00     0.000 A 
ATOM      2  C2  BNZ d   1      -3.640  -5.661  -2.972  0.00  0.00     0.000 A 
ATOM      3  C3  BNZ d   1      -4.948  -5.776  -2.593  0.00  0.00     0.000 A 
ATOM      4  C4  BNZ d   1      -5.923  -5.430  -3.459  0.00  0.00     0.000 A 
ATOM      5  C5  BNZ d   1      -5.606  -4.994  -4.730  0.00  0.00     0.000 A 
ATOM      6  C6  BNZ d   1      -4.289  -4.917  -5.121  0.00  0.00     0.000 A 
ENDROOT
TORSDOF 0
ENDMDL
