MODEL 1
REMARK minimizedAffinity 2.01190138
REMARK minimizedRMSD -1
REMARK  0 active torsions:
REMARK  status: ('A' for Active; 'I' for Inactive)
ROOT
ATOM      1  C1  BNZ d   1      -5.940  -5.650  -3.035  0.00  0.00     0.000 A 
ATOM      2  C2  BNZ d   1      -5.235  -5.020  -4.026  0.00  0.00     0.000 A 
ATOM      3  C3  BNZ d   1      -4.078  -4.349  -3.744  0.00  0.00     0.000 A 
ATOM      4  C4  BNZ d   1      -3.649  -4.275  -2.467  0.00  0.00     0.000 A 
ATOM      5  C5  BNZ d   1      -4.354  -4.896  -1.456  0.00  0.00     0.000 A 
ATOM      6  C6  BNZ d   1      -5.497  -5.604  -1.749  0.00  0.00     0.000 A 
ENDROOT
TORSDOF 0
ENDMDL
