MODEL 1
REMARK minimizedAffinity 8.92545891
REMARK minimizedRMSD -1
REMARK  0 active torsions:
REMARK  status: ('A' for Active; 'I' for Inactive)
ROOT
ATOM      1  C1  BNZ d   1      -3.308  -5.185   1.113  0.00  0.00     0.000 A 
ATOM      2  C2  BNZ d   1      -2.749  -5.829   2.185  0.00  0.00     0.000 A 
ATOM      3  C3  BNZ d   1      -1.667  -5.300   2.832  0.00  0.00     0.000 A 
ATOM      4  C4  BNZ d   1      -1.122  -4.151   2.383  0.00  0.00     0.000 A 
ATOM      5  C5  BNZ d   1      -1.668  -3.495   1.298  0.00  0.00     0.000 A 
ATOM      6  C6  BNZ d   1      -2.781  -4.010   0.673  0.00  0.00     0.000 A 
ENDROOT
TORSDOF 0
ENDMDL
