MODEL 1
REMARK minimizedAffinity 5.79674959
REMARK minimizedRMSD -1
REMARK  0 active torsions:
REMARK  status: ('A' for Active; 'I' for Inactive)
ROOT
ATOM      1  C1  BNZ d   1      -3.130  -3.326  -2.268  0.00  0.00     0.000 A 
ATOM      2  C2  BNZ d   1      -2.025  -3.922  -2.816  0.00  0.00     0.000 A 
ATOM      3  C3  BNZ d   1      -0.915  -4.169  -2.058  0.00  0.00     0.000 A 
ATOM      4  C4  BNZ d   1      -0.895  -3.784  -0.766  0.00  0.00     0.000 A 
ATOM      5  C5  BNZ d   1      -1.997  -3.174  -0.201  0.00  0.00     0.000 A 
ATOM      6  C6  BNZ d   1      -3.127  -2.962  -0.957  0.00  0.00     0.000 A 
ENDROOT
TORSDOF 0
ENDMDL
