MODEL 1
REMARK minimizedAffinity 1.41360795
REMARK minimizedRMSD -1
REMARK  0 active torsions:
REMARK  status: ('A' for Active; 'I' for Inactive)
ROOT
ATOM      1  C1  BNZ d   1       1.727  -4.104  -5.999  0.00  0.00     0.000 A 
ATOM      2  C2  BNZ d   1       0.438  -4.567  -5.996  0.00  0.00     0.000 A 
ATOM      3  C3  BNZ d   1      -0.618  -3.699  -5.995  0.00  0.00     0.000 A 
ATOM      4  C4  BNZ d   1      -0.384  -2.371  -5.957  0.00  0.00     0.000 A 
ATOM      5  C5  BNZ d   1       0.909  -1.889  -5.950  0.00  0.00     0.000 A 
ATOM      6  C6  BNZ d   1       1.969  -2.765  -5.990  0.00  0.00     0.000 A 
ENDROOT
TORSDOF 0
ENDMDL
