MODEL 1
REMARK minimizedAffinity 0.907761335
REMARK minimizedRMSD -1
REMARK  0 active torsions:
REMARK  status: ('A' for Active; 'I' for Inactive)
ROOT
ATOM      1  C1  BNZ d   1      -0.552  -3.690  -5.997  0.00  0.00     0.000 A 
ATOM      2  C2  BNZ d   1       0.651  -4.344  -5.984  0.00  0.00     0.000 A 
ATOM      3  C3  BNZ d   1       1.826  -3.647  -5.953  0.00  0.00     0.000 A 
ATOM      4  C4  BNZ d   1       1.798  -2.299  -5.977  0.00  0.00     0.000 A 
ATOM      5  C5  BNZ d   1       0.594  -1.625  -6.000  0.00  0.00     0.000 A 
ATOM      6  C6  BNZ d   1      -0.588  -2.330  -5.991  0.00  0.00     0.000 A 
ENDROOT
TORSDOF 0
ENDMDL
