MODEL 1
REMARK minimizedAffinity 1.89657807
REMARK minimizedRMSD -1
REMARK  0 active torsions:
REMARK  status: ('A' for Active; 'I' for Inactive)
ROOT
ATOM      1  C1  BNZ d   1      -5.347  -4.827  -3.097  0.00  0.00     0.000 A 
ATOM      2  C2  BNZ d   1      -4.609  -4.426  -4.179  0.00  0.00     0.000 A 
ATOM      3  C3  BNZ d   1      -3.343  -3.935  -4.019  0.00  0.00     0.000 A 
ATOM      4  C4  BNZ d   1      -2.833  -3.809  -2.777  0.00  0.00     0.000 A 
ATOM      5  C5  BNZ d   1      -3.568  -4.201  -1.676  0.00  0.00     0.000 A 
ATOM      6  C6  BNZ d   1      -4.827  -4.730  -1.844  0.00  0.00     0.000 A 
ENDROOT
TORSDOF 0
ENDMDL
