MODEL 1
REMARK minimizedAffinity -1.64939213
REMARK minimizedRMSD -1
REMARK  1 active torsions:
REMARK  status: ('A' for Active; 'I' for Inactive)
REMARK    1  A    between atoms: C3_4  and  O_7 
ROOT
ATOM      1  C   UNL d   1       1.084   0.323   0.390  0.00  0.00    -0.033 A 
ATOM      2  C1  UNL d   1       1.425   1.523   1.016  0.00  0.00     0.039 A 
ATOM      3  C2  UNL d   1       1.433   2.714   0.288  0.00  0.00    -0.080 A 
ATOM      4  C3  UNL d   1       1.099   2.692  -1.063  0.00  0.00     0.150 A 
ATOM      5  C4  UNL d   1       0.754   1.500  -1.692  0.00  0.00    -0.007 A 
ATOM      6  C5  UNL d   1       0.747   0.312  -0.964  0.00  0.00     0.039 A 
ENDROOT
BRANCH   4   7
ATOM      7  O   UNL d   1       1.098   3.829  -1.816  0.00  0.00    -0.526 OA
ATOM      8  H5  UNL d   1       1.384   4.569  -1.255  0.00  0.00     0.418 HD
ENDBRANCH   4   7
TORSDOF 1
ENDMDL
