MODEL 1
REMARK minimizedAffinity -4.31723452
REMARK minimizedRMSD -1
REMARK  1 active torsions:
REMARK  status: ('A' for Active; 'I' for Inactive)
REMARK    1  A    between atoms: C3_4  and  O_7 
ROOT
ATOM      1  C   UNL d   1       1.007   3.036  -0.701  0.00  0.00    -0.033 A 
ATOM      2  C1  UNL d   1       0.790   2.281   0.453  0.00  0.00     0.039 A 
ATOM      3  C2  UNL d   1       1.007   0.902   0.439  0.00  0.00    -0.080 A 
ATOM      4  C3  UNL d   1       1.441   0.291  -0.734  0.00  0.00     0.150 A 
ATOM      5  C4  UNL d   1       1.662   1.037  -1.887  0.00  0.00    -0.007 A 
ATOM      6  C5  UNL d   1       1.444   2.414  -1.871  0.00  0.00     0.039 A 
ENDROOT
BRANCH   4   7
ATOM      7  O   UNL d   1       1.661  -1.053  -0.798  0.00  0.00    -0.526 OA
ATOM      8  H5  UNL d   1       1.439  -1.443   0.064  0.00  0.00     0.418 HD
ENDBRANCH   4   7
TORSDOF 1
ENDMDL
