MODEL 1
REMARK minimizedAffinity -2.88873982
REMARK minimizedRMSD -1
REMARK  1 active torsions:
REMARK  status: ('A' for Active; 'I' for Inactive)
REMARK    1  A    between atoms: C3_4  and  O_7 
ROOT
ATOM      1  C   UNL d   1       0.381   1.588  -1.144  0.00  0.00    -0.033 A 
ATOM      2  C1  UNL d   1       0.507   2.609  -0.200  0.00  0.00     0.039 A 
ATOM      3  C2  UNL d   1       1.222   2.387   0.979  0.00  0.00    -0.080 A 
ATOM      4  C3  UNL d   1       1.806   1.143   1.200  0.00  0.00     0.150 A 
ATOM      5  C4  UNL d   1       1.688   0.123   0.261  0.00  0.00    -0.007 A 
ATOM      6  C5  UNL d   1       0.973   0.346  -0.915  0.00  0.00     0.039 A 
ENDROOT
BRANCH   4   7
ATOM      7  O   UNL d   1       2.509   0.878   2.337  0.00  0.00    -0.526 OA
ATOM      8  H5  UNL d   1       2.483   1.665   2.906  0.00  0.00     0.418 HD
ENDBRANCH   4   7
TORSDOF 1
ENDMDL
