MODEL 1
REMARK minimizedAffinity -2.7308774
REMARK minimizedRMSD -1
REMARK  1 active torsions:
REMARK  status: ('A' for Active; 'I' for Inactive)
REMARK    1  A    between atoms: C3_4  and  O_7 
ROOT
ATOM      1  C   UNL d   1       1.223   0.651  -2.337  0.00  0.00    -0.033 A 
ATOM      2  C1  UNL d   1       0.988  -0.387  -1.434  0.00  0.00     0.039 A 
ATOM      3  C2  UNL d   1       0.785  -0.106  -0.081  0.00  0.00    -0.080 A 
ATOM      4  C3  UNL d   1       0.818   1.216   0.354  0.00  0.00     0.150 A 
ATOM      5  C4  UNL d   1       1.048   2.256  -0.542  0.00  0.00    -0.007 A 
ATOM      6  C5  UNL d   1       1.251   1.973  -1.892  0.00  0.00     0.039 A 
ENDROOT
BRANCH   4   7
ATOM      7  O   UNL d   1       0.631   1.540   1.665  0.00  0.00    -0.526 OA
ATOM      8  H5  UNL d   1       0.512   0.719   2.170  0.00  0.00     0.418 HD
ENDBRANCH   4   7
TORSDOF 1
ENDMDL
