MODEL 1
REMARK minimizedAffinity -4.0573101
REMARK minimizedRMSD -1
REMARK  1 active torsions:
REMARK  status: ('A' for Active; 'I' for Inactive)
REMARK    1  A    between atoms: C3_4  and  O_7 
ROOT
ATOM      1  C   UNL d   1       0.664   2.650   0.255  0.00  0.00    -0.033 A 
ATOM      2  C1  UNL d   1       0.739   2.881  -1.120  0.00  0.00     0.039 A 
ATOM      3  C2  UNL d   1       1.088   1.842  -1.986  0.00  0.00    -0.080 A 
ATOM      4  C3  UNL d   1       1.359   0.580  -1.465  0.00  0.00     0.150 A 
ATOM      5  C4  UNL d   1       1.282   0.342  -0.097  0.00  0.00    -0.007 A 
ATOM      6  C5  UNL d   1       0.934   1.380   0.766  0.00  0.00     0.039 A 
ENDROOT
BRANCH   4   7
ATOM      7  O   UNL d   1       1.708  -0.463  -2.270  0.00  0.00    -0.526 OA
ATOM      8  H5  UNL d   1       1.749  -0.144  -3.187  0.00  0.00     0.418 HD
ENDBRANCH   4   7
TORSDOF 1
ENDMDL
