MODEL 1
REMARK minimizedAffinity 8.73232365
REMARK minimizedRMSD -1
REMARK  1 active torsions:
REMARK  status: ('A' for Active; 'I' for Inactive)
REMARK    1  A    between atoms: C3_4  and  O_7 
ROOT
ATOM      1  C   UNL d   1       1.749  -0.328  -0.627  0.00  0.00    -0.033 A 
ATOM      2  C1  UNL d   1       0.983  -0.124  -1.777  0.00  0.00     0.039 A 
ATOM      3  C2  UNL d   1       0.719   1.173  -2.221  0.00  0.00    -0.080 A 
ATOM      4  C3  UNL d   1       1.227   2.255  -1.508  0.00  0.00     0.150 A 
ATOM      5  C4  UNL d   1       1.995   2.059  -0.365  0.00  0.00    -0.007 A 
ATOM      6  C5  UNL d   1       2.256   0.763   0.078  0.00  0.00     0.039 A 
ENDROOT
BRANCH   4   7
ATOM      7  O   UNL d   1       0.992   3.540  -1.900  0.00  0.00    -0.526 OA
ATOM      8  H5  UNL d   1       0.425   3.522  -2.689  0.00  0.00     0.418 HD
ENDBRANCH   4   7
TORSDOF 1
ENDMDL
