MODEL 1
REMARK minimizedAffinity -0.563354015
REMARK minimizedRMSD -1
REMARK  1 active torsions:
REMARK  status: ('A' for Active; 'I' for Inactive)
REMARK    1  A    between atoms: C3_4  and  O_7 
ROOT
ATOM      1  C   UNL d   1       1.782   0.165  -1.712  0.00  0.00    -0.033 A 
ATOM      2  C1  UNL d   1       1.274   0.035  -0.418  0.00  0.00     0.039 A 
ATOM      3  C2  UNL d   1       0.816   1.161   0.270  0.00  0.00    -0.080 A 
ATOM      4  C3  UNL d   1       0.870   2.408  -0.347  0.00  0.00     0.150 A 
ATOM      5  C4  UNL d   1       1.372   2.543  -1.637  0.00  0.00    -0.007 A 
ATOM      6  C5  UNL d   1       1.830   1.419  -2.322  0.00  0.00     0.039 A 
ENDROOT
BRANCH   4   7
ATOM      7  O   UNL d   1       0.439   3.535   0.286  0.00  0.00    -0.526 OA
ATOM      8  H5  UNL d   1       0.146   3.293   1.181  0.00  0.00     0.418 HD
ENDBRANCH   4   7
TORSDOF 1
ENDMDL
