MODEL 1
REMARK minimizedAffinity -1.06533861
REMARK minimizedRMSD -1
REMARK  1 active torsions:
REMARK  status: ('A' for Active; 'I' for Inactive)
REMARK    1  A    between atoms: C3_4  and  O_7 
ROOT
ATOM      1  C   UNL d   1       0.969   3.733  -0.514  0.00  0.00    -0.033 A 
ATOM      2  C1  UNL d   1       0.969   2.806   0.530  0.00  0.00     0.039 A 
ATOM      3  C2  UNL d   1       0.930   1.439   0.252  0.00  0.00    -0.080 A 
ATOM      4  C3  UNL d   1       0.891   1.012  -1.073  0.00  0.00     0.150 A 
ATOM      5  C4  UNL d   1       0.894   1.929  -2.118  0.00  0.00    -0.007 A 
ATOM      6  C5  UNL d   1       0.933   3.295  -1.838  0.00  0.00     0.039 A 
ENDROOT
BRANCH   4   7
ATOM      7  O   UNL d   1       0.847  -0.313  -1.393  0.00  0.00    -0.526 OA
ATOM      8  H5  UNL d   1       0.821  -0.828  -0.570  0.00  0.00     0.418 HD
ENDBRANCH   4   7
TORSDOF 1
ENDMDL
