MODEL 1
REMARK minimizedAffinity 1.64174807
REMARK minimizedRMSD -1
REMARK  1 active torsions:
REMARK  status: ('A' for Active; 'I' for Inactive)
REMARK    1  A    between atoms: C3_4  and  O_7 
ROOT
ATOM      1  C   UNL d   1       0.172   0.543  -0.563  0.00  0.00    -0.033 A 
ATOM      2  C1  UNL d   1       0.526   1.661   0.195  0.00  0.00     0.039 A 
ATOM      3  C2  UNL d   1       1.785   1.731   0.794  0.00  0.00    -0.080 A 
ATOM      4  C3  UNL d   1       2.681   0.678   0.627  0.00  0.00     0.150 A 
ATOM      5  C4  UNL d   1       2.337  -0.437  -0.130  0.00  0.00    -0.007 A 
ATOM      6  C5  UNL d   1       1.078  -0.506  -0.726  0.00  0.00     0.039 A 
ENDROOT
BRANCH   4   7
ATOM      7  O   UNL d   1       3.919   0.699   1.196  0.00  0.00    -0.526 OA
ATOM      8  H5  UNL d   1       4.006   1.518   1.713  0.00  0.00     0.418 HD
ENDBRANCH   4   7
TORSDOF 1
ENDMDL
