MODEL 1
REMARK minimizedAffinity -1.43585634
REMARK minimizedRMSD -1
REMARK  1 active torsions:
REMARK  status: ('A' for Active; 'I' for Inactive)
REMARK    1  A    between atoms: C3_4  and  O_7 
ROOT
ATOM      1  C   UNL d   1       0.931  -0.058   0.412  0.00  0.00    -0.033 A 
ATOM      2  C1  UNL d   1       0.492   1.222   0.754  0.00  0.00     0.039 A 
ATOM      3  C2  UNL d   1       0.581   2.264  -0.171  0.00  0.00    -0.080 A 
ATOM      4  C3  UNL d   1       1.110   2.012  -1.434  0.00  0.00     0.150 A 
ATOM      5  C4  UNL d   1       1.546   0.738  -1.783  0.00  0.00    -0.007 A 
ATOM      6  C5  UNL d   1       1.457  -0.300  -0.858  0.00  0.00     0.039 A 
ENDROOT
BRANCH   4   7
ATOM      7  O   UNL d   1       1.222   2.998  -2.369  0.00  0.00    -0.526 OA
ATOM      8  H5  UNL d   1       0.909   3.830  -1.978  0.00  0.00     0.418 HD
ENDBRANCH   4   7
TORSDOF 1
ENDMDL
