MODEL 1
REMARK minimizedAffinity -0.247274667
REMARK minimizedRMSD -1
REMARK  1 active torsions:
REMARK  status: ('A' for Active; 'I' for Inactive)
REMARK    1  A    between atoms: C3_4  and  O_7 
ROOT
ATOM      1  C   UNL d   1       1.184   0.071   0.454  0.00  0.00    -0.033 A 
ATOM      2  C1  UNL d   1       1.460   1.382   0.847  0.00  0.00     0.039 A 
ATOM      3  C2  UNL d   1       1.279   2.435  -0.052  0.00  0.00    -0.080 A 
ATOM      4  C3  UNL d   1       0.820   2.164  -1.338  0.00  0.00     0.150 A 
ATOM      5  C4  UNL d   1       0.539   0.861  -1.735  0.00  0.00    -0.007 A 
ATOM      6  C5  UNL d   1       0.722  -0.190  -0.837  0.00  0.00     0.039 A 
ENDROOT
BRANCH   4   7
ATOM      7  O   UNL d   1       0.633   3.158  -2.252  0.00  0.00    -0.526 OA
ATOM      8  H5  UNL d   1       0.895   4.002  -1.847  0.00  0.00     0.418 HD
ENDBRANCH   4   7
TORSDOF 1
ENDMDL
