MODEL 1
REMARK minimizedAffinity -1.39103484
REMARK minimizedRMSD -1
REMARK  1 active torsions:
REMARK  status: ('A' for Active; 'I' for Inactive)
REMARK    1  A    between atoms: C3_4  and  O_7 
ROOT
ATOM      1  C   UNL d   1      -3.492   1.690   2.190  0.00  0.00    -0.033 A 
ATOM      2  C1  UNL d   1      -3.800   0.590   2.992  0.00  0.00     0.039 A 
ATOM      3  C2  UNL d   1      -3.162   0.420   4.222  0.00  0.00    -0.080 A 
ATOM      4  C3  UNL d   1      -2.220   1.356   4.638  0.00  0.00     0.150 A 
ATOM      5  C4  UNL d   1      -1.911   2.457   3.846  0.00  0.00    -0.007 A 
ATOM      6  C5  UNL d   1      -2.548   2.625   2.617  0.00  0.00     0.039 A 
ENDROOT
BRANCH   4   7
ATOM      7  O   UNL d   1      -1.567   1.230   5.828  0.00  0.00    -0.526 OA
ATOM      8  H5  UNL d   1      -1.861   0.408   6.255  0.00  0.00     0.418 HD
ENDBRANCH   4   7
TORSDOF 1
ENDMDL
