MODEL 1
REMARK minimizedAffinity 1.22389543
REMARK minimizedRMSD -1
REMARK  1 active torsions:
REMARK  status: ('A' for Active; 'I' for Inactive)
REMARK    1  A    between atoms: C3_4  and  O_7 
ROOT
ATOM      1  C   UNL d   1       1.103   0.448  -2.422  0.00  0.00    -0.033 A 
ATOM      2  C1  UNL d   1       0.768   1.787  -2.213  0.00  0.00     0.039 A 
ATOM      3  C2  UNL d   1       0.769   2.315  -0.920  0.00  0.00    -0.080 A 
ATOM      4  C3  UNL d   1       1.109   1.495   0.153  0.00  0.00     0.150 A 
ATOM      5  C4  UNL d   1       1.447   0.161  -0.049  0.00  0.00    -0.007 A 
ATOM      6  C5  UNL d   1       1.444  -0.365  -1.340  0.00  0.00     0.039 A 
ENDROOT
BRANCH   4   7
ATOM      7  O   UNL d   1       1.119   1.965   1.432  0.00  0.00    -0.526 OA
ATOM      8  H5  UNL d   1       0.837   2.894   1.422  0.00  0.00     0.418 HD
ENDBRANCH   4   7
TORSDOF 1
ENDMDL
