MODEL 1
REMARK minimizedAffinity 0.0507316552
REMARK minimizedRMSD -1
REMARK  1 active torsions:
REMARK  status: ('A' for Active; 'I' for Inactive)
REMARK    1  A    between atoms: C3_4  and  O_7 
ROOT
ATOM      1  C   UNL d   1       1.101  -0.123   0.120  0.00  0.00    -0.033 A 
ATOM      2  C1  UNL d   1       1.816  -0.035  -1.076  0.00  0.00     0.039 A 
ATOM      3  C2  UNL d   1       1.810   1.153  -1.810  0.00  0.00    -0.080 A 
ATOM      4  C3  UNL d   1       1.086   2.244  -1.336  0.00  0.00     0.150 A 
ATOM      5  C4  UNL d   1       0.375   2.165  -0.144  0.00  0.00    -0.007 A 
ATOM      6  C5  UNL d   1       0.382   0.977   0.587  0.00  0.00     0.039 A 
ENDROOT
BRANCH   4   7
ATOM      7  O   UNL d   1       1.046   3.423  -2.020  0.00  0.00    -0.526 OA
ATOM      8  H5  UNL d   1       1.560   3.322  -2.838  0.00  0.00     0.418 HD
ENDBRANCH   4   7
TORSDOF 1
ENDMDL
