MODEL 1
REMARK minimizedAffinity -4.71189499
REMARK minimizedRMSD -1
REMARK  1 active torsions:
REMARK  status: ('A' for Active; 'I' for Inactive)
REMARK    1  A    between atoms: C3_4  and  O_7 
ROOT
ATOM      1  C   UNL d   1       0.773   0.371   0.424  0.00  0.00    -0.033 A 
ATOM      2  C1  UNL d   1       0.821   0.572  -0.957  0.00  0.00     0.039 A 
ATOM      3  C2  UNL d   1       0.928   1.865  -1.473  0.00  0.00    -0.080 A 
ATOM      4  C3  UNL d   1       0.988   2.946  -0.598  0.00  0.00     0.150 A 
ATOM      5  C4  UNL d   1       0.945   2.753   0.779  0.00  0.00    -0.007 A 
ATOM      6  C5  UNL d   1       0.837   1.461   1.292  0.00  0.00     0.039 A 
ENDROOT
BRANCH   4   7
ATOM      7  O   UNL d   1       1.089   4.227  -1.055  0.00  0.00    -0.526 OA
ATOM      8  H5  UNL d   1       1.079   4.209  -2.026  0.00  0.00     0.418 HD
ENDBRANCH   4   7
TORSDOF 1
ENDMDL
