MODEL 1
REMARK minimizedAffinity -5.03974199
REMARK minimizedRMSD -1
REMARK  1 active torsions:
REMARK  status: ('A' for Active; 'I' for Inactive)
REMARK    1  A    between atoms: C3_4  and  O_7 
ROOT
ATOM      1  C   UNL d   1       1.119   0.336  -0.117  0.00  0.00    -0.033 A 
ATOM      2  C1  UNL d   1       1.542   0.937  -1.304  0.00  0.00     0.039 A 
ATOM      3  C2  UNL d   1       1.464   2.323  -1.453  0.00  0.00    -0.080 A 
ATOM      4  C3  UNL d   1       0.962   3.095  -0.409  0.00  0.00     0.150 A 
ATOM      5  C4  UNL d   1       0.542   2.503   0.778  0.00  0.00    -0.007 A 
ATOM      6  C5  UNL d   1       0.620   1.119   0.924  0.00  0.00     0.039 A 
ENDROOT
BRANCH   4   7
ATOM      7  O   UNL d   1       0.861   4.451  -0.510  0.00  0.00    -0.526 OA
ATOM      8  H5  UNL d   1       1.161   4.717  -1.395  0.00  0.00     0.418 HD
ENDBRANCH   4   7
TORSDOF 1
ENDMDL
