MODEL 1
REMARK minimizedAffinity 1.22627676
REMARK minimizedRMSD -1
REMARK  1 active torsions:
REMARK  status: ('A' for Active; 'I' for Inactive)
REMARK    1  A    between atoms: C3_4  and  O_7 
ROOT
ATOM      1  C   UNL d   1       1.287   0.107   0.448  0.00  0.00    -0.033 A 
ATOM      2  C1  UNL d   1       1.663  -0.129  -0.876  0.00  0.00     0.039 A 
ATOM      3  C2  UNL d   1       1.609   0.904  -1.813  0.00  0.00    -0.080 A 
ATOM      4  C3  UNL d   1       1.178   2.167  -1.415  0.00  0.00     0.150 A 
ATOM      5  C4  UNL d   1       0.805   2.409  -0.097  0.00  0.00    -0.007 A 
ATOM      6  C5  UNL d   1       0.859   1.376   0.838  0.00  0.00     0.039 A 
ENDROOT
BRANCH   4   7
ATOM      7  O   UNL d   1       1.103   3.205  -2.295  0.00  0.00    -0.526 OA
ATOM      8  H5  UNL d   1       1.364   2.883  -3.174  0.00  0.00     0.418 HD
ENDBRANCH   4   7
TORSDOF 1
ENDMDL
