MODEL 1
REMARK minimizedAffinity -0.0646833405
REMARK minimizedRMSD -1
REMARK  1 active torsions:
REMARK  status: ('A' for Active; 'I' for Inactive)
REMARK    1  A    between atoms: C3_4  and  O_7 
ROOT
ATOM      1  C   UNL d   1      -2.072   1.727   5.337  0.00  0.00    -0.033 A 
ATOM      2  C1  UNL d   1      -2.272   2.481   4.179  0.00  0.00     0.039 A 
ATOM      3  C2  UNL d   1      -3.301   2.147   3.296  0.00  0.00    -0.080 A 
ATOM      4  C3  UNL d   1      -4.121   1.060   3.582  0.00  0.00     0.150 A 
ATOM      5  C4  UNL d   1      -3.930   0.307   4.736  0.00  0.00    -0.007 A 
ATOM      6  C5  UNL d   1      -2.902   0.641   5.616  0.00  0.00     0.039 A 
ENDROOT
BRANCH   4   7
ATOM      7  O   UNL d   1      -5.135   0.693   2.747  0.00  0.00    -0.526 OA
ATOM      8  H5  UNL d   1      -5.130   1.285   1.977  0.00  0.00     0.418 HD
ENDBRANCH   4   7
TORSDOF 1
ENDMDL
