MODEL 1
REMARK minimizedAffinity 9.79846096
REMARK minimizedRMSD -1
REMARK  0 active torsions:
REMARK  status: ('A' for Active; 'I' for Inactive)
ROOT
ATOM      1  C4' PXY d   1       2.861   2.943   0.725  0.00  0.00     0.077 C 
ATOM      2  C1' PXY d   1       1.282  -2.035   3.203  0.00  0.00     0.077 C 
ATOM      3  C1  PXY d   1       1.707  -0.735   2.550  0.00  0.00    -0.082 A 
ATOM      4  C2  PXY d   1       1.169   0.405   2.950  0.00  0.00     0.003 A 
ATOM      5  C3  PXY d   1       1.519   1.587   2.349  0.00  0.00     0.003 A 
ATOM      6  C4  PXY d   1       2.469   1.607   1.362  0.00  0.00    -0.082 A 
ATOM      7  C5  PXY d   1       3.030   0.449   0.955  0.00  0.00     0.003 A 
ATOM      8  C6  PXY d   1       2.631  -0.744   1.551  0.00  0.00     0.003 A 
ENDROOT
TORSDOF 0
ENDMDL
