MODEL 1
REMARK minimizedAffinity 6.24226618
REMARK minimizedRMSD -1
REMARK  0 active torsions:
REMARK  status: ('A' for Active; 'I' for Inactive)
ROOT
ATOM      1  C4' PXY d   1       0.230  -2.153   2.796  0.00  0.00     0.077 C 
ATOM      2  C1' PXY d   1       5.989  -2.158   2.299  0.00  0.00     0.077 C 
ATOM      3  C1  PXY d   1       4.479  -2.144   2.428  0.00  0.00    -0.082 A 
ATOM      4  C2  PXY d   1       3.868  -3.121   3.079  0.00  0.00     0.003 A 
ATOM      5  C3  PXY d   1       2.501  -3.141   3.177  0.00  0.00     0.003 A 
ATOM      6  C4  PXY d   1       1.754  -2.122   2.649  0.00  0.00    -0.082 A 
ATOM      7  C5  PXY d   1       2.370  -1.116   1.993  0.00  0.00     0.003 A 
ATOM      8  C6  PXY d   1       3.756  -1.136   1.869  0.00  0.00     0.003 A 
ENDROOT
TORSDOF 0
ENDMDL
