MODEL 1
REMARK minimizedAffinity 3.07916164
REMARK minimizedRMSD -1
REMARK  0 active torsions:
REMARK  status: ('A' for Active; 'I' for Inactive)
ROOT
ATOM      1  C4' PXY d   1       1.250  -3.261   2.935  0.00  0.00     0.077 C 
ATOM      2  C1' PXY d   1       2.377   2.398   3.268  0.00  0.00     0.077 C 
ATOM      3  C1  PXY d   1       2.084   0.913   3.194  0.00  0.00    -0.082 A 
ATOM      4  C2  PXY d   1       2.250   0.270   2.049  0.00  0.00     0.003 A 
ATOM      5  C3  PXY d   1       1.959  -1.067   1.956  0.00  0.00     0.003 A 
ATOM      6  C4  PXY d   1       1.543  -1.764   3.059  0.00  0.00    -0.082 A 
ATOM      7  C5  PXY d   1       1.381  -1.117   4.233  0.00  0.00     0.003 A 
ATOM      8  C6  PXY d   1       1.643   0.249   4.296  0.00  0.00     0.003 A 
ENDROOT
TORSDOF 0
ENDMDL
