MODEL 1
REMARK minimizedAffinity 1.35862029
REMARK minimizedRMSD -1
REMARK  0 active torsions:
REMARK  status: ('A' for Active; 'I' for Inactive)
ROOT
ATOM      1  C4' PXY d   1       4.117  -5.992  -0.012  0.00  0.00     0.077 C 
ATOM      2  C1' PXY d   1       2.575  -5.889  -5.583  0.00  0.00     0.077 C 
ATOM      3  C1  PXY d   1       2.991  -5.921  -4.125  0.00  0.00    -0.082 A 
ATOM      4  C2  PXY d   1       2.066  -6.000  -3.182  0.00  0.00     0.003 A 
ATOM      5  C3  PXY d   1       2.423  -5.997  -1.858  0.00  0.00     0.003 A 
ATOM      6  C4  PXY d   1       3.744  -5.967  -1.497  0.00  0.00    -0.082 A 
ATOM      7  C5  PXY d   1       4.694  -5.896  -2.453  0.00  0.00     0.003 A 
ATOM      8  C6  PXY d   1       4.309  -5.859  -3.790  0.00  0.00     0.003 A 
ENDROOT
TORSDOF 0
ENDMDL
