MODEL 1
REMARK minimizedAffinity -0.405955464
REMARK minimizedRMSD -1
REMARK  0 active torsions:
REMARK  status: ('A' for Active; 'I' for Inactive)
ROOT
ATOM      1  C4' PXY d   1       2.667   0.345   1.207  0.00  0.00     0.077 C 
ATOM      2  C1' PXY d   1       1.670  -4.140   4.715  0.00  0.00     0.077 C 
ATOM      3  C1  PXY d   1       1.944  -2.965   3.798  0.00  0.00    -0.082 A 
ATOM      4  C2  PXY d   1       0.979  -2.097   3.540  0.00  0.00     0.003 A 
ATOM      5  C3  PXY d   1       1.201  -1.046   2.688  0.00  0.00     0.003 A 
ATOM      6  C4  PXY d   1       2.438  -0.852   2.135  0.00  0.00    -0.082 A 
ATOM      7  C5  PXY d   1       3.431  -1.727   2.401  0.00  0.00     0.003 A 
ATOM      8  C6  PXY d   1       3.174  -2.810   3.237  0.00  0.00     0.003 A 
ENDROOT
TORSDOF 0
ENDMDL
