MODEL 1
REMARK minimizedAffinity -2.26723647
REMARK minimizedRMSD -1
REMARK  0 active torsions:
REMARK  status: ('A' for Active; 'I' for Inactive)
ROOT
ATOM      1  C4' PXY d   1       2.160   0.324  -1.709  0.00  0.00     0.077 C 
ATOM      2  C1' PXY d   1       1.580  -1.411   3.775  0.00  0.00     0.077 C 
ATOM      3  C1  PXY d   1       1.737  -0.944   2.341  0.00  0.00    -0.082 A 
ATOM      4  C2  PXY d   1       1.023  -1.517   1.385  0.00  0.00     0.003 A 
ATOM      5  C3  PXY d   1       1.175  -1.129   0.079  0.00  0.00     0.003 A 
ATOM      6  C4  PXY d   1       2.028  -0.108  -0.246  0.00  0.00    -0.082 A 
ATOM      7  C5  PXY d   1       2.752   0.489   0.725  0.00  0.00     0.003 A 
ATOM      8  C6  PXY d   1       2.613   0.052   2.039  0.00  0.00     0.003 A 
ENDROOT
TORSDOF 0
ENDMDL
