MODEL 1
REMARK minimizedAffinity 5.67301083
REMARK minimizedRMSD -1
REMARK  0 active torsions:
REMARK  status: ('A' for Active; 'I' for Inactive)
ROOT
ATOM      1  C4' PXY d   1       5.740  -5.987  -4.644  0.00  0.00     0.077 C 
ATOM      2  C1' PXY d   1       0.799  -5.987  -1.644  0.00  0.00     0.077 C 
ATOM      3  C1  PXY d   1       2.101  -5.982  -2.421  0.00  0.00    -0.082 A 
ATOM      4  C2  PXY d   1       2.074  -5.972  -3.743  0.00  0.00     0.003 A 
ATOM      5  C3  PXY d   1       3.241  -5.999  -4.461  0.00  0.00     0.003 A 
ATOM      6  C4  PXY d   1       4.450  -5.983  -3.819  0.00  0.00    -0.082 A 
ATOM      7  C5  PXY d   1       4.487  -5.982  -2.469  0.00  0.00     0.003 A 
ATOM      8  C6  PXY d   1       3.290  -5.996  -1.759  0.00  0.00     0.003 A 
ENDROOT
TORSDOF 0
ENDMDL
