MODEL 1
REMARK minimizedAffinity 4.14284039
REMARK minimizedRMSD -1
REMARK  0 active torsions:
REMARK  status: ('A' for Active; 'I' for Inactive)
ROOT
ATOM      1  C4' PXY d   1      -4.991   3.609   2.562  0.00  0.00     0.077 C 
ATOM      2  C1' PXY d   1      -3.175   2.385  -2.788  0.00  0.00     0.077 C 
ATOM      3  C1  PXY d   1      -3.643   2.697  -1.380  0.00  0.00    -0.082 A 
ATOM      4  C2  PXY d   1      -4.845   3.217  -1.190  0.00  0.00     0.003 A 
ATOM      5  C3  PXY d   1      -5.271   3.535   0.073  0.00  0.00     0.003 A 
ATOM      6  C4  PXY d   1      -4.481   3.269   1.159  0.00  0.00    -0.082 A 
ATOM      7  C5  PXY d   1      -3.257   2.729   0.975  0.00  0.00     0.003 A 
ATOM      8  C6  PXY d   1      -2.826   2.451  -0.319  0.00  0.00     0.003 A 
ENDROOT
TORSDOF 0
ENDMDL
