MODEL 1
REMARK minimizedAffinity 1.19688737
REMARK minimizedRMSD -1
REMARK  1 active torsions:
REMARK  status: ('A' for Active; 'I' for Inactive)
REMARK    1  A    between atoms: C1_2  and  C2_3 
ROOT
ATOM      1  C2  UNL d   1       2.293   4.192   5.981  0.00  0.00    -0.076 A 
ATOM      2  C3  UNL d   1       1.894   2.844   5.995  0.00  0.00     0.004 A 
ATOM      3  C4  UNL d   1       2.837   1.817   5.993  0.00  0.00    -0.003 A 
ATOM      4  C5  UNL d   1       4.194   2.122   5.977  0.00  0.00     0.000 A 
ATOM      5  C6  UNL d   1       4.607   3.453   5.981  0.00  0.00     0.000 A 
ATOM      6  C7  UNL d   1       3.670   4.501   6.000  0.00  0.00    -0.073 A 
ATOM      7  C8  UNL d   1       4.172   5.919   5.997  0.00  0.00     0.078 C 
ENDROOT
BRANCH   1   8
ATOM      8  C1  UNL d   1       1.226   5.263   5.956  0.00  0.00     0.053 C 
ATOM      9  C   UNL d   1       0.751   5.580   4.546  0.00  0.00     0.018 C 
ENDBRANCH   1   8
TORSDOF 1
ENDMDL
