MODEL 1
REMARK minimizedAffinity 4.72478008
REMARK minimizedRMSD -1
REMARK  1 active torsions:
REMARK  status: ('A' for Active; 'I' for Inactive)
REMARK    1  A    between atoms: C1_2  and  C2_3 
ROOT
ATOM      1  C2  UNL d   1      -2.052   1.314  -0.804  0.00  0.00    -0.076 A 
ATOM      2  C3  UNL d   1      -2.619   1.961   0.307  0.00  0.00     0.004 A 
ATOM      3  C4  UNL d   1      -3.842   1.547   0.833  0.00  0.00    -0.003 A 
ATOM      4  C5  UNL d   1      -4.517   0.478   0.255  0.00  0.00     0.000 A 
ATOM      5  C6  UNL d   1      -3.962  -0.187  -0.837  0.00  0.00     0.000 A 
ATOM      6  C7  UNL d   1      -2.722   0.207  -1.369  0.00  0.00    -0.073 A 
ATOM      7  C8  UNL d   1      -2.172  -0.542  -2.552  0.00  0.00     0.078 C 
ENDROOT
BRANCH   1   8
ATOM      8  C1  UNL d   1      -0.737   1.825  -1.347  0.00  0.00     0.053 C 
ATOM      9  C   UNL d   1       0.425   1.561  -0.403  0.00  0.00     0.018 C 
ENDBRANCH   1   8
TORSDOF 1
ENDMDL
