MODEL 1
REMARK minimizedAffinity 10.7326326
REMARK minimizedRMSD -1
REMARK  1 active torsions:
REMARK  status: ('A' for Active; 'I' for Inactive)
REMARK    1  A    between atoms: C1_2  and  C2_3 
ROOT
ATOM      1  C2  UNL d   1       2.591  -2.683  -1.037  0.00  0.00    -0.076 A 
ATOM      2  C3  UNL d   1       3.578  -1.926  -1.693  0.00  0.00     0.004 A 
ATOM      3  C4  UNL d   1       3.598  -1.824  -3.083  0.00  0.00    -0.003 A 
ATOM      4  C5  UNL d   1       2.630  -2.476  -3.839  0.00  0.00     0.000 A 
ATOM      5  C6  UNL d   1       1.633  -3.216  -3.204  0.00  0.00     0.000 A 
ATOM      6  C7  UNL d   1       1.590  -3.316  -1.803  0.00  0.00    -0.073 A 
ATOM      7  C8  UNL d   1       0.496  -4.132  -1.171  0.00  0.00     0.078 C 
ENDROOT
BRANCH   1   8
ATOM      8  C1  UNL d   1       2.637  -2.780   0.471  0.00  0.00     0.053 C 
ATOM      9  C   UNL d   1       3.953  -2.282   1.048  0.00  0.00     0.018 C 
ENDBRANCH   1   8
TORSDOF 1
ENDMDL
