MODEL 1
REMARK minimizedAffinity 9.40854359
REMARK minimizedRMSD -1
REMARK  1 active torsions:
REMARK  status: ('A' for Active; 'I' for Inactive)
REMARK    1  A    between atoms: C1_2  and  C2_3 
ROOT
ATOM      1  C2  UNL d   1      -4.387   2.830   1.567  0.00  0.00    -0.076 A 
ATOM      2  C3  UNL d   1      -4.488   1.507   2.033  0.00  0.00     0.004 A 
ATOM      3  C4  UNL d   1      -4.281   0.427   1.177  0.00  0.00    -0.003 A 
ATOM      4  C5  UNL d   1      -3.969   0.652  -0.159  0.00  0.00     0.000 A 
ATOM      5  C6  UNL d   1      -3.847   1.958  -0.634  0.00  0.00     0.000 A 
ATOM      6  C7  UNL d   1      -4.037   3.058   0.219  0.00  0.00    -0.073 A 
ATOM      7  C8  UNL d   1      -3.899   4.444  -0.348  0.00  0.00     0.078 C 
ENDROOT
BRANCH   1   8
ATOM      8  C1  UNL d   1      -4.650   3.961   2.536  0.00  0.00     0.053 C 
ATOM      9  C   UNL d   1      -5.537   3.540   3.697  0.00  0.00     0.018 C 
ENDBRANCH   1   8
TORSDOF 1
ENDMDL
