MODEL 1
REMARK minimizedAffinity 0.579309106
REMARK minimizedRMSD -1
REMARK  1 active torsions:
REMARK  status: ('A' for Active; 'I' for Inactive)
REMARK    1  A    between atoms: C1_2  and  C2_3 
ROOT
ATOM      1  C2  UNL d   1      -3.175   2.367   2.136  0.00  0.00    -0.076 A 
ATOM      2  C3  UNL d   1      -1.786   2.218   1.980  0.00  0.00     0.004 A 
ATOM      3  C4  UNL d   1      -0.902   2.668   2.959  0.00  0.00    -0.003 A 
ATOM      4  C5  UNL d   1      -1.393   3.275   4.110  0.00  0.00     0.000 A 
ATOM      5  C6  UNL d   1      -2.768   3.416   4.289  0.00  0.00     0.000 A 
ATOM      6  C7  UNL d   1      -3.674   2.953   3.319  0.00  0.00    -0.073 A 
ATOM      7  C8  UNL d   1      -5.147   3.136   3.561  0.00  0.00     0.078 C 
ENDROOT
BRANCH   1   8
ATOM      8  C1  UNL d   1      -4.084   1.884   1.028  0.00  0.00     0.053 C 
ATOM      9  C   UNL d   1      -3.974   0.385   0.796  0.00  0.00     0.018 C 
ENDBRANCH   1   8
TORSDOF 1
ENDMDL
