MODEL 1
REMARK minimizedAffinity 2.21823692
REMARK minimizedRMSD -1
REMARK  1 active torsions:
REMARK  status: ('A' for Active; 'I' for Inactive)
REMARK    1  A    between atoms: C1_2  and  C2_3 
ROOT
ATOM      1  C2  UNL d   1       0.697   0.801  -1.384  0.00  0.00    -0.081 A 
ATOM      2  C3  UNL d   1       0.490  -0.206  -2.334  0.00  0.00     0.006 A 
ATOM      3  C4  UNL d   1       1.053  -1.472  -2.159  0.00  0.00     0.002 A 
ATOM      4  C5  UNL d   1       1.825  -1.755  -1.027  0.00  0.00    -0.080 A 
ATOM      5  C6  UNL d   1       2.410  -3.119  -0.811  0.00  0.00     0.076 C 
ATOM      6  C7  UNL d   1       2.047  -0.744  -0.086  0.00  0.00     0.002 A 
ATOM      7  C8  UNL d   1       1.485   0.523  -0.261  0.00  0.00     0.006 A 
ENDROOT
BRANCH   1   8
ATOM      8  C1  UNL d   1       0.038   2.148  -1.538  0.00  0.00     0.054 C 
ATOM      9  C   UNL d   1       0.827   3.235  -0.822  0.00  0.00     0.018 C 
ENDBRANCH   1   8
TORSDOF 1
ENDMDL
