MODEL 1
REMARK minimizedAffinity 3.44159007
REMARK minimizedRMSD -1
REMARK  1 active torsions:
REMARK  status: ('A' for Active; 'I' for Inactive)
REMARK    1  A    between atoms: C1_2  and  C2_3 
ROOT
ATOM      1  C2  UNL d   1       0.070  -1.175  -2.540  0.00  0.00    -0.081 A 
ATOM      2  C3  UNL d   1      -0.749  -1.693  -1.529  0.00  0.00     0.006 A 
ATOM      3  C4  UNL d   1      -0.394  -1.550  -0.186  0.00  0.00     0.002 A 
ATOM      4  C5  UNL d   1       0.782  -0.880   0.169  0.00  0.00    -0.080 A 
ATOM      5  C6  UNL d   1       1.160  -0.692   1.609  0.00  0.00     0.076 C 
ATOM      6  C7  UNL d   1       1.609  -0.378  -0.841  0.00  0.00     0.002 A 
ATOM      7  C8  UNL d   1       1.255  -0.521  -2.184  0.00  0.00     0.006 A 
ENDROOT
BRANCH   1   8
ATOM      8  C1  UNL d   1      -0.343  -1.272  -3.986  0.00  0.00     0.054 C 
ATOM      9  C   UNL d   1      -0.029   0.014  -4.738  0.00  0.00     0.018 C 
ENDBRANCH   1   8
TORSDOF 1
ENDMDL
