MODEL 1
REMARK minimizedAffinity -3.20733428
REMARK minimizedRMSD -1
REMARK  1 active torsions:
REMARK  status: ('A' for Active; 'I' for Inactive)
REMARK    1  A    between atoms: C1_2  and  C2_3 
ROOT
ATOM      1  C2  UNL d   1       0.881  -1.884  -0.900  0.00  0.00    -0.081 A 
ATOM      2  C3  UNL d   1      -0.352  -2.456  -0.563  0.00  0.00     0.006 A 
ATOM      3  C4  UNL d   1      -0.404  -3.652   0.156  0.00  0.00     0.002 A 
ATOM      4  C5  UNL d   1       0.774  -4.292   0.556  0.00  0.00    -0.080 A 
ATOM      5  C6  UNL d   1       0.732  -5.561   1.355  0.00  0.00     0.076 C 
ATOM      6  C7  UNL d   1       2.006  -3.729   0.204  0.00  0.00     0.002 A 
ATOM      7  C8  UNL d   1       2.059  -2.534  -0.515  0.00  0.00     0.006 A 
ENDROOT
BRANCH   1   8
ATOM      8  C1  UNL d   1       0.940  -0.560  -1.620  0.00  0.00     0.054 C 
ATOM      9  C   UNL d   1       2.343   0.029  -1.579  0.00  0.00     0.018 C 
ENDBRANCH   1   8
TORSDOF 1
ENDMDL
