MODEL 1
REMARK minimizedAffinity -4.32089281
REMARK minimizedRMSD -1
REMARK  1 active torsions:
REMARK  status: ('A' for Active; 'I' for Inactive)
REMARK    1  A    between atoms: C1_2  and  C2_3 
ROOT
ATOM      1  C2  UNL d   1       0.929  -2.486  -0.261  0.00  0.00    -0.081 A 
ATOM      2  C3  UNL d   1       0.480  -1.267  -0.782  0.00  0.00     0.006 A 
ATOM      3  C4  UNL d   1       1.355  -0.431  -1.480  0.00  0.00     0.002 A 
ATOM      4  C5  UNL d   1       2.689  -0.803  -1.675  0.00  0.00    -0.080 A 
ATOM      5  C6  UNL d   1       3.630   0.072  -2.449  0.00  0.00     0.076 C 
ATOM      6  C7  UNL d   1       3.142  -2.013  -1.139  0.00  0.00     0.002 A 
ATOM      7  C8  UNL d   1       2.268  -2.850  -0.441  0.00  0.00     0.006 A 
ENDROOT
BRANCH   1   8
ATOM      8  C1  UNL d   1      -0.027  -3.420   0.437  0.00  0.00     0.054 C 
ATOM      9  C   UNL d   1       0.647  -4.738   0.793  0.00  0.00     0.018 C 
ENDBRANCH   1   8
TORSDOF 1
ENDMDL
