MODEL 1
REMARK minimizedAffinity -3.10896611
REMARK minimizedRMSD -1
REMARK  1 active torsions:
REMARK  status: ('A' for Active; 'I' for Inactive)
REMARK    1  A    between atoms: C1_2  and  C2_3 
ROOT
ATOM      1  C2  UNL d   1       0.744  -3.624   0.691  0.00  0.00    -0.081 A 
ATOM      2  C3  UNL d   1      -0.387  -2.800   0.643  0.00  0.00     0.006 A 
ATOM      3  C4  UNL d   1      -0.400  -1.662  -0.167  0.00  0.00     0.002 A 
ATOM      4  C5  UNL d   1       0.714  -1.334  -0.948  0.00  0.00    -0.080 A 
ATOM      5  C6  UNL d   1       0.702  -0.132  -1.844  0.00  0.00     0.076 C 
ATOM      6  C7  UNL d   1       1.850  -2.148  -0.886  0.00  0.00     0.002 A 
ATOM      7  C8  UNL d   1       1.864  -3.285  -0.076  0.00  0.00     0.006 A 
ENDROOT
BRANCH   1   8
ATOM      8  C1  UNL d   1       0.737  -4.887   1.514  0.00  0.00     0.054 C 
ATOM      9  C   UNL d   1       1.516  -6.000   0.827  0.00  0.00     0.018 C 
ENDBRANCH   1   8
TORSDOF 1
ENDMDL
