MODEL 1
REMARK minimizedAffinity -5.5541234
REMARK minimizedRMSD -1
REMARK  1 active torsions:
REMARK  status: ('A' for Active; 'I' for Inactive)
REMARK    1  A    between atoms: C1_2  and  C2_3 
ROOT
ATOM      1  C2  UNL d   1       0.468  -3.818   0.274  0.00  0.00    -0.081 A 
ATOM      2  C3  UNL d   1       1.766  -3.341   0.053  0.00  0.00     0.006 A 
ATOM      3  C4  UNL d   1       1.977  -2.011  -0.319  0.00  0.00     0.002 A 
ATOM      4  C5  UNL d   1       0.897  -1.135  -0.468  0.00  0.00    -0.080 A 
ATOM      5  C6  UNL d   1       1.112   0.303  -0.837  0.00  0.00     0.076 C 
ATOM      6  C7  UNL d   1      -0.401  -1.616  -0.264  0.00  0.00     0.002 A 
ATOM      7  C8  UNL d   1      -0.613  -2.946   0.107  0.00  0.00     0.006 A 
ENDROOT
BRANCH   1   8
ATOM      8  C1  UNL d   1       0.241  -5.234   0.738  0.00  0.00     0.054 C 
ATOM      9  C   UNL d   1       1.553  -6.000   0.840  0.00  0.00     0.018 C 
ENDBRANCH   1   8
TORSDOF 1
ENDMDL
