MODEL 1
REMARK minimizedAffinity 0.764633477
REMARK minimizedRMSD -1
REMARK  1 active torsions:
REMARK  status: ('A' for Active; 'I' for Inactive)
REMARK    1  A    between atoms: C1_2  and  C2_3 
ROOT
ATOM      1  C2  UNL d   1       1.514  -1.935  -0.336  0.00  0.00    -0.081 A 
ATOM      2  C3  UNL d   1       0.221  -2.265   0.085  0.00  0.00     0.006 A 
ATOM      3  C4  UNL d   1      -0.018  -3.459   0.770  0.00  0.00     0.002 A 
ATOM      4  C5  UNL d   1       1.033  -4.338   1.051  0.00  0.00    -0.080 A 
ATOM      5  C6  UNL d   1       0.795  -5.609   1.811  0.00  0.00     0.076 C 
ATOM      6  C7  UNL d   1       2.323  -4.017   0.615  0.00  0.00     0.002 A 
ATOM      7  C8  UNL d   1       2.562  -2.823  -0.070  0.00  0.00     0.006 A 
ENDROOT
BRANCH   1   8
ATOM      8  C1  UNL d   1       1.786  -0.618  -1.017  0.00  0.00     0.054 C 
ATOM      9  C   UNL d   1       0.702  -0.287  -2.034  0.00  0.00     0.018 C 
ENDBRANCH   1   8
TORSDOF 1
ENDMDL
