MODEL 1
REMARK minimizedAffinity 0.679385424
REMARK minimizedRMSD -1
REMARK  1 active torsions:
REMARK  status: ('A' for Active; 'I' for Inactive)
REMARK    1  A    between atoms: C1_2  and  C2_3 
ROOT
ATOM      1  C2  UNL d   1       1.522  -3.974   0.641  0.00  0.00    -0.081 A 
ATOM      2  C3  UNL d   1       0.226  -3.452   0.727  0.00  0.00     0.006 A 
ATOM      3  C4  UNL d   1      -0.072  -2.201   0.182  0.00  0.00     0.002 A 
ATOM      4  C5  UNL d   1       0.919  -1.455  -0.465  0.00  0.00    -0.080 A 
ATOM      5  C6  UNL d   1       0.606  -0.124  -1.081  0.00  0.00     0.076 C 
ATOM      6  C7  UNL d   1       2.219  -1.969  -0.536  0.00  0.00     0.002 A 
ATOM      7  C8  UNL d   1       2.517  -3.219   0.009  0.00  0.00     0.006 A 
ENDROOT
BRANCH   1   8
ATOM      8  C1  UNL d   1       1.831  -5.351   1.171  0.00  0.00     0.054 C 
ATOM      9  C   UNL d   1       0.598  -5.997   1.786  0.00  0.00     0.018 C 
ENDBRANCH   1   8
TORSDOF 1
ENDMDL
