MODEL 1
REMARK minimizedAffinity -2.12164855
REMARK minimizedRMSD -1
REMARK  1 active torsions:
REMARK  status: ('A' for Active; 'I' for Inactive)
REMARK    1  A    between atoms: C1_2  and  C2_3 
ROOT
ATOM      1  C2  UNL d   1       0.198  -3.661   0.481  0.00  0.00    -0.081 A 
ATOM      2  C3  UNL d   1       1.509  -3.181   0.375  0.00  0.00     0.006 A 
ATOM      3  C4  UNL d   1       1.757  -1.904  -0.134  0.00  0.00     0.002 A 
ATOM      4  C5  UNL d   1       0.698  -1.083  -0.538  0.00  0.00    -0.080 A 
ATOM      5  C6  UNL d   1       0.948   0.301  -1.058  0.00  0.00     0.076 C 
ATOM      6  C7  UNL d   1      -0.611  -1.569  -0.448  0.00  0.00     0.002 A 
ATOM      7  C8  UNL d   1      -0.859  -2.846   0.060  0.00  0.00     0.006 A 
ENDROOT
BRANCH   1   8
ATOM      8  C1  UNL d   1      -0.077  -5.012   1.090  0.00  0.00     0.054 C 
ATOM      9  C   UNL d   1       1.178  -5.872   1.117  0.00  0.00     0.018 C 
ENDBRANCH   1   8
TORSDOF 1
ENDMDL
