MODEL 1
REMARK minimizedAffinity 7.17776728
REMARK minimizedRMSD -1
REMARK  1 active torsions:
REMARK  status: ('A' for Active; 'I' for Inactive)
REMARK    1  A    between atoms: C1_2  and  C2_3 
ROOT
ATOM      1  C2  UNL d   1      -0.052  -1.494  -0.481  0.00  0.00    -0.081 A 
ATOM      2  C3  UNL d   1      -0.113  -0.193  -0.993  0.00  0.00     0.006 A 
ATOM      3  C4  UNL d   1       1.033   0.421  -1.504  0.00  0.00     0.002 A 
ATOM      4  C5  UNL d   1       2.256  -0.258  -1.518  0.00  0.00    -0.080 A 
ATOM      5  C6  UNL d   1       3.488   0.379  -2.091  0.00  0.00     0.076 C 
ATOM      6  C7  UNL d   1       2.321  -1.551  -0.990  0.00  0.00     0.002 A 
ATOM      7  C8  UNL d   1       1.176  -2.166  -0.478  0.00  0.00     0.006 A 
ENDROOT
BRANCH   1   8
ATOM      8  C1  UNL d   1      -1.299  -2.183   0.012  0.00  0.00     0.054 C 
ATOM      9  C   UNL d   1      -2.423  -2.087  -1.009  0.00  0.00     0.018 C 
ENDBRANCH   1   8
TORSDOF 1
ENDMDL
