MODEL 1
REMARK minimizedAffinity -2.27768183
REMARK minimizedRMSD -1
REMARK  1 active torsions:
REMARK  status: ('A' for Active; 'I' for Inactive)
REMARK    1  A    between atoms: C1_2  and  C2_3 
ROOT
ATOM      1  C2  UNL d   1       0.204  -3.370   0.175  0.00  0.00    -0.081 A 
ATOM      2  C3  UNL d   1      -0.806  -2.532  -0.315  0.00  0.00     0.006 A 
ATOM      3  C4  UNL d   1      -0.528  -1.201  -0.634  0.00  0.00     0.002 A 
ATOM      4  C5  UNL d   1       0.764  -0.688  -0.476  0.00  0.00    -0.080 A 
ATOM      5  C6  UNL d   1       1.082   0.731  -0.843  0.00  0.00     0.076 C 
ATOM      6  C7  UNL d   1       1.768  -1.520   0.030  0.00  0.00     0.002 A 
ATOM      7  C8  UNL d   1       1.491  -2.851   0.350  0.00  0.00     0.006 A 
ENDROOT
BRANCH   1   8
ATOM      8  C1  UNL d   1      -0.077  -4.823   0.459  0.00  0.00     0.054 C 
ATOM      9  C   UNL d   1       1.127  -5.507   1.089  0.00  0.00     0.018 C 
ENDBRANCH   1   8
TORSDOF 1
ENDMDL
