MODEL 1
REMARK minimizedAffinity -3.31357956
REMARK minimizedRMSD -1
REMARK  1 active torsions:
REMARK  status: ('A' for Active; 'I' for Inactive)
REMARK    1  A    between atoms: C1_2  and  C2_3 
ROOT
ATOM      1  C2  UNL d   1       0.929  -1.903  -0.137  0.00  0.00    -0.081 A 
ATOM      2  C3  UNL d   1       2.200  -2.491  -0.104  0.00  0.00     0.006 A 
ATOM      3  C4  UNL d   1       2.359  -3.810   0.325  0.00  0.00     0.002 A 
ATOM      4  C5  UNL d   1       1.250  -4.566   0.721  0.00  0.00    -0.080 A 
ATOM      5  C6  UNL d   1       1.403  -5.994   1.155  0.00  0.00     0.076 C 
ATOM      6  C7  UNL d   1      -0.017  -3.974   0.705  0.00  0.00     0.002 A 
ATOM      7  C8  UNL d   1      -0.177  -2.654   0.276  0.00  0.00     0.006 A 
ENDROOT
BRANCH   1   8
ATOM      8  C1  UNL d   1       0.746  -0.501  -0.661  0.00  0.00     0.054 C 
ATOM      9  C   UNL d   1       0.790  -0.469  -2.182  0.00  0.00     0.018 C 
ENDBRANCH   1   8
TORSDOF 1
ENDMDL
