MODEL 1
REMARK minimizedAffinity -0.577652931
REMARK minimizedRMSD -1
REMARK  1 active torsions:
REMARK  status: ('A' for Active; 'I' for Inactive)
REMARK    1  A    between atoms: C1_2  and  C2_3 
ROOT
ATOM      1  C2  UNL d   1      -3.864   2.195   0.492  0.00  0.00    -0.081 A 
ATOM      2  C3  UNL d   1      -3.519   2.204   1.849  0.00  0.00     0.006 A 
ATOM      3  C4  UNL d   1      -3.748   1.079   2.645  0.00  0.00     0.002 A 
ATOM      4  C5  UNL d   1      -4.318  -0.075   2.097  0.00  0.00    -0.080 A 
ATOM      5  C6  UNL d   1      -4.541  -1.299   2.933  0.00  0.00     0.076 C 
ATOM      6  C7  UNL d   1      -4.678  -0.078   0.745  0.00  0.00     0.002 A 
ATOM      7  C8  UNL d   1      -4.450   1.047  -0.051  0.00  0.00     0.006 A 
ENDROOT
BRANCH   1   8
ATOM      8  C1  UNL d   1      -3.559   3.383  -0.384  0.00  0.00     0.054 C 
ATOM      9  C   UNL d   1      -2.083   3.433  -0.754  0.00  0.00     0.018 C 
ENDBRANCH   1   8
TORSDOF 1
ENDMDL
