MODEL 1
REMARK minimizedAffinity -4.80861998
REMARK minimizedRMSD -1
REMARK  1 active torsions:
REMARK  status: ('A' for Active; 'I' for Inactive)
REMARK    1  A    between atoms: C1_2  and  C2_3 
ROOT
ATOM      1  C2  UNL d   1       0.972  -1.947  -0.152  0.00  0.00    -0.081 A 
ATOM      2  C3  UNL d   1      -0.154  -2.739   0.104  0.00  0.00     0.006 A 
ATOM      3  C4  UNL d   1      -0.007  -4.055   0.549  0.00  0.00     0.002 A 
ATOM      4  C5  UNL d   1       1.266  -4.598   0.752  0.00  0.00    -0.080 A 
ATOM      5  C6  UNL d   1       1.436  -6.000   1.258  0.00  0.00     0.076 C 
ATOM      6  C7  UNL d   1       2.391  -3.813   0.479  0.00  0.00     0.002 A 
ATOM      7  C8  UNL d   1       2.245  -2.497   0.034  0.00  0.00     0.006 A 
ENDROOT
BRANCH   1   8
ATOM      8  C1  UNL d   1       0.817  -0.507  -0.570  0.00  0.00     0.054 C 
ATOM      9  C   UNL d   1      -0.594  -0.223  -1.065  0.00  0.00     0.018 C 
ENDBRANCH   1   8
TORSDOF 1
ENDMDL
