MODEL 1
REMARK minimizedAffinity 6.4061594
REMARK minimizedRMSD -1
REMARK  3 active torsions:
REMARK  status: ('A' for Active; 'I' for Inactive)
REMARK    1  A    between atoms: C3'_2  and  C2'_3 
REMARK    2  A    between atoms: C2'_3  and  C1'_4 
REMARK    3  A    between atoms: C1'_4  and  C1_5 
ROOT
ATOM      1  C1  N4B d   1      -0.385   2.027   0.461  0.00  0.00    -0.075 A 
ATOM      2  C2  N4B d   1       0.904   2.240   0.998  0.00  0.00     0.002 A 
ATOM      3  C3  N4B d   1       1.060   2.442   2.347  0.00  0.00     0.002 A 
ATOM      4  C4  N4B d   1      -0.055   2.455   3.173  0.00  0.00    -0.004 A 
ATOM      5  C5  N4B d   1      -1.293   2.223   2.649  0.00  0.00     0.002 A 
ATOM      6  C6  N4B d   1      -1.464   2.014   1.296  0.00  0.00     0.002 A 
ENDROOT
BRANCH   1   7
ATOM      7  C1' N4B d   1      -0.615   1.886  -1.019  0.00  0.00     0.057 C 
BRANCH   7   8
ATOM      8  C2' N4B d   1       0.051   3.053  -1.743  0.00  0.00     0.009 C 
BRANCH   8   9
ATOM      9  C3' N4B d   1       0.066   4.313  -0.895  0.00  0.00     0.004 C 
ATOM     10  C4' N4B d   1       1.382   5.032  -0.945  0.00  0.00     0.003 C 
ENDBRANCH   8   9
ENDBRANCH   7   8
ENDBRANCH   1   7
TORSDOF 3
ENDMDL
