MODEL 1
REMARK minimizedAffinity 8.05191994
REMARK minimizedRMSD -1
REMARK  3 active torsions:
REMARK  status: ('A' for Active; 'I' for Inactive)
REMARK    1  A    between atoms: C3'_2  and  C2'_3 
REMARK    2  A    between atoms: C2'_3  and  C1'_4 
REMARK    3  A    between atoms: C1'_4  and  C1_5 
ROOT
ATOM      1  C1  N4B d   1      -0.142   2.503   0.199  0.00  0.00    -0.075 A 
ATOM      2  C2  N4B d   1      -0.576   1.867  -0.986  0.00  0.00     0.002 A 
ATOM      3  C3  N4B d   1      -0.655   2.579  -2.157  0.00  0.00     0.002 A 
ATOM      4  C4  N4B d   1      -0.326   3.926  -2.165  0.00  0.00    -0.004 A 
ATOM      5  C5  N4B d   1       0.116   4.526  -1.023  0.00  0.00     0.002 A 
ATOM      6  C6  N4B d   1       0.205   3.822   0.161  0.00  0.00     0.002 A 
ENDROOT
BRANCH   1   7
ATOM      7  C1' N4B d   1      -0.120   1.787   1.522  0.00  0.00     0.057 C 
BRANCH   7   8
ATOM      8  C2' N4B d   1       1.228   1.095   1.695  0.00  0.00     0.009 C 
BRANCH   8   9
ATOM      9  C3' N4B d   1       1.844   1.381   3.053  0.00  0.00     0.004 C 
ATOM     10  C4' N4B d   1       2.569   2.693   3.098  0.00  0.00     0.003 C 
ENDBRANCH   8   9
ENDBRANCH   7   8
ENDBRANCH   1   7
TORSDOF 3
ENDMDL
