MODEL 1
REMARK minimizedAffinity 2.86228418
REMARK minimizedRMSD -1
REMARK  3 active torsions:
REMARK  status: ('A' for Active; 'I' for Inactive)
REMARK    1  A    between atoms: C3'_2  and  C2'_3 
REMARK    2  A    between atoms: C2'_3  and  C1'_4 
REMARK    3  A    between atoms: C1'_4  and  C1_5 
ROOT
ATOM      1  C1  N4B d   1       3.859  -4.101  -1.974  0.00  0.00    -0.075 A 
ATOM      2  C2  N4B d   1       3.445  -2.779  -1.697  0.00  0.00     0.002 A 
ATOM      3  C3  N4B d   1       4.292  -1.917  -1.045  0.00  0.00     0.002 A 
ATOM      4  C4  N4B d   1       5.544  -2.358  -0.644  0.00  0.00    -0.004 A 
ATOM      5  C5  N4B d   1       5.946  -3.628  -0.938  0.00  0.00     0.002 A 
ATOM      6  C6  N4B d   1       5.107  -4.504  -1.597  0.00  0.00     0.002 A 
ENDROOT
BRANCH   1   7
ATOM      7  C1' N4B d   1       2.936  -5.106  -2.608  0.00  0.00     0.057 C 
BRANCH   7   8
ATOM      8  C2' N4B d   1       2.346  -6.000  -1.522  0.00  0.00     0.009 C 
BRANCH   8   9
ATOM      9  C3' N4B d   1       1.591  -5.199  -0.475  0.00  0.00     0.004 C 
ATOM     10  C4' N4B d   1       0.291  -4.654  -0.987  0.00  0.00     0.003 C 
ENDBRANCH   8   9
ENDBRANCH   7   8
ENDBRANCH   1   7
TORSDOF 3
ENDMDL
