MODEL 1
REMARK minimizedAffinity 1.16441929
REMARK minimizedRMSD -1
REMARK  3 active torsions:
REMARK  status: ('A' for Active; 'I' for Inactive)
REMARK    1  A    between atoms: C3'_2  and  C2'_3 
REMARK    2  A    between atoms: C2'_3  and  C1'_4 
REMARK    3  A    between atoms: C1'_4  and  C1_5 
ROOT
ATOM      1  C1  N4B d   1       4.376  -4.338  -0.938  0.00  0.00    -0.075 A 
ATOM      2  C2  N4B d   1       5.713  -3.978  -0.658  0.00  0.00     0.002 A 
ATOM      3  C3  N4B d   1       6.000  -2.725  -0.176  0.00  0.00     0.002 A 
ATOM      4  C4  N4B d   1       4.974  -1.812   0.016  0.00  0.00    -0.004 A 
ATOM      5  C5  N4B d   1       3.683  -2.175  -0.232  0.00  0.00     0.002 A 
ATOM      6  C6  N4B d   1       3.379  -3.433  -0.713  0.00  0.00     0.002 A 
ENDROOT
BRANCH   1   7
ATOM      7  C1' N4B d   1       4.022  -5.667  -1.547  0.00  0.00     0.057 C 
BRANCH   7   8
ATOM      8  C2' N4B d   1       3.027  -5.447  -2.683  0.00  0.00     0.009 C 
BRANCH   8   9
ATOM      9  C3' N4B d   1       3.708  -4.947  -3.946  0.00  0.00     0.004 C 
ATOM     10  C4' N4B d   1       4.833  -5.834  -4.389  0.00  0.00     0.003 C 
ENDBRANCH   8   9
ENDBRANCH   7   8
ENDBRANCH   1   7
TORSDOF 3
ENDMDL
