MODEL 1
REMARK minimizedAffinity 2.59715199
REMARK minimizedRMSD -1
REMARK  2 active torsions:
REMARK  status: ('A' for Active; 'I' for Inactive)
REMARK    1  A    between atoms: C1_2  and  C2_3 
REMARK    2  A    between atoms: C2_3  and  C3_4 
ROOT
ATOM      1  C3  UNL d   1      -1.994  -1.563   2.672  0.00  0.00    -0.075 A 
ATOM      2  C4  UNL d   1      -2.687  -1.415   3.883  0.00  0.00     0.002 A 
ATOM      3  C5  UNL d   1      -2.900  -2.514   4.716  0.00  0.00     0.002 A 
ATOM      4  C6  UNL d   1      -2.433  -3.773   4.345  0.00  0.00    -0.004 A 
ATOM      5  C7  UNL d   1      -1.758  -3.935   3.137  0.00  0.00     0.002 A 
ATOM      6  C8  UNL d   1      -1.540  -2.836   2.304  0.00  0.00     0.002 A 
ENDROOT
BRANCH   1   7
ATOM      7  C2  UNL d   1      -1.735  -0.372   1.780  0.00  0.00     0.056 C 
BRANCH   7   8
ATOM      8  C1  UNL d   1      -1.724   0.970   2.519  0.00  0.00     0.007 C 
ATOM      9  C   UNL d   1      -0.321   1.514   2.755  0.00  0.00     0.009 C 
ENDBRANCH   7   8
ENDBRANCH   1   7
TORSDOF 2
ENDMDL
