MODEL 1
REMARK minimizedAffinity 4.72445822
REMARK minimizedRMSD -1
REMARK  2 active torsions:
REMARK  status: ('A' for Active; 'I' for Inactive)
REMARK    1  A    between atoms: C1_2  and  C2_3 
REMARK    2  A    between atoms: C2_3  and  C3_4 
ROOT
ATOM      1  C3  UNL d   1       1.972   4.915  -5.430  0.00  0.00    -0.075 A 
ATOM      2  C4  UNL d   1       2.509   3.864  -4.672  0.00  0.00     0.002 A 
ATOM      3  C5  UNL d   1       3.846   3.888  -4.274  0.00  0.00     0.002 A 
ATOM      4  C6  UNL d   1       4.664   4.956  -4.636  0.00  0.00    -0.004 A 
ATOM      5  C7  UNL d   1       4.146   5.998  -5.402  0.00  0.00     0.002 A 
ATOM      6  C8  UNL d   1       2.808   5.978  -5.798  0.00  0.00     0.002 A 
ENDROOT
BRANCH   1   7
ATOM      7  C2  UNL d   1       0.519   4.909  -5.839  0.00  0.00     0.056 C 
BRANCH   7   8
ATOM      8  C1  UNL d   1      -0.327   5.986  -5.152  0.00  0.00     0.007 C 
ATOM      9  C   UNL d   1      -0.168   6.000  -3.637  0.00  0.00     0.009 C 
ENDBRANCH   7   8
ENDBRANCH   1   7
TORSDOF 2
ENDMDL
