MODEL 1
REMARK minimizedAffinity 2.30973458
REMARK minimizedRMSD -1
REMARK  2 active torsions:
REMARK  status: ('A' for Active; 'I' for Inactive)
REMARK    1  A    between atoms: C1_2  and  C2_3 
REMARK    2  A    between atoms: C2_3  and  C3_4 
ROOT
ATOM      1  C3  UNL d   1      -0.633   5.975  -4.224  0.00  0.00    -0.075 A 
ATOM      2  C4  UNL d   1       0.192   5.991  -3.090  0.00  0.00     0.002 A 
ATOM      3  C5  UNL d   1      -0.363   5.996  -1.810  0.00  0.00     0.002 A 
ATOM      4  C6  UNL d   1      -1.747   5.994  -1.648  0.00  0.00    -0.004 A 
ATOM      5  C7  UNL d   1      -2.576   5.994  -2.767  0.00  0.00     0.002 A 
ATOM      6  C8  UNL d   1      -2.023   5.985  -4.049  0.00  0.00     0.002 A 
ENDROOT
BRANCH   1   7
ATOM      7  C2  UNL d   1      -0.038   5.940  -5.611  0.00  0.00     0.056 C 
BRANCH   7   8
ATOM      8  C1  UNL d   1       1.249   5.115  -5.718  0.00  0.00     0.007 C 
ATOM      9  C   UNL d   1       2.491   5.966  -5.942  0.00  0.00     0.009 C 
ENDBRANCH   7   8
ENDBRANCH   1   7
TORSDOF 2
ENDMDL
