MODEL 1
REMARK minimizedAffinity 1.31867898
REMARK minimizedRMSD -1
REMARK  2 active torsions:
REMARK  status: ('A' for Active; 'I' for Inactive)
REMARK    1  A    between atoms: C1_2  and  C2_3 
REMARK    2  A    between atoms: C2_3  and  C3_4 
ROOT
ATOM      1  C3  UNL d   1      -1.924   5.984  -4.480  0.00  0.00    -0.075 A 
ATOM      2  C4  UNL d   1      -1.094   5.968  -3.349  0.00  0.00     0.002 A 
ATOM      3  C5  UNL d   1       0.294   5.981  -3.490  0.00  0.00     0.002 A 
ATOM      4  C6  UNL d   1       0.869   5.999  -4.759  0.00  0.00    -0.004 A 
ATOM      5  C7  UNL d   1       0.053   5.999  -5.889  0.00  0.00     0.002 A 
ATOM      6  C8  UNL d   1      -1.336   5.990  -5.751  0.00  0.00     0.002 A 
ENDROOT
BRANCH   1   7
ATOM      7  C2  UNL d   1      -3.427   6.000  -4.334  0.00  0.00     0.056 C 
BRANCH   7   8
ATOM      8  C1  UNL d   1      -3.914   5.949  -2.882  0.00  0.00     0.007 C 
ATOM      9  C   UNL d   1      -5.430   6.000  -2.754  0.00  0.00     0.009 C 
ENDBRANCH   7   8
ENDBRANCH   1   7
TORSDOF 2
ENDMDL
