MODEL 1
REMARK minimizedAffinity -0.27894482
REMARK minimizedRMSD -1
REMARK  2 active torsions:
REMARK  status: ('A' for Active; 'I' for Inactive)
REMARK    1  A    between atoms: C1_2  and  C2_3 
REMARK    2  A    between atoms: C2_3  and  C3_4 
ROOT
ATOM      1  C3  UNL d   1      -1.288   5.960  -3.941  0.00  0.00    -0.075 A 
ATOM      2  C4  UNL d   1      -2.689   5.999  -3.916  0.00  0.00     0.002 A 
ATOM      3  C5  UNL d   1      -3.377   5.990  -2.702  0.00  0.00     0.002 A 
ATOM      4  C6  UNL d   1      -2.674   5.931  -1.500  0.00  0.00    -0.004 A 
ATOM      5  C7  UNL d   1      -1.282   5.875  -1.514  0.00  0.00     0.002 A 
ATOM      6  C8  UNL d   1      -0.591   5.889  -2.727  0.00  0.00     0.002 A 
ENDROOT
BRANCH   1   7
ATOM      7  C2  UNL d   1      -0.537   6.000  -5.250  0.00  0.00     0.056 C 
BRANCH   7   8
ATOM      8  C1  UNL d   1       0.458   4.848  -5.434  0.00  0.00     0.007 C 
ATOM      9  C   UNL d   1       1.798   5.298  -6.000  0.00  0.00     0.009 C 
ENDBRANCH   7   8
ENDBRANCH   1   7
TORSDOF 2
ENDMDL
