MODEL 1
REMARK minimizedAffinity 6.40097666
REMARK minimizedRMSD -1
REMARK  2 active torsions:
REMARK  status: ('A' for Active; 'I' for Inactive)
REMARK    1  A    between atoms: C1_2  and  C2_3 
REMARK    2  A    between atoms: C2_3  and  C3_4 
ROOT
ATOM      1  C3  UNL d   1      -3.368  -1.366  -1.241  0.00  0.00    -0.075 A 
ATOM      2  C4  UNL d   1      -4.290  -2.173  -0.558  0.00  0.00     0.002 A 
ATOM      3  C5  UNL d   1      -4.785  -3.337  -1.147  0.00  0.00     0.002 A 
ATOM      4  C6  UNL d   1      -4.374  -3.702  -2.427  0.00  0.00    -0.004 A 
ATOM      5  C7  UNL d   1      -3.471  -2.900  -3.121  0.00  0.00     0.002 A 
ATOM      6  C8  UNL d   1      -2.970  -1.737  -2.532  0.00  0.00     0.002 A 
ENDROOT
BRANCH   1   7
ATOM      7  C2  UNL d   1      -2.805  -0.121  -0.597  0.00  0.00     0.056 C 
BRANCH   7   8
ATOM      8  C1  UNL d   1      -1.286   0.021  -0.736  0.00  0.00     0.007 C 
ATOM      9  C   UNL d   1      -0.554  -0.025   0.598  0.00  0.00     0.009 C 
ENDBRANCH   7   8
ENDBRANCH   1   7
TORSDOF 2
ENDMDL
