MODEL 1
REMARK minimizedAffinity 1.42185605
REMARK minimizedRMSD -1
REMARK  2 active torsions:
REMARK  status: ('A' for Active; 'I' for Inactive)
REMARK    1  A    between atoms: C1_2  and  C2_3 
REMARK    2  A    between atoms: C2_3  and  C3_4 
ROOT
ATOM      1  C3  UNL d   1      -1.013   5.710  -3.618  0.00  0.00    -0.075 A 
ATOM      2  C4  UNL d   1       0.342   5.404  -3.422  0.00  0.00     0.002 A 
ATOM      3  C5  UNL d   1       1.229   5.395  -4.499  0.00  0.00     0.002 A 
ATOM      4  C6  UNL d   1       0.773   5.681  -5.784  0.00  0.00    -0.004 A 
ATOM      5  C7  UNL d   1      -0.574   5.970  -5.993  0.00  0.00     0.002 A 
ATOM      6  C8  UNL d   1      -1.463   5.985  -4.917  0.00  0.00     0.002 A 
ENDROOT
BRANCH   1   7
ATOM      7  C2  UNL d   1      -1.972   5.751  -2.453  0.00  0.00     0.056 C 
BRANCH   7   8
ATOM      8  C1  UNL d   1      -3.430   6.000  -2.853  0.00  0.00     0.007 C 
ATOM      9  C   UNL d   1      -4.387   5.997  -1.669  0.00  0.00     0.009 C 
ENDBRANCH   7   8
ENDBRANCH   1   7
TORSDOF 2
ENDMDL
