MODEL 1
REMARK minimizedAffinity -3.0028398
REMARK minimizedRMSD -1
REMARK  2 active torsions:
REMARK  status: ('A' for Active; 'I' for Inactive)
REMARK    1  A    between atoms: C1_2  and  C2_3 
REMARK    2  A    between atoms: C2_3  and  C3_4 
ROOT
ATOM      1  C3  UNL d   1       0.608   0.968   1.916  0.00  0.00    -0.075 A 
ATOM      2  C4  UNL d   1       1.345   0.458   2.995  0.00  0.00     0.002 A 
ATOM      3  C5  UNL d   1       2.739   0.507   2.987  0.00  0.00     0.002 A 
ATOM      4  C6  UNL d   1       3.414   1.056   1.899  0.00  0.00    -0.004 A 
ATOM      5  C7  UNL d   1       2.692   1.550   0.814  0.00  0.00     0.002 A 
ATOM      6  C8  UNL d   1       1.297   1.506   0.821  0.00  0.00     0.002 A 
ENDROOT
BRANCH   1   7
ATOM      7  C2  UNL d   1      -0.902   0.944   1.932  0.00  0.00     0.056 C 
BRANCH   7   8
ATOM      8  C1  UNL d   1      -1.512   1.009   3.336  0.00  0.00     0.007 C 
ATOM      9  C   UNL d   1      -2.829   1.772   3.383  0.00  0.00     0.009 C 
ENDBRANCH   7   8
ENDBRANCH   1   7
TORSDOF 2
ENDMDL
