MODEL 1
REMARK minimizedAffinity -2.41817951
REMARK minimizedRMSD -1
REMARK  2 active torsions:
REMARK  status: ('A' for Active; 'I' for Inactive)
REMARK    1  A    between atoms: C1_2  and  C2_3 
REMARK    2  A    between atoms: C2_3  and  C3_4 
ROOT
ATOM      1  C3  UNL d   1      -0.801   6.000  -4.659  0.00  0.00    -0.075 A 
ATOM      2  C4  UNL d   1      -0.559   6.000  -3.278  0.00  0.00     0.002 A 
ATOM      3  C5  UNL d   1      -1.620   5.974  -2.373  0.00  0.00     0.002 A 
ATOM      4  C6  UNL d   1      -2.934   5.959  -2.836  0.00  0.00    -0.004 A 
ATOM      5  C7  UNL d   1      -3.186   5.976  -4.206  0.00  0.00     0.002 A 
ATOM      6  C8  UNL d   1      -2.126   5.997  -5.114  0.00  0.00     0.002 A 
ENDROOT
BRANCH   1   7
ATOM      7  C2  UNL d   1       0.344   5.998  -5.644  0.00  0.00     0.056 C 
BRANCH   7   8
ATOM      8  C1  UNL d   1       1.730   6.000  -4.990  0.00  0.00     0.007 C 
ATOM      9  C   UNL d   1       2.870   5.999  -5.999  0.00  0.00     0.009 C 
ENDBRANCH   7   8
ENDBRANCH   1   7
TORSDOF 2
ENDMDL
