MODEL 1
REMARK minimizedAffinity -1.37813306
REMARK minimizedRMSD -1
REMARK  2 active torsions:
REMARK  status: ('A' for Active; 'I' for Inactive)
REMARK    1  A    between atoms: C1_2  and  C2_3 
REMARK    2  A    between atoms: C2_3  and  C3_4 
ROOT
ATOM      1  C3  UNL d   1      -0.726   5.965  -4.654  0.00  0.00    -0.075 A 
ATOM      2  C4  UNL d   1      -0.517   5.990  -3.267  0.00  0.00     0.002 A 
ATOM      3  C5  UNL d   1      -1.600   6.000  -2.388  0.00  0.00     0.002 A 
ATOM      4  C6  UNL d   1      -2.903   5.995  -2.883  0.00  0.00    -0.004 A 
ATOM      5  C7  UNL d   1      -3.122   5.986  -4.258  0.00  0.00     0.002 A 
ATOM      6  C8  UNL d   1      -2.040   5.972  -5.140  0.00  0.00     0.002 A 
ENDROOT
BRANCH   1   7
ATOM      7  C2  UNL d   1       0.442   5.925  -5.610  0.00  0.00     0.056 C 
BRANCH   7   8
ATOM      8  C1  UNL d   1       1.812   5.970  -4.925  0.00  0.00     0.007 C 
ATOM      9  C   UNL d   1       2.975   5.984  -5.907  0.00  0.00     0.009 C 
ENDBRANCH   7   8
ENDBRANCH   1   7
TORSDOF 2
ENDMDL
