MODEL 1
REMARK minimizedAffinity 8.88421631
REMARK minimizedRMSD -1
REMARK  2 active torsions:
REMARK  status: ('A' for Active; 'I' for Inactive)
REMARK    1  A    between atoms: C1_2  and  C2_3 
REMARK    2  A    between atoms: C2_3  and  C3_4 
ROOT
ATOM      1  C3  UNL d   1      -2.891  -1.533  -2.877  0.00  0.00    -0.075 A 
ATOM      2  C4  UNL d   1      -3.774  -2.620  -2.819  0.00  0.00     0.002 A 
ATOM      3  C5  UNL d   1      -4.540  -2.852  -1.676  0.00  0.00     0.002 A 
ATOM      4  C6  UNL d   1      -4.424  -2.008  -0.574  0.00  0.00    -0.004 A 
ATOM      5  C7  UNL d   1      -3.538  -0.934  -0.614  0.00  0.00     0.002 A 
ATOM      6  C8  UNL d   1      -2.774  -0.697  -1.758  0.00  0.00     0.002 A 
ENDROOT
BRANCH   1   7
ATOM      7  C2  UNL d   1      -2.081  -1.259  -4.122  0.00  0.00     0.056 C 
BRANCH   7   8
ATOM      8  C1  UNL d   1      -0.721  -0.608  -3.851  0.00  0.00     0.007 C 
ATOM      9  C   UNL d   1      -0.222   0.244  -5.010  0.00  0.00     0.009 C 
ENDBRANCH   7   8
ENDBRANCH   1   7
TORSDOF 2
ENDMDL
