MODEL 1
REMARK minimizedAffinity -1.63886499
REMARK minimizedRMSD -1
REMARK  2 active torsions:
REMARK  status: ('A' for Active; 'I' for Inactive)
REMARK    1  A    between atoms: C1_2  and  C2_3 
REMARK    2  A    between atoms: C2_3  and  C3_4 
ROOT
ATOM      1  C3  UNL d   1      -1.362   5.991  -4.213  0.00  0.00    -0.075 A 
ATOM      2  C4  UNL d   1      -0.952   5.999  -2.872  0.00  0.00     0.002 A 
ATOM      3  C5  UNL d   1      -1.893   5.974  -1.843  0.00  0.00     0.002 A 
ATOM      4  C6  UNL d   1      -3.254   5.951  -2.140  0.00  0.00    -0.004 A 
ATOM      5  C7  UNL d   1      -3.674   5.959  -3.469  0.00  0.00     0.002 A 
ATOM      6  C8  UNL d   1      -2.734   5.980  -4.501  0.00  0.00     0.002 A 
ENDROOT
BRANCH   1   7
ATOM      7  C2  UNL d   1      -0.348   5.988  -5.332  0.00  0.00     0.056 C 
BRANCH   7   8
ATOM      8  C1  UNL d   1       0.927   5.199  -5.016  0.00  0.00     0.007 C 
ATOM      9  C   UNL d   1       2.202   5.943  -5.389  0.00  0.00     0.009 C 
ENDBRANCH   7   8
ENDBRANCH   1   7
TORSDOF 2
ENDMDL
