MODEL 1
REMARK minimizedAffinity 7.34796238
REMARK minimizedRMSD -1
REMARK  2 active torsions:
REMARK  status: ('A' for Active; 'I' for Inactive)
REMARK    1  A    between atoms: C1_2  and  C2_3 
REMARK    2  A    between atoms: C2_3  and  C3_4 
ROOT
ATOM      1  C3  UNL d   1       1.345   0.946   2.109  0.00  0.00    -0.075 A 
ATOM      2  C4  UNL d   1       0.473   0.039   1.490  0.00  0.00     0.002 A 
ATOM      3  C5  UNL d   1       0.085   0.224   0.163  0.00  0.00     0.002 A 
ATOM      4  C6  UNL d   1       0.553   1.320  -0.557  0.00  0.00    -0.004 A 
ATOM      5  C7  UNL d   1       1.407   2.237   0.053  0.00  0.00     0.002 A 
ATOM      6  C8  UNL d   1       1.800   2.052   1.380  0.00  0.00     0.002 A 
ENDROOT
BRANCH   1   7
ATOM      7  C2  UNL d   1       1.792   0.736   3.536  0.00  0.00     0.056 C 
BRANCH   7   8
ATOM      8  C1  UNL d   1       0.647   0.737   4.555  0.00  0.00     0.007 C 
ATOM      9  C   UNL d   1       1.130   0.758   6.000  0.00  0.00     0.009 C 
ENDBRANCH   7   8
ENDBRANCH   1   7
TORSDOF 2
ENDMDL
