MODEL 1
REMARK minimizedAffinity 2.92129517
REMARK minimizedRMSD -1
REMARK  2 active torsions:
REMARK  status: ('A' for Active; 'I' for Inactive)
REMARK    1  A    between atoms: C1_2  and  C2_3 
REMARK    2  A    between atoms: C2_3  and  C3_4 
ROOT
ATOM      1  C3  UNL d   1      -2.579  -1.356  -2.778  0.00  0.00    -0.075 A 
ATOM      2  C4  UNL d   1      -3.251  -1.356  -4.009  0.00  0.00     0.002 A 
ATOM      3  C5  UNL d   1      -2.545  -1.515  -5.202  0.00  0.00     0.002 A 
ATOM      4  C6  UNL d   1      -1.160  -1.665  -5.180  0.00  0.00    -0.004 A 
ATOM      5  C7  UNL d   1      -0.480  -1.651  -3.964  0.00  0.00     0.002 A 
ATOM      6  C8  UNL d   1      -1.185  -1.496  -2.769  0.00  0.00     0.002 A 
ENDROOT
BRANCH   1   7
ATOM      7  C2  UNL d   1      -3.341  -1.215  -1.482  0.00  0.00     0.056 C 
BRANCH   7   8
ATOM      8  C1  UNL d   1      -4.530  -2.172  -1.350  0.00  0.00     0.007 C 
ATOM      9  C   UNL d   1      -4.258  -3.342  -0.414  0.00  0.00     0.009 C 
ENDBRANCH   7   8
ENDBRANCH   1   7
TORSDOF 2
ENDMDL
