MODEL 1
REMARK minimizedAffinity -2.85405755
REMARK minimizedRMSD -1
REMARK  2 active torsions:
REMARK  status: ('A' for Active; 'I' for Inactive)
REMARK    1  A    between atoms: C1_2  and  C2_3 
REMARK    2  A    between atoms: C2_3  and  C3_4 
ROOT
ATOM      1  C3  UNL d   1       2.974   5.983  -4.637  0.00  0.00    -0.075 A 
ATOM      2  C4  UNL d   1       2.354   5.978  -5.895  0.00  0.00     0.002 A 
ATOM      3  C5  UNL d   1       0.963   5.991  -6.000  0.00  0.00     0.002 A 
ATOM      4  C6  UNL d   1       0.175   6.000  -4.851  0.00  0.00    -0.004 A 
ATOM      5  C7  UNL d   1       0.780   5.989  -3.596  0.00  0.00     0.002 A 
ATOM      6  C8  UNL d   1       2.172   5.980  -3.488  0.00  0.00     0.002 A 
ENDROOT
BRANCH   1   7
ATOM      7  C2  UNL d   1       4.479   5.999  -4.517  0.00  0.00     0.056 C 
BRANCH   7   8
ATOM      8  C1  UNL d   1       5.150   4.679  -4.914  0.00  0.00     0.007 C 
ATOM      9  C   UNL d   1       5.281   3.701  -3.754  0.00  0.00     0.009 C 
ENDBRANCH   7   8
ENDBRANCH   1   7
TORSDOF 2
ENDMDL
