MODEL 1
REMARK minimizedAffinity 5.26376724
REMARK minimizedRMSD -1
REMARK  2 active torsions:
REMARK  status: ('A' for Active; 'I' for Inactive)
REMARK    1  A    between atoms: C1_2  and  C2_3 
REMARK    2  A    between atoms: C2_3  and  C3_4 
ROOT
ATOM      1  C3  UNL d   1      -2.213   5.883  -3.599  0.00  0.00    -0.075 A 
ATOM      2  C4  UNL d   1      -3.220   5.667  -2.647  0.00  0.00     0.002 A 
ATOM      3  C5  UNL d   1      -2.906   5.588  -1.289  0.00  0.00     0.002 A 
ATOM      4  C6  UNL d   1      -1.584   5.715  -0.869  0.00  0.00    -0.004 A 
ATOM      5  C7  UNL d   1      -0.574   5.914  -1.807  0.00  0.00     0.002 A 
ATOM      6  C8  UNL d   1      -0.886   5.997  -3.166  0.00  0.00     0.002 A 
ENDROOT
BRANCH   1   7
ATOM      7  C2  UNL d   1      -2.550   5.998  -5.066  0.00  0.00     0.056 C 
BRANCH   7   8
ATOM      8  C1  UNL d   1      -1.327   5.991  -5.989  0.00  0.00     0.007 C 
ATOM      9  C   UNL d   1      -0.168   5.167  -5.444  0.00  0.00     0.009 C 
ENDBRANCH   7   8
ENDBRANCH   1   7
TORSDOF 2
ENDMDL
