MODEL 1
REMARK minimizedAffinity -3.58951306
REMARK minimizedRMSD -1
REMARK  2 active torsions:
REMARK  status: ('A' for Active; 'I' for Inactive)
REMARK    1  A    between atoms: C1_2  and  C2_3 
REMARK    2  A    between atoms: C2_3  and  C3_4 
ROOT
ATOM      1  C3  UNL d   1      -1.001   5.999  -4.573  0.00  0.00    -0.075 A 
ATOM      2  C4  UNL d   1      -0.559   5.998  -3.242  0.00  0.00     0.002 A 
ATOM      3  C5  UNL d   1      -1.477   5.975  -2.191  0.00  0.00     0.002 A 
ATOM      4  C6  UNL d   1      -2.845   5.963  -2.457  0.00  0.00    -0.004 A 
ATOM      5  C7  UNL d   1      -3.295   5.981  -3.775  0.00  0.00     0.002 A 
ATOM      6  C8  UNL d   1      -2.379   6.000  -4.829  0.00  0.00     0.002 A 
ENDROOT
BRANCH   1   7
ATOM      7  C2  UNL d   1      -0.013   5.995  -5.715  0.00  0.00     0.056 C 
BRANCH   7   8
ATOM      8  C1  UNL d   1       1.186   5.065  -5.499  0.00  0.00     0.007 C 
ATOM      9  C   UNL d   1       2.525   5.788  -5.550  0.00  0.00     0.009 C 
ENDBRANCH   7   8
ENDBRANCH   1   7
TORSDOF 2
ENDMDL
