MODEL 1
REMARK minimizedAffinity 1.8404361
REMARK minimizedRMSD -1
REMARK  1 active torsions:
REMARK  status: ('A' for Active; 'I' for Inactive)
REMARK    1  A    between atoms: C1_2  and  C2_3 
ROOT
ATOM      1  C2  UNL d   1       0.453  -1.921  -0.442  0.00  0.00    -0.077 A 
ATOM      2  C3  UNL d   1       1.421  -1.875  -1.454  0.00  0.00     0.002 A 
ATOM      3  C4  UNL d   1       1.211  -2.541  -2.663  0.00  0.00     0.002 A 
ATOM      4  C5  UNL d   1       0.032  -3.253  -2.873  0.00  0.00    -0.004 A 
ATOM      5  C6  UNL d   1      -0.937  -3.305  -1.871  0.00  0.00     0.002 A 
ATOM      6  C7  UNL d   1      -0.728  -2.642  -0.661  0.00  0.00     0.002 A 
ENDROOT
BRANCH   1   7
ATOM      7  C1  UNL d   1       0.656  -1.163   0.844  0.00  0.00     0.055 C 
ATOM      8  C   UNL d   1       0.069   0.238   0.760  0.00  0.00     0.019 C 
ENDBRANCH   1   7
TORSDOF 1
ENDMDL
