MODEL 1
REMARK minimizedAffinity 1.6015625
REMARK minimizedRMSD -1
REMARK  1 active torsions:
REMARK  status: ('A' for Active; 'I' for Inactive)
REMARK    1  A    between atoms: C1_2  and  C2_3 
ROOT
ATOM      1  C2  UNL d   1       0.451   2.059   0.999  0.00  0.00    -0.077 A 
ATOM      2  C3  UNL d   1       0.784   2.569  -0.264  0.00  0.00     0.002 A 
ATOM      3  C4  UNL d   1       1.910   3.378  -0.424  0.00  0.00     0.002 A 
ATOM      4  C5  UNL d   1       2.715   3.681   0.673  0.00  0.00    -0.004 A 
ATOM      5  C6  UNL d   1       2.391   3.180   1.933  0.00  0.00     0.002 A 
ATOM      6  C7  UNL d   1       1.265   2.372   2.095  0.00  0.00     0.002 A 
ENDROOT
BRANCH   1   7
ATOM      7  C1  UNL d   1      -0.735   1.145   1.165  0.00  0.00     0.055 C 
ATOM      8  C   UNL d   1      -0.432  -0.255   0.653  0.00  0.00     0.019 C 
ENDBRANCH   1   7
TORSDOF 1
ENDMDL
