MODEL 1
REMARK minimizedAffinity 5.52677393
REMARK minimizedRMSD -1
REMARK  1 active torsions:
REMARK  status: ('A' for Active; 'I' for Inactive)
REMARK    1  A    between atoms: C1_2  and  C2_3 
ROOT
ATOM      1  C2  UNL d   1       0.425   1.154   0.325  0.00  0.00    -0.077 A 
ATOM      2  C3  UNL d   1       0.816   2.460   0.652  0.00  0.00     0.002 A 
ATOM      3  C4  UNL d   1       1.300   3.320  -0.335  0.00  0.00     0.002 A 
ATOM      4  C5  UNL d   1       1.396   2.885  -1.655  0.00  0.00    -0.004 A 
ATOM      5  C6  UNL d   1       1.012   1.587  -1.990  0.00  0.00     0.002 A 
ATOM      6  C7  UNL d   1       0.528   0.726  -1.004  0.00  0.00     0.002 A 
ENDROOT
BRANCH   1   7
ATOM      7  C1  UNL d   1      -0.144   0.241   1.380  0.00  0.00     0.055 C 
ATOM      8  C   UNL d   1      -1.473   0.764   1.905  0.00  0.00     0.019 C 
ENDBRANCH   1   7
TORSDOF 1
ENDMDL
