MODEL 1
REMARK minimizedAffinity -2.7126534
REMARK minimizedRMSD -1
REMARK  1 active torsions:
REMARK  status: ('A' for Active; 'I' for Inactive)
REMARK    1  A    between atoms: C1_2  and  C2_3 
ROOT
ATOM      1  C2  UNL d   1       3.468   4.165  -6.000  0.00  0.00    -0.077 A 
ATOM      2  C3  UNL d   1       2.175   4.707  -5.994  0.00  0.00     0.002 A 
ATOM      3  C4  UNL d   1       1.058   3.870  -5.988  0.00  0.00     0.002 A 
ATOM      4  C5  UNL d   1       1.223   2.486  -5.984  0.00  0.00    -0.004 A 
ATOM      5  C6  UNL d   1       2.505   1.937  -5.992  0.00  0.00     0.002 A 
ATOM      6  C7  UNL d   1       3.622   2.773  -5.999  0.00  0.00     0.002 A 
ENDROOT
BRANCH   1   7
ATOM      7  C1  UNL d   1       4.674   5.067  -5.956  0.00  0.00     0.055 C 
ATOM      8  C   UNL d   1       5.954   4.270  -5.746  0.00  0.00     0.019 C 
ENDBRANCH   1   7
TORSDOF 1
ENDMDL
