MODEL 1
REMARK minimizedAffinity 5.77845621
REMARK minimizedRMSD -1
REMARK  1 active torsions:
REMARK  status: ('A' for Active; 'I' for Inactive)
REMARK    1  A    between atoms: C1_2  and  C2_3 
ROOT
ATOM      1  C2  UNL d   1       3.496   3.796  -5.954  0.00  0.00    -0.077 A 
ATOM      2  C3  UNL d   1       3.545   2.395  -5.969  0.00  0.00     0.002 A 
ATOM      3  C4  UNL d   1       2.367   1.647  -5.984  0.00  0.00     0.002 A 
ATOM      4  C5  UNL d   1       1.131   2.290  -5.990  0.00  0.00    -0.004 A 
ATOM      5  C6  UNL d   1       1.071   3.683  -5.973  0.00  0.00     0.002 A 
ATOM      6  C7  UNL d   1       2.248   4.433  -5.956  0.00  0.00     0.002 A 
ENDROOT
BRANCH   1   7
ATOM      7  C1  UNL d   1       4.766   4.606  -5.986  0.00  0.00     0.055 C 
ATOM      8  C   UNL d   1       5.983   3.737  -5.706  0.00  0.00     0.019 C 
ENDBRANCH   1   7
TORSDOF 1
ENDMDL
