MODEL 1
REMARK minimizedAffinity 3.11034799
REMARK minimizedRMSD -1
REMARK  1 active torsions:
REMARK  status: ('A' for Active; 'I' for Inactive)
REMARK    1  A    between atoms: C1_2  and  C2_3 
ROOT
ATOM      1  C2  UNL d   1      -0.477   3.421  -5.944  0.00  0.00    -0.077 A 
ATOM      2  C3  UNL d   1      -1.283   2.275  -6.000  0.00  0.00     0.002 A 
ATOM      3  C4  UNL d   1      -2.675   2.390  -5.998  0.00  0.00     0.002 A 
ATOM      4  C5  UNL d   1      -3.272   3.648  -5.946  0.00  0.00    -0.004 A 
ATOM      5  C6  UNL d   1      -2.479   4.793  -5.888  0.00  0.00     0.002 A 
ATOM      6  C7  UNL d   1      -1.088   4.680  -5.888  0.00  0.00     0.002 A 
ENDROOT
BRANCH   1   7
ATOM      7  C1  UNL d   1       1.024   3.301  -5.995  0.00  0.00     0.055 C 
ATOM      8  C   UNL d   1       1.463   1.844  -5.997  0.00  0.00     0.019 C 
ENDBRANCH   1   7
TORSDOF 1
ENDMDL
