MODEL 1
REMARK minimizedAffinity 5.18273878
REMARK minimizedRMSD -1
REMARK  1 active torsions:
REMARK  status: ('A' for Active; 'I' for Inactive)
REMARK    1  A    between atoms: C1_2  and  C2_3 
ROOT
ATOM      1  C2  UNL d   1       0.992   2.368   1.056  0.00  0.00    -0.077 A 
ATOM      2  C3  UNL d   1       1.862   2.609   2.128  0.00  0.00     0.002 A 
ATOM      3  C4  UNL d   1       2.948   3.473   1.975  0.00  0.00     0.002 A 
ATOM      4  C5  UNL d   1       3.170   4.106   0.754  0.00  0.00    -0.004 A 
ATOM      5  C6  UNL d   1       2.311   3.872  -0.318  0.00  0.00     0.002 A 
ATOM      6  C7  UNL d   1       1.226   3.007  -0.168  0.00  0.00     0.002 A 
ENDROOT
BRANCH   1   7
ATOM      7  C1  UNL d   1      -0.208   1.474   1.233  0.00  0.00     0.055 C 
ATOM      8  C   UNL d   1      -0.023   0.149   0.509  0.00  0.00     0.019 C 
ENDBRANCH   1   7
TORSDOF 1
ENDMDL
