MODEL 1
REMARK minimizedAffinity 1.08608484
REMARK minimizedRMSD -1
REMARK  1 active torsions:
REMARK  status: ('A' for Active; 'I' for Inactive)
REMARK    1  A    between atoms: C1_2  and  C2_3 
ROOT
ATOM      1  C2  UNL d   1       2.388  -1.722   3.328  0.00  0.00    -0.073 A 
ATOM      2  C3  UNL d   1       3.717  -1.970   3.692  0.00  0.00    -0.002 A 
ATOM      3  C4  UNL d   1       4.082  -3.205   4.228  0.00  0.00     0.004 A 
ATOM      4  C5  UNL d   1       3.126  -4.207   4.398  0.00  0.00    -0.004 A 
ATOM      5  C6  UNL d   1       1.796  -3.982   4.030  0.00  0.00    -0.075 A 
ATOM      6  C7  UNL d   1       0.755  -5.048   4.209  0.00  0.00     0.076 C 
ATOM      7  C8  UNL d   1       1.436  -2.738   3.495  0.00  0.00     0.001 A 
ENDROOT
BRANCH   1   8
ATOM      8  C1  UNL d   1       1.990  -0.391   2.743  0.00  0.00     0.053 C 
ATOM      9  C   UNL d   1       3.133   0.261   1.981  0.00  0.00     0.018 C 
ENDBRANCH   1   8
TORSDOF 1
ENDMDL
