MODEL 1
REMARK minimizedAffinity -4.00906563
REMARK minimizedRMSD -1
REMARK  1 active torsions:
REMARK  status: ('A' for Active; 'I' for Inactive)
REMARK    1  A    between atoms: C1_2  and  C2_3 
ROOT
ATOM      1  C2  UNL d   1       0.729  -2.913   1.109  0.00  0.00    -0.073 A 
ATOM      2  C3  UNL d   1       1.192  -4.232   1.039  0.00  0.00    -0.002 A 
ATOM      3  C4  UNL d   1       1.843  -4.809   2.129  0.00  0.00     0.004 A 
ATOM      4  C5  UNL d   1       2.032  -4.078   3.302  0.00  0.00    -0.004 A 
ATOM      5  C6  UNL d   1       1.566  -2.763   3.396  0.00  0.00    -0.075 A 
ATOM      6  C7  UNL d   1       1.764  -1.962   4.649  0.00  0.00     0.076 C 
ATOM      7  C8  UNL d   1       0.916  -2.189   2.295  0.00  0.00     0.001 A 
ENDROOT
BRANCH   1   8
ATOM      8  C1  UNL d   1       0.019  -2.287  -0.064  0.00  0.00     0.053 C 
ATOM      9  C   UNL d   1      -1.490  -2.444   0.033  0.00  0.00     0.018 C 
ENDBRANCH   1   8
TORSDOF 1
ENDMDL
