MODEL 1
REMARK minimizedAffinity 14.6247759
REMARK minimizedRMSD -1
REMARK  1 active torsions:
REMARK  status: ('A' for Active; 'I' for Inactive)
REMARK    1  A    between atoms: C1_2  and  C2_3 
ROOT
ATOM      1  C2  UNL d   1      -3.563   1.122  -2.728  0.00  0.00    -0.073 A 
ATOM      2  C3  UNL d   1      -3.861   2.034  -3.747  0.00  0.00    -0.002 A 
ATOM      3  C4  UNL d   1      -4.853   2.999  -3.562  0.00  0.00     0.004 A 
ATOM      4  C5  UNL d   1      -5.550   3.066  -2.356  0.00  0.00    -0.004 A 
ATOM      5  C6  UNL d   1      -5.258   2.171  -1.321  0.00  0.00    -0.075 A 
ATOM      6  C7  UNL d   1      -6.000   2.229  -0.018  0.00  0.00     0.076 C 
ATOM      7  C8  UNL d   1      -4.263   1.204  -1.516  0.00  0.00     0.001 A 
ENDROOT
BRANCH   1   8
ATOM      8  C1  UNL d   1      -2.489   0.083  -2.922  0.00  0.00     0.053 C 
ATOM      9  C   UNL d   1      -2.995  -1.321  -2.628  0.00  0.00     0.018 C 
ENDBRANCH   1   8
TORSDOF 1
ENDMDL
