MODEL 1
REMARK minimizedAffinity 7.87955189
REMARK minimizedRMSD -1
REMARK  1 active torsions:
REMARK  status: ('A' for Active; 'I' for Inactive)
REMARK    1  A    between atoms: C1_2  and  C2_3 
ROOT
ATOM      1  C2  UNL d   1       1.477  -1.195   1.709  0.00  0.00    -0.073 A 
ATOM      2  C3  UNL d   1       1.838  -1.152   3.061  0.00  0.00    -0.002 A 
ATOM      3  C4  UNL d   1       2.466  -0.022   3.588  0.00  0.00     0.004 A 
ATOM      4  C5  UNL d   1       2.733   1.077   2.772  0.00  0.00    -0.004 A 
ATOM      5  C6  UNL d   1       2.369   1.058   1.421  0.00  0.00    -0.075 A 
ATOM      6  C7  UNL d   1       2.651   2.232   0.530  0.00  0.00     0.076 C 
ATOM      7  C8  UNL d   1       1.742  -0.081   0.899  0.00  0.00     0.001 A 
ENDROOT
BRANCH   1   8
ATOM      8  C1  UNL d   1       0.794  -2.410   1.138  0.00  0.00     0.053 C 
ATOM      9  C   UNL d   1      -0.450  -2.043   0.344  0.00  0.00     0.018 C 
ENDBRANCH   1   8
TORSDOF 1
ENDMDL
