MODEL 1
REMARK minimizedAffinity 2.41126466
REMARK minimizedRMSD -1
REMARK  1 active torsions:
REMARK  status: ('A' for Active; 'I' for Inactive)
REMARK    1  A    between atoms: C1_2  and  C2_3 
ROOT
ATOM      1  C2  UNL d   1      -1.008  -1.975  -1.165  0.00  0.00    -0.073 A 
ATOM      2  C3  UNL d   1      -1.748  -3.129  -0.886  0.00  0.00    -0.002 A 
ATOM      3  C4  UNL d   1      -3.068  -3.243  -1.324  0.00  0.00     0.004 A 
ATOM      4  C5  UNL d   1      -3.659  -2.209  -2.050  0.00  0.00    -0.004 A 
ATOM      5  C6  UNL d   1      -2.931  -1.052  -2.349  0.00  0.00    -0.075 A 
ATOM      6  C7  UNL d   1      -3.553   0.070  -3.127  0.00  0.00     0.076 C 
ATOM      7  C8  UNL d   1      -1.607  -0.944  -1.904  0.00  0.00     0.001 A 
ENDROOT
BRANCH   1   8
ATOM      8  C1  UNL d   1       0.420  -1.850  -0.700  0.00  0.00     0.053 C 
ATOM      9  C   UNL d   1       0.694  -2.697   0.533  0.00  0.00     0.018 C 
ENDBRANCH   1   8
TORSDOF 1
ENDMDL
