MODEL 1
REMARK minimizedAffinity 10.6076155
REMARK minimizedRMSD -1
REMARK  1 active torsions:
REMARK  status: ('A' for Active; 'I' for Inactive)
REMARK    1  A    between atoms: C1_2  and  C2_3 
ROOT
ATOM      1  C2  UNL d   1       1.704   0.160   1.936  0.00  0.00    -0.073 A 
ATOM      2  C3  UNL d   1       2.202  -0.848   2.770  0.00  0.00    -0.002 A 
ATOM      3  C4  UNL d   1       1.650  -2.129   2.735  0.00  0.00     0.004 A 
ATOM      4  C5  UNL d   1       0.601  -2.418   1.862  0.00  0.00    -0.004 A 
ATOM      5  C6  UNL d   1       0.097  -1.428   1.013  0.00  0.00    -0.075 A 
ATOM      6  C7  UNL d   1      -1.033  -1.721   0.070  0.00  0.00     0.076 C 
ATOM      7  C8  UNL d   1       0.655  -0.143   1.056  0.00  0.00     0.001 A 
ENDROOT
BRANCH   1   8
ATOM      8  C1  UNL d   1       2.301   1.543   1.965  0.00  0.00     0.053 C 
ATOM      9  C   UNL d   1       2.701   2.021   0.579  0.00  0.00     0.018 C 
ENDBRANCH   1   8
TORSDOF 1
ENDMDL
