MODEL 1
REMARK minimizedAffinity 4.61489534
REMARK minimizedRMSD -1
REMARK  1 active torsions:
REMARK  status: ('A' for Active; 'I' for Inactive)
REMARK    1  A    between atoms: C1_2  and  C2_3 
ROOT
ATOM      1  C2  UNL d   1       2.335  -1.421   3.402  0.00  0.00    -0.073 A 
ATOM      2  C3  UNL d   1       1.665  -1.612   4.616  0.00  0.00    -0.002 A 
ATOM      3  C4  UNL d   1       2.352  -2.084   5.734  0.00  0.00     0.004 A 
ATOM      4  C5  UNL d   1       3.716  -2.364   5.653  0.00  0.00    -0.004 A 
ATOM      5  C6  UNL d   1       4.406  -2.169   4.452  0.00  0.00    -0.075 A 
ATOM      6  C7  UNL d   1       5.873  -2.467   4.348  0.00  0.00     0.076 C 
ATOM      7  C8  UNL d   1       3.708  -1.696   3.333  0.00  0.00     0.001 A 
ENDROOT
BRANCH   1   8
ATOM      8  C1  UNL d   1       1.598  -0.904   2.194  0.00  0.00     0.053 C 
ATOM      9  C   UNL d   1       2.079   0.477   1.780  0.00  0.00     0.018 C 
ENDBRANCH   1   8
TORSDOF 1
ENDMDL
