MODEL 1
REMARK minimizedAffinity 11.5950689
REMARK minimizedRMSD -1
REMARK  1 active torsions:
REMARK  status: ('A' for Active; 'I' for Inactive)
REMARK    1  A    between atoms: C1_2  and  C2_3 
ROOT
ATOM      1  C2  UNL d   1      -4.303   1.253  -3.405  0.00  0.00    -0.073 A 
ATOM      2  C3  UNL d   1      -3.217   1.596  -2.592  0.00  0.00    -0.002 A 
ATOM      3  C4  UNL d   1      -2.335   0.612  -2.143  0.00  0.00     0.004 A 
ATOM      4  C5  UNL d   1      -2.525  -0.720  -2.507  0.00  0.00    -0.004 A 
ATOM      5  C6  UNL d   1      -3.598  -1.081  -3.328  0.00  0.00    -0.075 A 
ATOM      6  C7  UNL d   1      -3.818  -2.511  -3.727  0.00  0.00     0.076 C 
ATOM      7  C8  UNL d   1      -4.481  -0.088  -3.773  0.00  0.00     0.001 A 
ENDROOT
BRANCH   1   8
ATOM      8  C1  UNL d   1      -5.255   2.313  -3.897  0.00  0.00     0.053 C 
ATOM      9  C   UNL d   1      -5.090   2.580  -5.385  0.00  0.00     0.018 C 
ENDBRANCH   1   8
TORSDOF 1
ENDMDL
