MODEL 1
REMARK minimizedAffinity -4.43664646
REMARK minimizedRMSD -1
REMARK  0 active torsions:
REMARK  status: ('A' for Active; 'I' for Inactive)
ROOT
ATOM      1  N1  IND d   1      -0.316  -1.144   0.784  0.00  0.00    -0.196 N 
ATOM      2  C2  IND d   1      -0.285  -0.054   1.608  0.00  0.00     0.054 A 
ATOM      3  C3  IND d   1       0.356   0.973   1.006  0.00  0.00    -0.031 A 
ATOM      4  C4  IND d   1       1.342   1.119  -1.368  0.00  0.00     0.051 A 
ATOM      5  C5  IND d   1       1.586   0.365  -2.481  0.00  0.00    -0.031 A 
ATOM      6  C6  IND d   1       1.199  -0.957  -2.566  0.00  0.00     0.015 A 
ATOM      7  C7  IND d   1       0.539  -1.573  -1.540  0.00  0.00    -0.016 A 
ATOM      8  C8  IND d   1       0.296  -0.812  -0.405  0.00  0.00    -0.047 A 
ATOM      9  C9  IND d   1       0.724   0.517  -0.297  0.00  0.00    -0.096 A 
ATOM     10  HN1 IND d   1      -0.659  -1.909   0.976  0.00  0.00     0.298 HD
ENDROOT
TORSDOF 0
ENDMDL
