MODEL 1
REMARK minimizedAffinity -4.9703846
REMARK minimizedRMSD -1
REMARK  0 active torsions:
REMARK  status: ('A' for Active; 'I' for Inactive)
ROOT
ATOM      1  N1  IND d   1      -0.513  -0.578   0.364  0.00  0.00    -0.196 N 
ATOM      2  C2  IND d   1      -0.567   0.779   0.204  0.00  0.00     0.054 A 
ATOM      3  C3  IND d   1       0.277   1.171  -0.777  0.00  0.00    -0.031 A 
ATOM      4  C4  IND d   1       1.765  -0.254  -2.320  0.00  0.00     0.051 A 
ATOM      5  C5  IND d   1       2.179  -1.539  -2.531  0.00  0.00    -0.031 A 
ATOM      6  C6  IND d   1       1.705  -2.591  -1.775  0.00  0.00     0.015 A 
ATOM      7  C7  IND d   1       0.787  -2.398  -0.782  0.00  0.00    -0.016 A 
ATOM      8  C8  IND d   1       0.370  -1.093  -0.560  0.00  0.00    -0.047 A 
ATOM      9  C9  IND d   1       0.879  -0.016  -1.297  0.00  0.00    -0.096 A 
ATOM     10  HN1 IND d   1      -0.956  -1.033   0.943  0.00  0.00     0.298 HD
ENDROOT
TORSDOF 0
ENDMDL
