MODEL 1
REMARK minimizedAffinity -2.75241876
REMARK minimizedRMSD -1
REMARK  0 active torsions:
REMARK  status: ('A' for Active; 'I' for Inactive)
ROOT
ATOM      1  N1  IND d   1       0.087   0.418   1.539  0.00  0.00    -0.196 N 
ATOM      2  C2  IND d   1       0.621   1.642   1.245  0.00  0.00     0.054 A 
ATOM      3  C3  IND d   1       1.068   1.667  -0.031  0.00  0.00    -0.031 A 
ATOM      4  C4  IND d   1       0.932  -0.154  -1.846  0.00  0.00     0.051 A 
ATOM      5  C5  IND d   1       0.563  -1.455  -2.041  0.00  0.00    -0.031 A 
ATOM      6  C6  IND d   1       0.003  -2.213  -1.033  0.00  0.00     0.015 A 
ATOM      7  C7  IND d   1      -0.221  -1.692   0.210  0.00  0.00    -0.016 A 
ATOM      8  C8  IND d   1       0.159  -0.373   0.413  0.00  0.00    -0.047 A 
ATOM      9  C9  IND d   1       0.767   0.388  -0.593  0.00  0.00    -0.096 A 
ATOM     10  HN1 IND d   1      -0.238   0.183   2.299  0.00  0.00     0.298 HD
ENDROOT
TORSDOF 0
ENDMDL
