MODEL 1
REMARK minimizedAffinity -5.23311567
REMARK minimizedRMSD -1
REMARK  0 active torsions:
REMARK  status: ('A' for Active; 'I' for Inactive)
ROOT
ATOM      1  N1  IND d   1      -1.767   0.297  -0.394  0.00  0.00    -0.196 N 
ATOM      2  C2  IND d   1      -1.497   0.088   0.930  0.00  0.00     0.054 A 
ATOM      3  C3  IND d   1      -0.161   0.065   1.139  0.00  0.00    -0.031 A 
ATOM      4  C4  IND d   1       1.763   0.451  -0.527  0.00  0.00     0.051 A 
ATOM      5  C5  IND d   1       2.014   0.644  -1.857  0.00  0.00    -0.031 A 
ATOM      6  C6  IND d   1       0.997   0.735  -2.785  0.00  0.00     0.015 A 
ATOM      7  C7  IND d   1      -0.316   0.649  -2.415  0.00  0.00    -0.016 A 
ATOM      8  C8  IND d   1      -0.574   0.446  -1.066  0.00  0.00    -0.047 A 
ATOM      9  C9  IND d   1       0.455   0.310  -0.126  0.00  0.00    -0.096 A 
ATOM     10  HN1 IND d   1      -2.550   0.331  -0.747  0.00  0.00     0.298 HD
ENDROOT
TORSDOF 0
ENDMDL
