MODEL 1
REMARK minimizedAffinity -3.83246946
REMARK minimizedRMSD -1
REMARK  0 active torsions:
REMARK  status: ('A' for Active; 'I' for Inactive)
ROOT
ATOM      1  N1  IND d   1      -1.775  -0.470  -0.703  0.00  0.00    -0.196 N 
ATOM      2  C2  IND d   1      -1.835  -0.037   0.592  0.00  0.00     0.054 A 
ATOM      3  C3  IND d   1      -0.711   0.642   0.914  0.00  0.00    -0.031 A 
ATOM      4  C4  IND d   1       1.310   1.250  -0.559  0.00  0.00     0.051 A 
ATOM      5  C5  IND d   1       1.838   1.044  -1.803  0.00  0.00    -0.031 A 
ATOM      6  C6  IND d   1       1.173   0.310  -2.764  0.00  0.00     0.015 A 
ATOM      7  C7  IND d   1      -0.054  -0.238  -2.520  0.00  0.00    -0.016 A 
ATOM      8  C8  IND d   1      -0.590  -0.037  -1.255  0.00  0.00    -0.047 A 
ATOM      9  C9  IND d   1       0.099   0.671  -0.262  0.00  0.00    -0.096 A 
ATOM     10  HN1 IND d   1      -2.376  -0.935  -1.105  0.00  0.00     0.298 HD
ENDROOT
TORSDOF 0
ENDMDL
