MODEL 1
REMARK minimizedAffinity -2.55903673
REMARK minimizedRMSD -1
REMARK  0 active torsions:
REMARK  status: ('A' for Active; 'I' for Inactive)
ROOT
ATOM      1  N1  IND d   1       1.083   2.151  -1.039  0.00  0.00    -0.196 N 
ATOM      2  C2  IND d   1       1.535   1.569  -2.190  0.00  0.00     0.054 A 
ATOM      3  C3  IND d   1       1.267   0.244  -2.183  0.00  0.00    -0.031 A 
ATOM      4  C4  IND d   1       0.006  -1.162  -0.433  0.00  0.00     0.051 A 
ATOM      5  C5  IND d   1      -0.564  -1.080   0.806  0.00  0.00    -0.031 A 
ATOM      6  C6  IND d   1      -0.619   0.108   1.506  0.00  0.00     0.015 A 
ATOM      7  C7  IND d   1      -0.112   1.265   0.987  0.00  0.00    -0.016 A 
ATOM      8  C8  IND d   1       0.474   1.185  -0.268  0.00  0.00    -0.047 A 
ATOM      9  C9  IND d   1       0.570  -0.026  -0.966  0.00  0.00    -0.096 A 
ATOM     10  HN1 IND d   1       1.165   2.981  -0.831  0.00  0.00     0.298 HD
ENDROOT
TORSDOF 0
ENDMDL
