MODEL 1
REMARK minimizedAffinity -4.42739582
REMARK minimizedRMSD -1
REMARK  0 active torsions:
REMARK  status: ('A' for Active; 'I' for Inactive)
ROOT
ATOM      1  N1  IND d   1      -0.434  -0.761   0.458  0.00  0.00    -0.196 N 
ATOM      2  C2  IND d   1      -0.319   0.321   1.286  0.00  0.00     0.054 A 
ATOM      3  C3  IND d   1       0.497   1.249   0.737  0.00  0.00    -0.031 A 
ATOM      4  C4  IND d   1       1.669   1.245  -1.555  0.00  0.00     0.051 A 
ATOM      5  C5  IND d   1       1.892   0.457  -2.650  0.00  0.00    -0.031 A 
ATOM      6  C6  IND d   1       1.338  -0.801  -2.768  0.00  0.00     0.015 A 
ATOM      7  C7  IND d   1       0.527  -1.316  -1.796  0.00  0.00    -0.016 A 
ATOM      8  C8  IND d   1       0.304  -0.522  -0.681  0.00  0.00    -0.047 A 
ATOM      9  C9  IND d   1       0.898   0.739  -0.536  0.00  0.00    -0.096 A 
ATOM     10  HN1 IND d   1      -0.891  -1.471   0.621  0.00  0.00     0.298 HD
ENDROOT
TORSDOF 0
ENDMDL
