MODEL 1
REMARK minimizedAffinity -1.01769292
REMARK minimizedRMSD -1
REMARK  0 active torsions:
REMARK  status: ('A' for Active; 'I' for Inactive)
ROOT
ATOM      1  N1  IND d   1      -0.720  -1.289  -0.004  0.00  0.00    -0.196 N 
ATOM      2  C2  IND d   1      -1.394  -0.790   1.075  0.00  0.00     0.054 A 
ATOM      3  C3  IND d   1      -0.994   0.475   1.335  0.00  0.00    -0.031 A 
ATOM      4  C4  IND d   1       0.679   1.956   0.057  0.00  0.00     0.051 A 
ATOM      5  C5  IND d   1       1.575   1.926  -0.975  0.00  0.00    -0.031 A 
ATOM      6  C6  IND d   1       1.753   0.801  -1.753  0.00  0.00     0.015 A 
ATOM      7  C7  IND d   1       1.030  -0.338  -1.535  0.00  0.00    -0.016 A 
ATOM      8  C8  IND d   1       0.125  -0.313  -0.483  0.00  0.00    -0.047 A 
ATOM      9  C9  IND d   1      -0.029   0.812   0.337  0.00  0.00    -0.096 A 
ATOM     10  HN1 IND d   1      -0.809  -2.081  -0.328  0.00  0.00     0.298 HD
ENDROOT
TORSDOF 0
ENDMDL
