MODEL 1
REMARK minimizedAffinity -3.97710991
REMARK minimizedRMSD -1
REMARK  0 active torsions:
REMARK  status: ('A' for Active; 'I' for Inactive)
ROOT
ATOM      1  N1  IND d   1      -0.435  -0.656   0.577  0.00  0.00    -0.196 N 
ATOM      2  C2  IND d   1       0.080   0.297   1.411  0.00  0.00     0.054 A 
ATOM      3  C3  IND d   1       0.973   1.068   0.749  0.00  0.00    -0.031 A 
ATOM      4  C4  IND d   1       1.666   1.008  -1.729  0.00  0.00     0.051 A 
ATOM      5  C5  IND d   1       1.494   0.289  -2.879  0.00  0.00    -0.031 A 
ATOM      6  C6  IND d   1       0.651  -0.802  -2.937  0.00  0.00     0.015 A 
ATOM      7  C7  IND d   1      -0.063  -1.210  -1.846  0.00  0.00    -0.016 A 
ATOM      8  C8  IND d   1       0.115  -0.486  -0.675  0.00  0.00    -0.047 A 
ATOM      9  C9  IND d   1       1.001   0.596  -0.598  0.00  0.00    -0.096 A 
ATOM     10  HN1 IND d   1      -1.005  -1.260   0.797  0.00  0.00     0.298 HD
ENDROOT
TORSDOF 0
ENDMDL
