MODEL 1
REMARK minimizedAffinity -1.41385162
REMARK minimizedRMSD -1
REMARK  0 active torsions:
REMARK  status: ('A' for Active; 'I' for Inactive)
ROOT
ATOM      1  N1  IND d   1      -1.361  -1.230  -0.065  0.00  0.00    -0.196 N 
ATOM      2  C2  IND d   1      -0.077  -0.835   0.188  0.00  0.00     0.054 A 
ATOM      3  C3  IND d   1      -0.051   0.054   1.206  0.00  0.00    -0.031 A 
ATOM      4  C4  IND d   1      -1.984   0.925   2.667  0.00  0.00     0.051 A 
ATOM      5  C5  IND d   1      -3.344   0.879   2.793  0.00  0.00    -0.031 A 
ATOM      6  C6  IND d   1      -4.128   0.109   1.958  0.00  0.00     0.015 A 
ATOM      7  C7  IND d   1      -3.578  -0.655   0.968  0.00  0.00    -0.016 A 
ATOM      8  C8  IND d   1      -2.197  -0.605   0.833  0.00  0.00    -0.047 A 
ATOM      9  C9  IND d   1      -1.400   0.207   1.650  0.00  0.00    -0.096 A 
ATOM     10  HN1 IND d   1      -1.604  -1.778  -0.682  0.00  0.00     0.298 HD
ENDROOT
TORSDOF 0
ENDMDL
