MODEL 1
REMARK minimizedAffinity -4.0281868
REMARK minimizedRMSD -1
REMARK  0 active torsions:
REMARK  status: ('A' for Active; 'I' for Inactive)
ROOT
ATOM      1  N1  IND d   1       0.070  -0.012   0.356  0.00  0.00    -0.196 N 
ATOM      2  C2  IND d   1       0.221   1.347   0.375  0.00  0.00     0.054 A 
ATOM      3  C3  IND d   1       1.030   1.744  -0.633  0.00  0.00    -0.031 A 
ATOM      4  C4  IND d   1       2.135   0.346  -2.491  0.00  0.00     0.051 A 
ATOM      5  C5  IND d   1       2.319  -0.944  -2.904  0.00  0.00    -0.031 A 
ATOM      6  C6  IND d   1       1.748  -2.010  -2.240  0.00  0.00     0.015 A 
ATOM      7  C7  IND d   1       0.960  -1.825  -1.139  0.00  0.00    -0.016 A 
ATOM      8  C8  IND d   1       0.777  -0.517  -0.713  0.00  0.00    -0.047 A 
ATOM      9  C9  IND d   1       1.389   0.566  -1.358  0.00  0.00    -0.096 A 
ATOM     10  HN1 IND d   1      -0.389  -0.473   0.918  0.00  0.00     0.298 HD
ENDROOT
TORSDOF 0
ENDMDL
