MODEL 1
REMARK minimizedAffinity -1.61056066
REMARK minimizedRMSD -1
REMARK  0 active torsions:
REMARK  status: ('A' for Active; 'I' for Inactive)
ROOT
ATOM      1  N1  IND d   1      -0.077  -2.167   1.266  0.00  0.00    -0.196 N 
ATOM      2  C2  IND d   1       0.361  -3.026   0.298  0.00  0.00     0.054 A 
ATOM      3  C3  IND d   1       0.597  -2.357  -0.853  0.00  0.00    -0.031 A 
ATOM      4  C4  IND d   1       0.429   0.165  -1.343  0.00  0.00     0.051 A 
ATOM      5  C5  IND d   1       0.036   1.347  -0.781  0.00  0.00    -0.031 A 
ATOM      6  C6  IND d   1      -0.421   1.421   0.519  0.00  0.00     0.015 A 
ATOM      7  C7  IND d   1      -0.492   0.311   1.313  0.00  0.00    -0.016 A 
ATOM      8  C8  IND d   1      -0.101  -0.893   0.744  0.00  0.00    -0.047 A 
ATOM      9  C9  IND d   1       0.324  -0.980  -0.588  0.00  0.00    -0.096 A 
ATOM     10  HN1 IND d   1      -0.301  -2.386   2.067  0.00  0.00     0.298 HD
ENDROOT
TORSDOF 0
ENDMDL
