MODEL 1
REMARK minimizedAffinity -4.5220437
REMARK minimizedRMSD -1
REMARK  0 active torsions:
REMARK  status: ('A' for Active; 'I' for Inactive)
ROOT
ATOM      1  N1  IND d   1      -0.019  -1.815   0.324  0.00  0.00    -0.196 N 
ATOM      2  C2  IND d   1      -0.360  -1.337   1.559  0.00  0.00     0.054 A 
ATOM      3  C3  IND d   1      -0.149  -0.003   1.622  0.00  0.00    -0.031 A 
ATOM      4  C4  IND d   1       0.652   1.614  -0.214  0.00  0.00     0.051 A 
ATOM      5  C5  IND d   1       1.121   1.639  -1.498  0.00  0.00    -0.031 A 
ATOM      6  C6  IND d   1       1.233   0.492  -2.256  0.00  0.00     0.015 A 
ATOM      7  C7  IND d   1       0.868  -0.728  -1.760  0.00  0.00    -0.016 A 
ATOM      8  C8  IND d   1       0.399  -0.759  -0.454  0.00  0.00    -0.047 A 
ATOM      9  C9  IND d   1       0.323   0.397   0.334  0.00  0.00    -0.096 A 
ATOM     10  HN1 IND d   1      -0.060  -2.637   0.076  0.00  0.00     0.298 HD
ENDROOT
TORSDOF 0
ENDMDL
