MODEL 1
REMARK minimizedAffinity 4.35751295
REMARK minimizedRMSD -1
REMARK  1 active torsions:
REMARK  status: ('A' for Active; 'I' for Inactive)
REMARK    1  A    between atoms: C3_4  and  O_7 
ROOT
ATOM      1  C   UNL d   1      -3.316   2.849   0.798  0.00  0.00    -0.033 A 
ATOM      2  C1  UNL d   1      -3.252   4.182   1.209  0.00  0.00     0.039 A 
ATOM      3  C2  UNL d   1      -3.809   4.566   2.430  0.00  0.00    -0.080 A 
ATOM      4  C3  UNL d   1      -4.425   3.609   3.231  0.00  0.00     0.150 A 
ATOM      5  C4  UNL d   1      -4.489   2.279   2.830  0.00  0.00    -0.007 A 
ATOM      6  C5  UNL d   1      -3.934   1.897   1.610  0.00  0.00     0.039 A 
ENDROOT
BRANCH   4   7
ATOM      7  O   UNL d   1      -4.987   3.937   4.429  0.00  0.00    -0.526 OA
ATOM      8  H5  UNL d   1      -4.892   4.895   4.562  0.00  0.00     0.418 HD
ENDBRANCH   4   7
TORSDOF 1
ENDMDL
