MODEL 1
REMARK minimizedAffinity 0.254702628
REMARK minimizedRMSD -1
REMARK  1 active torsions:
REMARK  status: ('A' for Active; 'I' for Inactive)
REMARK    1  A    between atoms: C3_4  and  O_7 
ROOT
ATOM      1  C   UNL d   1       3.328   0.300  -1.267  0.00  0.00    -0.033 A 
ATOM      2  C1  UNL d   1       4.208   1.343  -1.563  0.00  0.00     0.039 A 
ATOM      3  C2  UNL d   1       4.633   2.208  -0.554  0.00  0.00    -0.080 A 
ATOM      4  C3  UNL d   1       4.174   2.019   0.747  0.00  0.00     0.150 A 
ATOM      5  C4  UNL d   1       3.301   0.979   1.050  0.00  0.00    -0.007 A 
ATOM      6  C5  UNL d   1       2.876   0.117   0.040  0.00  0.00     0.039 A 
ENDROOT
BRANCH   4   7
ATOM      7  O   UNL d   1       4.558   2.840   1.765  0.00  0.00    -0.526 OA
ATOM      8  H5  UNL d   1       5.138   3.530   1.402  0.00  0.00     0.418 HD
ENDBRANCH   4   7
TORSDOF 1
ENDMDL
