MODEL 1
REMARK minimizedAffinity 0.609114468
REMARK minimizedRMSD -1
REMARK  1 active torsions:
REMARK  status: ('A' for Active; 'I' for Inactive)
REMARK    1  A    between atoms: C3_4  and  O_7 
ROOT
ATOM      1  C   UNL d   1       2.277   5.540   3.145  0.00  0.00    -0.033 A 
ATOM      2  C1  UNL d   1       2.641   4.194   3.215  0.00  0.00     0.039 A 
ATOM      3  C2  UNL d   1       1.766   3.208   2.755  0.00  0.00    -0.080 A 
ATOM      4  C3  UNL d   1       0.533   3.580   2.227  0.00  0.00     0.150 A 
ATOM      5  C4  UNL d   1       0.166   4.920   2.151  0.00  0.00    -0.007 A 
ATOM      6  C5  UNL d   1       1.040   5.903   2.611  0.00  0.00     0.039 A 
ENDROOT
BRANCH   4   7
ATOM      7  O   UNL d   1      -0.356   2.653   1.771  0.00  0.00    -0.526 OA
ATOM      8  H5  UNL d   1       0.021   1.769   1.913  0.00  0.00     0.418 HD
ENDBRANCH   4   7
TORSDOF 1
ENDMDL
