MODEL 1
REMARK minimizedAffinity -3.13593435
REMARK minimizedRMSD -1
REMARK  1 active torsions:
REMARK  status: ('A' for Active; 'I' for Inactive)
REMARK    1  A    between atoms: C3_4  and  O_7 
ROOT
ATOM      1  C   UNL d   1       2.186   5.998   4.266  0.00  0.00    -0.033 A 
ATOM      2  C1  UNL d   1       1.661   6.000   2.972  0.00  0.00     0.039 A 
ATOM      3  C2  UNL d   1       0.278   5.998   2.778  0.00  0.00    -0.080 A 
ATOM      4  C3  UNL d   1      -0.567   5.995   3.884  0.00  0.00     0.150 A 
ATOM      5  C4  UNL d   1      -0.051   5.997   5.175  0.00  0.00    -0.007 A 
ATOM      6  C5  UNL d   1       1.330   5.998   5.367  0.00  0.00     0.039 A 
ENDROOT
BRANCH   4   7
ATOM      7  O   UNL d   1      -1.923   5.988   3.744  0.00  0.00    -0.526 OA
ATOM      8  H5  UNL d   1      -2.135   5.958   2.796  0.00  0.00     0.418 HD
ENDBRANCH   4   7
TORSDOF 1
ENDMDL
