MODEL 1
REMARK minimizedAffinity 4.07009554
REMARK minimizedRMSD -1
REMARK  1 active torsions:
REMARK  status: ('A' for Active; 'I' for Inactive)
REMARK    1  A    between atoms: C3_4  and  O_7 
ROOT
ATOM      1  C   UNL d   1       2.933  -1.462  -0.411  0.00  0.00    -0.033 A 
ATOM      2  C1  UNL d   1       3.326  -0.432   0.447  0.00  0.00     0.039 A 
ATOM      3  C2  UNL d   1       2.783   0.846   0.301  0.00  0.00    -0.080 A 
ATOM      4  C3  UNL d   1       1.850   1.081  -0.705  0.00  0.00     0.150 A 
ATOM      5  C4  UNL d   1       1.451   0.060  -1.560  0.00  0.00    -0.007 A 
ATOM      6  C5  UNL d   1       1.994  -1.216  -1.414  0.00  0.00     0.039 A 
ENDROOT
BRANCH   4   7
ATOM      7  O   UNL d   1       1.296   2.313  -0.889  0.00  0.00    -0.526 OA
ATOM      8  H5  UNL d   1       1.687   2.926  -0.244  0.00  0.00     0.418 HD
ENDBRANCH   4   7
TORSDOF 1
ENDMDL
