MODEL 1
REMARK minimizedAffinity -3.75298166
REMARK minimizedRMSD -1
REMARK  1 active torsions:
REMARK  status: ('A' for Active; 'I' for Inactive)
REMARK    1  A    between atoms: C3_4  and  O_7 
ROOT
ATOM      1  C   UNL d   1       1.980   5.738   4.787  0.00  0.00    -0.033 A 
ATOM      2  C1  UNL d   1       1.932   4.508   4.129  0.00  0.00     0.039 A 
ATOM      3  C2  UNL d   1       2.890   3.530   4.403  0.00  0.00    -0.080 A 
ATOM      4  C3  UNL d   1       3.888   3.793   5.337  0.00  0.00     0.150 A 
ATOM      5  C4  UNL d   1       3.939   5.015   6.000  0.00  0.00    -0.007 A 
ATOM      6  C5  UNL d   1       2.982   5.991   5.724  0.00  0.00     0.039 A 
ENDROOT
BRANCH   4   7
ATOM      7  O   UNL d   1       4.847   2.872   5.635  0.00  0.00    -0.526 OA
ATOM      8  H5  UNL d   1       4.703   2.087   5.079  0.00  0.00     0.418 HD
ENDBRANCH   4   7
TORSDOF 1
ENDMDL
