MODEL 1
REMARK minimizedAffinity 5.22066927
REMARK minimizedRMSD -1
REMARK  1 active torsions:
REMARK  status: ('A' for Active; 'I' for Inactive)
REMARK    1  A    between atoms: C3_4  and  O_7 
ROOT
ATOM      1  C   UNL d   1       6.000   1.865  -1.012  0.00  0.00    -0.033 A 
ATOM      2  C1  UNL d   1       5.767   1.841   0.364  0.00  0.00     0.039 A 
ATOM      3  C2  UNL d   1       4.522   1.441   0.856  0.00  0.00    -0.080 A 
ATOM      4  C3  UNL d   1       3.522   1.068  -0.038  0.00  0.00     0.150 A 
ATOM      5  C4  UNL d   1       3.749   1.086  -1.410  0.00  0.00    -0.007 A 
ATOM      6  C5  UNL d   1       4.992   1.487  -1.899  0.00  0.00     0.039 A 
ENDROOT
BRANCH   4   7
ATOM      7  O   UNL d   1       2.290   0.675   0.395  0.00  0.00    -0.526 OA
ATOM      8  H5  UNL d   1       2.270   0.740   1.364  0.00  0.00     0.418 HD
ENDBRANCH   4   7
TORSDOF 1
ENDMDL
