MODEL 1
REMARK minimizedAffinity 1.98026597
REMARK minimizedRMSD -1
REMARK  1 active torsions:
REMARK  status: ('A' for Active; 'I' for Inactive)
REMARK    1  A    between atoms: C3_4  and  O_7 
ROOT
ATOM      1  C   UNL d   1       3.063   1.560  -0.564  0.00  0.00    -0.033 A 
ATOM      2  C1  UNL d   1       4.249   0.847  -0.751  0.00  0.00     0.039 A 
ATOM      3  C2  UNL d   1       4.256  -0.544  -0.630  0.00  0.00    -0.080 A 
ATOM      4  C3  UNL d   1       3.073  -1.209  -0.321  0.00  0.00     0.150 A 
ATOM      5  C4  UNL d   1       1.887  -0.506  -0.137  0.00  0.00    -0.007 A 
ATOM      6  C5  UNL d   1       1.882   0.883  -0.258  0.00  0.00     0.039 A 
ENDROOT
BRANCH   4   7
ATOM      7  O   UNL d   1       3.032  -2.565  -0.187  0.00  0.00    -0.526 OA
ATOM      8  H5  UNL d   1       3.930  -2.914  -0.314  0.00  0.00     0.418 HD
ENDBRANCH   4   7
TORSDOF 1
ENDMDL
