MODEL 1
REMARK minimizedAffinity -2.43286109
REMARK minimizedRMSD -1
REMARK  1 active torsions:
REMARK  status: ('A' for Active; 'I' for Inactive)
REMARK    1  A    between atoms: C3_4  and  O_7 
ROOT
ATOM      1  C   UNL d   1       3.779   6.000   3.903  0.00  0.00    -0.033 A 
ATOM      2  C1  UNL d   1       3.914   5.973   5.292  0.00  0.00     0.039 A 
ATOM      3  C2  UNL d   1       3.654   4.797   5.999  0.00  0.00    -0.080 A 
ATOM      4  C3  UNL d   1       3.260   3.656   5.305  0.00  0.00     0.150 A 
ATOM      5  C4  UNL d   1       3.127   3.675   3.920  0.00  0.00    -0.007 A 
ATOM      6  C5  UNL d   1       3.387   4.850   3.217  0.00  0.00     0.039 A 
ENDROOT
BRANCH   4   7
ATOM      7  O   UNL d   1       2.991   2.487   5.951  0.00  0.00    -0.526 OA
ATOM      8  H5  UNL d   1       3.097   2.631   6.906  0.00  0.00     0.418 HD
ENDBRANCH   4   7
TORSDOF 1
ENDMDL
