MODEL 1
REMARK minimizedAffinity -4.36100149
REMARK minimizedRMSD -1
REMARK  0 active torsions:
REMARK  status: ('A' for Active; 'I' for Inactive)
ROOT
ATOM      1  C   UNL d   1       1.014  -0.438  -1.147  0.00  0.00     0.077 C 
ATOM      2  C1  UNL d   1       0.011  -0.021  -0.113  0.00  0.00    -0.074 A 
ATOM      3  C2  UNL d   1       0.422   0.473   1.129  0.00  0.00    -0.005 A 
ATOM      4  C3  UNL d   1      -0.523   0.866   2.077  0.00  0.00     0.006 A 
ATOM      5  C4  UNL d   1      -1.886   0.769   1.793  0.00  0.00    -0.005 A 
ATOM      6  C5  UNL d   1      -2.316   0.279   0.556  0.00  0.00    -0.074 A 
ATOM      7  C6  UNL d   1      -3.776   0.177   0.232  0.00  0.00     0.077 C 
ATOM      8  C7  UNL d   1      -1.360  -0.108  -0.394  0.00  0.00    -0.001 A 
ENDROOT
TORSDOF 0
ENDMDL
