MODEL 1
REMARK minimizedAffinity -3.4377172
REMARK minimizedRMSD -1
REMARK  0 active torsions:
REMARK  status: ('A' for Active; 'I' for Inactive)
ROOT
ATOM      1  C   UNL d   1       0.760  -0.214  -0.631  0.00  0.00     0.077 C 
ATOM      2  C1  UNL d   1      -0.375  -0.020   0.330  0.00  0.00    -0.074 A 
ATOM      3  C2  UNL d   1      -1.621  -0.612   0.099  0.00  0.00    -0.005 A 
ATOM      4  C3  UNL d   1      -2.665  -0.432   1.006  0.00  0.00     0.006 A 
ATOM      5  C4  UNL d   1      -2.474   0.342   2.152  0.00  0.00    -0.005 A 
ATOM      6  C5  UNL d   1      -1.235   0.941   2.400  0.00  0.00    -0.074 A 
ATOM      7  C6  UNL d   1      -1.010   1.767   3.631  0.00  0.00     0.077 C 
ATOM      8  C7  UNL d   1      -0.189   0.749   1.487  0.00  0.00    -0.001 A 
ENDROOT
TORSDOF 0
ENDMDL
