MODEL 1
REMARK minimizedAffinity 0.577205539
REMARK minimizedRMSD -1
REMARK  0 active torsions:
REMARK  status: ('A' for Active; 'I' for Inactive)
ROOT
ATOM      1  C   UNL d   1       1.237   0.821  -3.845  0.00  0.00     0.077 C 
ATOM      2  C1  UNL d   1       0.926   0.294  -2.476  0.00  0.00    -0.074 A 
ATOM      3  C2  UNL d   1       0.509  -1.028  -2.292  0.00  0.00    -0.005 A 
ATOM      4  C3  UNL d   1       0.233  -1.507  -1.011  0.00  0.00     0.006 A 
ATOM      5  C4  UNL d   1       0.369  -0.669   0.097  0.00  0.00    -0.005 A 
ATOM      6  C5  UNL d   1       0.786   0.656  -0.068  0.00  0.00    -0.074 A 
ATOM      7  C6  UNL d   1       0.947   1.566   1.113  0.00  0.00     0.077 C 
ATOM      8  C7  UNL d   1       1.069   1.127  -1.357  0.00  0.00    -0.001 A 
ENDROOT
TORSDOF 0
ENDMDL
