MODEL 1
REMARK minimizedAffinity -3.9052546
REMARK minimizedRMSD -1
REMARK  0 active torsions:
REMARK  status: ('A' for Active; 'I' for Inactive)
ROOT
ATOM      1  C   UNL d   1       0.761  -0.374  -1.886  0.00  0.00     0.077 C 
ATOM      2  C1  UNL d   1      -0.098  -0.000  -0.714  0.00  0.00    -0.074 A 
ATOM      3  C2  UNL d   1      -1.426  -0.430  -0.631  0.00  0.00    -0.005 A 
ATOM      4  C3  UNL d   1      -2.210  -0.082   0.470  0.00  0.00     0.006 A 
ATOM      5  C4  UNL d   1      -1.674   0.698   1.495  0.00  0.00    -0.005 A 
ATOM      6  C5  UNL d   1      -0.348   1.136   1.429  0.00  0.00    -0.074 A 
ATOM      7  C6  UNL d   1       0.247   1.967   2.528  0.00  0.00     0.077 C 
ATOM      8  C7  UNL d   1       0.436   0.776   0.324  0.00  0.00    -0.001 A 
ENDROOT
TORSDOF 0
ENDMDL
