MODEL 1
REMARK minimizedAffinity -5.31263638
REMARK minimizedRMSD -1
REMARK  0 active torsions:
REMARK  status: ('A' for Active; 'I' for Inactive)
ROOT
ATOM      1  C   UNL d   1      -0.902   1.820   3.094  0.00  0.00     0.077 C 
ATOM      2  C1  UNL d   1      -1.108   0.981   1.868  0.00  0.00    -0.074 A 
ATOM      3  C2  UNL d   1      -2.375   0.492   1.535  0.00  0.00    -0.005 A 
ATOM      4  C3  UNL d   1      -2.552  -0.279   0.386  0.00  0.00     0.006 A 
ATOM      5  C4  UNL d   1      -1.466  -0.568  -0.440  0.00  0.00    -0.005 A 
ATOM      6  C5  UNL d   1      -0.191  -0.087  -0.125  0.00  0.00    -0.074 A 
ATOM      7  C6  UNL d   1       0.985  -0.380  -1.007  0.00  0.00     0.077 C 
ATOM      8  C7  UNL d   1      -0.023   0.693   1.028  0.00  0.00    -0.001 A 
ENDROOT
TORSDOF 0
ENDMDL
