MODEL 1
REMARK minimizedAffinity -4.2398963
REMARK minimizedRMSD -1
REMARK  0 active torsions:
REMARK  status: ('A' for Active; 'I' for Inactive)
ROOT
ATOM      1  C   UNL d   1      -2.211  -0.512  -0.363  0.00  0.00     0.077 C 
ATOM      2  C1  UNL d   1      -1.265  -0.007   0.686  0.00  0.00    -0.074 A 
ATOM      3  C2  UNL d   1      -1.719   0.791   1.740  0.00  0.00    -0.005 A 
ATOM      4  C3  UNL d   1      -0.829   1.245   2.713  0.00  0.00     0.006 A 
ATOM      5  C4  UNL d   1       0.523   0.907   2.641  0.00  0.00    -0.005 A 
ATOM      6  C5  UNL d   1       0.996   0.109   1.594  0.00  0.00    -0.074 A 
ATOM      7  C6  UNL d   1       2.444  -0.271   1.507  0.00  0.00     0.077 C 
ATOM      8  C7  UNL d   1       0.094  -0.349   0.624  0.00  0.00    -0.001 A 
ENDROOT
TORSDOF 0
ENDMDL
