MODEL 1
REMARK minimizedAffinity -4.19935703
REMARK minimizedRMSD -1
REMARK  0 active torsions:
REMARK  status: ('A' for Active; 'I' for Inactive)
ROOT
ATOM      1  C   UNL d   1      -1.100   0.374   0.216  0.00  0.00     0.077 C 
ATOM      2  C1  UNL d   1      -0.063  -0.110  -0.753  0.00  0.00    -0.074 A 
ATOM      3  C2  UNL d   1       0.851  -1.105  -0.391  0.00  0.00    -0.005 A 
ATOM      4  C3  UNL d   1       1.803  -1.553  -1.306  0.00  0.00     0.006 A 
ATOM      5  C4  UNL d   1       1.852  -1.010  -2.591  0.00  0.00    -0.005 A 
ATOM      6  C5  UNL d   1       0.947  -0.015  -2.972  0.00  0.00    -0.074 A 
ATOM      7  C6  UNL d   1       0.979   0.572  -4.352  0.00  0.00     0.077 C 
ATOM      8  C7  UNL d   1      -0.012   0.424  -2.048  0.00  0.00    -0.001 A 
ENDROOT
TORSDOF 0
ENDMDL
