MODEL 1
REMARK minimizedAffinity -1.12633312
REMARK minimizedRMSD -1
REMARK  2 active torsions:
REMARK  status: ('A' for Active; 'I' for Inactive)
REMARK    1  A    between atoms: C1_2  and  C2_3 
REMARK    2  A    between atoms: C2_3  and  C3_4 
ROOT
ATOM      1  C3  UNL d   1       0.595  -1.199   0.699  0.00  0.00    -0.075 A 
ATOM      2  C4  UNL d   1      -0.235  -2.130   1.340  0.00  0.00     0.002 A 
ATOM      3  C5  UNL d   1       0.082  -2.604   2.614  0.00  0.00     0.002 A 
ATOM      4  C6  UNL d   1       1.236  -2.161   3.257  0.00  0.00    -0.004 A 
ATOM      5  C7  UNL d   1       2.077  -1.249   2.622  0.00  0.00     0.002 A 
ATOM      6  C8  UNL d   1       1.759  -0.771   1.350  0.00  0.00     0.002 A 
ENDROOT
BRANCH   1   7
ATOM      7  C2  UNL d   1       0.241  -0.661  -0.667  0.00  0.00     0.056 C 
BRANCH   7   8
ATOM      8  C1  UNL d   1       0.037   0.857  -0.705  0.00  0.00     0.007 C 
ATOM      9  C   UNL d   1      -0.956   1.356   0.336  0.00  0.00     0.009 C 
ENDBRANCH   7   8
ENDBRANCH   1   7
TORSDOF 2
ENDMDL
