MODEL 1
REMARK minimizedAffinity -2.48244286
REMARK minimizedRMSD -1
REMARK  2 active torsions:
REMARK  status: ('A' for Active; 'I' for Inactive)
REMARK    1  A    between atoms: C1_2  and  C2_3 
REMARK    2  A    between atoms: C2_3  and  C3_4 
ROOT
ATOM      1  C3  UNL d   1       0.478   0.985  -1.260  0.00  0.00    -0.075 A 
ATOM      2  C4  UNL d   1       1.563   1.869  -1.345  0.00  0.00     0.002 A 
ATOM      3  C5  UNL d   1       1.846   2.529  -2.541  0.00  0.00     0.002 A 
ATOM      4  C6  UNL d   1       1.058   2.306  -3.667  0.00  0.00    -0.004 A 
ATOM      5  C7  UNL d   1      -0.012   1.416  -3.599  0.00  0.00     0.002 A 
ATOM      6  C8  UNL d   1      -0.301   0.758  -2.402  0.00  0.00     0.002 A 
ENDROOT
BRANCH   1   7
ATOM      7  C2  UNL d   1       0.147   0.290   0.040  0.00  0.00     0.056 C 
BRANCH   7   8
ATOM      8  C1  UNL d   1       1.195  -0.737   0.482  0.00  0.00     0.007 C 
ATOM      9  C   UNL d   1       0.989  -2.111  -0.140  0.00  0.00     0.009 C 
ENDBRANCH   7   8
ENDBRANCH   1   7
TORSDOF 2
ENDMDL
