MODEL 1
REMARK minimizedAffinity -2.30052233
REMARK minimizedRMSD -1
REMARK  2 active torsions:
REMARK  status: ('A' for Active; 'I' for Inactive)
REMARK    1  A    between atoms: C1_2  and  C2_3 
REMARK    2  A    between atoms: C2_3  and  C3_4 
ROOT
ATOM      1  C3  UNL d   1      -0.243  -0.037   0.151  0.00  0.00    -0.075 A 
ATOM      2  C4  UNL d   1       0.561  -1.184   0.083  0.00  0.00     0.002 A 
ATOM      3  C5  UNL d   1       0.291  -2.287   0.893  0.00  0.00     0.002 A 
ATOM      4  C6  UNL d   1      -0.777  -2.254   1.787  0.00  0.00    -0.004 A 
ATOM      5  C7  UNL d   1      -1.573  -1.113   1.875  0.00  0.00     0.002 A 
ATOM      6  C8  UNL d   1      -1.307  -0.010   1.062  0.00  0.00     0.002 A 
ENDROOT
BRANCH   1   7
ATOM      7  C2  UNL d   1       0.026   1.150  -0.744  0.00  0.00     0.056 C 
BRANCH   7   8
ATOM      8  C1  UNL d   1       1.391   1.110  -1.438  0.00  0.00     0.007 C 
ATOM      9  C   UNL d   1       1.451   1.968  -2.695  0.00  0.00     0.009 C 
ENDBRANCH   7   8
ENDBRANCH   1   7
TORSDOF 2
ENDMDL
