MODEL 1
REMARK minimizedAffinity -3.9574821
REMARK minimizedRMSD -1
REMARK  2 active torsions:
REMARK  status: ('A' for Active; 'I' for Inactive)
REMARK    1  A    between atoms: C1_2  and  C2_3 
REMARK    2  A    between atoms: C2_3  and  C3_4 
ROOT
ATOM      1  C3  UNL d   1       0.041   0.229   0.264  0.00  0.00    -0.075 A 
ATOM      2  C4  UNL d   1      -0.981   0.584   1.157  0.00  0.00     0.002 A 
ATOM      3  C5  UNL d   1      -1.584  -0.382   1.963  0.00  0.00     0.002 A 
ATOM      4  C6  UNL d   1      -1.182  -1.713   1.880  0.00  0.00    -0.004 A 
ATOM      5  C7  UNL d   1      -0.179  -2.080   0.985  0.00  0.00     0.002 A 
ATOM      6  C8  UNL d   1       0.430  -1.115   0.181  0.00  0.00     0.002 A 
ENDROOT
BRANCH   1   7
ATOM      7  C2  UNL d   1       0.719   1.274  -0.590  0.00  0.00     0.056 C 
BRANCH   7   8
ATOM      8  C1  UNL d   1       0.158   1.377  -2.012  0.00  0.00     0.007 C 
ATOM      9  C   UNL d   1       1.077   2.126  -2.967  0.00  0.00     0.009 C 
ENDBRANCH   7   8
ENDBRANCH   1   7
TORSDOF 2
ENDMDL
