MODEL 1
REMARK minimizedAffinity -3.62294245
REMARK minimizedRMSD -1
REMARK  2 active torsions:
REMARK  status: ('A' for Active; 'I' for Inactive)
REMARK    1  A    between atoms: C1_2  and  C2_3 
REMARK    2  A    between atoms: C2_3  and  C3_4 
ROOT
ATOM      1  C3  UNL d   1       0.621   0.279  -0.017  0.00  0.00    -0.075 A 
ATOM      2  C4  UNL d   1       1.079  -1.041   0.106  0.00  0.00     0.002 A 
ATOM      3  C5  UNL d   1       0.358  -1.973   0.853  0.00  0.00     0.002 A 
ATOM      4  C6  UNL d   1      -0.821  -1.597   1.493  0.00  0.00    -0.004 A 
ATOM      5  C7  UNL d   1      -1.276  -0.284   1.390  0.00  0.00     0.002 A 
ATOM      6  C8  UNL d   1      -0.559   0.650   0.640  0.00  0.00     0.002 A 
ENDROOT
BRANCH   1   7
ATOM      7  C2  UNL d   1       1.381   1.286  -0.848  0.00  0.00     0.056 C 
BRANCH   7   8
ATOM      8  C1  UNL d   1       0.603   1.808  -2.060  0.00  0.00     0.007 C 
ATOM      9  C   UNL d   1       1.463   1.955  -3.308  0.00  0.00     0.009 C 
ENDBRANCH   7   8
ENDBRANCH   1   7
TORSDOF 2
ENDMDL
