MODEL 1
REMARK minimizedAffinity -4.65152597
REMARK minimizedRMSD -1
REMARK  2 active torsions:
REMARK  status: ('A' for Active; 'I' for Inactive)
REMARK    1  A    between atoms: C1_2  and  C2_3 
REMARK    2  A    between atoms: C2_3  and  C3_4 
ROOT
ATOM      1  C3  UNL d   1       0.230   0.081   0.178  0.00  0.00    -0.075 A 
ATOM      2  C4  UNL d   1      -0.979   0.131   0.887  0.00  0.00     0.002 A 
ATOM      3  C5  UNL d   1      -1.479  -1.009   1.516  0.00  0.00     0.002 A 
ATOM      4  C6  UNL d   1      -0.783  -2.214   1.436  0.00  0.00    -0.004 A 
ATOM      5  C7  UNL d   1       0.410  -2.279   0.721  0.00  0.00     0.002 A 
ATOM      6  C8  UNL d   1       0.915  -1.139   0.094  0.00  0.00     0.002 A 
ENDROOT
BRANCH   1   7
ATOM      7  C2  UNL d   1       0.792   1.319  -0.480  0.00  0.00     0.056 C 
BRANCH   7   8
ATOM      8  C1  UNL d   1       0.438   1.450  -1.966  0.00  0.00     0.007 C 
ATOM      9  C   UNL d   1       1.495   2.193  -2.771  0.00  0.00     0.009 C 
ENDBRANCH   7   8
ENDBRANCH   1   7
TORSDOF 2
ENDMDL
