MODEL 1
REMARK minimizedAffinity -4.64563465
REMARK minimizedRMSD -1
REMARK  2 active torsions:
REMARK  status: ('A' for Active; 'I' for Inactive)
REMARK    1  A    between atoms: C1_2  and  C2_3 
REMARK    2  A    between atoms: C2_3  and  C3_4 
ROOT
ATOM      1  C3  UNL d   1       0.475   0.079  -0.417  0.00  0.00    -0.075 A 
ATOM      2  C4  UNL d   1      -0.337   0.193   0.721  0.00  0.00     0.002 A 
ATOM      3  C5  UNL d   1      -0.530  -0.900   1.566  0.00  0.00     0.002 A 
ATOM      4  C6  UNL d   1       0.076  -2.121   1.280  0.00  0.00    -0.004 A 
ATOM      5  C7  UNL d   1       0.871  -2.251   0.143  0.00  0.00     0.002 A 
ATOM      6  C8  UNL d   1       1.070  -1.157  -0.702  0.00  0.00     0.002 A 
ENDROOT
BRANCH   1   7
ATOM      7  C2  UNL d   1       0.711   1.266  -1.320  0.00  0.00     0.056 C 
BRANCH   7   8
ATOM      8  C1  UNL d   1       0.359   1.012  -2.789  0.00  0.00     0.007 C 
ATOM      9  C   UNL d   1       0.681   2.193  -3.696  0.00  0.00     0.009 C 
ENDBRANCH   7   8
ENDBRANCH   1   7
TORSDOF 2
ENDMDL
