MODEL 1
REMARK minimizedAffinity -2.81558847
REMARK minimizedRMSD -1
REMARK  2 active torsions:
REMARK  status: ('A' for Active; 'I' for Inactive)
REMARK    1  A    between atoms: C1_2  and  C2_3 
REMARK    2  A    between atoms: C2_3  and  C3_4 
ROOT
ATOM      1  C3  UNL d   1       0.078  -0.085   0.152  0.00  0.00    -0.075 A 
ATOM      2  C4  UNL d   1      -1.047  -0.379   0.936  0.00  0.00     0.002 A 
ATOM      3  C5  UNL d   1      -1.138  -1.593   1.618  0.00  0.00     0.002 A 
ATOM      4  C6  UNL d   1      -0.113  -2.531   1.517  0.00  0.00    -0.004 A 
ATOM      5  C7  UNL d   1       1.002  -2.256   0.728  0.00  0.00     0.002 A 
ATOM      6  C8  UNL d   1       1.098  -1.040   0.048  0.00  0.00     0.002 A 
ENDROOT
BRANCH   1   7
ATOM      7  C2  UNL d   1       0.196   1.239  -0.564  0.00  0.00     0.056 C 
BRANCH   7   8
ATOM      8  C1  UNL d   1       1.368   1.313  -1.548  0.00  0.00     0.007 C 
ATOM      9  C   UNL d   1       0.976   1.875  -2.908  0.00  0.00     0.009 C 
ENDBRANCH   7   8
ENDBRANCH   1   7
TORSDOF 2
ENDMDL
