MODEL 1
REMARK minimizedAffinity -2.74893308
REMARK minimizedRMSD -1
REMARK  2 active torsions:
REMARK  status: ('A' for Active; 'I' for Inactive)
REMARK    1  A    between atoms: C1_2  and  C2_3 
REMARK    2  A    between atoms: C2_3  and  C3_4 
ROOT
ATOM      1  C3  UNL d   1       0.564   1.129  -0.861  0.00  0.00    -0.075 A 
ATOM      2  C4  UNL d   1      -0.190   1.493  -1.986  0.00  0.00     0.002 A 
ATOM      3  C5  UNL d   1       0.361   2.306  -2.976  0.00  0.00     0.002 A 
ATOM      4  C6  UNL d   1       1.667   2.774  -2.850  0.00  0.00    -0.004 A 
ATOM      5  C7  UNL d   1       2.420   2.433  -1.728  0.00  0.00     0.002 A 
ATOM      6  C8  UNL d   1       1.872   1.615  -0.738  0.00  0.00     0.002 A 
ENDROOT
BRANCH   1   7
ATOM      7  C2  UNL d   1      -0.017   0.225   0.199  0.00  0.00     0.056 C 
BRANCH   7   8
ATOM      8  C1  UNL d   1       0.769  -1.074   0.411  0.00  0.00     0.007 C 
ATOM      9  C   UNL d   1       0.032  -2.087   1.278  0.00  0.00     0.009 C 
ENDBRANCH   7   8
ENDBRANCH   1   7
TORSDOF 2
ENDMDL
