MODEL 1
REMARK minimizedAffinity -4.45432758
REMARK minimizedRMSD -1
REMARK  2 active torsions:
REMARK  status: ('A' for Active; 'I' for Inactive)
REMARK    1  A    between atoms: C1_2  and  C2_3 
REMARK    2  A    between atoms: C2_3  and  C3_4 
ROOT
ATOM      1  C3  UNL d   1      -0.108  -0.285   0.350  0.00  0.00    -0.075 A 
ATOM      2  C4  UNL d   1      -0.022  -1.601   0.827  0.00  0.00     0.002 A 
ATOM      3  C5  UNL d   1      -0.949  -2.080   1.753  0.00  0.00     0.002 A 
ATOM      4  C6  UNL d   1      -1.963  -1.249   2.223  0.00  0.00    -0.004 A 
ATOM      5  C7  UNL d   1      -2.048   0.066   1.769  0.00  0.00     0.002 A 
ATOM      6  C8  UNL d   1      -1.125   0.547   0.838  0.00  0.00     0.002 A 
ENDROOT
BRANCH   1   7
ATOM      7  C2  UNL d   1       0.874   0.231  -0.675  0.00  0.00     0.056 C 
BRANCH   7   8
ATOM      8  C1  UNL d   1       0.686   1.710  -1.030  0.00  0.00     0.007 C 
ATOM      9  C   UNL d   1       1.519   2.151  -2.226  0.00  0.00     0.009 C 
ENDBRANCH   7   8
ENDBRANCH   1   7
TORSDOF 2
ENDMDL
