MODEL 1
REMARK minimizedAffinity -2.69011497
REMARK minimizedRMSD -1
REMARK  2 active torsions:
REMARK  status: ('A' for Active; 'I' for Inactive)
REMARK    1  A    between atoms: C1_2  and  C2_3 
REMARK    2  A    between atoms: C2_3  and  C3_4 
ROOT
ATOM      1  C3  UNL d   1      -0.005   1.001  -0.325  0.00  0.00    -0.075 A 
ATOM      2  C4  UNL d   1      -0.246  -0.359  -0.083  0.00  0.00     0.002 A 
ATOM      3  C5  UNL d   1      -1.301  -0.756   0.740  0.00  0.00     0.002 A 
ATOM      4  C6  UNL d   1      -2.120   0.199   1.337  0.00  0.00    -0.004 A 
ATOM      5  C7  UNL d   1      -1.880   1.554   1.116  0.00  0.00     0.002 A 
ATOM      6  C8  UNL d   1      -0.828   1.954   0.290  0.00  0.00     0.002 A 
ENDROOT
BRANCH   1   7
ATOM      7  C2  UNL d   1       1.116   1.436  -1.238  0.00  0.00     0.056 C 
BRANCH   7   8
ATOM      8  C1  UNL d   1       0.661   1.801  -2.655  0.00  0.00     0.007 C 
ATOM      9  C   UNL d   1       1.737   2.511  -3.466  0.00  0.00     0.009 C 
ENDBRANCH   7   8
ENDBRANCH   1   7
TORSDOF 2
ENDMDL
