MODEL 1
REMARK minimizedAffinity 1.41415501
REMARK minimizedRMSD -1
REMARK  2 active torsions:
REMARK  status: ('A' for Active; 'I' for Inactive)
REMARK    1  A    between atoms: C1_2  and  C2_3 
REMARK    2  A    between atoms: C2_3  and  C3_4 
ROOT
ATOM      1  C3  UNL d   1      -2.754  -3.573  -5.881  0.00  0.00    -0.075 A 
ATOM      2  C4  UNL d   1      -3.433  -4.799  -5.928  0.00  0.00     0.002 A 
ATOM      3  C5  UNL d   1      -2.724  -5.999  -5.981  0.00  0.00     0.002 A 
ATOM      4  C6  UNL d   1      -1.331  -5.989  -5.997  0.00  0.00    -0.004 A 
ATOM      5  C7  UNL d   1      -0.647  -4.776  -5.968  0.00  0.00     0.002 A 
ATOM      6  C8  UNL d   1      -1.353  -3.573  -5.910  0.00  0.00     0.002 A 
ENDROOT
BRANCH   1   7
ATOM      7  C2  UNL d   1      -3.515  -2.271  -5.794  0.00  0.00     0.056 C 
BRANCH   7   8
ATOM      8  C1  UNL d   1      -4.462  -2.182  -4.592  0.00  0.00     0.007 C 
ATOM      9  C   UNL d   1      -3.871  -1.413  -3.418  0.00  0.00     0.009 C 
ENDBRANCH   7   8
ENDBRANCH   1   7
TORSDOF 2
ENDMDL
