MODEL 1
REMARK minimizedAffinity -3.28010702
REMARK minimizedRMSD -1
REMARK  2 active torsions:
REMARK  status: ('A' for Active; 'I' for Inactive)
REMARK    1  A    between atoms: C1_2  and  C2_3 
REMARK    2  A    between atoms: C2_3  and  C3_4 
ROOT
ATOM      1  C3  UNL d   1       0.545   0.215   0.099  0.00  0.00    -0.075 A 
ATOM      2  C4  UNL d   1       1.447  -0.791  -0.277  0.00  0.00     0.002 A 
ATOM      3  C5  UNL d   1       1.262  -2.105   0.154  0.00  0.00     0.002 A 
ATOM      4  C6  UNL d   1       0.182  -2.428   0.973  0.00  0.00    -0.004 A 
ATOM      5  C7  UNL d   1      -0.710  -1.433   1.366  0.00  0.00     0.002 A 
ATOM      6  C8  UNL d   1      -0.531  -0.118   0.932  0.00  0.00     0.002 A 
ENDROOT
BRANCH   1   7
ATOM      7  C2  UNL d   1       0.723   1.633  -0.388  0.00  0.00     0.056 C 
BRANCH   7   8
ATOM      8  C1  UNL d   1       1.394   1.741  -1.762  0.00  0.00     0.007 C 
ATOM      9  C   UNL d   1       0.401   1.913  -2.903  0.00  0.00     0.009 C 
ENDBRANCH   7   8
ENDBRANCH   1   7
TORSDOF 2
ENDMDL
