MODEL 1
REMARK minimizedAffinity -4.67938995
REMARK minimizedRMSD -1
REMARK  1 active torsions:
REMARK  status: ('A' for Active; 'I' for Inactive)
REMARK    1  A    between atoms: C1_2  and  C2_3 
ROOT
ATOM      1  C2  UNL d   1       0.213  -1.105   0.750  0.00  0.00    -0.077 A 
ATOM      2  C3  UNL d   1       1.244  -1.660  -0.021  0.00  0.00     0.002 A 
ATOM      3  C4  UNL d   1       2.170  -2.529   0.559  0.00  0.00     0.002 A 
ATOM      4  C5  UNL d   1       2.072  -2.854   1.910  0.00  0.00    -0.004 A 
ATOM      5  C6  UNL d   1       1.052  -2.306   2.686  0.00  0.00     0.002 A 
ATOM      6  C7  UNL d   1       0.126  -1.436   2.109  0.00  0.00     0.002 A 
ENDROOT
BRANCH   1   7
ATOM      7  C1  UNL d   1      -0.815  -0.206   0.116  0.00  0.00     0.055 C 
ATOM      8  C   UNL d   1      -0.394   0.216  -1.284  0.00  0.00     0.019 C 
ENDBRANCH   1   7
TORSDOF 1
ENDMDL
