MODEL 1
REMARK minimizedAffinity -5.38813162
REMARK minimizedRMSD -1
REMARK  1 active torsions:
REMARK  status: ('A' for Active; 'I' for Inactive)
REMARK    1  A    between atoms: C1_2  and  C2_3 
ROOT
ATOM      1  C2  UNL d   1       1.076  -1.095   1.422  0.00  0.00    -0.077 A 
ATOM      2  C3  UNL d   1       0.251  -0.817   2.522  0.00  0.00     0.002 A 
ATOM      3  C4  UNL d   1      -0.929  -0.090   2.353  0.00  0.00     0.002 A 
ATOM      4  C5  UNL d   1      -1.297   0.361   1.087  0.00  0.00    -0.004 A 
ATOM      5  C6  UNL d   1      -0.483   0.091  -0.012  0.00  0.00     0.002 A 
ATOM      6  C7  UNL d   1       0.698  -0.634   0.155  0.00  0.00     0.002 A 
ENDROOT
BRANCH   1   7
ATOM      7  C1  UNL d   1       2.324  -1.921   1.594  0.00  0.00     0.055 C 
ATOM      8  C   UNL d   1       2.886  -2.360   0.250  0.00  0.00     0.019 C 
ENDBRANCH   1   7
TORSDOF 1
ENDMDL
