MODEL 1
REMARK minimizedAffinity -4.27136612
REMARK minimizedRMSD -1
REMARK  1 active torsions:
REMARK  status: ('A' for Active; 'I' for Inactive)
REMARK    1  A    between atoms: C1_2  and  C2_3 
ROOT
ATOM      1  C2  UNL d   1       0.495  -0.390   0.249  0.00  0.00    -0.077 A 
ATOM      2  C3  UNL d   1      -0.040  -0.271   1.539  0.00  0.00     0.002 A 
ATOM      3  C4  UNL d   1       0.529  -0.969   2.606  0.00  0.00     0.002 A 
ATOM      4  C5  UNL d   1       1.637  -1.787   2.395  0.00  0.00    -0.004 A 
ATOM      5  C6  UNL d   1       2.174  -1.913   1.115  0.00  0.00     0.002 A 
ATOM      6  C7  UNL d   1       1.607  -1.217   0.047  0.00  0.00     0.002 A 
ENDROOT
BRANCH   1   7
ATOM      7  C1  UNL d   1      -0.086   0.401  -0.894  0.00  0.00     0.055 C 
ATOM      8  C   UNL d   1      -0.140  -0.428  -2.169  0.00  0.00     0.019 C 
ENDBRANCH   1   7
TORSDOF 1
ENDMDL
