MODEL 1
REMARK minimizedAffinity -4.98426628
REMARK minimizedRMSD -1
REMARK  1 active torsions:
REMARK  status: ('A' for Active; 'I' for Inactive)
REMARK    1  A    between atoms: C1_2  and  C2_3 
ROOT
ATOM      1  C2  UNL d   1       1.037  -1.180   1.852  0.00  0.00    -0.077 A 
ATOM      2  C3  UNL d   1       0.227  -0.816   2.937  0.00  0.00     0.002 A 
ATOM      3  C4  UNL d   1      -0.910  -0.031   2.737  0.00  0.00     0.002 A 
ATOM      4  C5  UNL d   1      -1.250   0.392   1.454  0.00  0.00    -0.004 A 
ATOM      5  C6  UNL d   1      -0.450   0.037   0.368  0.00  0.00     0.002 A 
ATOM      6  C7  UNL d   1       0.688  -0.747   0.566  0.00  0.00     0.002 A 
ENDROOT
BRANCH   1   7
ATOM      7  C1  UNL d   1       2.237  -2.067   2.059  0.00  0.00     0.055 C 
ATOM      8  C   UNL d   1       2.760  -2.608   0.736  0.00  0.00     0.019 C 
ENDBRANCH   1   7
TORSDOF 1
ENDMDL
