MODEL 1
REMARK minimizedAffinity 1.43340123
REMARK minimizedRMSD -1
REMARK  0 active torsions:
REMARK  status: ('A' for Active; 'I' for Inactive)
ROOT
ATOM      1  N1  IND d   1       0.117   2.761  -0.297  0.00  0.00    -0.196 N 
ATOM      2  C2  IND d   1       0.342   3.907   0.413  0.00  0.00     0.054 A 
ATOM      3  C3  IND d   1       0.672   3.612   1.690  0.00  0.00    -0.031 A 
ATOM      4  C4  IND d   1       1.003   1.316   2.805  0.00  0.00     0.051 A 
ATOM      5  C5  IND d   1       0.876  -0.024   2.570  0.00  0.00    -0.031 A 
ATOM      6  C6  IND d   1       0.484  -0.515   1.341  0.00  0.00     0.015 A 
ATOM      7  C7  IND d   1       0.215   0.320   0.294  0.00  0.00    -0.016 A 
ATOM      8  C8  IND d   1       0.336   1.682   0.531  0.00  0.00    -0.047 A 
ATOM      9  C9  IND d   1       0.692   2.187   1.789  0.00  0.00    -0.096 A 
ATOM     10  HN1 IND d   1      -0.121   2.720  -1.122  0.00  0.00     0.298 HD
ENDROOT
TORSDOF 0
ENDMDL
