MODEL 1
REMARK minimizedAffinity 8.12363243
REMARK minimizedRMSD -1
REMARK  0 active torsions:
REMARK  status: ('A' for Active; 'I' for Inactive)
ROOT
ATOM      1  N1  IND d   1      -0.323   0.592  -0.238  0.00  0.00    -0.196 N 
ATOM      2  C2  IND d   1       0.054  -0.627   0.253  0.00  0.00     0.054 A 
ATOM      3  C3  IND d   1       0.729  -0.477   1.415  0.00  0.00    -0.031 A 
ATOM      4  C4  IND d   1       1.242   1.667   2.744  0.00  0.00     0.051 A 
ATOM      5  C5  IND d   1       1.132   3.028   2.678  0.00  0.00    -0.031 A 
ATOM      6  C6  IND d   1       0.516   3.659   1.617  0.00  0.00     0.015 A 
ATOM      7  C7  IND d   1      -0.025   2.949   0.582  0.00  0.00    -0.016 A 
ATOM      8  C8  IND d   1       0.092   1.567   0.642  0.00  0.00    -0.047 A 
ATOM      9  C9  IND d   1       0.753   0.923   1.696  0.00  0.00    -0.096 A 
ATOM     10  HN1 IND d   1      -0.748   0.727  -0.974  0.00  0.00     0.298 HD
ENDROOT
TORSDOF 0
ENDMDL
