MODEL 1
REMARK minimizedAffinity 2.73879385
REMARK minimizedRMSD -1
REMARK  0 active torsions:
REMARK  status: ('A' for Active; 'I' for Inactive)
ROOT
ATOM      1  N1  IND d   1       0.770   2.238   2.555  0.00  0.00    -0.196 N 
ATOM      2  C2  IND d   1       1.002   3.565   2.325  0.00  0.00     0.054 A 
ATOM      3  C3  IND d   1       0.634   3.896   1.067  0.00  0.00    -0.031 A 
ATOM      4  C4  IND d   1      -0.466   2.441  -0.751  0.00  0.00     0.051 A 
ATOM      5  C5  IND d   1      -0.841   1.155  -1.020  0.00  0.00    -0.031 A 
ATOM      6  C6  IND d   1      -0.698   0.144  -0.092  0.00  0.00     0.015 A 
ATOM      7  C7  IND d   1      -0.183   0.385   1.150  0.00  0.00    -0.016 A 
ATOM      8  C8  IND d   1       0.206   1.689   1.425  0.00  0.00    -0.047 A 
ATOM      9  C9  IND d   1       0.103   2.710   0.472  0.00  0.00    -0.096 A 
ATOM     10  HN1 IND d   1       0.947   1.817   3.284  0.00  0.00     0.298 HD
ENDROOT
TORSDOF 0
ENDMDL
