MODEL 1
REMARK minimizedAffinity 4.52498865
REMARK minimizedRMSD -1
REMARK  0 active torsions:
REMARK  status: ('A' for Active; 'I' for Inactive)
ROOT
ATOM      1  N1  IND d   1      -1.364   3.056   2.194  0.00  0.00    -0.196 N 
ATOM      2  C2  IND d   1      -0.735   1.915   1.779  0.00  0.00     0.054 A 
ATOM      3  C3  IND d   1      -0.240   2.078   0.532  0.00  0.00    -0.031 A 
ATOM      4  C4  IND d   1      -0.256   4.166  -0.974  0.00  0.00     0.051 A 
ATOM      5  C5  IND d   1      -0.746   5.440  -1.044  0.00  0.00    -0.031 A 
ATOM      6  C6  IND d   1      -1.478   5.997  -0.016  0.00  0.00     0.015 A 
ATOM      7  C7  IND d   1      -1.741   5.301   1.130  0.00  0.00    -0.016 A 
ATOM      8  C8  IND d   1      -1.252   4.004   1.201  0.00  0.00    -0.047 A 
ATOM      9  C9  IND d   1      -0.544   3.419   0.144  0.00  0.00    -0.096 A 
ATOM     10  HN1 IND d   1      -1.763   3.163   2.948  0.00  0.00     0.298 HD
ENDROOT
TORSDOF 0
ENDMDL
