MODEL 1
REMARK minimizedAffinity 3.8678124
REMARK minimizedRMSD -1
REMARK  0 active torsions:
REMARK  status: ('A' for Active; 'I' for Inactive)
ROOT
ATOM      1  N1  IND d   1      -2.576   4.106  -2.771  0.00  0.00    -0.196 N 
ATOM      2  C2  IND d   1      -3.881   4.288  -3.135  0.00  0.00     0.054 A 
ATOM      3  C3  IND d   1      -4.573   3.135  -2.998  0.00  0.00    -0.031 A 
ATOM      4  C4  IND d   1      -3.790   0.855  -2.097  0.00  0.00     0.051 A 
ATOM      5  C5  IND d   1      -2.673   0.189  -1.674  0.00  0.00    -0.031 A 
ATOM      6  C6  IND d   1      -1.443   0.809  -1.591  0.00  0.00     0.015 A 
ATOM      7  C7  IND d   1      -1.285   2.126  -1.918  0.00  0.00    -0.016 A 
ATOM      8  C8  IND d   1      -2.415   2.803  -2.355  0.00  0.00    -0.047 A 
ATOM      9  C9  IND d   1      -3.658   2.168  -2.481  0.00  0.00    -0.096 A 
ATOM     10  HN1 IND d   1      -1.960   4.705  -2.797  0.00  0.00     0.298 HD
ENDROOT
TORSDOF 0
ENDMDL
