MODEL 1
REMARK minimizedAffinity 2.19817734
REMARK minimizedRMSD -1
REMARK  0 active torsions:
REMARK  status: ('A' for Active; 'I' for Inactive)
ROOT
ATOM      1  N1  IND d   1      -5.999  -2.714   2.342  0.00  0.00    -0.196 N 
ATOM      2  C2  IND d   1      -5.994  -1.636   1.500  0.00  0.00     0.054 A 
ATOM      3  C3  IND d   1      -5.999  -0.486   2.210  0.00  0.00    -0.031 A 
ATOM      4  C4  IND d   1      -5.913  -0.135   4.759  0.00  0.00     0.051 A 
ATOM      5  C5  IND d   1      -5.943  -0.819   5.941  0.00  0.00    -0.031 A 
ATOM      6  C6  IND d   1      -5.991  -2.197   5.986  0.00  0.00     0.015 A 
ATOM      7  C7  IND d   1      -6.000  -2.947   4.844  0.00  0.00    -0.016 A 
ATOM      8  C8  IND d   1      -5.977  -2.256   3.641  0.00  0.00    -0.047 A 
ATOM      9  C9  IND d   1      -5.971  -0.856   3.589  0.00  0.00    -0.096 A 
ATOM     10  HN1 IND d   1      -6.014  -3.539   2.100  0.00  0.00     0.298 HD
ENDROOT
TORSDOF 0
ENDMDL
