MODEL 1
REMARK minimizedAffinity -2.37243962
REMARK minimizedRMSD -1
REMARK  0 active torsions:
REMARK  status: ('A' for Active; 'I' for Inactive)
ROOT
ATOM      1  N1  IND d   1      -0.254   3.259  -1.611  0.00  0.00    -0.196 N 
ATOM      2  C2  IND d   1      -0.189   4.469  -0.979  0.00  0.00     0.054 A 
ATOM      3  C3  IND d   1      -0.100   4.295   0.359  0.00  0.00    -0.031 A 
ATOM      4  C4  IND d   1       0.057   2.115   1.719  0.00  0.00     0.051 A 
ATOM      5  C5  IND d   1       0.001   0.756   1.586  0.00  0.00    -0.031 A 
ATOM      6  C6  IND d   1      -0.143   0.150   0.355  0.00  0.00     0.015 A 
ATOM      7  C7  IND d   1      -0.225   0.882  -0.795  0.00  0.00    -0.016 A 
ATOM      8  C8  IND d   1      -0.176   2.263  -0.663  0.00  0.00    -0.047 A 
ATOM      9  C9  IND d   1      -0.073   2.885   0.588  0.00  0.00    -0.096 A 
ATOM     10  HN1 IND d   1      -0.331   3.139  -2.460  0.00  0.00     0.298 HD
ENDROOT
TORSDOF 0
ENDMDL
