MODEL 1
REMARK minimizedAffinity -0.299200475
REMARK minimizedRMSD -1
REMARK  3 active torsions:
REMARK  status: ('A' for Active; 'I' for Inactive)
REMARK    1  A    between atoms: C3'_2  and  C2'_3 
REMARK    2  A    between atoms: C2'_3  and  C1'_4 
REMARK    3  A    between atoms: C1'_4  and  C1_5 
ROOT
ATOM      1  C1  N4B d   1      -0.360   0.236   0.643  0.00  0.00    -0.075 A 
ATOM      2  C2  N4B d   1      -0.183   0.627   1.988  0.00  0.00     0.002 A 
ATOM      3  C3  N4B d   1      -0.752   1.790   2.445  0.00  0.00     0.002 A 
ATOM      4  C4  N4B d   1      -1.484   2.584   1.575  0.00  0.00    -0.004 A 
ATOM      5  C5  N4B d   1      -1.672   2.186   0.283  0.00  0.00     0.002 A 
ATOM      6  C6  N4B d   1      -1.109   1.017  -0.189  0.00  0.00     0.002 A 
ENDROOT
BRANCH   1   7
ATOM      7  C1' N4B d   1       0.314  -0.984   0.075  0.00  0.00     0.057 C 
BRANCH   7   8
ATOM      8  C2' N4B d   1      -0.103  -1.153  -1.383  0.00  0.00     0.009 C 
BRANCH   8   9
ATOM      9  C3' N4B d   1       0.070  -2.584  -1.861  0.00  0.00     0.004 C 
ATOM     10  C4' N4B d   1      -0.027  -2.715  -3.352  0.00  0.00     0.003 C 
ENDBRANCH   8   9
ENDBRANCH   7   8
ENDBRANCH   1   7
TORSDOF 3
ENDMDL
