MODEL 1
REMARK minimizedAffinity -3.18523288
REMARK minimizedRMSD -1
REMARK  3 active torsions:
REMARK  status: ('A' for Active; 'I' for Inactive)
REMARK    1  A    between atoms: C3'_2  and  C2'_3 
REMARK    2  A    between atoms: C2'_3  and  C1'_4 
REMARK    3  A    between atoms: C1'_4  and  C1_5 
ROOT
ATOM      1  C1  N4B d   1      -0.254  -0.078  -0.158  0.00  0.00    -0.075 A 
ATOM      2  C2  N4B d   1       0.556   1.019  -0.525  0.00  0.00     0.002 A 
ATOM      3  C3  N4B d   1       1.641   0.828  -1.344  0.00  0.00     0.002 A 
ATOM      4  C4  N4B d   1       1.946  -0.449  -1.792  0.00  0.00    -0.004 A 
ATOM      5  C5  N4B d   1       1.144  -1.499  -1.454  0.00  0.00     0.002 A 
ATOM      6  C6  N4B d   1       0.048  -1.321  -0.634  0.00  0.00     0.002 A 
ENDROOT
BRANCH   1   7
ATOM      7  C1' N4B d   1      -1.401   0.068   0.804  0.00  0.00     0.057 C 
BRANCH   7   8
ATOM      8  C2' N4B d   1      -0.850   0.257   2.214  0.00  0.00     0.009 C 
BRANCH   8   9
ATOM      9  C3' N4B d   1      -1.201   1.621   2.784  0.00  0.00     0.004 C 
ATOM     10  C4' N4B d   1      -2.286   2.310   2.012  0.00  0.00     0.003 C 
ENDBRANCH   8   9
ENDBRANCH   7   8
ENDBRANCH   1   7
TORSDOF 3
ENDMDL
