MODEL 1
REMARK minimizedAffinity -4.96702194
REMARK minimizedRMSD -1
REMARK  3 active torsions:
REMARK  status: ('A' for Active; 'I' for Inactive)
REMARK    1  A    between atoms: C3'_2  and  C2'_3 
REMARK    2  A    between atoms: C2'_3  and  C1'_4 
REMARK    3  A    between atoms: C1'_4  and  C1_5 
ROOT
ATOM      1  C1  N4B d   1      -0.830   0.588   0.447  0.00  0.00    -0.075 A 
ATOM      2  C2  N4B d   1      -0.455   1.695  -0.345  0.00  0.00     0.002 A 
ATOM      3  C3  N4B d   1      -0.853   2.960   0.011  0.00  0.00     0.002 A 
ATOM      4  C4  N4B d   1      -1.639   3.140   1.139  0.00  0.00    -0.004 A 
ATOM      5  C5  N4B d   1      -1.976   2.068   1.913  0.00  0.00     0.002 A 
ATOM      6  C6  N4B d   1      -1.580   0.792   1.570  0.00  0.00     0.002 A 
ENDROOT
BRANCH   1   7
ATOM      7  C1' N4B d   1      -0.491  -0.823   0.052  0.00  0.00     0.057 C 
BRANCH   7   8
ATOM      8  C2' N4B d   1       0.863  -0.835  -0.650  0.00  0.00     0.009 C 
BRANCH   8   9
ATOM      9  C3' N4B d   1       1.199  -2.205  -1.214  0.00  0.00     0.004 C 
ATOM     10  C4' N4B d   1       0.515  -2.480  -2.519  0.00  0.00     0.003 C 
ENDBRANCH   8   9
ENDBRANCH   7   8
ENDBRANCH   1   7
TORSDOF 3
ENDMDL
