MODEL 1
REMARK minimizedAffinity -3.00605321
REMARK minimizedRMSD -1
REMARK  3 active torsions:
REMARK  status: ('A' for Active; 'I' for Inactive)
REMARK    1  A    between atoms: C3'_2  and  C2'_3 
REMARK    2  A    between atoms: C2'_3  and  C1'_4 
REMARK    3  A    between atoms: C1'_4  and  C1_5 
ROOT
ATOM      1  C1  N4B d   1      -1.613   1.016   0.750  0.00  0.00    -0.075 A 
ATOM      2  C2  N4B d   1      -1.547  -0.061  -0.160  0.00  0.00     0.002 A 
ATOM      3  C3  N4B d   1      -0.642  -1.075   0.041  0.00  0.00     0.002 A 
ATOM      4  C4  N4B d   1       0.216  -1.023   1.129  0.00  0.00    -0.004 A 
ATOM      5  C5  N4B d   1       0.128   0.009   2.017  0.00  0.00     0.002 A 
ATOM      6  C6  N4B d   1      -0.779   1.032   1.830  0.00  0.00     0.002 A 
ENDROOT
BRANCH   1   7
ATOM      7  C1' N4B d   1      -2.527   2.190   0.526  0.00  0.00     0.057 C 
BRANCH   7   8
ATOM      8  C2' N4B d   1      -1.706   3.476   0.552  0.00  0.00     0.009 C 
BRANCH   8   9
ATOM      9  C3' N4B d   1      -1.077   3.776  -0.798  0.00  0.00     0.004 C 
ATOM     10  C4' N4B d   1       0.245   3.094  -0.988  0.00  0.00     0.003 C 
ENDBRANCH   8   9
ENDBRANCH   7   8
ENDBRANCH   1   7
TORSDOF 3
ENDMDL
