MODEL 1
REMARK minimizedAffinity -4.07114935
REMARK minimizedRMSD -1
REMARK  3 active torsions:
REMARK  status: ('A' for Active; 'I' for Inactive)
REMARK    1  A    between atoms: C3'_2  and  C2'_3 
REMARK    2  A    between atoms: C2'_3  and  C1'_4 
REMARK    3  A    between atoms: C1'_4  and  C1_5 
ROOT
ATOM      1  C1  N4B d   1      -0.876  -0.128   0.616  0.00  0.00    -0.075 A 
ATOM      2  C2  N4B d   1       0.190  -0.095   1.541  0.00  0.00     0.002 A 
ATOM      3  C3  N4B d   1       0.142   0.760   2.615  0.00  0.00     0.002 A 
ATOM      4  C4  N4B d   1      -0.949   1.601   2.772  0.00  0.00    -0.004 A 
ATOM      5  C5  N4B d   1      -1.986   1.546   1.888  0.00  0.00     0.002 A 
ATOM      6  C6  N4B d   1      -1.953   0.689   0.807  0.00  0.00     0.002 A 
ENDROOT
BRANCH   1   7
ATOM      7  C1' N4B d   1      -0.829  -0.984  -0.620  0.00  0.00     0.057 C 
BRANCH   7   8
ATOM      8  C2' N4B d   1       0.613  -1.407  -0.882  0.00  0.00     0.009 C 
BRANCH   8   9
ATOM      9  C3' N4B d   1       0.714  -2.870  -1.279  0.00  0.00     0.004 C 
ATOM     10  C4' N4B d   1       1.504  -3.685  -0.299  0.00  0.00     0.003 C 
ENDBRANCH   8   9
ENDBRANCH   7   8
ENDBRANCH   1   7
TORSDOF 3
ENDMDL
