MODEL 1
REMARK minimizedAffinity -6.44104528
REMARK minimizedRMSD -1
REMARK  3 active torsions:
REMARK  status: ('A' for Active; 'I' for Inactive)
REMARK    1  A    between atoms: C3'_2  and  C2'_3 
REMARK    2  A    between atoms: C2'_3  and  C1'_4 
REMARK    3  A    between atoms: C1'_4  and  C1_5 
ROOT
ATOM      1  C1  N4B d   1      -0.840  -0.258  -2.416  0.00  0.00    -0.075 A 
ATOM      2  C2  N4B d   1      -1.110  -0.736  -1.114  0.00  0.00     0.002 A 
ATOM      3  C3  N4B d   1      -0.321  -0.342  -0.061  0.00  0.00     0.002 A 
ATOM      4  C4  N4B d   1       0.749   0.511  -0.288  0.00  0.00    -0.004 A 
ATOM      5  C5  N4B d   1       0.987   0.988  -1.543  0.00  0.00     0.002 A 
ATOM      6  C6  N4B d   1       0.200   0.603  -2.610  0.00  0.00     0.002 A 
ENDROOT
BRANCH   1   7
ATOM      7  C1' N4B d   1      -1.622  -0.729  -3.612  0.00  0.00     0.057 C 
BRANCH   7   8
ATOM      8  C2' N4B d   1      -2.912  -1.390  -3.138  0.00  0.00     0.009 C 
BRANCH   8   9
ATOM      9  C3' N4B d   1      -4.101  -0.999  -3.999  0.00  0.00     0.004 C 
ATOM     10  C4' N4B d   1      -4.398   0.470  -3.946  0.00  0.00     0.003 C 
ENDBRANCH   8   9
ENDBRANCH   7   8
ENDBRANCH   1   7
TORSDOF 3
ENDMDL
