MODEL 1
REMARK minimizedAffinity -1.75211632
REMARK minimizedRMSD -1
REMARK  0 active torsions:
REMARK  status: ('A' for Active; 'I' for Inactive)
ROOT
ATOM      1  C   UNL d   1       4.129   5.780   5.705  0.00  0.00     0.172 C 
ATOM      2  N   UNL d   1       4.086   4.339   5.776  0.00  0.00    -0.070 N 
ATOM      3  C1  UNL d   1       2.965   3.566   5.632  0.00  0.00    -0.004 A 
ATOM      4  C2  UNL d   1       3.342   2.247   5.765  0.00  0.00    -0.047 A 
ATOM      5  C3  UNL d   1       4.737   2.226   5.998  0.00  0.00    -0.047 A 
ATOM      6  C4  UNL d   1       5.172   3.535   6.000  0.00  0.00    -0.004 A 
ENDROOT
TORSDOF 0
ENDMDL
