MODEL 1
REMARK minimizedAffinity -0.474005252
REMARK minimizedRMSD -1
REMARK  0 active torsions:
REMARK  status: ('A' for Active; 'I' for Inactive)
ROOT
ATOM      1  C   UNL d   1       3.109   1.062   5.988  0.00  0.00     0.172 C 
ATOM      2  N   UNL d   1       3.820   2.215   5.487  0.00  0.00    -0.070 N 
ATOM      3  C1  UNL d   1       3.706   3.493   5.965  0.00  0.00    -0.004 A 
ATOM      4  C2  UNL d   1       4.545   4.297   5.224  0.00  0.00    -0.047 A 
ATOM      5  C3  UNL d   1       5.184   3.474   4.267  0.00  0.00    -0.047 A 
ATOM      6  C4  UNL d   1       4.717   2.190   4.452  0.00  0.00    -0.004 A 
ENDROOT
TORSDOF 0
ENDMDL
