MODEL 1
REMARK minimizedAffinity -3.47661281
REMARK minimizedRMSD -1
REMARK  0 active torsions:
REMARK  status: ('A' for Active; 'I' for Inactive)
ROOT
ATOM      1  C   UNL d   1       5.862   4.491   5.997  0.00  0.00     0.172 C 
ATOM      2  N   UNL d   1       4.773   3.731   5.430  0.00  0.00    -0.070 N 
ATOM      3  C1  UNL d   1       4.125   4.016   4.257  0.00  0.00    -0.004 A 
ATOM      4  C2  UNL d   1       3.153   3.057   4.068  0.00  0.00    -0.047 A 
ATOM      5  C3  UNL d   1       3.218   2.166   5.165  0.00  0.00    -0.047 A 
ATOM      6  C4  UNL d   1       4.229   2.607   5.993  0.00  0.00    -0.004 A 
ENDROOT
TORSDOF 0
ENDMDL
