MODEL 1
REMARK minimizedAffinity -3.11186481
REMARK minimizedRMSD -1
REMARK  0 active torsions:
REMARK  status: ('A' for Active; 'I' for Inactive)
ROOT
ATOM      1  C   UNL d   1       3.727   3.581   5.774  0.00  0.00     0.172 C 
ATOM      2  N   UNL d   1       2.802   4.315   4.943  0.00  0.00    -0.070 N 
ATOM      3  C1  UNL d   1       2.991   5.587   4.470  0.00  0.00    -0.004 A 
ATOM      4  C2  UNL d   1       1.886   5.926   3.719  0.00  0.00    -0.047 A 
ATOM      5  C3  UNL d   1       1.002   4.821   3.742  0.00  0.00    -0.047 A 
ATOM      6  C4  UNL d   1       1.594   3.838   4.507  0.00  0.00    -0.004 A 
ENDROOT
TORSDOF 0
ENDMDL
