MODEL 1
REMARK minimizedAffinity -2.82548714
REMARK minimizedRMSD -1
REMARK  0 active torsions:
REMARK  status: ('A' for Active; 'I' for Inactive)
ROOT
ATOM      1  C   UNL d   1       1.111   5.277   6.000  0.00  0.00     0.172 C 
ATOM      2  N   UNL d   1       2.506   5.036   5.716  0.00  0.00    -0.070 N 
ATOM      3  C1  UNL d   1       3.505   5.970   5.773  0.00  0.00    -0.004 A 
ATOM      4  C2  UNL d   1       4.686   5.346   5.434  0.00  0.00    -0.047 A 
ATOM      5  C3  UNL d   1       4.386   3.990   5.164  0.00  0.00    -0.047 A 
ATOM      6  C4  UNL d   1       3.029   3.825   5.346  0.00  0.00    -0.004 A 
ENDROOT
TORSDOF 0
ENDMDL
