MODEL 1
REMARK minimizedAffinity -3.38368773
REMARK minimizedRMSD -1
REMARK  0 active torsions:
REMARK  status: ('A' for Active; 'I' for Inactive)
ROOT
ATOM      1  C   UNL d   1       3.873   3.018   5.941  0.00  0.00     0.172 C 
ATOM      2  N   UNL d   1       3.185   4.027   5.170  0.00  0.00    -0.070 N 
ATOM      3  C1  UNL d   1       3.442   4.346   3.864  0.00  0.00    -0.004 A 
ATOM      4  C2  UNL d   1       2.575   5.352   3.497  0.00  0.00    -0.047 A 
ATOM      5  C3  UNL d   1       1.770   5.649   4.623  0.00  0.00    -0.047 A 
ATOM      6  C4  UNL d   1       2.169   4.814   5.645  0.00  0.00    -0.004 A 
ENDROOT
TORSDOF 0
ENDMDL
