MODEL 1
REMARK minimizedAffinity -3.09877825
REMARK minimizedRMSD -1
REMARK  0 active torsions:
REMARK  status: ('A' for Active; 'I' for Inactive)
ROOT
ATOM      1  C4' PXY d   1       0.553   0.380  -2.366  0.00  0.00     0.077 C 
ATOM      2  C1' PXY d   1      -0.094   0.437   3.378  0.00  0.00     0.077 C 
ATOM      3  C1  PXY d   1       0.065   0.414   1.870  0.00  0.00    -0.082 A 
ATOM      4  C2  PXY d   1       1.247   0.672   1.333  0.00  0.00     0.003 A 
ATOM      5  C3  PXY d   1       1.401   0.687  -0.029  0.00  0.00     0.003 A 
ATOM      6  C4  PXY d   1       0.348   0.382  -0.849  0.00  0.00    -0.082 A 
ATOM      7  C5  PXY d   1      -0.858   0.107  -0.309  0.00  0.00     0.003 A 
ATOM      8  C6  PXY d   1      -1.004   0.137   1.075  0.00  0.00     0.003 A 
ENDROOT
TORSDOF 0
ENDMDL
