MODEL 1
REMARK minimizedAffinity -3.9607594
REMARK minimizedRMSD -1
REMARK  0 active torsions:
REMARK  status: ('A' for Active; 'I' for Inactive)
ROOT
ATOM      1  C4' PXY d   1       0.679  -0.675  -0.930  0.00  0.00     0.077 C 
ATOM      2  C1' PXY d   1      -2.184  -0.250   4.074  0.00  0.00     0.077 C 
ATOM      3  C1  PXY d   1      -1.422  -0.361   2.768  0.00  0.00    -0.082 A 
ATOM      4  C2  PXY d   1      -1.975   0.075   1.649  0.00  0.00     0.003 A 
ATOM      5  C3  PXY d   1      -1.313  -0.048   0.454  0.00  0.00     0.003 A 
ATOM      6  C4  PXY d   1      -0.050  -0.574   0.413  0.00  0.00    -0.082 A 
ATOM      7  C5  PXY d   1       0.526  -1.011   1.553  0.00  0.00     0.003 A 
ATOM      8  C6  PXY d   1      -0.180  -0.916   2.749  0.00  0.00     0.003 A 
ENDROOT
TORSDOF 0
ENDMDL
