MODEL 1
REMARK minimizedAffinity -5.54353762
REMARK minimizedRMSD -1
REMARK  0 active torsions:
REMARK  status: ('A' for Active; 'I' for Inactive)
ROOT
ATOM      1  C4' PXY d   1      -3.652   0.246   1.454  0.00  0.00     0.077 C 
ATOM      2  C1' PXY d   1       2.117  -0.058   1.674  0.00  0.00     0.077 C 
ATOM      3  C1  PXY d   1       0.603   0.016   1.628  0.00  0.00    -0.082 A 
ATOM      4  C2  PXY d   1      -0.013   0.081   0.459  0.00  0.00     0.003 A 
ATOM      5  C3  PXY d   1      -1.379   0.181   0.400  0.00  0.00     0.003 A 
ATOM      6  C4  PXY d   1      -2.126   0.160   1.548  0.00  0.00    -0.082 A 
ATOM      7  C5  PXY d   1      -1.505   0.083   2.744  0.00  0.00     0.003 A 
ATOM      8  C6  PXY d   1      -0.115   0.024   2.784  0.00  0.00     0.003 A 
ENDROOT
TORSDOF 0
ENDMDL
