MODEL 1
REMARK minimizedAffinity -0.92805016
REMARK minimizedRMSD -1
REMARK  0 active torsions:
REMARK  status: ('A' for Active; 'I' for Inactive)
ROOT
ATOM      1  C4' PXY d   1       1.077  -0.665  -2.982  0.00  0.00     0.077 C 
ATOM      2  C1' PXY d   1       0.756   0.685   2.629  0.00  0.00     0.077 C 
ATOM      3  C1  PXY d   1       0.828   0.326   1.158  0.00  0.00    -0.082 A 
ATOM      4  C2  PXY d   1       2.007   0.144   0.586  0.00  0.00     0.003 A 
ATOM      5  C3  PXY d   1       2.092  -0.149  -0.750  0.00  0.00     0.003 A 
ATOM      6  C4  PXY d   1       0.956  -0.311  -1.498  0.00  0.00    -0.082 A 
ATOM      7  C5  PXY d   1      -0.251  -0.137  -0.919  0.00  0.00     0.003 A 
ATOM      8  C6  PXY d   1      -0.314   0.201   0.429  0.00  0.00     0.003 A 
ENDROOT
TORSDOF 0
ENDMDL
