MODEL 1
REMARK minimizedAffinity -3.32593703
REMARK minimizedRMSD -1
REMARK  0 active torsions:
REMARK  status: ('A' for Active; 'I' for Inactive)
ROOT
ATOM      1  C4' PXY d   1      -3.643   0.252   1.154  0.00  0.00     0.077 C 
ATOM      2  C1' PXY d   1       2.084   0.272   1.939  0.00  0.00     0.077 C 
ATOM      3  C1  PXY d   1       0.580   0.264   1.746  0.00  0.00    -0.082 A 
ATOM      4  C2  PXY d   1       0.077   0.083   0.535  0.00  0.00     0.003 A 
ATOM      5  C3  PXY d   1      -1.279   0.104   0.337  0.00  0.00     0.003 A 
ATOM      6  C4  PXY d   1      -2.132   0.259   1.398  0.00  0.00    -0.082 A 
ATOM      7  C5  PXY d   1      -1.627   0.434   2.637  0.00  0.00     0.003 A 
ATOM      8  C6  PXY d   1      -0.246   0.450   2.811  0.00  0.00     0.003 A 
ENDROOT
TORSDOF 0
ENDMDL
