MODEL 1
REMARK minimizedAffinity -5.1651063
REMARK minimizedRMSD -1
REMARK  0 active torsions:
REMARK  status: ('A' for Active; 'I' for Inactive)
ROOT
ATOM      1  C4' PXY d   1       2.784   1.195   1.507  0.00  0.00     0.077 C 
ATOM      2  C1' PXY d   1      -2.635  -0.656   2.292  0.00  0.00     0.077 C 
ATOM      3  C1  PXY d   1      -1.213  -0.178   2.076  0.00  0.00    -0.082 A 
ATOM      4  C2  PXY d   1      -0.532   0.329   3.090  0.00  0.00     0.003 A 
ATOM      5  C3  PXY d   1       0.744   0.795   2.905  0.00  0.00     0.003 A 
ATOM      6  C4  PXY d   1       1.349   0.692   1.681  0.00  0.00    -0.082 A 
ATOM      7  C5  PXY d   1       0.664   0.165   0.643  0.00  0.00     0.003 A 
ATOM      8  C6  PXY d   1      -0.644  -0.264   0.842  0.00  0.00     0.003 A 
ENDROOT
TORSDOF 0
ENDMDL
