MODEL 1
REMARK minimizedAffinity -3.93234324
REMARK minimizedRMSD -1
REMARK  0 active torsions:
REMARK  status: ('A' for Active; 'I' for Inactive)
ROOT
ATOM      1  C4' PXY d   1       1.301   0.724  -2.446  0.00  0.00     0.077 C 
ATOM      2  C1' PXY d   1      -0.359  -0.092   3.031  0.00  0.00     0.077 C 
ATOM      3  C1  PXY d   1       0.066   0.115   1.591  0.00  0.00    -0.082 A 
ATOM      4  C2  PXY d   1       1.337   0.351   1.311  0.00  0.00     0.003 A 
ATOM      5  C3  PXY d   1       1.734   0.573   0.018  0.00  0.00     0.003 A 
ATOM      6  C4  PXY d   1       0.828   0.499  -1.007  0.00  0.00    -0.082 A 
ATOM      7  C5  PXY d   1      -0.469   0.248  -0.731  0.00  0.00     0.003 A 
ATOM      8  C6  PXY d   1      -0.858   0.067   0.593  0.00  0.00     0.003 A 
ENDROOT
TORSDOF 0
ENDMDL
