MODEL 1
REMARK minimizedAffinity -5.55969048
REMARK minimizedRMSD -1
REMARK  0 active torsions:
REMARK  status: ('A' for Active; 'I' for Inactive)
ROOT
ATOM      1  C4' PXY d   1      -3.636   0.328   0.199  0.00  0.00     0.077 C 
ATOM      2  C1' PXY d   1       1.691  -0.217   2.377  0.00  0.00     0.077 C 
ATOM      3  C1  PXY d   1       0.299  -0.069   1.795  0.00  0.00    -0.082 A 
ATOM      4  C2  PXY d   1      -0.741   0.040   2.605  0.00  0.00     0.003 A 
ATOM      5  C3  PXY d   1      -2.010   0.142   2.096  0.00  0.00     0.003 A 
ATOM      6  C4  PXY d   1      -2.212   0.186   0.743  0.00  0.00    -0.082 A 
ATOM      7  C5  PXY d   1      -1.155   0.086  -0.091  0.00  0.00     0.003 A 
ATOM      8  C6  PXY d   1       0.121  -0.059   0.446  0.00  0.00     0.003 A 
ENDROOT
TORSDOF 0
ENDMDL
