MODEL 1
REMARK minimizedAffinity -6.06283236
REMARK minimizedRMSD -1
REMARK  0 active torsions:
REMARK  status: ('A' for Active; 'I' for Inactive)
ROOT
ATOM      1  C4' PXY d   1      -3.356   0.341   1.445  0.00  0.00     0.077 C 
ATOM      2  C1' PXY d   1       2.423   0.193   1.466  0.00  0.00     0.077 C 
ATOM      3  C1  PXY d   1       0.907   0.225   1.472  0.00  0.00    -0.082 A 
ATOM      4  C2  PXY d   1       0.251   0.344   0.329  0.00  0.00     0.003 A 
ATOM      5  C3  PXY d   1      -1.118   0.407   0.319  0.00  0.00     0.003 A 
ATOM      6  C4  PXY d   1      -1.826   0.294   1.486  0.00  0.00    -0.082 A 
ATOM      7  C5  PXY d   1      -1.164   0.161   2.655  0.00  0.00     0.003 A 
ATOM      8  C6  PXY d   1       0.228   0.141   2.648  0.00  0.00     0.003 A 
ENDROOT
TORSDOF 0
ENDMDL
