MODEL 1
REMARK minimizedAffinity -3.17839551
REMARK minimizedRMSD -1
REMARK  0 active torsions:
REMARK  status: ('A' for Active; 'I' for Inactive)
ROOT
ATOM      1  C4' PXY d   1       3.585  -0.938  -3.416  0.00  0.00     0.077 C 
ATOM      2  C1' PXY d   1      -1.681   0.995  -2.023  0.00  0.00     0.077 C 
ATOM      3  C1  PXY d   1      -0.305   0.478  -2.395  0.00  0.00    -0.082 A 
ATOM      4  C2  PXY d   1       0.733   0.771  -1.629  0.00  0.00     0.003 A 
ATOM      5  C3  PXY d   1       1.989   0.339  -1.968  0.00  0.00     0.003 A 
ATOM      6  C4  PXY d   1       2.176  -0.446  -3.074  0.00  0.00    -0.082 A 
ATOM      7  C5  PXY d   1       1.121  -0.758  -3.855  0.00  0.00     0.003 A 
ATOM      8  C6  PXY d   1      -0.140  -0.275  -3.516  0.00  0.00     0.003 A 
ENDROOT
TORSDOF 0
ENDMDL
