MODEL 1
REMARK minimizedAffinity -4.88658142
REMARK minimizedRMSD -1
REMARK  0 active torsions:
REMARK  status: ('A' for Active; 'I' for Inactive)
ROOT
ATOM      1  C4' PXY d   1       1.545  -0.018  -2.739  0.00  0.00     0.077 C 
ATOM      2  C1' PXY d   1       0.277   0.796   2.842  0.00  0.00     0.077 C 
ATOM      3  C1  PXY d   1       0.597   0.579   1.376  0.00  0.00    -0.082 A 
ATOM      4  C2  PXY d   1       1.847   0.350   1.007  0.00  0.00     0.003 A 
ATOM      5  C3  PXY d   1       2.159   0.183  -0.318  0.00  0.00     0.003 A 
ATOM      6  C4  PXY d   1       1.174   0.198  -1.269  0.00  0.00    -0.082 A 
ATOM      7  C5  PXY d   1      -0.105   0.420  -0.899  0.00  0.00     0.003 A 
ATOM      8  C6  PXY d   1      -0.395   0.628   0.447  0.00  0.00     0.003 A 
ENDROOT
TORSDOF 0
ENDMDL
