MODEL 1
REMARK minimizedAffinity -5.03241587
REMARK minimizedRMSD -1
REMARK  0 active torsions:
REMARK  status: ('A' for Active; 'I' for Inactive)
ROOT
ATOM      1  C4' PXY d   1      -2.057   0.640  -0.106  0.00  0.00     0.077 C 
ATOM      2  C1' PXY d   1       3.095   0.446   2.508  0.00  0.00     0.077 C 
ATOM      3  C1  PXY d   1       1.740   0.485   1.828  0.00  0.00    -0.082 A 
ATOM      4  C2  PXY d   1       1.588   1.182   0.714  0.00  0.00     0.003 A 
ATOM      5  C3  PXY d   1       0.363   1.255   0.103  0.00  0.00     0.003 A 
ATOM      6  C4  PXY d   1      -0.706   0.564   0.609  0.00  0.00    -0.082 A 
ATOM      7  C5  PXY d   1      -0.556  -0.158   1.740  0.00  0.00     0.003 A 
ATOM      8  C6  PXY d   1       0.686  -0.185   2.367  0.00  0.00     0.003 A 
ENDROOT
TORSDOF 0
ENDMDL
