MODEL 1
REMARK minimizedAffinity -4.36917543
REMARK minimizedRMSD -1
REMARK  0 active torsions:
REMARK  status: ('A' for Active; 'I' for Inactive)
ROOT
ATOM      1  C4' PXY d   1       0.469   0.699  -1.436  0.00  0.00     0.077 C 
ATOM      2  C1' PXY d   1      -1.069  -1.081   3.844  0.00  0.00     0.077 C 
ATOM      3  C1  PXY d   1      -0.658  -0.605   2.465  0.00  0.00    -0.082 A 
ATOM      4  C2  PXY d   1      -1.439  -0.856   1.426  0.00  0.00     0.003 A 
ATOM      5  C3  PXY d   1      -1.067  -0.461   0.167  0.00  0.00     0.003 A 
ATOM      6  C4  PXY d   1       0.090   0.246  -0.024  0.00  0.00    -0.082 A 
ATOM      7  C5  PXY d   1       0.886   0.516   1.032  0.00  0.00     0.003 A 
ATOM      8  C6  PXY d   1       0.511   0.070   2.296  0.00  0.00     0.003 A 
ENDROOT
TORSDOF 0
ENDMDL
