MODEL 1
REMARK minimizedAffinity 0.890560925
REMARK minimizedRMSD -1
REMARK  0 active torsions:
REMARK  status: ('A' for Active; 'I' for Inactive)
ROOT
ATOM      1  C4' PXY d   1       1.876   0.275   0.665  0.00  0.00     0.077 C 
ATOM      2  C1' PXY d   1      -3.396   0.404  -1.704  0.00  0.00     0.077 C 
ATOM      3  C1  PXY d   1      -2.010   0.379  -1.091  0.00  0.00    -0.082 A 
ATOM      4  C2  PXY d   1      -1.594  -0.705  -0.457  0.00  0.00     0.003 A 
ATOM      5  C3  PXY d   1      -0.355  -0.733   0.131  0.00  0.00     0.003 A 
ATOM      6  C4  PXY d   1       0.487   0.341   0.022  0.00  0.00    -0.082 A 
ATOM      7  C5  PXY d   1       0.075   1.447  -0.632  0.00  0.00     0.003 A 
ATOM      8  C6  PXY d   1      -1.202   1.470  -1.186  0.00  0.00     0.003 A 
ENDROOT
TORSDOF 0
ENDMDL
