MODEL 1
REMARK minimizedAffinity -4.62818527
REMARK minimizedRMSD -1
REMARK  0 active torsions:
REMARK  status: ('A' for Active; 'I' for Inactive)
ROOT
ATOM      1  C4' PXY d   1       0.965   0.604  -1.205  0.00  0.00     0.077 C 
ATOM      2  C1' PXY d   1      -1.221  -1.061   3.881  0.00  0.00     0.077 C 
ATOM      3  C1  PXY d   1      -0.642  -0.614   2.553  0.00  0.00    -0.082 A 
ATOM      4  C2  PXY d   1      -1.223  -0.991   1.426  0.00  0.00     0.003 A 
ATOM      5  C3  PXY d   1      -0.695  -0.623   0.216  0.00  0.00     0.003 A 
ATOM      6  C4  PXY d   1       0.410   0.184   0.159  0.00  0.00    -0.082 A 
ATOM      7  C5  PXY d   1       1.003   0.582   1.305  0.00  0.00     0.003 A 
ATOM      8  C6  PXY d   1       0.474   0.163   2.522  0.00  0.00     0.003 A 
ENDROOT
TORSDOF 0
ENDMDL
