MODEL 1
REMARK minimizedAffinity -3.34985685
REMARK minimizedRMSD -1
REMARK  0 active torsions:
REMARK  status: ('A' for Active; 'I' for Inactive)
ROOT
ATOM      1  C4' PXY d   1       0.876  -0.186  -2.096  0.00  0.00     0.077 C 
ATOM      2  C1' PXY d   1      -0.715   0.192   3.449  0.00  0.00     0.077 C 
ATOM      3  C1  PXY d   1      -0.291   0.104   1.996  0.00  0.00    -0.082 A 
ATOM      4  C2  PXY d   1      -1.043  -0.561   1.134  0.00  0.00     0.003 A 
ATOM      5  C3  PXY d   1      -0.658  -0.677  -0.177  0.00  0.00     0.003 A 
ATOM      6  C4  PXY d   1       0.482  -0.063  -0.621  0.00  0.00    -0.082 A 
ATOM      7  C5  PXY d   1       1.249   0.626   0.250  0.00  0.00     0.003 A 
ATOM      8  C6  PXY d   1       0.862   0.698   1.585  0.00  0.00     0.003 A 
ENDROOT
TORSDOF 0
ENDMDL
