MODEL 1
REMARK minimizedAffinity 7.47816753
REMARK minimizedRMSD -1
REMARK  0 active torsions:
REMARK  status: ('A' for Active; 'I' for Inactive)
ROOT
ATOM      1  C4' PXY d   1      -2.333   0.337  -0.523  0.00  0.00     0.077 C 
ATOM      2  C1' PXY d   1       2.880   1.528   1.674  0.00  0.00     0.077 C 
ATOM      3  C1  PXY d   1       1.518   1.216   1.086  0.00  0.00    -0.082 A 
ATOM      4  C2  PXY d   1       0.426   1.495   1.779  0.00  0.00     0.003 A 
ATOM      5  C3  PXY d   1      -0.812   1.191   1.276  0.00  0.00     0.003 A 
ATOM      6  C4  PXY d   1      -0.937   0.643   0.027  0.00  0.00    -0.082 A 
ATOM      7  C5  PXY d   1       0.171   0.364  -0.691  0.00  0.00     0.003 A 
ATOM      8  C6  PXY d   1       1.421   0.643  -0.145  0.00  0.00     0.003 A 
ENDROOT
TORSDOF 0
ENDMDL
