MODEL 1
REMARK minimizedAffinity 1.9566232
REMARK minimizedRMSD -1
REMARK  0 active torsions:
REMARK  status: ('A' for Active; 'I' for Inactive)
ROOT
ATOM      1  C4' PXY d   1       1.556  -0.701  -2.017  0.00  0.00     0.077 C 
ATOM      2  C1' PXY d   1       0.819   1.651   3.212  0.00  0.00     0.077 C 
ATOM      3  C1  PXY d   1       1.026   1.034   1.843  0.00  0.00    -0.082 A 
ATOM      4  C2  PXY d   1       0.135   1.248   0.888  0.00  0.00     0.003 A 
ATOM      5  C3  PXY d   1       0.290   0.671  -0.347  0.00  0.00     0.003 A 
ATOM      6  C4  PXY d   1       1.394  -0.090  -0.622  0.00  0.00    -0.082 A 
ATOM      7  C5  PXY d   1       2.312  -0.304   0.343  0.00  0.00     0.003 A 
ATOM      8  C6  PXY d   1       2.116   0.256   1.602  0.00  0.00     0.003 A 
ENDROOT
TORSDOF 0
ENDMDL
