MODEL 1
REMARK minimizedAffinity 3.75357223
REMARK minimizedRMSD -1
REMARK  0 active torsions:
REMARK  status: ('A' for Active; 'I' for Inactive)
ROOT
ATOM      1  C4' PXY d   1       4.300   2.556   1.176  0.00  0.00     0.077 C 
ATOM      2  C1' PXY d   1      -0.704   0.472   3.186  0.00  0.00     0.077 C 
ATOM      3  C1  PXY d   1       0.609   1.009   2.650  0.00  0.00    -0.082 A 
ATOM      4  C2  PXY d   1       1.360   1.783   3.416  0.00  0.00     0.003 A 
ATOM      5  C3  PXY d   1       2.535   2.303   2.936  0.00  0.00     0.003 A 
ATOM      6  C4  PXY d   1       2.971   1.984   1.679  0.00  0.00    -0.082 A 
ATOM      7  C5  PXY d   1       2.216   1.185   0.895  0.00  0.00     0.003 A 
ATOM      8  C6  PXY d   1       1.007   0.701   1.386  0.00  0.00     0.003 A 
ENDROOT
TORSDOF 0
ENDMDL
