MODEL 1
REMARK minimizedAffinity -4.98588228
REMARK minimizedRMSD -1
REMARK  0 active torsions:
REMARK  status: ('A' for Active; 'I' for Inactive)
ROOT
ATOM      1  C4' PXY d   1       0.933   0.031  -2.553  0.00  0.00     0.077 C 
ATOM      2  C1' PXY d   1       0.229   0.124   3.184  0.00  0.00     0.077 C 
ATOM      3  C1  PXY d   1       0.414   0.112   1.679  0.00  0.00    -0.082 A 
ATOM      4  C2  PXY d   1      -0.028  -0.915   0.973  0.00  0.00     0.003 A 
ATOM      5  C3  PXY d   1       0.160  -0.957  -0.384  0.00  0.00     0.003 A 
ATOM      6  C4  PXY d   1       0.759   0.090  -1.033  0.00  0.00    -0.082 A 
ATOM      7  C5  PXY d   1       1.204   1.147  -0.321  0.00  0.00     0.003 A 
ATOM      8  C6  PXY d   1       1.040   1.151   1.061  0.00  0.00     0.003 A 
ENDROOT
TORSDOF 0
ENDMDL
