MODEL 1
REMARK minimizedAffinity 4.00101137
REMARK minimizedRMSD -1
REMARK  0 active torsions:
REMARK  status: ('A' for Active; 'I' for Inactive)
ROOT
ATOM      1  C   UNL d   1      -5.999   4.510  -0.030  0.00  0.00     0.078 C 
ATOM      2  C1  UNL d   1      -4.840   4.142   0.847  0.00  0.00    -0.077 A 
ATOM      3  C2  UNL d   1      -4.900   4.319   2.235  0.00  0.00    -0.001 A 
ATOM      4  C3  UNL d   1      -3.810   3.981   3.038  0.00  0.00     0.003 A 
ATOM      5  C4  UNL d   1      -2.650   3.465   2.462  0.00  0.00    -0.005 A 
ATOM      6  C5  UNL d   1      -2.580   3.287   1.082  0.00  0.00     0.003 A 
ATOM      7  C6  UNL d   1      -3.670   3.625   0.277  0.00  0.00    -0.001 A 
ENDROOT
TORSDOF 0
ENDMDL
