MODEL 1
REMARK minimizedAffinity 12.3770809
REMARK minimizedRMSD -1
REMARK  0 active torsions:
REMARK  status: ('A' for Active; 'I' for Inactive)
ROOT
ATOM      1  C   UNL d   1       5.655   5.915  -6.000  0.00  0.00     0.078 C 
ATOM      2  C1  UNL d   1       5.126   5.852  -4.598  0.00  0.00    -0.077 A 
ATOM      3  C2  UNL d   1       3.761   5.659  -4.350  0.00  0.00    -0.001 A 
ATOM      4  C3  UNL d   1       3.281   5.612  -3.041  0.00  0.00     0.003 A 
ATOM      5  C4  UNL d   1       4.159   5.757  -1.968  0.00  0.00    -0.005 A 
ATOM      6  C5  UNL d   1       5.518   5.952  -2.205  0.00  0.00     0.003 A 
ATOM      7  C6  UNL d   1       6.000   5.999  -3.514  0.00  0.00    -0.001 A 
ENDROOT
TORSDOF 0
ENDMDL
