MODEL 1
REMARK minimizedAffinity 9.93346786
REMARK minimizedRMSD -1
REMARK  0 active torsions:
REMARK  status: ('A' for Active; 'I' for Inactive)
ROOT
ATOM      1  C   UNL d   1       5.434  -2.475   5.996  0.00  0.00     0.078 C 
ATOM      2  C1  UNL d   1       4.160  -2.391   5.209  0.00  0.00    -0.077 A 
ATOM      3  C2  UNL d   1       4.007  -1.451   4.182  0.00  0.00    -0.001 A 
ATOM      4  C3  UNL d   1       2.812  -1.378   3.465  0.00  0.00     0.003 A 
ATOM      5  C4  UNL d   1       1.760  -2.241   3.767  0.00  0.00    -0.005 A 
ATOM      6  C5  UNL d   1       1.902  -3.177   4.789  0.00  0.00     0.003 A 
ATOM      7  C6  UNL d   1       3.097  -3.252   5.507  0.00  0.00    -0.001 A 
ENDROOT
TORSDOF 0
ENDMDL
