MODEL 1
REMARK minimizedAffinity 2.10974479
REMARK minimizedRMSD -1
REMARK  0 active torsions:
REMARK  status: ('A' for Active; 'I' for Inactive)
ROOT
ATOM      1  C   UNL d   1       2.706   2.192   0.959  0.00  0.00     0.078 C 
ATOM      2  C1  UNL d   1       2.536   1.024   1.884  0.00  0.00    -0.077 A 
ATOM      3  C2  UNL d   1       1.530   0.074   1.668  0.00  0.00    -0.001 A 
ATOM      4  C3  UNL d   1       1.377  -1.003   2.542  0.00  0.00     0.003 A 
ATOM      5  C4  UNL d   1       2.226  -1.140   3.639  0.00  0.00    -0.005 A 
ATOM      6  C5  UNL d   1       3.228  -0.198   3.864  0.00  0.00     0.003 A 
ATOM      7  C6  UNL d   1       3.382   0.879   2.991  0.00  0.00    -0.001 A 
ENDROOT
TORSDOF 0
ENDMDL
