MODEL 1
REMARK minimizedAffinity 11.71451
REMARK minimizedRMSD -1
REMARK  0 active torsions:
REMARK  status: ('A' for Active; 'I' for Inactive)
ROOT
ATOM      1  C   UNL d   1       2.279  -3.277   4.884  0.00  0.00     0.078 C 
ATOM      2  C1  UNL d   1       2.405  -2.174   3.876  0.00  0.00    -0.077 A 
ATOM      3  C2  UNL d   1       1.468  -1.135   3.823  0.00  0.00    -0.001 A 
ATOM      4  C3  UNL d   1       1.593  -0.120   2.873  0.00  0.00     0.003 A 
ATOM      5  C4  UNL d   1       2.653  -0.134   1.969  0.00  0.00    -0.005 A 
ATOM      6  C5  UNL d   1       3.590  -1.165   2.013  0.00  0.00     0.003 A 
ATOM      7  C6  UNL d   1       3.466  -2.181   2.962  0.00  0.00    -0.001 A 
ENDROOT
TORSDOF 0
ENDMDL
