MODEL 1
REMARK minimizedAffinity 11.5895367
REMARK minimizedRMSD -1
REMARK  0 active torsions:
REMARK  status: ('A' for Active; 'I' for Inactive)
ROOT
ATOM      1  C   UNL d   1      -1.165  -0.344   1.608  0.00  0.00     0.078 C 
ATOM      2  C1  UNL d   1       0.081   0.489   1.637  0.00  0.00    -0.077 A 
ATOM      3  C2  UNL d   1       0.021   1.882   1.501  0.00  0.00    -0.001 A 
ATOM      4  C3  UNL d   1       1.189   2.644   1.520  0.00  0.00     0.003 A 
ATOM      5  C4  UNL d   1       2.427   2.024   1.674  0.00  0.00    -0.005 A 
ATOM      6  C5  UNL d   1       2.498   0.639   1.808  0.00  0.00     0.003 A 
ATOM      7  C6  UNL d   1       1.330  -0.126   1.789  0.00  0.00    -0.001 A 
ENDROOT
TORSDOF 0
ENDMDL
