MODEL 1
REMARK minimizedAffinity 8.82021046
REMARK minimizedRMSD -1
REMARK  0 active torsions:
REMARK  status: ('A' for Active; 'I' for Inactive)
ROOT
ATOM      1  C   UNL d   1       3.584   1.844   0.831  0.00  0.00     0.078 C 
ATOM      2  C1  UNL d   1       2.969   1.037   1.934  0.00  0.00    -0.077 A 
ATOM      3  C2  UNL d   1       2.826  -0.351   1.819  0.00  0.00    -0.001 A 
ATOM      4  C3  UNL d   1       2.242  -1.089   2.850  0.00  0.00     0.003 A 
ATOM      5  C4  UNL d   1       1.796  -0.448   4.003  0.00  0.00    -0.005 A 
ATOM      6  C5  UNL d   1       1.932   0.933   4.126  0.00  0.00     0.003 A 
ATOM      7  C6  UNL d   1       2.515   1.673   3.096  0.00  0.00    -0.001 A 
ENDROOT
TORSDOF 0
ENDMDL
