MODEL 1
REMARK minimizedAffinity 5.34124947
REMARK minimizedRMSD -1
REMARK  1 active torsions:
REMARK  status: ('A' for Active; 'I' for Inactive)
REMARK    1  A    between atoms: C1_2  and  C2_3 
ROOT
ATOM      1  C2  UNL d   1       3.985  -5.632  -4.599  0.00  0.00    -0.081 A 
ATOM      2  C3  UNL d   1       5.342  -5.967  -4.513  0.00  0.00     0.006 A 
ATOM      3  C4  UNL d   1       5.999  -5.948  -3.280  0.00  0.00     0.002 A 
ATOM      4  C5  UNL d   1       5.309  -5.602  -2.113  0.00  0.00    -0.080 A 
ATOM      5  C6  UNL d   1       5.995  -5.607  -0.779  0.00  0.00     0.076 C 
ATOM      6  C7  UNL d   1       3.958  -5.250  -2.202  0.00  0.00     0.002 A 
ATOM      7  C8  UNL d   1       3.300  -5.269  -3.434  0.00  0.00     0.006 A 
ENDROOT
BRANCH   1   8
ATOM      8  C1  UNL d   1       3.257  -5.714  -5.916  0.00  0.00     0.054 C 
ATOM      9  C   UNL d   1       1.764  -5.927  -5.712  0.00  0.00     0.018 C 
ENDBRANCH   1   8
TORSDOF 1
ENDMDL
