MODEL 1
REMARK minimizedAffinity 15.6221123
REMARK minimizedRMSD -1
REMARK  1 active torsions:
REMARK  status: ('A' for Active; 'I' for Inactive)
REMARK    1  A    between atoms: C1_2  and  C2_3 
ROOT
ATOM      1  C2  UNL d   1       2.256   1.568   1.601  0.00  0.00    -0.081 A 
ATOM      2  C3  UNL d   1       2.792   2.091   0.418  0.00  0.00     0.006 A 
ATOM      3  C4  UNL d   1       1.956   2.656  -0.549  0.00  0.00     0.002 A 
ATOM      4  C5  UNL d   1       0.574   2.715  -0.345  0.00  0.00    -0.080 A 
ATOM      5  C6  UNL d   1      -0.331   3.347  -1.361  0.00  0.00     0.076 C 
ATOM      6  C7  UNL d   1       0.036   2.177   0.829  0.00  0.00     0.002 A 
ATOM      7  C8  UNL d   1       0.871   1.611   1.795  0.00  0.00     0.006 A 
ENDROOT
BRANCH   1   8
ATOM      8  C1  UNL d   1       3.160   1.016   2.673  0.00  0.00     0.054 C 
ATOM      9  C   UNL d   1       3.779   2.131   3.503  0.00  0.00     0.018 C 
ENDBRANCH   1   8
TORSDOF 1
ENDMDL
