MODEL 1
REMARK minimizedAffinity 12.9510632
REMARK minimizedRMSD -1
REMARK  1 active torsions:
REMARK  status: ('A' for Active; 'I' for Inactive)
REMARK    1  A    between atoms: C1_2  and  C2_3 
ROOT
ATOM      1  C2  UNL d   1       3.737   2.360  -4.088  0.00  0.00    -0.081 A 
ATOM      2  C3  UNL d   1       4.940   2.805  -3.527  0.00  0.00     0.006 A 
ATOM      3  C4  UNL d   1       5.681   3.813  -4.150  0.00  0.00     0.002 A 
ATOM      4  C5  UNL d   1       5.228   4.396  -5.338  0.00  0.00    -0.080 A 
ATOM      5  C6  UNL d   1       5.999   5.500  -6.000  0.00  0.00     0.076 C 
ATOM      6  C7  UNL d   1       4.035   3.939  -5.907  0.00  0.00     0.002 A 
ATOM      7  C8  UNL d   1       3.294   2.932  -5.286  0.00  0.00     0.006 A 
ENDROOT
BRANCH   1   8
ATOM      8  C1  UNL d   1       2.903   1.319  -3.385  0.00  0.00     0.054 C 
ATOM      9  C   UNL d   1       2.343   1.852  -2.074  0.00  0.00     0.018 C 
ENDBRANCH   1   8
TORSDOF 1
ENDMDL
