MODEL 1
REMARK minimizedAffinity 10.554142
REMARK minimizedRMSD -1
REMARK  1 active torsions:
REMARK  status: ('A' for Active; 'I' for Inactive)
REMARK    1  A    between atoms: C1_2  and  C2_3 
ROOT
ATOM      1  C2  UNL d   1       0.454   1.453   0.924  0.00  0.00    -0.081 A 
ATOM      2  C3  UNL d   1       0.439   2.394  -0.112  0.00  0.00     0.006 A 
ATOM      3  C4  UNL d   1       1.623   2.752  -0.761  0.00  0.00     0.002 A 
ATOM      4  C5  UNL d   1       2.839   2.170  -0.390  0.00  0.00    -0.080 A 
ATOM      5  C6  UNL d   1       4.113   2.523  -1.099  0.00  0.00     0.076 C 
ATOM      6  C7  UNL d   1       2.857   1.242   0.657  0.00  0.00     0.002 A 
ATOM      7  C8  UNL d   1       1.674   0.884   1.307  0.00  0.00     0.006 A 
ENDROOT
BRANCH   1   8
ATOM      8  C1  UNL d   1      -0.830   1.017   1.582  0.00  0.00     0.054 C 
ATOM      9  C   UNL d   1      -1.630   2.212   2.081  0.00  0.00     0.018 C 
ENDBRANCH   1   8
TORSDOF 1
ENDMDL
