MODEL 1
REMARK minimizedAffinity 1.97433257
REMARK minimizedRMSD -1
REMARK  1 active torsions:
REMARK  status: ('A' for Active; 'I' for Inactive)
REMARK    1  A    between atoms: C1_2  and  C2_3 
ROOT
ATOM      1  C2  UNL d   1       4.616  -4.788  -4.087  0.00  0.00    -0.081 A 
ATOM      2  C3  UNL d   1       4.551  -5.166  -5.434  0.00  0.00     0.006 A 
ATOM      3  C4  UNL d   1       3.339  -5.569  -5.999  0.00  0.00     0.002 A 
ATOM      4  C5  UNL d   1       2.170  -5.594  -5.229  0.00  0.00    -0.080 A 
ATOM      5  C6  UNL d   1       0.857  -5.996  -5.831  0.00  0.00     0.076 C 
ATOM      6  C7  UNL d   1       2.238  -5.233  -3.879  0.00  0.00     0.002 A 
ATOM      7  C8  UNL d   1       3.450  -4.830  -3.314  0.00  0.00     0.006 A 
ENDROOT
BRANCH   1   8
ATOM      8  C1  UNL d   1       5.908  -4.291  -3.492  0.00  0.00     0.054 C 
ATOM      9  C   UNL d   1       5.860  -2.790  -3.240  0.00  0.00     0.018 C 
ENDBRANCH   1   8
TORSDOF 1
ENDMDL
