MODEL 1
REMARK minimizedAffinity 16.8692036
REMARK minimizedRMSD -1
REMARK  1 active torsions:
REMARK  status: ('A' for Active; 'I' for Inactive)
REMARK    1  A    between atoms: C1_2  and  C2_3 
ROOT
ATOM      1  C2  UNL d   1       3.389  -4.879  -5.262  0.00  0.00    -0.081 A 
ATOM      2  C3  UNL d   1       4.594  -4.520  -5.879  0.00  0.00     0.006 A 
ATOM      3  C4  UNL d   1       5.434  -3.571  -5.291  0.00  0.00     0.002 A 
ATOM      4  C5  UNL d   1       5.088  -2.972  -4.075  0.00  0.00    -0.080 A 
ATOM      5  C6  UNL d   1       5.996  -1.975  -3.419  0.00  0.00     0.076 C 
ATOM      6  C7  UNL d   1       3.876  -3.318  -3.468  0.00  0.00     0.002 A 
ATOM      7  C8  UNL d   1       3.035  -4.266  -4.055  0.00  0.00     0.006 A 
ENDROOT
BRANCH   1   8
ATOM      8  C1  UNL d   1       2.511  -5.949  -5.860  0.00  0.00     0.054 C 
ATOM      9  C   UNL d   1       1.066  -5.797  -5.408  0.00  0.00     0.018 C 
ENDBRANCH   1   8
TORSDOF 1
ENDMDL
