MODEL 1
REMARK minimizedAffinity 7.0875988
REMARK minimizedRMSD -1
REMARK  1 active torsions:
REMARK  status: ('A' for Active; 'I' for Inactive)
REMARK    1  A    between atoms: C1_2  and  C2_3 
ROOT
ATOM      1  C2  UNL d   1       4.604  -4.659  -4.566  0.00  0.00    -0.081 A 
ATOM      2  C3  UNL d   1       4.252  -5.263  -5.780  0.00  0.00     0.006 A 
ATOM      3  C4  UNL d   1       2.947  -5.710  -5.996  0.00  0.00     0.002 A 
ATOM      4  C5  UNL d   1       1.969  -5.552  -5.008  0.00  0.00    -0.080 A 
ATOM      5  C6  UNL d   1       0.557  -6.000  -5.240  0.00  0.00     0.076 C 
ATOM      6  C7  UNL d   1       2.324  -4.964  -3.789  0.00  0.00     0.002 A 
ATOM      7  C8  UNL d   1       3.630  -4.518  -3.572  0.00  0.00     0.006 A 
ENDROOT
BRANCH   1   8
ATOM      8  C1  UNL d   1       5.995  -4.118  -4.354  0.00  0.00     0.054 C 
ATOM      9  C   UNL d   1       5.982  -2.604  -4.203  0.00  0.00     0.018 C 
ENDBRANCH   1   8
TORSDOF 1
ENDMDL
