MODEL 1
REMARK minimizedAffinity 19.2155247
REMARK minimizedRMSD -1
REMARK  1 active torsions:
REMARK  status: ('A' for Active; 'I' for Inactive)
REMARK    1  A    between atoms: C1_2  and  C2_3 
ROOT
ATOM      1  C2  UNL d   1      -1.990  -3.682   1.249  0.00  0.00    -0.081 A 
ATOM      2  C3  UNL d   1      -1.588  -2.861   2.310  0.00  0.00     0.006 A 
ATOM      3  C4  UNL d   1      -1.735  -3.291   3.631  0.00  0.00     0.002 A 
ATOM      4  C5  UNL d   1      -2.277  -4.549   3.913  0.00  0.00    -0.080 A 
ATOM      5  C6  UNL d   1      -2.412  -5.034   5.326  0.00  0.00     0.076 C 
ATOM      6  C7  UNL d   1      -2.694  -5.361   2.853  0.00  0.00     0.002 A 
ATOM      7  C8  UNL d   1      -2.549  -4.933   1.532  0.00  0.00     0.006 A 
ENDROOT
BRANCH   1   8
ATOM      8  C1  UNL d   1      -1.773  -3.248  -0.179  0.00  0.00     0.054 C 
ATOM      9  C   UNL d   1      -1.636  -4.447  -1.106  0.00  0.00     0.018 C 
ENDBRANCH   1   8
TORSDOF 1
ENDMDL
