MODEL 1
REMARK minimizedAffinity 11.8076782
REMARK minimizedRMSD -1
REMARK  1 active torsions:
REMARK  status: ('A' for Active; 'I' for Inactive)
REMARK    1  A    between atoms: C1_2  and  C2_3 
ROOT
ATOM      1  C2  UNL d   1       1.935   1.781   0.872  0.00  0.00    -0.081 A 
ATOM      2  C3  UNL d   1       2.763   2.170   1.932  0.00  0.00     0.006 A 
ATOM      3  C4  UNL d   1       4.082   2.561   1.694  0.00  0.00     0.002 A 
ATOM      4  C5  UNL d   1       4.593   2.578   0.392  0.00  0.00    -0.080 A 
ATOM      5  C6  UNL d   1       5.999   3.025   0.119  0.00  0.00     0.076 C 
ATOM      6  C7  UNL d   1       3.772   2.174  -0.666  0.00  0.00     0.002 A 
ATOM      7  C8  UNL d   1       2.452   1.782  -0.428  0.00  0.00     0.006 A 
ENDROOT
BRANCH   1   8
ATOM      8  C1  UNL d   1       0.492   1.421   1.119  0.00  0.00     0.054 C 
ATOM      9  C   UNL d   1      -0.446   2.492   0.580  0.00  0.00     0.018 C 
ENDBRANCH   1   8
TORSDOF 1
ENDMDL
