MODEL 1
REMARK minimizedAffinity 18.3285294
REMARK minimizedRMSD -1
REMARK  1 active torsions:
REMARK  status: ('A' for Active; 'I' for Inactive)
REMARK    1  A    between atoms: C1_2  and  C2_3 
ROOT
ATOM      1  C2  UNL d   1       4.222   1.823   2.609  0.00  0.00    -0.081 A 
ATOM      2  C3  UNL d   1       3.102   2.166   3.375  0.00  0.00     0.006 A 
ATOM      3  C4  UNL d   1       1.857   2.347   2.768  0.00  0.00     0.002 A 
ATOM      4  C5  UNL d   1       1.709   2.179   1.388  0.00  0.00    -0.080 A 
ATOM      5  C6  UNL d   1       0.372   2.339   0.728  0.00  0.00     0.076 C 
ATOM      6  C7  UNL d   1       2.832   1.852   0.619  0.00  0.00     0.002 A 
ATOM      7  C8  UNL d   1       4.077   1.673   1.225  0.00  0.00     0.006 A 
ENDROOT
BRANCH   1   8
ATOM      8  C1  UNL d   1       5.552   1.564   3.269  0.00  0.00     0.054 C 
ATOM      9  C   UNL d   1       5.999   2.759   4.099  0.00  0.00     0.018 C 
ENDBRANCH   1   8
TORSDOF 1
ENDMDL
