MODEL 1
REMARK minimizedAffinity 12.5398464
REMARK minimizedRMSD -1
REMARK  1 active torsions:
REMARK  status: ('A' for Active; 'I' for Inactive)
REMARK    1  A    between atoms: C1_2  and  C2_3 
ROOT
ATOM      1  C2  UNL d   1      -2.805  -4.952   1.300  0.00  0.00    -0.081 A 
ATOM      2  C3  UNL d   1      -2.626  -3.633   0.865  0.00  0.00     0.006 A 
ATOM      3  C4  UNL d   1      -2.000  -3.368  -0.355  0.00  0.00     0.002 A 
ATOM      4  C5  UNL d   1      -1.549  -4.417  -1.164  0.00  0.00    -0.080 A 
ATOM      5  C6  UNL d   1      -0.902  -4.147  -2.490  0.00  0.00     0.076 C 
ATOM      6  C7  UNL d   1      -1.712  -5.734  -0.722  0.00  0.00     0.002 A 
ATOM      7  C8  UNL d   1      -2.337  -6.000   0.498  0.00  0.00     0.006 A 
ENDROOT
BRANCH   1   8
ATOM      8  C1  UNL d   1      -3.538  -5.243   2.584  0.00  0.00     0.054 C 
ATOM      9  C   UNL d   1      -2.574  -5.637   3.694  0.00  0.00     0.018 C 
ENDBRANCH   1   8
TORSDOF 1
ENDMDL
