MODEL 1
REMARK minimizedAffinity 10.0301075
REMARK minimizedRMSD -1
REMARK  1 active torsions:
REMARK  status: ('A' for Active; 'I' for Inactive)
REMARK    1  A    between atoms: C1_2  and  C2_3 
ROOT
ATOM      1  C2  UNL d   1       4.074   1.745  -2.924  0.00  0.00    -0.081 A 
ATOM      2  C3  UNL d   1       5.271   2.418  -2.654  0.00  0.00     0.006 A 
ATOM      3  C4  UNL d   1       5.904   3.166  -3.650  0.00  0.00     0.002 A 
ATOM      4  C5  UNL d   1       5.346   3.258  -4.930  0.00  0.00    -0.080 A 
ATOM      5  C6  UNL d   1       5.999   4.082  -5.999  0.00  0.00     0.076 C 
ATOM      6  C7  UNL d   1       4.159   2.571  -5.205  0.00  0.00     0.002 A 
ATOM      7  C8  UNL d   1       3.526   1.823  -4.209  0.00  0.00     0.006 A 
ENDROOT
BRANCH   1   8
ATOM      8  C1  UNL d   1       3.355   0.991  -1.834  0.00  0.00     0.054 C 
ATOM      9  C   UNL d   1       2.892   1.927  -0.727  0.00  0.00     0.018 C 
ENDBRANCH   1   8
TORSDOF 1
ENDMDL
