MODEL 1
REMARK minimizedAffinity 18.6105118
REMARK minimizedRMSD -1
REMARK  1 active torsions:
REMARK  status: ('A' for Active; 'I' for Inactive)
REMARK    1  A    between atoms: C1_2  and  C2_3 
ROOT
ATOM      1  C2  UNL d   1       3.345  -5.707  -5.021  0.00  0.00    -0.081 A 
ATOM      2  C3  UNL d   1       2.046  -5.999  -5.457  0.00  0.00     0.006 A 
ATOM      3  C4  UNL d   1       0.959  -5.852  -4.592  0.00  0.00     0.002 A 
ATOM      4  C5  UNL d   1       1.151  -5.403  -3.281  0.00  0.00    -0.080 A 
ATOM      5  C6  UNL d   1      -0.011  -5.212  -2.352  0.00  0.00     0.076 C 
ATOM      6  C7  UNL d   1       2.450  -5.128  -2.840  0.00  0.00     0.002 A 
ATOM      7  C8  UNL d   1       3.537  -5.275  -3.704  0.00  0.00     0.006 A 
ENDROOT
BRANCH   1   8
ATOM      8  C1  UNL d   1       4.511  -5.803  -5.970  0.00  0.00     0.054 C 
ATOM      9  C   UNL d   1       5.836  -5.665  -5.234  0.00  0.00     0.018 C 
ENDBRANCH   1   8
TORSDOF 1
ENDMDL
