MODEL 1
REMARK minimizedAffinity -0.501319289
REMARK minimizedRMSD -1
REMARK  1 active torsions:
REMARK  status: ('A' for Active; 'I' for Inactive)
REMARK    1  A    between atoms: C1_2  and  C2_3 
ROOT
ATOM      1  C2  UNL d   1      -0.352   0.166   1.067  0.00  0.00    -0.081 A 
ATOM      2  C3  UNL d   1       0.915   0.026   0.488  0.00  0.00     0.006 A 
ATOM      3  C4  UNL d   1       1.880   1.025   0.644  0.00  0.00     0.002 A 
ATOM      4  C5  UNL d   1       1.596   2.175   1.388  0.00  0.00    -0.080 A 
ATOM      5  C6  UNL d   1       2.632   3.241   1.589  0.00  0.00     0.076 C 
ATOM      6  C7  UNL d   1       0.324   2.323   1.952  0.00  0.00     0.002 A 
ATOM      7  C8  UNL d   1      -0.640   1.326   1.796  0.00  0.00     0.006 A 
ENDROOT
BRANCH   1   8
ATOM      8  C1  UNL d   1      -1.372  -0.938   0.955  0.00  0.00     0.054 C 
ATOM      9  C   UNL d   1      -2.772  -0.378   0.746  0.00  0.00     0.018 C 
ENDBRANCH   1   8
TORSDOF 1
ENDMDL
