MODEL 1
REMARK minimizedAffinity -4.32789946
REMARK minimizedRMSD -1
REMARK  1 active torsions:
REMARK  status: ('A' for Active; 'I' for Inactive)
REMARK    1  A    between atoms: C1_2  and  C2_3 
ROOT
ATOM      1  C2  UNL d   1       0.036  -0.264   0.335  0.00  0.00    -0.073 A 
ATOM      2  C3  UNL d   1      -1.298   0.051   0.619  0.00  0.00    -0.002 A 
ATOM      3  C4  UNL d   1      -1.646   1.340   1.024  0.00  0.00     0.004 A 
ATOM      4  C5  UNL d   1      -0.668   2.327   1.143  0.00  0.00    -0.004 A 
ATOM      5  C6  UNL d   1       0.668   2.035   0.852  0.00  0.00    -0.075 A 
ATOM      6  C7  UNL d   1       1.733   3.085   0.977  0.00  0.00     0.076 C 
ATOM      7  C8  UNL d   1       1.011   0.737   0.448  0.00  0.00     0.001 A 
ENDROOT
BRANCH   1   8
ATOM      8  C1  UNL d   1       0.416  -1.653  -0.109  0.00  0.00     0.053 C 
ATOM      9  C   UNL d   1      -0.689  -2.316  -0.916  0.00  0.00     0.018 C 
ENDBRANCH   1   8
TORSDOF 1
ENDMDL
