MODEL 1
REMARK minimizedAffinity -2.84688306
REMARK minimizedRMSD -1
REMARK  1 active torsions:
REMARK  status: ('A' for Active; 'I' for Inactive)
REMARK    1  A    between atoms: C1_2  and  C2_3 
ROOT
ATOM      1  C2  UNL d   1      -0.631   0.076  -0.477  0.00  0.00    -0.073 A 
ATOM      2  C3  UNL d   1       0.060  -0.402   0.642  0.00  0.00    -0.002 A 
ATOM      3  C4  UNL d   1       0.472  -1.734   0.700  0.00  0.00     0.004 A 
ATOM      4  C5  UNL d   1       0.204  -2.599  -0.361  0.00  0.00    -0.004 A 
ATOM      5  C6  UNL d   1      -0.476  -2.137  -1.493  0.00  0.00    -0.075 A 
ATOM      6  C7  UNL d   1      -0.774  -3.055  -2.642  0.00  0.00     0.076 C 
ATOM      7  C8  UNL d   1      -0.889  -0.799  -1.542  0.00  0.00     0.001 A 
ENDROOT
BRANCH   1   8
ATOM      8  C1  UNL d   1      -1.073   1.515  -0.547  0.00  0.00     0.053 C 
ATOM      9  C   UNL d   1      -0.632   2.306   0.675  0.00  0.00     0.018 C 
ENDBRANCH   1   8
TORSDOF 1
ENDMDL
