MODEL 1
REMARK minimizedAffinity -3.5987618
REMARK minimizedRMSD -1
REMARK  1 active torsions:
REMARK  status: ('A' for Active; 'I' for Inactive)
REMARK    1  A    between atoms: C1_2  and  C2_3 
ROOT
ATOM      1  C2  UNL d   1      -0.888  -0.777  -0.629  0.00  0.00    -0.073 A 
ATOM      2  C3  UNL d   1      -1.528  -1.764  -1.388  0.00  0.00    -0.002 A 
ATOM      3  C4  UNL d   1      -1.070  -3.082  -1.361  0.00  0.00     0.004 A 
ATOM      4  C5  UNL d   1       0.026  -3.428  -0.571  0.00  0.00    -0.004 A 
ATOM      5  C6  UNL d   1       0.672  -2.459   0.203  0.00  0.00    -0.075 A 
ATOM      6  C7  UNL d   1       1.854  -2.814   1.056  0.00  0.00     0.076 C 
ATOM      7  C8  UNL d   1       0.208  -1.137   0.169  0.00  0.00     0.001 A 
ENDROOT
BRANCH   1   8
ATOM      8  C1  UNL d   1      -1.382   0.646  -0.650  0.00  0.00     0.053 C 
ATOM      9  C   UNL d   1      -1.097   1.368   0.657  0.00  0.00     0.018 C 
ENDBRANCH   1   8
TORSDOF 1
ENDMDL
