MODEL 1
REMARK minimizedAffinity -2.32419324
REMARK minimizedRMSD -1
REMARK  1 active torsions:
REMARK  status: ('A' for Active; 'I' for Inactive)
REMARK    1  A    between atoms: C1_2  and  C2_3 
ROOT
ATOM      1  C2  UNL d   1      -1.037  -1.515  -1.119  0.00  0.00    -0.073 A 
ATOM      2  C3  UNL d   1      -2.028  -0.534  -0.996  0.00  0.00    -0.002 A 
ATOM      3  C4  UNL d   1      -1.728   0.702  -0.422  0.00  0.00     0.004 A 
ATOM      4  C5  UNL d   1      -0.435   0.972   0.027  0.00  0.00    -0.004 A 
ATOM      5  C6  UNL d   1       0.571   0.009  -0.097  0.00  0.00    -0.075 A 
ATOM      6  C7  UNL d   1       1.966   0.283   0.384  0.00  0.00     0.076 C 
ATOM      7  C8  UNL d   1       0.261  -1.231  -0.672  0.00  0.00     0.001 A 
ENDROOT
BRANCH   1   8
ATOM      8  C1  UNL d   1      -1.355  -2.849  -1.744  0.00  0.00     0.053 C 
ATOM      9  C   UNL d   1      -2.036  -3.790  -0.763  0.00  0.00     0.018 C 
ENDBRANCH   1   8
TORSDOF 1
ENDMDL
