MODEL 1
REMARK minimizedAffinity -3.81729531
REMARK minimizedRMSD -1
REMARK  1 active torsions:
REMARK  status: ('A' for Active; 'I' for Inactive)
REMARK    1  A    between atoms: C1_2  and  C2_3 
ROOT
ATOM      1  C2  UNL d   1      -0.807  -0.031  -0.220  0.00  0.00    -0.073 A 
ATOM      2  C3  UNL d   1      -0.076  -0.637   0.808  0.00  0.00    -0.002 A 
ATOM      3  C4  UNL d   1       0.382  -1.948   0.669  0.00  0.00     0.004 A 
ATOM      4  C5  UNL d   1       0.120  -2.663  -0.500  0.00  0.00    -0.004 A 
ATOM      5  C6  UNL d   1      -0.599  -2.071  -1.543  0.00  0.00    -0.075 A 
ATOM      6  C7  UNL d   1      -0.891  -2.827  -2.806  0.00  0.00     0.076 C 
ATOM      7  C8  UNL d   1      -1.058  -0.755  -1.395  0.00  0.00     0.001 A 
ENDROOT
BRANCH   1   8
ATOM      8  C1  UNL d   1      -1.299   1.386  -0.077  0.00  0.00     0.053 C 
ATOM      9  C   UNL d   1      -0.594   2.123   1.051  0.00  0.00     0.018 C 
ENDBRANCH   1   8
TORSDOF 1
ENDMDL
