MODEL 1
REMARK minimizedAffinity 5.59391642
REMARK minimizedRMSD -1
REMARK  1 active torsions:
REMARK  status: ('A' for Active; 'I' for Inactive)
REMARK    1  A    between atoms: C1_2  and  C2_3 
ROOT
ATOM      1  C2  UNL d   1       1.656  -0.648  -0.323  0.00  0.00    -0.081 A 
ATOM      2  C3  UNL d   1       0.516  -0.806  -1.120  0.00  0.00     0.006 A 
ATOM      3  C4  UNL d   1      -0.147  -2.035  -1.171  0.00  0.00     0.002 A 
ATOM      4  C5  UNL d   1       0.313  -3.122  -0.421  0.00  0.00    -0.080 A 
ATOM      5  C6  UNL d   1      -0.408  -4.437  -0.443  0.00  0.00     0.076 C 
ATOM      6  C7  UNL d   1       1.462  -2.969   0.363  0.00  0.00     0.002 A 
ATOM      7  C8  UNL d   1       2.126  -1.741   0.414  0.00  0.00     0.006 A 
ENDROOT
BRANCH   1   8
ATOM      8  C1  UNL d   1       2.336   0.693  -0.215  0.00  0.00     0.054 C 
ATOM      9  C   UNL d   1       1.342   1.791   0.136  0.00  0.00     0.018 C 
ENDBRANCH   1   8
TORSDOF 1
ENDMDL
