MODEL 1
REMARK minimizedAffinity 3.06354141
REMARK minimizedRMSD -1
REMARK  1 active torsions:
REMARK  status: ('A' for Active; 'I' for Inactive)
REMARK    1  A    between atoms: C1_2  and  C2_3 
ROOT
ATOM      1  C2  UNL d   1       1.832  -2.860   1.734  0.00  0.00    -0.081 A 
ATOM      2  C3  UNL d   1       1.954  -2.513   3.085  0.00  0.00     0.006 A 
ATOM      3  C4  UNL d   1       1.022  -2.968   4.020  0.00  0.00     0.002 A 
ATOM      4  C5  UNL d   1      -0.043  -3.783   3.622  0.00  0.00    -0.080 A 
ATOM      5  C6  UNL d   1      -1.034  -4.303   4.621  0.00  0.00     0.076 C 
ATOM      6  C7  UNL d   1      -0.176  -4.115   2.269  0.00  0.00     0.002 A 
ATOM      7  C8  UNL d   1       0.756  -3.661   1.334  0.00  0.00     0.006 A 
ENDROOT
BRANCH   1   8
ATOM      8  C1  UNL d   1       2.872  -2.425   0.733  0.00  0.00     0.054 C 
ATOM      9  C   UNL d   1       2.525  -1.073   0.127  0.00  0.00     0.018 C 
ENDBRANCH   1   8
TORSDOF 1
ENDMDL
