MODEL 1
REMARK minimizedAffinity 12.248436
REMARK minimizedRMSD -1
REMARK  1 active torsions:
REMARK  status: ('A' for Active; 'I' for Inactive)
REMARK    1  A    between atoms: C1_2  and  C2_3 
ROOT
ATOM      1  C2  UNL d   1      -3.773   0.392  -5.202  0.00  0.00    -0.081 A 
ATOM      2  C3  UNL d   1      -2.933  -0.394  -5.999  0.00  0.00     0.006 A 
ATOM      3  C4  UNL d   1      -1.885  -1.117  -5.425  0.00  0.00     0.002 A 
ATOM      4  C5  UNL d   1      -1.664  -1.072  -4.044  0.00  0.00    -0.080 A 
ATOM      5  C6  UNL d   1      -0.561  -1.867  -3.411  0.00  0.00     0.076 C 
ATOM      6  C7  UNL d   1      -2.493  -0.273  -3.249  0.00  0.00     0.002 A 
ATOM      7  C8  UNL d   1      -3.541   0.451  -3.823  0.00  0.00     0.006 A 
ENDROOT
BRANCH   1   8
ATOM      8  C1  UNL d   1      -4.944   1.122  -5.809  0.00  0.00     0.054 C 
ATOM      9  C   UNL d   1      -5.947   1.543  -4.744  0.00  0.00     0.018 C 
ENDBRANCH   1   8
TORSDOF 1
ENDMDL
