MODEL 1
REMARK minimizedAffinity 2.35650134
REMARK minimizedRMSD -1
REMARK  1 active torsions:
REMARK  status: ('A' for Active; 'I' for Inactive)
REMARK    1  A    between atoms: C1_2  and  C2_3 
ROOT
ATOM      1  C2  UNL d   1      -1.867   0.266  -3.044  0.00  0.00    -0.081 A 
ATOM      2  C3  UNL d   1      -2.619   1.068  -3.911  0.00  0.00     0.006 A 
ATOM      3  C4  UNL d   1      -3.841   1.604  -3.499  0.00  0.00     0.002 A 
ATOM      4  C5  UNL d   1      -4.328   1.353  -2.211  0.00  0.00    -0.080 A 
ATOM      5  C6  UNL d   1      -5.624   1.948  -1.746  0.00  0.00     0.076 C 
ATOM      6  C7  UNL d   1      -3.585   0.538  -1.351  0.00  0.00     0.002 A 
ATOM      7  C8  UNL d   1      -2.363   0.001  -1.762  0.00  0.00     0.006 A 
ENDROOT
BRANCH   1   8
ATOM      8  C1  UNL d   1      -0.518  -0.260  -3.463  0.00  0.00     0.054 C 
ATOM      9  C   UNL d   1      -0.092  -1.441  -2.601  0.00  0.00     0.018 C 
ENDBRANCH   1   8
TORSDOF 1
ENDMDL
