MODEL 1
REMARK minimizedAffinity 10.1231537
REMARK minimizedRMSD -1
REMARK  1 active torsions:
REMARK  status: ('A' for Active; 'I' for Inactive)
REMARK    1  A    between atoms: C1_2  and  C2_3 
ROOT
ATOM      1  C2  UNL d   1       1.054   1.277   0.673  0.00  0.00    -0.081 A 
ATOM      2  C3  UNL d   1       0.342   0.738   1.751  0.00  0.00     0.006 A 
ATOM      3  C4  UNL d   1      -0.456   1.557   2.553  0.00  0.00     0.002 A 
ATOM      4  C5  UNL d   1      -0.562   2.926   2.286  0.00  0.00    -0.080 A 
ATOM      5  C6  UNL d   1      -1.439   3.811   3.120  0.00  0.00     0.076 C 
ATOM      6  C7  UNL d   1       0.164   3.468   1.219  0.00  0.00     0.002 A 
ATOM      7  C8  UNL d   1       0.963   2.650   0.418  0.00  0.00     0.006 A 
ENDROOT
BRANCH   1   8
ATOM      8  C1  UNL d   1       1.864   0.385  -0.233  0.00  0.00     0.054 C 
ATOM      9  C   UNL d   1       2.506  -0.756   0.543  0.00  0.00     0.018 C 
ENDBRANCH   1   8
TORSDOF 1
ENDMDL
