MODEL 1
REMARK minimizedAffinity 9.19736958
REMARK minimizedRMSD -1
REMARK  1 active torsions:
REMARK  status: ('A' for Active; 'I' for Inactive)
REMARK    1  A    between atoms: C1_2  and  C2_3 
ROOT
ATOM      1  C2  UNL d   1       0.495   1.237   0.038  0.00  0.00    -0.081 A 
ATOM      2  C3  UNL d   1      -0.092   0.717  -1.122  0.00  0.00     0.006 A 
ATOM      3  C4  UNL d   1       0.597  -0.208  -1.911  0.00  0.00     0.002 A 
ATOM      4  C5  UNL d   1       1.879  -0.634  -1.548  0.00  0.00    -0.080 A 
ATOM      5  C6  UNL d   1       2.618  -1.649  -2.369  0.00  0.00     0.076 C 
ATOM      6  C7  UNL d   1       2.472  -0.102  -0.398  0.00  0.00     0.002 A 
ATOM      7  C8  UNL d   1       1.784   0.824   0.390  0.00  0.00     0.006 A 
ENDROOT
BRANCH   1   8
ATOM      8  C1  UNL d   1      -0.271   2.185   0.925  0.00  0.00     0.054 C 
ATOM      9  C   UNL d   1      -0.674   1.517   2.232  0.00  0.00     0.018 C 
ENDBRANCH   1   8
TORSDOF 1
ENDMDL
