MODEL 1
REMARK minimizedAffinity 2.22095299
REMARK minimizedRMSD -1
REMARK  1 active torsions:
REMARK  status: ('A' for Active; 'I' for Inactive)
REMARK    1  A    between atoms: C1_2  and  C2_3 
ROOT
ATOM      1  C2  UNL d   1       1.808   0.684  -0.075  0.00  0.00    -0.081 A 
ATOM      2  C3  UNL d   1       0.558   0.101  -0.314  0.00  0.00     0.006 A 
ATOM      3  C4  UNL d   1       0.453  -1.269  -0.569  0.00  0.00     0.002 A 
ATOM      4  C5  UNL d   1       1.594  -2.078  -0.582  0.00  0.00    -0.080 A 
ATOM      5  C6  UNL d   1       1.492  -3.555  -0.824  0.00  0.00     0.076 C 
ATOM      6  C7  UNL d   1       2.845  -1.492  -0.360  0.00  0.00     0.002 A 
ATOM      7  C8  UNL d   1       2.951  -0.123  -0.106  0.00  0.00     0.006 A 
ENDROOT
BRANCH   1   8
ATOM      8  C1  UNL d   1       1.918   2.149   0.264  0.00  0.00     0.054 C 
ATOM      9  C   UNL d   1       0.545   2.783   0.428  0.00  0.00     0.018 C 
ENDBRANCH   1   8
TORSDOF 1
ENDMDL
