MODEL 1
REMARK minimizedAffinity 19.0646152
REMARK minimizedRMSD -1
REMARK  0 active torsions:
REMARK  status: ('A' for Active; 'I' for Inactive)
ROOT
ATOM      1  C   UNL d   1       4.652  -1.559   1.942  0.00  0.00    -0.002 A 
ATOM      2  C1  UNL d   1       4.073  -1.487   3.201  0.00  0.00     0.010 A 
ATOM      3  C2  UNL d   1       2.686  -1.539   3.350  0.00  0.00     0.041 A 
ATOM      4  C3  UNL d   1       1.882  -1.667   2.200  0.00  0.00    -0.075 A 
ATOM      5  S   UNL d   1       0.161  -1.752   2.140  0.00  0.00     0.015 SA
ATOM      6  C4  UNL d   1       0.153  -1.886   0.441  0.00  0.00     0.022 A 
ATOM      7  C5  UNL d   1       1.423  -1.868  -0.084  0.00  0.00     0.026 A 
ATOM      8  C6  UNL d   1       2.441  -1.742   0.921  0.00  0.00    -0.082 A 
ATOM      9  C7  UNL d   1       3.850  -1.686   0.804  0.00  0.00     0.045 A 
ENDROOT
TORSDOF 0
ENDMDL
