MODEL 1
REMARK minimizedAffinity 15.9832859
REMARK minimizedRMSD -1
REMARK  0 active torsions:
REMARK  status: ('A' for Active; 'I' for Inactive)
ROOT
ATOM      1  C   UNL d   1      -3.280  -0.403  -0.926  0.00  0.00    -0.002 A 
ATOM      2  C1  UNL d   1      -1.955  -0.813  -0.971  0.00  0.00     0.010 A 
ATOM      3  C2  UNL d   1      -1.011  -0.088  -1.701  0.00  0.00     0.041 A 
ATOM      4  C3  UNL d   1      -1.425   1.068  -2.391  0.00  0.00    -0.075 A 
ATOM      5  S   UNL d   1      -0.444   2.114  -3.349  0.00  0.00     0.015 SA
ATOM      6  C4  UNL d   1      -1.761   3.130  -3.721  0.00  0.00     0.022 A 
ATOM      7  C5  UNL d   1      -2.928   2.697  -3.137  0.00  0.00     0.026 A 
ATOM      8  C6  UNL d   1      -2.753   1.502  -2.360  0.00  0.00    -0.082 A 
ATOM      9  C7  UNL d   1      -3.686   0.745  -1.612  0.00  0.00     0.045 A 
ENDROOT
TORSDOF 0
ENDMDL
