MODEL 1
REMARK minimizedAffinity 4.39972687
REMARK minimizedRMSD -1
REMARK  0 active torsions:
REMARK  status: ('A' for Active; 'I' for Inactive)
ROOT
ATOM      1  C   UNL d   1       4.266  -5.277   0.395  0.00  0.00    -0.002 A 
ATOM      2  C1  UNL d   1       3.082  -6.000   0.405  0.00  0.00     0.010 A 
ATOM      3  C2  UNL d   1       1.884  -5.396   0.791  0.00  0.00     0.041 A 
ATOM      4  C3  UNL d   1       1.895  -4.038   1.168  0.00  0.00    -0.075 A 
ATOM      5  S   UNL d   1       0.549  -3.089   1.676  0.00  0.00     0.015 SA
ATOM      6  C4  UNL d   1       1.514  -1.700   1.890  0.00  0.00     0.022 A 
ATOM      7  C5  UNL d   1       2.833  -1.937   1.586  0.00  0.00     0.026 A 
ATOM      8  C6  UNL d   1       3.075  -3.289   1.164  0.00  0.00    -0.082 A 
ATOM      9  C7  UNL d   1       4.273  -3.930   0.769  0.00  0.00     0.045 A 
ENDROOT
TORSDOF 0
ENDMDL
