MODEL 1
REMARK minimizedAffinity 10.4723711
REMARK minimizedRMSD -1
REMARK  0 active torsions:
REMARK  status: ('A' for Active; 'I' for Inactive)
ROOT
ATOM      1  C   UNL d   1      -1.935   1.877  -4.130  0.00  0.00    -0.002 A 
ATOM      2  C1  UNL d   1      -1.395   1.355  -5.297  0.00  0.00     0.010 A 
ATOM      3  C2  UNL d   1      -0.337   2.002  -5.941  0.00  0.00     0.041 A 
ATOM      4  C3  UNL d   1       0.174   3.191  -5.385  0.00  0.00    -0.075 A 
ATOM      5  S   UNL d   1       1.466   4.154  -5.999  0.00  0.00     0.015 SA
ATOM      6  C4  UNL d   1       1.332   5.279  -4.726  0.00  0.00     0.022 A 
ATOM      7  C5  UNL d   1       0.330   4.944  -3.846  0.00  0.00     0.026 A 
ATOM      8  C6  UNL d   1      -0.353   3.735  -4.211  0.00  0.00    -0.082 A 
ATOM      9  C7  UNL d   1      -1.425   3.057  -3.582  0.00  0.00     0.045 A 
ENDROOT
TORSDOF 0
ENDMDL
