MODEL 1
REMARK minimizedAffinity -3.87982917
REMARK minimizedRMSD -1
REMARK  1 active torsions:
REMARK  status: ('A' for Active; 'I' for Inactive)
REMARK    1  A    between atoms: C1_2  and  C2_3 
ROOT
ATOM      1  C2  UNL d   1       2.783   4.561   4.152  0.00  0.00    -0.076 A 
ATOM      2  C3  UNL d   1       2.967   3.696   3.060  0.00  0.00     0.004 A 
ATOM      3  C4  UNL d   1       4.245   3.371   2.609  0.00  0.00    -0.003 A 
ATOM      4  C5  UNL d   1       5.361   3.907   3.244  0.00  0.00     0.000 A 
ATOM      5  C6  UNL d   1       5.197   4.753   4.340  0.00  0.00     0.000 A 
ATOM      6  C7  UNL d   1       3.915   5.077   4.817  0.00  0.00    -0.073 A 
ATOM      7  C8  UNL d   1       3.797   6.000   6.000  0.00  0.00     0.078 C 
ENDROOT
BRANCH   1   8
ATOM      8  C1  UNL d   1       1.372   4.899   4.579  0.00  0.00     0.053 C 
ATOM      9  C   UNL d   1       0.747   5.986   3.719  0.00  0.00     0.018 C 
ENDBRANCH   1   8
TORSDOF 1
ENDMDL
