MODEL 1
REMARK minimizedAffinity 3.78456974
REMARK minimizedRMSD -1
REMARK  1 active torsions:
REMARK  status: ('A' for Active; 'I' for Inactive)
REMARK    1  A    between atoms: C1_2  and  C2_3 
ROOT
ATOM      1  C2  UNL d   1       1.488   3.789   2.644  0.00  0.00    -0.076 A 
ATOM      2  C3  UNL d   1       1.487   2.384   2.598  0.00  0.00     0.004 A 
ATOM      3  C4  UNL d   1       0.426   1.685   2.024  0.00  0.00    -0.003 A 
ATOM      4  C5  UNL d   1      -0.651   2.381   1.486  0.00  0.00     0.000 A 
ATOM      5  C6  UNL d   1      -0.659   3.775   1.507  0.00  0.00     0.000 A 
ATOM      6  C7  UNL d   1       0.411   4.495   2.068  0.00  0.00    -0.073 A 
ATOM      7  C8  UNL d   1       0.347   5.998   2.069  0.00  0.00     0.078 C 
ENDROOT
BRANCH   1   8
ATOM      8  C1  UNL d   1       2.654   4.491   3.304  0.00  0.00     0.053 C 
ATOM      9  C   UNL d   1       3.798   3.543   3.626  0.00  0.00     0.018 C 
ENDBRANCH   1   8
TORSDOF 1
ENDMDL
