MODEL 1
REMARK minimizedAffinity -5.31009531
REMARK minimizedRMSD -1
REMARK  1 active torsions:
REMARK  status: ('A' for Active; 'I' for Inactive)
REMARK    1  A    between atoms: C1_2  and  C2_3 
ROOT
ATOM      1  C2  UNL d   1       1.518   4.584   5.363  0.00  0.00    -0.076 A 
ATOM      2  C3  UNL d   1       1.233   3.362   5.997  0.00  0.00     0.004 A 
ATOM      3  C4  UNL d   1       2.106   2.280   5.895  0.00  0.00    -0.003 A 
ATOM      4  C5  UNL d   1       3.279   2.403   5.158  0.00  0.00     0.000 A 
ATOM      5  C6  UNL d   1       3.586   3.613   4.537  0.00  0.00     0.000 A 
ATOM      6  C7  UNL d   1       2.725   4.719   4.644  0.00  0.00    -0.073 A 
ATOM      7  C8  UNL d   1       3.104   5.998   3.949  0.00  0.00     0.078 C 
ENDROOT
BRANCH   1   8
ATOM      8  C1  UNL d   1       0.521   5.714   5.487  0.00  0.00     0.053 C 
ATOM      9  C   UNL d   1      -0.507   5.709   4.366  0.00  0.00     0.018 C 
ENDBRANCH   1   8
TORSDOF 1
ENDMDL
