MODEL 1
REMARK minimizedAffinity 6.15745354
REMARK minimizedRMSD -1
REMARK  1 active torsions:
REMARK  status: ('A' for Active; 'I' for Inactive)
REMARK    1  A    between atoms: C1_2  and  C2_3 
ROOT
ATOM      1  C2  UNL d   1       3.754   0.591  -0.637  0.00  0.00    -0.076 A 
ATOM      2  C3  UNL d   1       4.243  -0.727  -0.626  0.00  0.00     0.004 A 
ATOM      3  C4  UNL d   1       3.391  -1.807  -0.403  0.00  0.00    -0.003 A 
ATOM      4  C5  UNL d   1       2.036  -1.586  -0.186  0.00  0.00     0.000 A 
ATOM      5  C6  UNL d   1       1.530  -0.287  -0.210  0.00  0.00     0.000 A 
ATOM      6  C7  UNL d   1       2.373   0.812  -0.450  0.00  0.00    -0.073 A 
ATOM      7  C8  UNL d   1       1.775   2.192  -0.459  0.00  0.00     0.078 C 
ENDROOT
BRANCH   1   8
ATOM      8  C1  UNL d   1       4.730   1.724  -0.858  0.00  0.00     0.053 C 
ATOM      9  C   UNL d   1       5.053   1.937  -2.329  0.00  0.00     0.018 C 
ENDBRANCH   1   8
TORSDOF 1
ENDMDL
