MODEL 1
REMARK minimizedAffinity 2.19463968
REMARK minimizedRMSD -1
REMARK  1 active torsions:
REMARK  status: ('A' for Active; 'I' for Inactive)
REMARK    1  A    between atoms: C1_2  and  C2_3 
ROOT
ATOM      1  C2  UNL d   1       3.448   4.703   3.856  0.00  0.00    -0.076 A 
ATOM      2  C3  UNL d   1       3.038   3.511   3.234  0.00  0.00     0.004 A 
ATOM      3  C4  UNL d   1       2.779   2.363   3.981  0.00  0.00    -0.003 A 
ATOM      4  C5  UNL d   1       2.925   2.390   5.364  0.00  0.00     0.000 A 
ATOM      5  C6  UNL d   1       3.313   3.568   6.000  0.00  0.00     0.000 A 
ATOM      6  C7  UNL d   1       3.562   4.738   5.262  0.00  0.00    -0.073 A 
ATOM      7  C8  UNL d   1       3.984   5.980   5.999  0.00  0.00     0.078 C 
ENDROOT
BRANCH   1   8
ATOM      8  C1  UNL d   1       3.741   5.908   2.991  0.00  0.00     0.053 C 
ATOM      9  C   UNL d   1       5.206   5.996   2.591  0.00  0.00     0.018 C 
ENDBRANCH   1   8
TORSDOF 1
ENDMDL
