MODEL 1
REMARK minimizedAffinity 7.28377628
REMARK minimizedRMSD -1
REMARK  1 active torsions:
REMARK  status: ('A' for Active; 'I' for Inactive)
REMARK    1  A    between atoms: C1_2  and  C2_3 
ROOT
ATOM      1  C2  UNL d   1      -0.694  -1.217   0.999  0.00  0.00    -0.076 A 
ATOM      2  C3  UNL d   1      -0.296  -0.296   1.983  0.00  0.00     0.004 A 
ATOM      3  C4  UNL d   1       0.940   0.345   1.909  0.00  0.00    -0.003 A 
ATOM      4  C5  UNL d   1       1.797   0.075   0.848  0.00  0.00     0.000 A 
ATOM      5  C6  UNL d   1       1.411  -0.824  -0.146  0.00  0.00     0.000 A 
ATOM      6  C7  UNL d   1       0.162  -1.466  -0.095  0.00  0.00    -0.073 A 
ATOM      7  C8  UNL d   1      -0.200  -2.430  -1.191  0.00  0.00     0.078 C 
ENDROOT
BRANCH   1   8
ATOM      8  C1  UNL d   1      -2.034  -1.901   1.147  0.00  0.00     0.053 C 
ATOM      9  C   UNL d   1      -3.200  -0.932   1.026  0.00  0.00     0.018 C 
ENDBRANCH   1   8
TORSDOF 1
ENDMDL
