MODEL 1
REMARK minimizedAffinity 3.39291859
REMARK minimizedRMSD -1
REMARK  0 active torsions:
REMARK  status: ('A' for Active; 'I' for Inactive)
ROOT
ATOM      1  C   UNL d   1       5.141  -1.750  -3.640  0.00  0.00    -0.002 A 
ATOM      2  C1  UNL d   1       4.231  -2.377  -4.479  0.00  0.00     0.010 A 
ATOM      3  C2  UNL d   1       2.940  -1.870  -4.634  0.00  0.00     0.041 A 
ATOM      4  C3  UNL d   1       2.574  -0.709  -3.925  0.00  0.00    -0.075 A 
ATOM      5  S   UNL d   1       1.048   0.093  -3.959  0.00  0.00     0.015 SA
ATOM      6  C4  UNL d   1       1.567   1.288  -2.860  0.00  0.00     0.022 A 
ATOM      7  C5  UNL d   1       2.871   1.095  -2.467  0.00  0.00     0.026 A 
ATOM      8  C6  UNL d   1       3.472  -0.058  -3.074  0.00  0.00    -0.082 A 
ATOM      9  C7  UNL d   1       4.774  -0.598  -2.938  0.00  0.00     0.045 A 
ENDROOT
TORSDOF 0
ENDMDL
