MODEL 1
REMARK minimizedAffinity 5.72905684
REMARK minimizedRMSD -1
REMARK  0 active torsions:
REMARK  status: ('A' for Active; 'I' for Inactive)
ROOT
ATOM      1  C   UNL d   1      -1.269   1.260   3.028  0.00  0.00    -0.002 A 
ATOM      2  C1  UNL d   1      -2.078   0.540   2.159  0.00  0.00     0.010 A 
ATOM      3  C2  UNL d   1      -1.515  -0.295   1.192  0.00  0.00     0.041 A 
ATOM      4  C3  UNL d   1      -0.113  -0.398   1.113  0.00  0.00    -0.075 A 
ATOM      5  S   UNL d   1       0.799  -1.359   0.009  0.00  0.00     0.015 SA
ATOM      6  C4  UNL d   1       2.283  -0.839   0.665  0.00  0.00     0.022 A 
ATOM      7  C5  UNL d   1       2.106   0.047   1.701  0.00  0.00     0.026 A 
ATOM      8  C6  UNL d   1       0.723   0.316   1.977  0.00  0.00    -0.082 A 
ATOM      9  C7  UNL d   1       0.122   1.155   2.946  0.00  0.00     0.045 A 
ENDROOT
TORSDOF 0
ENDMDL
