MODEL 1
REMARK minimizedAffinity 4.02587271
REMARK minimizedRMSD -1
REMARK  0 active torsions:
REMARK  status: ('A' for Active; 'I' for Inactive)
ROOT
ATOM      1  C   UNL d   1       2.363   0.902  -3.917  0.00  0.00    -0.002 A 
ATOM      2  C1  UNL d   1       1.141   0.389  -4.329  0.00  0.00     0.010 A 
ATOM      3  C2  UNL d   1       0.381  -0.411  -3.474  0.00  0.00     0.041 A 
ATOM      4  C3  UNL d   1       0.873  -0.688  -2.184  0.00  0.00    -0.075 A 
ATOM      5  S   UNL d   1       0.115  -1.643  -0.965  0.00  0.00     0.015 SA
ATOM      6  C4  UNL d   1       1.394  -1.393   0.133  0.00  0.00     0.022 A 
ATOM      7  C5  UNL d   1       2.385  -0.603  -0.401  0.00  0.00     0.026 A 
ATOM      8  C6  UNL d   1       2.100  -0.183  -1.745  0.00  0.00    -0.082 A 
ATOM      9  C7  UNL d   1       2.848   0.624  -2.636  0.00  0.00     0.045 A 
ENDROOT
TORSDOF 0
ENDMDL
