MODEL 1
REMARK minimizedAffinity 9.27436352
REMARK minimizedRMSD -1
REMARK  0 active torsions:
REMARK  status: ('A' for Active; 'I' for Inactive)
ROOT
ATOM      1  C   UNL d   1       2.612   1.588  -3.409  0.00  0.00    -0.002 A 
ATOM      2  C1  UNL d   1       2.234   0.895  -2.267  0.00  0.00     0.010 A 
ATOM      3  C2  UNL d   1       1.213  -0.055  -2.318  0.00  0.00     0.041 A 
ATOM      4  C3  UNL d   1       0.572  -0.302  -3.548  0.00  0.00    -0.075 A 
ATOM      5  S   UNL d   1      -0.704  -1.421  -3.850  0.00  0.00     0.015 SA
ATOM      6  C4  UNL d   1      -0.777  -1.007  -5.501  0.00  0.00     0.022 A 
ATOM      7  C5  UNL d   1       0.142  -0.040  -5.832  0.00  0.00     0.026 A 
ATOM      8  C6  UNL d   1       0.935   0.382  -4.712  0.00  0.00    -0.082 A 
ATOM      9  C7  UNL d   1       1.974   1.340  -4.627  0.00  0.00     0.045 A 
ENDROOT
TORSDOF 0
ENDMDL
