MODEL 1
REMARK minimizedAffinity 20.6481113
REMARK minimizedRMSD -1
REMARK  0 active torsions:
REMARK  status: ('A' for Active; 'I' for Inactive)
ROOT
ATOM      1  C   UNL d   1      -1.444  -3.918   2.508  0.00  0.00     0.124 A 
ATOM      2  C1  UNL d   1      -1.910  -2.656   2.162  0.00  0.00     0.062 A 
ATOM      3  C2  UNL d   1      -1.920  -2.255   0.829  0.00  0.00     0.162 A 
ATOM      4  C3  UNL d   1      -1.465  -3.117  -0.168  0.00  0.00    -0.034 A 
ATOM      5  C4  UNL d   1      -0.997  -4.383   0.187  0.00  0.00     0.162 A 
ATOM      6  C5  UNL d   1      -0.989  -4.779   1.520  0.00  0.00     0.062 A 
ATOM      7  F   UNL d   1      -0.539  -5.998   1.853  0.00  0.00    -0.097 F 
ATOM      8  F1  UNL d   1      -0.552  -5.237  -0.747  0.00  0.00    -0.096 F 
ATOM      9  I   UNL d   1      -1.479  -2.521  -2.162  0.00  0.00    -0.060 I 
ATOM     10  F2  UNL d   1      -2.376  -1.031   0.524  0.00  0.00    -0.096 F 
ATOM     11  F3  UNL d   1      -2.350  -1.821   3.114  0.00  0.00    -0.097 F 
ATOM     12  F4  UNL d   1      -1.434  -4.301   3.791  0.00  0.00    -0.092 F 
ENDROOT
TORSDOF 0
ENDMDL
