MODEL 1
REMARK minimizedAffinity 8.76085949
REMARK minimizedRMSD -1
REMARK  0 active torsions:
REMARK  status: ('A' for Active; 'I' for Inactive)
ROOT
ATOM      1  C   UNL d   1      -0.592  -4.223   0.378  0.00  0.00     0.124 A 
ATOM      2  C1  UNL d   1      -1.090  -2.948   0.148  0.00  0.00     0.062 A 
ATOM      3  C2  UNL d   1      -1.649  -2.215   1.191  0.00  0.00     0.162 A 
ATOM      4  C3  UNL d   1      -1.713  -2.756   2.475  0.00  0.00    -0.034 A 
ATOM      5  C4  UNL d   1      -1.211  -4.039   2.699  0.00  0.00     0.162 A 
ATOM      6  C5  UNL d   1      -0.653  -4.767   1.653  0.00  0.00     0.062 A 
ATOM      7  F   UNL d   1      -0.173  -5.999   1.878  0.00  0.00    -0.097 F 
ATOM      8  F1  UNL d   1      -1.256  -4.589   3.922  0.00  0.00    -0.096 F 
ATOM      9  I   UNL d   1      -2.548  -1.664   4.038  0.00  0.00    -0.060 I 
ATOM     10  F2  UNL d   1      -2.123  -0.986   0.939  0.00  0.00    -0.096 F 
ATOM     11  F3  UNL d   1      -1.034  -2.420  -1.084  0.00  0.00    -0.097 F 
ATOM     12  F4  UNL d   1      -0.056  -4.925  -0.628  0.00  0.00    -0.092 F 
ENDROOT
TORSDOF 0
ENDMDL
