MODEL 1
REMARK minimizedAffinity 26.9377899
REMARK minimizedRMSD -1
REMARK  0 active torsions:
REMARK  status: ('A' for Active; 'I' for Inactive)
ROOT
ATOM      1  C   UNL d   1      -1.551  -2.965   0.361  0.00  0.00     0.124 A 
ATOM      2  C1  UNL d   1      -2.348  -2.639   1.450  0.00  0.00     0.062 A 
ATOM      3  C2  UNL d   1      -2.346  -3.445   2.585  0.00  0.00     0.162 A 
ATOM      4  C3  UNL d   1      -1.545  -4.585   2.637  0.00  0.00    -0.034 A 
ATOM      5  C4  UNL d   1      -0.747  -4.907   1.538  0.00  0.00     0.162 A 
ATOM      6  C5  UNL d   1      -0.752  -4.098   0.406  0.00  0.00     0.062 A 
ATOM      7  F   UNL d   1       0.018  -4.415  -0.645  0.00  0.00    -0.097 F 
ATOM      8  F1  UNL d   1       0.036  -5.996   1.554  0.00  0.00    -0.096 F 
ATOM      9  I   UNL d   1      -1.540  -5.793   4.332  0.00  0.00    -0.060 I 
ATOM     10  F2  UNL d   1      -3.126  -3.105   3.622  0.00  0.00    -0.096 F 
ATOM     11  F3  UNL d   1      -3.121  -1.544   1.409  0.00  0.00    -0.097 F 
ATOM     12  F4  UNL d   1      -1.555  -2.188  -0.730  0.00  0.00    -0.092 F 
ENDROOT
TORSDOF 0
ENDMDL
