MODEL 1
REMARK minimizedAffinity 20.9124165
REMARK minimizedRMSD -1
REMARK  0 active torsions:
REMARK  status: ('A' for Active; 'I' for Inactive)
ROOT
ATOM      1  C   UNL d   1      -2.194  -1.701   1.114  0.00  0.00     0.124 A 
ATOM      2  C1  UNL d   1      -2.296  -2.201   2.405  0.00  0.00     0.062 A 
ATOM      3  C2  UNL d   1      -1.723  -3.428   2.727  0.00  0.00     0.162 A 
ATOM      4  C3  UNL d   1      -1.044  -4.164   1.757  0.00  0.00    -0.034 A 
ATOM      5  C4  UNL d   1      -0.947  -3.656   0.460  0.00  0.00     0.162 A 
ATOM      6  C5  UNL d   1      -1.521  -2.428   0.143  0.00  0.00     0.062 A 
ATOM      7  F   UNL d   1      -1.422  -1.947  -1.104  0.00  0.00    -0.097 F 
ATOM      8  F1  UNL d   1      -0.301  -4.337  -0.497  0.00  0.00    -0.096 F 
ATOM      9  I   UNL d   1      -0.187  -6.000   2.234  0.00  0.00    -0.060 I 
ATOM     10  F2  UNL d   1      -1.837  -3.887   3.982  0.00  0.00    -0.096 F 
ATOM     11  F3  UNL d   1      -2.947  -1.501   3.345  0.00  0.00    -0.097 F 
ATOM     12  F4  UNL d   1      -2.747  -0.520   0.807  0.00  0.00    -0.092 F 
ENDROOT
TORSDOF 0
ENDMDL
