MODEL 1
REMARK minimizedAffinity 22.0159149
REMARK minimizedRMSD -1
REMARK  0 active torsions:
REMARK  status: ('A' for Active; 'I' for Inactive)
ROOT
ATOM      1  C   UNL d   1      -2.020  -0.553  -2.732  0.00  0.00     0.124 A 
ATOM      2  C1  UNL d   1      -2.982   0.421  -2.959  0.00  0.00     0.062 A 
ATOM      3  C2  UNL d   1      -2.742   1.442  -3.874  0.00  0.00     0.162 A 
ATOM      4  C3  UNL d   1      -1.534   1.494  -4.569  0.00  0.00    -0.034 A 
ATOM      5  C4  UNL d   1      -0.570   0.512  -4.335  0.00  0.00     0.162 A 
ATOM      6  C5  UNL d   1      -0.815  -0.507  -3.420  0.00  0.00     0.062 A 
ATOM      7  F   UNL d   1       0.116  -1.447  -3.201  0.00  0.00    -0.097 F 
ATOM      8  F1  UNL d   1       0.602   0.532  -4.986  0.00  0.00    -0.096 F 
ATOM      9  I   UNL d   1      -1.171   3.020  -5.937  0.00  0.00    -0.060 I 
ATOM     10  F2  UNL d   1      -3.690   2.370  -4.073  0.00  0.00    -0.096 F 
ATOM     11  F3  UNL d   1      -4.146   0.379  -2.295  0.00  0.00    -0.097 F 
ATOM     12  F4  UNL d   1      -2.253  -1.535  -1.851  0.00  0.00    -0.092 F 
ENDROOT
TORSDOF 0
ENDMDL
