MODEL 1
REMARK minimizedAffinity 18.141058
REMARK minimizedRMSD -1
REMARK  0 active torsions:
REMARK  status: ('A' for Active; 'I' for Inactive)
ROOT
ATOM      1  C   UNL d   1      -0.417  -3.958  -0.341  0.00  0.00     0.124 A 
ATOM      2  C1  UNL d   1      -1.026  -2.713  -0.271  0.00  0.00     0.062 A 
ATOM      3  C2  UNL d   1      -1.648  -2.303   0.904  0.00  0.00     0.162 A 
ATOM      4  C3  UNL d   1      -1.663  -3.138   2.021  0.00  0.00    -0.034 A 
ATOM      5  C4  UNL d   1      -1.049  -4.389   1.943  0.00  0.00     0.162 A 
ATOM      6  C5  UNL d   1      -0.429  -4.795   0.766  0.00  0.00     0.062 A 
ATOM      7  F   UNL d   1       0.159  -5.999   0.700  0.00  0.00    -0.097 F 
ATOM      8  F1  UNL d   1      -1.045  -5.218   2.998  0.00  0.00    -0.096 F 
ATOM      9  I   UNL d   1      -2.591  -2.528   3.781  0.00  0.00    -0.060 I 
ATOM     10  F2  UNL d   1      -2.228  -1.094   0.943  0.00  0.00    -0.096 F 
ATOM     11  F3  UNL d   1      -1.017  -1.903  -1.340  0.00  0.00    -0.097 F 
ATOM     12  F4  UNL d   1       0.179  -4.351  -1.474  0.00  0.00    -0.092 F 
ENDROOT
TORSDOF 0
ENDMDL
