MODEL 1
REMARK minimizedAffinity 25.4960575
REMARK minimizedRMSD -1
REMARK  0 active torsions:
REMARK  status: ('A' for Active; 'I' for Inactive)
ROOT
ATOM      1  C   UNL d   1       2.222   1.662  -0.442  0.00  0.00     0.124 A 
ATOM      2  C1  UNL d   1       3.381   2.418  -0.332  0.00  0.00     0.062 A 
ATOM      3  C2  UNL d   1       4.460   2.173  -1.175  0.00  0.00     0.162 A 
ATOM      4  C3  UNL d   1       4.386   1.166  -2.138  0.00  0.00    -0.034 A 
ATOM      5  C4  UNL d   1       3.218   0.409  -2.243  0.00  0.00     0.162 A 
ATOM      6  C5  UNL d   1       2.142   0.658  -1.397  0.00  0.00     0.062 A 
ATOM      7  F   UNL d   1       1.023  -0.074  -1.505  0.00  0.00    -0.097 F 
ATOM      8  F1  UNL d   1       3.113  -0.566  -3.157  0.00  0.00    -0.096 F 
ATOM      9  I   UNL d   1       5.997   0.796  -3.402  0.00  0.00    -0.060 I 
ATOM     10  F2  UNL d   1       5.567   2.919  -1.046  0.00  0.00    -0.096 F 
ATOM     11  F3  UNL d   1       3.461   3.388   0.591  0.00  0.00    -0.097 F 
ATOM     12  F4  UNL d   1       1.185   1.900   0.372  0.00  0.00    -0.092 F 
ENDROOT
TORSDOF 0
ENDMDL
