MODEL 1
REMARK minimizedAffinity 30.1726379
REMARK minimizedRMSD -1
REMARK  0 active torsions:
REMARK  status: ('A' for Active; 'I' for Inactive)
ROOT
ATOM      1  C   UNL d   1      -4.835   0.571   5.380  0.00  0.00     0.124 A 
ATOM      2  C1  UNL d   1      -4.840  -0.770   5.023  0.00  0.00     0.062 A 
ATOM      3  C2  UNL d   1      -3.643  -1.474   4.935  0.00  0.00     0.162 A 
ATOM      4  C3  UNL d   1      -2.430  -0.839   5.205  0.00  0.00    -0.034 A 
ATOM      5  C4  UNL d   1      -2.434   0.510   5.562  0.00  0.00     0.162 A 
ATOM      6  C5  UNL d   1      -3.633   1.210   5.649  0.00  0.00     0.062 A 
ATOM      7  F   UNL d   1      -3.627   2.506   5.994  0.00  0.00    -0.097 F 
ATOM      8  F1  UNL d   1      -1.287   1.152   5.828  0.00  0.00    -0.096 F 
ATOM      9  I   UNL d   1      -0.638  -1.889   5.073  0.00  0.00    -0.060 I 
ATOM     10  F2  UNL d   1      -3.677  -2.770   4.587  0.00  0.00    -0.096 F 
ATOM     11  F3  UNL d   1      -6.000  -1.389   4.762  0.00  0.00    -0.097 F 
ATOM     12  F4  UNL d   1      -5.989   1.247   5.464  0.00  0.00    -0.092 F 
ENDROOT
TORSDOF 0
ENDMDL
