MODEL 1
REMARK minimizedAffinity 19.6044006
REMARK minimizedRMSD -1
REMARK  0 active torsions:
REMARK  status: ('A' for Active; 'I' for Inactive)
ROOT
ATOM      1  C   UNL d   1      -1.436  -2.040  -1.640  0.00  0.00     0.124 A 
ATOM      2  C1  UNL d   1      -1.579  -1.803  -0.280  0.00  0.00     0.062 A 
ATOM      3  C2  UNL d   1      -1.267  -2.799   0.641  0.00  0.00     0.162 A 
ATOM      4  C3  UNL d   1      -0.806  -4.041   0.204  0.00  0.00    -0.034 A 
ATOM      5  C4  UNL d   1      -0.665  -4.272  -1.165  0.00  0.00     0.162 A 
ATOM      6  C5  UNL d   1      -0.979  -3.274  -2.081  0.00  0.00     0.062 A 
ATOM      7  F   UNL d   1      -0.840  -3.504  -3.395  0.00  0.00    -0.097 F 
ATOM      8  F1  UNL d   1      -0.225  -5.455  -1.619  0.00  0.00    -0.096 F 
ATOM      9  I   UNL d   1      -0.337  -5.533   1.578  0.00  0.00    -0.060 I 
ATOM     10  F2  UNL d   1      -1.415  -2.542   1.949  0.00  0.00    -0.096 F 
ATOM     11  F3  UNL d   1      -2.021  -0.612   0.149  0.00  0.00    -0.097 F 
ATOM     12  F4  UNL d   1      -1.739  -1.080  -2.524  0.00  0.00    -0.092 F 
ENDROOT
TORSDOF 0
ENDMDL
