MODEL 1
REMARK minimizedAffinity 29.0928669
REMARK minimizedRMSD -1
REMARK  0 active torsions:
REMARK  status: ('A' for Active; 'I' for Inactive)
ROOT
ATOM      1  C   UNL d   1      -1.711   0.672   2.408  0.00  0.00     0.124 A 
ATOM      2  C1  UNL d   1      -1.283  -0.575   1.974  0.00  0.00     0.062 A 
ATOM      3  C2  UNL d   1      -1.311  -1.665   2.840  0.00  0.00     0.162 A 
ATOM      4  C3  UNL d   1      -1.770  -1.513   4.148  0.00  0.00    -0.034 A 
ATOM      5  C4  UNL d   1      -2.198  -0.256   4.578  0.00  0.00     0.162 A 
ATOM      6  C5  UNL d   1      -2.168   0.830   3.709  0.00  0.00     0.062 A 
ATOM      7  F   UNL d   1      -2.582   2.034   4.130  0.00  0.00    -0.097 F 
ATOM      8  F1  UNL d   1      -2.646  -0.075   5.829  0.00  0.00    -0.096 F 
ATOM      9  I   UNL d   1      -1.814  -3.141   5.445  0.00  0.00    -0.060 I 
ATOM     10  F2  UNL d   1      -0.891  -2.858   2.393  0.00  0.00    -0.096 F 
ATOM     11  F3  UNL d   1      -0.840  -0.731   0.718  0.00  0.00    -0.097 F 
ATOM     12  F4  UNL d   1      -1.682   1.719   1.574  0.00  0.00    -0.092 F 
ENDROOT
TORSDOF 0
ENDMDL
