MODEL 1
REMARK minimizedAffinity 21.9634762
REMARK minimizedRMSD -1
REMARK  0 active torsions:
REMARK  status: ('A' for Active; 'I' for Inactive)
ROOT
ATOM      1  C   UNL d   1      -3.350   0.421   5.840  0.00  0.00     0.124 A 
ATOM      2  C1  UNL d   1      -4.218  -0.662   5.815  0.00  0.00     0.062 A 
ATOM      3  C2  UNL d   1      -3.718  -1.960   5.850  0.00  0.00     0.162 A 
ATOM      4  C3  UNL d   1      -2.342  -2.183   5.913  0.00  0.00    -0.034 A 
ATOM      5  C4  UNL d   1      -1.476  -1.089   5.938  0.00  0.00     0.162 A 
ATOM      6  C5  UNL d   1      -1.981   0.207   5.902  0.00  0.00     0.062 A 
ATOM      7  F   UNL d   1      -1.141   1.252   5.927  0.00  0.00    -0.097 F 
ATOM      8  F1  UNL d   1      -0.148  -1.267   5.998  0.00  0.00    -0.096 F 
ATOM      9  I   UNL d   1      -1.591  -4.123   5.966  0.00  0.00    -0.060 I 
ATOM     10  F2  UNL d   1      -4.580  -2.988   5.824  0.00  0.00    -0.096 F 
ATOM     11  F3  UNL d   1      -5.542  -0.457   5.754  0.00  0.00    -0.097 F 
ATOM     12  F4  UNL d   1      -3.834   1.670   5.805  0.00  0.00    -0.092 F 
ENDROOT
TORSDOF 0
ENDMDL
