MODEL 1
REMARK minimizedAffinity 18.1423645
REMARK minimizedRMSD -1
REMARK  0 active torsions:
REMARK  status: ('A' for Active; 'I' for Inactive)
ROOT
ATOM      1  C   UNL d   1      -3.634  -4.214   5.947  0.00  0.00     0.124 A 
ATOM      2  C1  UNL d   1      -2.389  -3.601   5.944  0.00  0.00     0.062 A 
ATOM      3  C2  UNL d   1      -2.293  -2.212   5.958  0.00  0.00     0.162 A 
ATOM      4  C3  UNL d   1      -3.446  -1.427   5.977  0.00  0.00    -0.034 A 
ATOM      5  C4  UNL d   1      -4.695  -2.051   5.979  0.00  0.00     0.162 A 
ATOM      6  C5  UNL d   1      -4.786  -3.439   5.965  0.00  0.00     0.062 A 
ATOM      7  F   UNL d   1      -5.989  -4.030   5.968  0.00  0.00    -0.097 F 
ATOM      8  F1  UNL d   1      -5.823  -1.327   5.996  0.00  0.00    -0.096 F 
ATOM      9  I   UNL d   1      -3.306   0.649   5.998  0.00  0.00    -0.060 I 
ATOM     10  F2  UNL d   1      -1.077  -1.646   5.955  0.00  0.00    -0.096 F 
ATOM     11  F3  UNL d   1      -1.276  -4.347   5.926  0.00  0.00    -0.097 F 
ATOM     12  F4  UNL d   1      -3.724  -5.550   5.932  0.00  0.00    -0.092 F 
ENDROOT
TORSDOF 0
ENDMDL
