MODEL 1
REMARK minimizedAffinity 33.7241821
REMARK minimizedRMSD -1
REMARK  0 active torsions:
REMARK  status: ('A' for Active; 'I' for Inactive)
ROOT
ATOM      1  C   UNL d   1       3.037   2.739   0.017  0.00  0.00     0.124 A 
ATOM      2  C1  UNL d   1       2.805   1.675  -0.843  0.00  0.00     0.062 A 
ATOM      3  C2  UNL d   1       3.649   1.455  -1.928  0.00  0.00     0.162 A 
ATOM      4  C3  UNL d   1       4.734   2.301  -2.158  0.00  0.00    -0.034 A 
ATOM      5  C4  UNL d   1       4.960   3.370  -1.290  0.00  0.00     0.162 A 
ATOM      6  C5  UNL d   1       4.114   3.586  -0.207  0.00  0.00     0.062 A 
ATOM      7  F   UNL d   1       4.339   4.615   0.623  0.00  0.00    -0.097 F 
ATOM      8  F1  UNL d   1       5.994   4.203  -1.482  0.00  0.00    -0.096 F 
ATOM      9  I   UNL d   1       5.998   1.975  -3.779  0.00  0.00    -0.060 I 
ATOM     10  F2  UNL d   1       3.401   0.418  -2.742  0.00  0.00    -0.096 F 
ATOM     11  F3  UNL d   1       1.765   0.856  -0.629  0.00  0.00    -0.097 F 
ATOM     12  F4  UNL d   1       2.223   2.950   1.059  0.00  0.00    -0.092 F 
ENDROOT
TORSDOF 0
ENDMDL
