MODEL 1
REMARK minimizedAffinity 20.9105282
REMARK minimizedRMSD -1
REMARK  0 active torsions:
REMARK  status: ('A' for Active; 'I' for Inactive)
ROOT
ATOM      1  C   UNL d   1      -2.147  -2.228   5.775  0.00  0.00     0.124 A 
ATOM      2  C1  UNL d   1      -3.533  -2.245   5.857  0.00  0.00     0.062 A 
ATOM      3  C2  UNL d   1      -4.245  -1.051   5.921  0.00  0.00     0.162 A 
ATOM      4  C3  UNL d   1      -3.573   0.171   5.903  0.00  0.00    -0.034 A 
ATOM      5  C4  UNL d   1      -2.179   0.181   5.822  0.00  0.00     0.162 A 
ATOM      6  C5  UNL d   1      -1.472  -1.015   5.758  0.00  0.00     0.062 A 
ATOM      7  F   UNL d   1      -0.133  -0.997   5.679  0.00  0.00    -0.097 F 
ATOM      8  F1  UNL d   1      -1.502   1.338   5.803  0.00  0.00    -0.096 F 
ATOM      9  I   UNL d   1      -4.635   1.959   6.000  0.00  0.00    -0.060 I 
ATOM     10  F2  UNL d   1      -5.583  -1.098   6.000  0.00  0.00    -0.096 F 
ATOM     11  F3  UNL d   1      -4.187  -3.415   5.875  0.00  0.00    -0.097 F 
ATOM     12  F4  UNL d   1      -1.464  -3.378   5.714  0.00  0.00    -0.092 F 
ENDROOT
TORSDOF 0
ENDMDL
