MODEL 1
REMARK minimizedAffinity 27.125
REMARK minimizedRMSD -1
REMARK  0 active torsions:
REMARK  status: ('A' for Active; 'I' for Inactive)
ROOT
ATOM      1  C   UNL d   1      -3.835   2.376  -2.391  0.00  0.00     0.124 A 
ATOM      2  C1  UNL d   1      -4.489   2.090  -1.201  0.00  0.00     0.062 A 
ATOM      3  C2  UNL d   1      -4.942   3.123  -0.385  0.00  0.00     0.162 A 
ATOM      4  C3  UNL d   1      -4.743   4.452  -0.758  0.00  0.00    -0.034 A 
ATOM      5  C4  UNL d   1      -4.084   4.732  -1.956  0.00  0.00     0.162 A 
ATOM      6  C5  UNL d   1      -3.633   3.696  -2.768  0.00  0.00     0.062 A 
ATOM      7  F   UNL d   1      -3.001   3.974  -3.917  0.00  0.00    -0.097 F 
ATOM      8  F1  UNL d   1      -3.876   5.999  -2.345  0.00  0.00    -0.096 F 
ATOM      9  I   UNL d   1      -5.419   6.000   0.458  0.00  0.00    -0.060 I 
ATOM     10  F2  UNL d   1      -5.571   2.817   0.759  0.00  0.00    -0.096 F 
ATOM     11  F3  UNL d   1      -4.685   0.815  -0.834  0.00  0.00    -0.097 F 
ATOM     12  F4  UNL d   1      -3.399   1.380  -3.173  0.00  0.00    -0.092 F 
ENDROOT
TORSDOF 0
ENDMDL
