MODEL 1
REMARK minimizedAffinity 27.7036209
REMARK minimizedRMSD -1
REMARK  0 active torsions:
REMARK  status: ('A' for Active; 'I' for Inactive)
ROOT
ATOM      1  C   UNL d   1       3.729   2.286   2.428  0.00  0.00     0.124 A 
ATOM      2  C1  UNL d   1       4.879   1.906   1.751  0.00  0.00     0.062 A 
ATOM      3  C2  UNL d   1       4.874   1.805   0.363  0.00  0.00     0.162 A 
ATOM      4  C3  UNL d   1       3.714   2.087  -0.359  0.00  0.00    -0.034 A 
ATOM      5  C4  UNL d   1       2.560   2.468   0.329  0.00  0.00     0.162 A 
ATOM      6  C5  UNL d   1       2.571   2.567   1.717  0.00  0.00     0.062 A 
ATOM      7  F   UNL d   1       1.458   2.935   2.369  0.00  0.00    -0.097 F 
ATOM      8  F1  UNL d   1       1.427   2.746  -0.333  0.00  0.00    -0.096 F 
ATOM      9  I   UNL d   1       3.701   1.938  -2.434  0.00  0.00    -0.060 I 
ATOM     10  F2  UNL d   1       6.000   1.436  -0.265  0.00  0.00    -0.096 F 
ATOM     11  F3  UNL d   1       5.999   1.633   2.436  0.00  0.00    -0.097 F 
ATOM     12  F4  UNL d   1       3.737   2.381   3.764  0.00  0.00    -0.092 F 
ENDROOT
TORSDOF 0
ENDMDL
