MODEL 1
REMARK minimizedAffinity -5.28417349
REMARK minimizedRMSD -1
REMARK  1 active torsions:
REMARK  status: ('A' for Active; 'I' for Inactive)
REMARK    1  A    between atoms: C1_2  and  C2_3 
ROOT
ATOM      1  C2  UNL d   1       1.783  -3.040   0.173  0.00  0.00    -0.077 A 
ATOM      2  C3  UNL d   1       2.592  -1.902   0.303  0.00  0.00     0.002 A 
ATOM      3  C4  UNL d   1       2.022  -0.659   0.585  0.00  0.00     0.002 A 
ATOM      4  C5  UNL d   1       0.643  -0.542   0.742  0.00  0.00    -0.004 A 
ATOM      5  C6  UNL d   1      -0.171  -1.668   0.613  0.00  0.00     0.002 A 
ATOM      6  C7  UNL d   1       0.397  -2.911   0.330  0.00  0.00     0.002 A 
ENDROOT
BRANCH   1   7
ATOM      7  C1  UNL d   1       2.400  -4.390  -0.081  0.00  0.00     0.055 C 
ATOM      8  C   UNL d   1       3.920  -4.318  -0.056  0.00  0.00     0.019 C 
ENDBRANCH   1   7
TORSDOF 1
ENDMDL
