MODEL 1
REMARK minimizedAffinity -1.30803514
REMARK minimizedRMSD -1
REMARK  1 active torsions:
REMARK  status: ('A' for Active; 'I' for Inactive)
REMARK    1  A    between atoms: C1_2  and  C2_3 
ROOT
ATOM      1  C2  UNL d   1      -1.350   0.134   1.334  0.00  0.00    -0.077 A 
ATOM      2  C3  UNL d   1      -2.236  -0.136   0.281  0.00  0.00     0.002 A 
ATOM      3  C4  UNL d   1      -3.317   0.711   0.034  0.00  0.00     0.002 A 
ATOM      4  C5  UNL d   1      -3.521   1.835   0.832  0.00  0.00    -0.004 A 
ATOM      5  C6  UNL d   1      -2.647   2.111   1.882  0.00  0.00     0.002 A 
ATOM      6  C7  UNL d   1      -1.566   1.265   2.132  0.00  0.00     0.002 A 
ENDROOT
BRANCH   1   7
ATOM      7  C1  UNL d   1      -0.155  -0.751   1.572  0.00  0.00     0.055 C 
ATOM      8  C   UNL d   1       0.262  -1.473   0.299  0.00  0.00     0.019 C 
ENDBRANCH   1   7
TORSDOF 1
ENDMDL
