MODEL 1
REMARK minimizedAffinity -3.00039506
REMARK minimizedRMSD -1
REMARK  1 active torsions:
REMARK  status: ('A' for Active; 'I' for Inactive)
REMARK    1  A    between atoms: C1_2  and  C2_3 
ROOT
ATOM      1  C2  UNL d   1       2.684  -3.210  -0.087  0.00  0.00    -0.077 A 
ATOM      2  C3  UNL d   1       2.648  -1.888   0.377  0.00  0.00     0.002 A 
ATOM      3  C4  UNL d   1       1.427  -1.273   0.660  0.00  0.00     0.002 A 
ATOM      4  C5  UNL d   1       0.235  -1.972   0.486  0.00  0.00    -0.004 A 
ATOM      5  C6  UNL d   1       0.260  -3.287   0.022  0.00  0.00     0.002 A 
ATOM      6  C7  UNL d   1       1.480  -3.904  -0.262  0.00  0.00     0.002 A 
ENDROOT
BRANCH   1   7
ATOM      7  C1  UNL d   1       4.002  -3.892  -0.346  0.00  0.00     0.055 C 
ATOM      8  C   UNL d   1       4.064  -5.253   0.332  0.00  0.00     0.019 C 
ENDBRANCH   1   7
TORSDOF 1
ENDMDL
