MODEL 1
REMARK minimizedAffinity -0.669554353
REMARK minimizedRMSD -1
REMARK  1 active torsions:
REMARK  status: ('A' for Active; 'I' for Inactive)
REMARK    1  A    between atoms: C1_2  and  C2_3 
ROOT
ATOM      1  C2  UNL d   1       1.582  -2.752   1.015  0.00  0.00    -0.077 A 
ATOM      2  C3  UNL d   1       0.197  -2.547   1.083  0.00  0.00     0.002 A 
ATOM      3  C4  UNL d   1      -0.329  -1.254   1.036  0.00  0.00     0.002 A 
ATOM      4  C5  UNL d   1       0.523  -0.158   0.917  0.00  0.00    -0.004 A 
ATOM      5  C6  UNL d   1       1.902  -0.352   0.852  0.00  0.00     0.002 A 
ATOM      6  C7  UNL d   1       2.429  -1.643   0.899  0.00  0.00     0.002 A 
ENDROOT
BRANCH   1   7
ATOM      7  C1  UNL d   1       2.148  -4.149   1.016  0.00  0.00     0.055 C 
ATOM      8  C   UNL d   1       3.574  -4.168   0.486  0.00  0.00     0.019 C 
ENDBRANCH   1   7
TORSDOF 1
ENDMDL
