MODEL 1
REMARK minimizedAffinity -0.806800723
REMARK minimizedRMSD -1
REMARK  1 active torsions:
REMARK  status: ('A' for Active; 'I' for Inactive)
REMARK    1  A    between atoms: C1_2  and  C2_3 
ROOT
ATOM      1  C2  UNL d   1       1.237  -0.999   0.712  0.00  0.00    -0.077 A 
ATOM      2  C3  UNL d   1       1.807  -2.246   0.418  0.00  0.00     0.002 A 
ATOM      3  C4  UNL d   1       1.000  -3.377   0.281  0.00  0.00     0.002 A 
ATOM      4  C5  UNL d   1      -0.381  -3.272   0.431  0.00  0.00    -0.004 A 
ATOM      5  C6  UNL d   1      -0.958  -2.037   0.724  0.00  0.00     0.002 A 
ATOM      6  C7  UNL d   1      -0.153  -0.906   0.863  0.00  0.00     0.002 A 
ENDROOT
BRANCH   1   7
ATOM      7  C1  UNL d   1       2.100   0.231   0.812  0.00  0.00     0.055 C 
ATOM      8  C   UNL d   1       3.221   0.040   1.824  0.00  0.00     0.019 C 
ENDBRANCH   1   7
TORSDOF 1
ENDMDL
