MODEL 1
REMARK minimizedAffinity -3.4812007
REMARK minimizedRMSD -1
REMARK  1 active torsions:
REMARK  status: ('A' for Active; 'I' for Inactive)
REMARK    1  A    between atoms: C1_2  and  C2_3 
ROOT
ATOM      1  C2  UNL d   1       1.507  -0.709   0.189  0.00  0.00    -0.077 A 
ATOM      2  C3  UNL d   1       2.549  -1.626  -0.007  0.00  0.00     0.002 A 
ATOM      3  C4  UNL d   1       2.286  -2.997  -0.036  0.00  0.00     0.002 A 
ATOM      4  C5  UNL d   1       0.983  -3.463   0.126  0.00  0.00    -0.004 A 
ATOM      5  C6  UNL d   1      -0.060  -2.558   0.323  0.00  0.00     0.002 A 
ATOM      6  C7  UNL d   1       0.201  -1.188   0.354  0.00  0.00     0.002 A 
ENDROOT
BRANCH   1   7
ATOM      7  C1  UNL d   1       1.780   0.772   0.171  0.00  0.00     0.055 C 
ATOM      8  C   UNL d   1       2.348   1.215  -1.170  0.00  0.00     0.019 C 
ENDBRANCH   1   7
TORSDOF 1
ENDMDL
