MODEL 1
REMARK minimizedAffinity -5.05891418
REMARK minimizedRMSD -1
REMARK  1 active torsions:
REMARK  status: ('A' for Active; 'I' for Inactive)
REMARK    1  A    between atoms: C1_2  and  C2_3 
ROOT
ATOM      1  C2  UNL d   1       2.594  -3.458  -0.142  0.00  0.00    -0.077 A 
ATOM      2  C3  UNL d   1       1.257  -3.757  -0.437  0.00  0.00     0.002 A 
ATOM      3  C4  UNL d   1       0.272  -2.774  -0.324  0.00  0.00     0.002 A 
ATOM      4  C5  UNL d   1       0.614  -1.485   0.080  0.00  0.00    -0.004 A 
ATOM      5  C6  UNL d   1       1.941  -1.178   0.377  0.00  0.00     0.002 A 
ATOM      6  C7  UNL d   1       2.927  -2.159   0.266  0.00  0.00     0.002 A 
ENDROOT
BRANCH   1   7
ATOM      7  C1  UNL d   1       3.666  -4.503  -0.311  0.00  0.00     0.055 C 
ATOM      8  C   UNL d   1       3.618  -5.531   0.810  0.00  0.00     0.019 C 
ENDBRANCH   1   7
TORSDOF 1
ENDMDL
