MODEL 1
REMARK minimizedAffinity -2.86883473
REMARK minimizedRMSD -1
REMARK  1 active torsions:
REMARK  status: ('A' for Active; 'I' for Inactive)
REMARK    1  A    between atoms: C1_2  and  C2_3 
ROOT
ATOM      1  C2  UNL d   1       0.657  -1.285   1.118  0.00  0.00    -0.077 A 
ATOM      2  C3  UNL d   1       0.694  -2.614   1.563  0.00  0.00     0.002 A 
ATOM      3  C4  UNL d   1       1.466  -3.562   0.888  0.00  0.00     0.002 A 
ATOM      4  C5  UNL d   1       2.208  -3.191  -0.231  0.00  0.00    -0.004 A 
ATOM      5  C6  UNL d   1       2.175  -1.873  -0.682  0.00  0.00     0.002 A 
ATOM      6  C7  UNL d   1       1.404  -0.923  -0.010  0.00  0.00     0.002 A 
ENDROOT
BRANCH   1   7
ATOM      7  C1  UNL d   1      -0.136  -0.250   1.872  0.00  0.00     0.055 C 
ATOM      8  C   UNL d   1      -1.606  -0.284   1.481  0.00  0.00     0.019 C 
ENDBRANCH   1   7
TORSDOF 1
ENDMDL
