MODEL 1
REMARK minimizedAffinity -5.65667582
REMARK minimizedRMSD -1
REMARK  1 active torsions:
REMARK  status: ('A' for Active; 'I' for Inactive)
REMARK    1  A    between atoms: C1_2  and  C2_3 
ROOT
ATOM      1  C2  UNL d   1       2.428  -2.352   0.232  0.00  0.00    -0.077 A 
ATOM      2  C3  UNL d   1       2.227  -0.967   0.324  0.00  0.00     0.002 A 
ATOM      3  C4  UNL d   1       0.999  -0.459   0.750  0.00  0.00     0.002 A 
ATOM      4  C5  UNL d   1      -0.036  -1.327   1.092  0.00  0.00    -0.004 A 
ATOM      5  C6  UNL d   1       0.154  -2.705   1.002  0.00  0.00     0.002 A 
ATOM      6  C7  UNL d   1       1.380  -3.215   0.575  0.00  0.00     0.002 A 
ENDROOT
BRANCH   1   7
ATOM      7  C1  UNL d   1       3.768  -2.903  -0.180  0.00  0.00     0.055 C 
ATOM      8  C   UNL d   1       3.787  -4.423  -0.108  0.00  0.00     0.019 C 
ENDBRANCH   1   7
TORSDOF 1
ENDMDL
