MODEL 1
REMARK minimizedAffinity -4.52907753
REMARK minimizedRMSD -1
REMARK  1 active torsions:
REMARK  status: ('A' for Active; 'I' for Inactive)
REMARK    1  A    between atoms: C1_2  and  C2_3 
ROOT
ATOM      1  C2  UNL d   1       0.831  -1.249   0.641  0.00  0.00    -0.077 A 
ATOM      2  C3  UNL d   1       0.482  -2.593   0.447  0.00  0.00     0.002 A 
ATOM      3  C4  UNL d   1       1.439  -3.516   0.022  0.00  0.00     0.002 A 
ATOM      4  C5  UNL d   1       2.751  -3.107  -0.208  0.00  0.00    -0.004 A 
ATOM      5  C6  UNL d   1       3.107  -1.772  -0.019  0.00  0.00     0.002 A 
ATOM      6  C7  UNL d   1       2.151  -0.847   0.405  0.00  0.00     0.002 A 
ENDROOT
BRANCH   1   7
ATOM      7  C1  UNL d   1      -0.189  -0.261   1.147  0.00  0.00     0.055 C 
ATOM      8  C   UNL d   1      -1.597  -0.653   0.723  0.00  0.00     0.019 C 
ENDBRANCH   1   7
TORSDOF 1
ENDMDL
