MODEL 1
REMARK minimizedAffinity 0.291842699
REMARK minimizedRMSD -1
REMARK  1 active torsions:
REMARK  status: ('A' for Active; 'I' for Inactive)
REMARK    1  A    between atoms: C1_2  and  C2_3 
ROOT
ATOM      1  C2  UNL d   1       0.913  -2.805   0.286  0.00  0.00    -0.077 A 
ATOM      2  C3  UNL d   1       1.753  -1.963   1.028  0.00  0.00     0.002 A 
ATOM      3  C4  UNL d   1       1.274  -0.751   1.529  0.00  0.00     0.002 A 
ATOM      4  C5  UNL d   1      -0.047  -0.373   1.296  0.00  0.00    -0.004 A 
ATOM      5  C6  UNL d   1      -0.889  -1.202   0.556  0.00  0.00     0.002 A 
ATOM      6  C7  UNL d   1      -0.411  -2.413   0.054  0.00  0.00     0.002 A 
ENDROOT
BRANCH   1   7
ATOM      7  C1  UNL d   1       1.414  -4.136  -0.213  0.00  0.00     0.055 C 
ATOM      8  C   UNL d   1       2.770  -4.477   0.387  0.00  0.00     0.019 C 
ENDBRANCH   1   7
TORSDOF 1
ENDMDL
