MODEL 1
REMARK minimizedAffinity -1.469414
REMARK minimizedRMSD -1
REMARK  1 active torsions:
REMARK  status: ('A' for Active; 'I' for Inactive)
REMARK    1  A    between atoms: C1_2  and  C2_3 
ROOT
ATOM      1  C2  UNL d   1       2.017  -2.674  -0.044  0.00  0.00    -0.077 A 
ATOM      2  C3  UNL d   1       2.587  -1.571   0.607  0.00  0.00     0.002 A 
ATOM      3  C4  UNL d   1       1.775  -0.619   1.226  0.00  0.00     0.002 A 
ATOM      4  C5  UNL d   1       0.389  -0.763   1.204  0.00  0.00    -0.004 A 
ATOM      5  C6  UNL d   1      -0.187  -1.855   0.557  0.00  0.00     0.002 A 
ATOM      6  C7  UNL d   1       0.623  -2.807  -0.063  0.00  0.00     0.002 A 
ENDROOT
BRANCH   1   7
ATOM      7  C1  UNL d   1       2.893  -3.727  -0.670  0.00  0.00     0.055 C 
ATOM      8  C   UNL d   1       3.622  -4.542   0.389  0.00  0.00     0.019 C 
ENDBRANCH   1   7
TORSDOF 1
ENDMDL
