MODEL 1
REMARK minimizedAffinity -3.95369911
REMARK minimizedRMSD -1
REMARK  1 active torsions:
REMARK  status: ('A' for Active; 'I' for Inactive)
REMARK    1  A    between atoms: C1_2  and  C2_3 
ROOT
ATOM      1  C2  UNL d   1       2.158  -2.347   0.321  0.00  0.00    -0.077 A 
ATOM      2  C3  UNL d   1       2.011  -0.959   0.447  0.00  0.00     0.002 A 
ATOM      3  C4  UNL d   1       0.768  -0.405   0.758  0.00  0.00     0.002 A 
ATOM      4  C5  UNL d   1      -0.337  -1.233   0.951  0.00  0.00    -0.004 A 
ATOM      5  C6  UNL d   1      -0.201  -2.615   0.826  0.00  0.00     0.002 A 
ATOM      6  C7  UNL d   1       1.040  -3.170   0.514  0.00  0.00     0.002 A 
ENDROOT
BRANCH   1   7
ATOM      7  C1  UNL d   1       3.509  -2.949   0.034  0.00  0.00     0.055 C 
ATOM      8  C   UNL d   1       3.444  -4.470   0.016  0.00  0.00     0.019 C 
ENDBRANCH   1   7
TORSDOF 1
ENDMDL
