MODEL 1
REMARK minimizedAffinity -3.21325898
REMARK minimizedRMSD -1
REMARK  1 active torsions:
REMARK  status: ('A' for Active; 'I' for Inactive)
REMARK    1  A    between atoms: C1_2  and  C2_3 
ROOT
ATOM      1  C2  UNL d   1       1.066  -2.991   0.246  0.00  0.00    -0.077 A 
ATOM      2  C3  UNL d   1       1.681  -1.793  -0.144  0.00  0.00     0.002 A 
ATOM      3  C4  UNL d   1       1.131  -0.564   0.225  0.00  0.00     0.002 A 
ATOM      4  C5  UNL d   1      -0.033  -0.521   0.990  0.00  0.00    -0.004 A 
ATOM      5  C6  UNL d   1      -0.653  -1.707   1.381  0.00  0.00     0.002 A 
ATOM      6  C7  UNL d   1      -0.105  -2.936   1.011  0.00  0.00     0.002 A 
ENDROOT
BRANCH   1   7
ATOM      7  C1  UNL d   1       1.685  -4.317  -0.110  0.00  0.00     0.055 C 
ATOM      8  C   UNL d   1       3.199  -4.279   0.036  0.00  0.00     0.019 C 
ENDBRANCH   1   7
TORSDOF 1
ENDMDL
