MODEL 1
REMARK minimizedAffinity -4.92062569
REMARK minimizedRMSD -1
REMARK  0 active torsions:
REMARK  status: ('A' for Active; 'I' for Inactive)
ROOT
ATOM      1  C   UNL d   1       4.275   4.079  -0.625  0.00  0.00     0.077 C 
ATOM      2  C1  UNL d   1       2.909   3.539  -0.318  0.00  0.00    -0.074 A 
ATOM      3  C2  UNL d   1       1.911   4.366   0.206  0.00  0.00    -0.005 A 
ATOM      4  C3  UNL d   1       0.643   3.852   0.477  0.00  0.00     0.006 A 
ATOM      5  C4  UNL d   1       0.361   2.508   0.228  0.00  0.00    -0.005 A 
ATOM      6  C5  UNL d   1       1.347   1.666  -0.297  0.00  0.00    -0.074 A 
ATOM      7  C6  UNL d   1       1.058   0.222  -0.580  0.00  0.00     0.077 C 
ATOM      8  C7  UNL d   1       2.616   2.192  -0.573  0.00  0.00    -0.001 A 
ENDROOT
TORSDOF 0
ENDMDL
