MODEL 1
REMARK minimizedAffinity -2.92171621
REMARK minimizedRMSD -1
REMARK  0 active torsions:
REMARK  status: ('A' for Active; 'I' for Inactive)
ROOT
ATOM      1  C   UNL d   1      -0.609   1.502  -1.309  0.00  0.00     0.077 C 
ATOM      2  C1  UNL d   1      -0.592   0.517  -0.179  0.00  0.00    -0.074 A 
ATOM      3  C2  UNL d   1      -1.496   0.625   0.882  0.00  0.00    -0.005 A 
ATOM      4  C3  UNL d   1      -1.475  -0.305   1.922  0.00  0.00     0.006 A 
ATOM      5  C4  UNL d   1      -0.550  -1.350   1.911  0.00  0.00    -0.005 A 
ATOM      6  C5  UNL d   1       0.362  -1.474   0.858  0.00  0.00    -0.074 A 
ATOM      7  C6  UNL d   1       1.355  -2.597   0.825  0.00  0.00     0.077 C 
ATOM      8  C7  UNL d   1       0.329  -0.540  -0.187  0.00  0.00    -0.001 A 
ENDROOT
TORSDOF 0
ENDMDL
