MODEL 1
REMARK minimizedAffinity -3.71535683
REMARK minimizedRMSD -1
REMARK  0 active torsions:
REMARK  status: ('A' for Active; 'I' for Inactive)
ROOT
ATOM      1  C   UNL d   1      -0.488   4.547  -4.767  0.00  0.00     0.077 C 
ATOM      2  C1  UNL d   1      -0.748   3.648  -3.595  0.00  0.00    -0.074 A 
ATOM      3  C2  UNL d   1      -1.629   2.566  -3.701  0.00  0.00    -0.005 A 
ATOM      4  C3  UNL d   1      -1.853   1.733  -2.605  0.00  0.00     0.006 A 
ATOM      5  C4  UNL d   1      -1.201   1.972  -1.395  0.00  0.00    -0.005 A 
ATOM      6  C5  UNL d   1      -0.317   3.048  -1.271  0.00  0.00    -0.074 A 
ATOM      7  C6  UNL d   1       0.400   3.314   0.020  0.00  0.00     0.077 C 
ATOM      8  C7  UNL d   1      -0.091   3.877  -2.378  0.00  0.00    -0.001 A 
ENDROOT
TORSDOF 0
ENDMDL
