MODEL 1
REMARK minimizedAffinity 5.19052267
REMARK minimizedRMSD -1
REMARK  0 active torsions:
REMARK  status: ('A' for Active; 'I' for Inactive)
ROOT
ATOM      1  C   UNL d   1       0.293   0.781  -0.545  0.00  0.00     0.077 C 
ATOM      2  C1  UNL d   1       1.214   1.918  -0.216  0.00  0.00    -0.074 A 
ATOM      3  C2  UNL d   1       0.710   3.146   0.225  0.00  0.00    -0.005 A 
ATOM      4  C3  UNL d   1       1.580   4.192   0.536  0.00  0.00     0.006 A 
ATOM      5  C4  UNL d   1       2.959   4.020   0.409  0.00  0.00    -0.005 A 
ATOM      6  C5  UNL d   1       3.480   2.799  -0.030  0.00  0.00    -0.074 A 
ATOM      7  C6  UNL d   1       4.960   2.595  -0.162  0.00  0.00     0.077 C 
ATOM      8  C7  UNL d   1       2.601   1.751  -0.333  0.00  0.00    -0.001 A 
ENDROOT
TORSDOF 0
ENDMDL
