MODEL 1
REMARK minimizedAffinity -1.07864165
REMARK minimizedRMSD -1
REMARK  0 active torsions:
REMARK  status: ('A' for Active; 'I' for Inactive)
ROOT
ATOM      1  C   UNL d   1       1.130  -2.858   0.595  0.00  0.00     0.077 C 
ATOM      2  C1  UNL d   1       0.158  -1.721   0.708  0.00  0.00    -0.074 A 
ATOM      3  C2  UNL d   1      -0.785  -1.682   1.740  0.00  0.00    -0.005 A 
ATOM      4  C3  UNL d   1      -1.677  -0.613   1.838  0.00  0.00     0.006 A 
ATOM      5  C4  UNL d   1      -1.634   0.425   0.906  0.00  0.00    -0.005 A 
ATOM      6  C5  UNL d   1      -0.697   0.403  -0.132  0.00  0.00    -0.074 A 
ATOM      7  C6  UNL d   1      -0.631   1.515  -1.136  0.00  0.00     0.077 C 
ATOM      8  C7  UNL d   1       0.200  -0.671  -0.219  0.00  0.00    -0.001 A 
ENDROOT
TORSDOF 0
ENDMDL
