MODEL 1
REMARK minimizedAffinity -2.79592228
REMARK minimizedRMSD -1
REMARK  0 active torsions:
REMARK  status: ('A' for Active; 'I' for Inactive)
ROOT
ATOM      1  C   UNL d   1      -3.196   0.749  -3.284  0.00  0.00     0.077 C 
ATOM      2  C1  UNL d   1      -2.239   1.904  -3.278  0.00  0.00    -0.074 A 
ATOM      3  C2  UNL d   1      -2.153   2.772  -4.371  0.00  0.00    -0.005 A 
ATOM      4  C3  UNL d   1      -1.266   3.847  -4.347  0.00  0.00     0.006 A 
ATOM      5  C4  UNL d   1      -0.456   4.066  -3.232  0.00  0.00    -0.005 A 
ATOM      6  C5  UNL d   1      -0.529   3.209  -2.129  0.00  0.00    -0.074 A 
ATOM      7  C6  UNL d   1       0.326   3.435  -0.918  0.00  0.00     0.077 C 
ATOM      8  C7  UNL d   1      -1.429   2.134  -2.158  0.00  0.00    -0.001 A 
ENDROOT
TORSDOF 0
ENDMDL
