MODEL 1
REMARK minimizedAffinity -4.54561853
REMARK minimizedRMSD -1
REMARK  0 active torsions:
REMARK  status: ('A' for Active; 'I' for Inactive)
ROOT
ATOM      1  C   UNL d   1       0.316   4.246  -0.146  0.00  0.00     0.077 C 
ATOM      2  C1  UNL d   1      -0.412   3.578  -1.275  0.00  0.00    -0.074 A 
ATOM      3  C2  UNL d   1      -0.230   4.000  -2.596  0.00  0.00    -0.005 A 
ATOM      4  C3  UNL d   1      -0.906   3.363  -3.637  0.00  0.00     0.006 A 
ATOM      5  C4  UNL d   1      -1.769   2.300  -3.368  0.00  0.00    -0.005 A 
ATOM      6  C5  UNL d   1      -1.962   1.864  -2.053  0.00  0.00    -0.074 A 
ATOM      7  C6  UNL d   1      -2.878   0.716  -1.748  0.00  0.00     0.077 C 
ATOM      8  C7  UNL d   1      -1.274   2.504  -1.014  0.00  0.00    -0.001 A 
ENDROOT
TORSDOF 0
ENDMDL
