MODEL 1
REMARK minimizedAffinity -2.47729015
REMARK minimizedRMSD -1
REMARK  0 active torsions:
REMARK  status: ('A' for Active; 'I' for Inactive)
ROOT
ATOM      1  C   UNL d   1       0.009   3.351  -0.233  0.00  0.00     0.077 C 
ATOM      2  C1  UNL d   1      -0.702   2.969  -1.497  0.00  0.00    -0.074 A 
ATOM      3  C2  UNL d   1      -1.568   1.871  -1.531  0.00  0.00    -0.005 A 
ATOM      4  C3  UNL d   1      -2.229   1.534  -2.712  0.00  0.00     0.006 A 
ATOM      5  C4  UNL d   1      -2.031   2.288  -3.869  0.00  0.00    -0.005 A 
ATOM      6  C5  UNL d   1      -1.169   3.389  -3.854  0.00  0.00    -0.074 A 
ATOM      7  C6  UNL d   1      -0.953   4.217  -5.086  0.00  0.00     0.077 C 
ATOM      8  C7  UNL d   1      -0.514   3.727  -2.662  0.00  0.00    -0.001 A 
ENDROOT
TORSDOF 0
ENDMDL
