MODEL 1
REMARK minimizedAffinity -2.48960805
REMARK minimizedRMSD -1
REMARK  0 active torsions:
REMARK  status: ('A' for Active; 'I' for Inactive)
ROOT
ATOM      1  C   UNL d   1       1.380  -3.050   1.494  0.00  0.00     0.077 C 
ATOM      2  C1  UNL d   1       0.994  -1.761   0.832  0.00  0.00    -0.074 A 
ATOM      3  C2  UNL d   1      -0.348  -1.379   0.730  0.00  0.00    -0.005 A 
ATOM      4  C3  UNL d   1      -0.691  -0.172   0.121  0.00  0.00     0.006 A 
ATOM      5  C4  UNL d   1       0.302   0.663  -0.393  0.00  0.00    -0.005 A 
ATOM      6  C5  UNL d   1       1.649   0.298  -0.300  0.00  0.00    -0.074 A 
ATOM      7  C6  UNL d   1       2.729   1.188  -0.838  0.00  0.00     0.077 C 
ATOM      8  C7  UNL d   1       1.986  -0.913   0.320  0.00  0.00    -0.001 A 
ENDROOT
TORSDOF 0
ENDMDL
