MODEL 1
REMARK minimizedAffinity -4.00423479
REMARK minimizedRMSD -1
REMARK  0 active torsions:
REMARK  status: ('A' for Active; 'I' for Inactive)
ROOT
ATOM      1  C   UNL d   1       2.706   3.830   0.277  0.00  0.00     0.077 C 
ATOM      2  C1  UNL d   1       1.554   2.950  -0.105  0.00  0.00    -0.074 A 
ATOM      3  C2  UNL d   1       0.372   3.495  -0.618  0.00  0.00    -0.005 A 
ATOM      4  C3  UNL d   1      -0.688   2.663  -0.978  0.00  0.00     0.006 A 
ATOM      5  C4  UNL d   1      -0.578   1.280  -0.828  0.00  0.00    -0.005 A 
ATOM      6  C5  UNL d   1       0.596   0.717  -0.318  0.00  0.00    -0.074 A 
ATOM      7  C6  UNL d   1       0.735  -0.768  -0.160  0.00  0.00     0.077 C 
ATOM      8  C7  UNL d   1       1.660   1.559   0.035  0.00  0.00    -0.001 A 
ENDROOT
TORSDOF 0
ENDMDL
