MODEL 1
REMARK minimizedAffinity -3.25729036
REMARK minimizedRMSD -1
REMARK  0 active torsions:
REMARK  status: ('A' for Active; 'I' for Inactive)
ROOT
ATOM      1  C   UNL d   1      -0.710   0.932  -1.800  0.00  0.00     0.077 C 
ATOM      2  C1  UNL d   1      -0.644   0.215  -0.485  0.00  0.00    -0.074 A 
ATOM      3  C2  UNL d   1      -1.384   0.660   0.615  0.00  0.00    -0.005 A 
ATOM      4  C3  UNL d   1      -1.320  -0.023   1.829  0.00  0.00     0.006 A 
ATOM      5  C4  UNL d   1      -0.516  -1.157   1.956  0.00  0.00    -0.005 A 
ATOM      6  C5  UNL d   1       0.231  -1.617   0.867  0.00  0.00    -0.074 A 
ATOM      7  C6  UNL d   1       1.093  -2.839   0.983  0.00  0.00     0.077 C 
ATOM      8  C7  UNL d   1       0.156  -0.929  -0.352  0.00  0.00    -0.001 A 
ENDROOT
TORSDOF 0
ENDMDL
