MODEL 1
REMARK minimizedAffinity -4.1367588
REMARK minimizedRMSD -1
REMARK  0 active torsions:
REMARK  status: ('A' for Active; 'I' for Inactive)
ROOT
ATOM      1  C   UNL d   1       1.907  -2.911   1.462  0.00  0.00     0.077 C 
ATOM      2  C1  UNL d   1       1.048  -1.788   0.962  0.00  0.00    -0.074 A 
ATOM      3  C2  UNL d   1       1.381  -1.092  -0.204  0.00  0.00    -0.005 A 
ATOM      4  C3  UNL d   1       0.567  -0.057  -0.662  0.00  0.00     0.006 A 
ATOM      5  C4  UNL d   1      -0.587   0.293   0.040  0.00  0.00    -0.005 A 
ATOM      6  C5  UNL d   1      -0.937  -0.392   1.208  0.00  0.00    -0.074 A 
ATOM      7  C6  UNL d   1      -2.178  -0.035   1.970  0.00  0.00     0.077 C 
ATOM      8  C7  UNL d   1      -0.117  -1.436   1.658  0.00  0.00    -0.001 A 
ENDROOT
TORSDOF 0
ENDMDL
