MODEL 1
REMARK minimizedAffinity -5.47383118
REMARK minimizedRMSD -1
REMARK  0 active torsions:
REMARK  status: ('A' for Active; 'I' for Inactive)
ROOT
ATOM      1  C   UNL d   1       0.191   4.115  -1.346  0.00  0.00     0.077 C 
ATOM      2  C1  UNL d   1      -0.728   3.740  -2.470  0.00  0.00    -0.074 A 
ATOM      3  C2  UNL d   1      -0.475   4.164  -3.778  0.00  0.00    -0.005 A 
ATOM      4  C3  UNL d   1      -1.334   3.799  -4.815  0.00  0.00     0.006 A 
ATOM      5  C4  UNL d   1      -2.453   3.007  -4.554  0.00  0.00    -0.005 A 
ATOM      6  C5  UNL d   1      -2.722   2.572  -3.252  0.00  0.00    -0.074 A 
ATOM      7  C6  UNL d   1      -3.915   1.713  -2.957  0.00  0.00     0.077 C 
ATOM      8  C7  UNL d   1      -1.850   2.938  -2.217  0.00  0.00    -0.001 A 
ENDROOT
TORSDOF 0
ENDMDL
