MODEL 1
REMARK minimizedAffinity -4.20146418
REMARK minimizedRMSD -1
REMARK  0 active torsions:
REMARK  status: ('A' for Active; 'I' for Inactive)
ROOT
ATOM      1  C   UNL d   1       1.009  -2.743   0.335  0.00  0.00     0.077 C 
ATOM      2  C1  UNL d   1       0.775  -1.263   0.274  0.00  0.00    -0.074 A 
ATOM      3  C2  UNL d   1      -0.513  -0.732   0.404  0.00  0.00    -0.005 A 
ATOM      4  C3  UNL d   1      -0.713   0.647   0.355  0.00  0.00     0.006 A 
ATOM      5  C4  UNL d   1       0.370   1.509   0.175  0.00  0.00    -0.005 A 
ATOM      6  C5  UNL d   1       1.664   0.996   0.044  0.00  0.00    -0.074 A 
ATOM      7  C6  UNL d   1       2.840   1.909  -0.140  0.00  0.00     0.077 C 
ATOM      8  C7  UNL d   1       1.859  -0.390   0.101  0.00  0.00    -0.001 A 
ENDROOT
TORSDOF 0
ENDMDL
