MODEL 1
REMARK minimizedAffinity -5.05745411
REMARK minimizedRMSD -1
REMARK  0 active torsions:
REMARK  status: ('A' for Active; 'I' for Inactive)
ROOT
ATOM      1  C   UNL d   1      -1.125   0.751   0.198  0.00  0.00     0.077 C 
ATOM      2  C1  UNL d   1       0.160  -0.023   0.178  0.00  0.00    -0.074 A 
ATOM      3  C2  UNL d   1       1.321   0.527  -0.375  0.00  0.00    -0.005 A 
ATOM      4  C3  UNL d   1       2.511  -0.201  -0.378  0.00  0.00     0.006 A 
ATOM      5  C4  UNL d   1       2.552  -1.482   0.172  0.00  0.00    -0.005 A 
ATOM      6  C5  UNL d   1       1.402  -2.048   0.731  0.00  0.00    -0.074 A 
ATOM      7  C6  UNL d   1       1.431  -3.420   1.335  0.00  0.00     0.077 C 
ATOM      8  C7  UNL d   1       0.211  -1.308   0.736  0.00  0.00    -0.001 A 
ENDROOT
TORSDOF 0
ENDMDL
