MODEL 1
REMARK minimizedAffinity -5.2998929
REMARK minimizedRMSD -1
REMARK  0 active torsions:
REMARK  status: ('A' for Active; 'I' for Inactive)
ROOT
ATOM      1  C   UNL d   1       3.209   3.390  -0.061  0.00  0.00     0.077 C 
ATOM      2  C1  UNL d   1       2.041   2.450  -0.096  0.00  0.00    -0.074 A 
ATOM      3  C2  UNL d   1       0.729   2.935  -0.105  0.00  0.00    -0.005 A 
ATOM      4  C3  UNL d   1      -0.347   2.049  -0.147  0.00  0.00     0.006 A 
ATOM      5  C4  UNL d   1      -0.123   0.672  -0.180  0.00  0.00    -0.005 A 
ATOM      6  C5  UNL d   1       1.182   0.169  -0.173  0.00  0.00    -0.074 A 
ATOM      7  C6  UNL d   1       1.440  -1.308  -0.219  0.00  0.00     0.077 C 
ATOM      8  C7  UNL d   1       2.258   1.066  -0.138  0.00  0.00    -0.001 A 
ENDROOT
TORSDOF 0
ENDMDL
