MODEL 1
REMARK minimizedAffinity 13.5174322
REMARK minimizedRMSD -1
REMARK  0 active torsions:
REMARK  status: ('A' for Active; 'I' for Inactive)
ROOT
ATOM      1  C   UNL d   1      -3.022   0.671   4.830  0.00  0.00     0.020 A 
ATOM      2  C1  UNL d   1      -3.713   1.180   3.731  0.00  0.00     0.020 A 
ATOM      3  C2  UNL d   1      -4.480   0.328   2.933  0.00  0.00     0.034 A 
ATOM      4  C3  UNL d   1      -4.557  -1.037   3.232  0.00  0.00     0.017 A 
ATOM      5  C4  UNL d   1      -3.863  -1.547   4.335  0.00  0.00     0.017 A 
ATOM      6  C5  UNL d   1      -3.097  -0.690   5.131  0.00  0.00     0.034 A 
ATOM      7 Cl   UNL d   1      -3.910  -3.220   4.767  0.00  0.00    -0.070 Cl
ATOM      8 Cl1  UNL d   1      -5.524  -2.032   2.201  0.00  0.00    -0.070 Cl
ENDROOT
TORSDOF 0
ENDMDL
