MODEL 1
REMARK minimizedAffinity 9.46396065
REMARK minimizedRMSD -1
REMARK  0 active torsions:
REMARK  status: ('A' for Active; 'I' for Inactive)
ROOT
ATOM      1  C   UNL d   1      -3.837   1.106   3.784  0.00  0.00     0.020 A 
ATOM      2  C1  UNL d   1      -3.471   0.712   5.071  0.00  0.00     0.020 A 
ATOM      3  C2  UNL d   1      -3.515  -0.638   5.426  0.00  0.00     0.034 A 
ATOM      4  C3  UNL d   1      -3.926  -1.598   4.494  0.00  0.00     0.017 A 
ATOM      5  C4  UNL d   1      -4.293  -1.201   3.203  0.00  0.00     0.017 A 
ATOM      6  C5  UNL d   1      -4.247   0.152   2.853  0.00  0.00     0.034 A 
ATOM      7 Cl   UNL d   1      -4.810  -2.328   1.999  0.00  0.00    -0.070 Cl
ATOM      8 Cl1  UNL d   1      -3.956  -3.249   5.002  0.00  0.00    -0.070 Cl
ENDROOT
TORSDOF 0
ENDMDL
