MODEL 1
REMARK minimizedAffinity 11.4399433
REMARK minimizedRMSD -1
REMARK  0 active torsions:
REMARK  status: ('A' for Active; 'I' for Inactive)
ROOT
ATOM      1  C   UNL d   1      -3.780   1.605   6.000  0.00  0.00     0.020 A 
ATOM      2  C1  UNL d   1      -3.743   2.615   5.040  0.00  0.00     0.020 A 
ATOM      3  C2  UNL d   1      -3.626   2.289   3.687  0.00  0.00     0.034 A 
ATOM      4  C3  UNL d   1      -3.544   0.949   3.291  0.00  0.00     0.017 A 
ATOM      5  C4  UNL d   1      -3.581  -0.064   4.255  0.00  0.00     0.017 A 
ATOM      6  C5  UNL d   1      -3.699   0.268   5.608  0.00  0.00     0.034 A 
ATOM      7 Cl   UNL d   1      -3.486  -1.740   3.843  0.00  0.00    -0.070 Cl
ATOM      8 Cl1  UNL d   1      -3.400   0.619   1.601  0.00  0.00    -0.070 Cl
ENDROOT
TORSDOF 0
ENDMDL
