MODEL 1
REMARK minimizedAffinity 12.7670507
REMARK minimizedRMSD -1
REMARK  0 active torsions:
REMARK  status: ('A' for Active; 'I' for Inactive)
ROOT
ATOM      1  C   UNL d   1       2.130   0.477  -2.055  0.00  0.00     0.020 A 
ATOM      2  C1  UNL d   1       2.818   0.230  -0.868  0.00  0.00     0.020 A 
ATOM      3  C2  UNL d   1       2.802  -1.048  -0.304  0.00  0.00     0.034 A 
ATOM      4  C3  UNL d   1       2.097  -2.083  -0.928  0.00  0.00     0.017 A 
ATOM      5  C4  UNL d   1       1.406  -1.835  -2.120  0.00  0.00     0.017 A 
ATOM      6  C5  UNL d   1       1.426  -0.553  -2.679  0.00  0.00     0.034 A 
ATOM      7 Cl   UNL d   1       0.514  -3.062  -2.947  0.00  0.00    -0.070 Cl
ATOM      8 Cl1  UNL d   1       2.121  -3.639  -0.176  0.00  0.00    -0.070 Cl
ENDROOT
TORSDOF 0
ENDMDL
