MODEL 1
REMARK minimizedAffinity 19.1191082
REMARK minimizedRMSD -1
REMARK  0 active torsions:
REMARK  status: ('A' for Active; 'I' for Inactive)
ROOT
ATOM      1  C   UNL d   1      -3.381  -2.159   5.428  0.00  0.00     0.020 A 
ATOM      2  C1  UNL d   1      -3.744  -2.265   4.086  0.00  0.00     0.020 A 
ATOM      3  C2  UNL d   1      -3.904  -1.113   3.313  0.00  0.00     0.034 A 
ATOM      4  C3  UNL d   1      -3.702   0.150   3.881  0.00  0.00     0.017 A 
ATOM      5  C4  UNL d   1      -3.339   0.256   5.228  0.00  0.00     0.017 A 
ATOM      6  C5  UNL d   1      -3.179  -0.901   5.998  0.00  0.00     0.034 A 
ATOM      7 Cl   UNL d   1      -3.072   1.779   6.000  0.00  0.00    -0.070 Cl
ATOM      8 Cl1  UNL d   1      -3.918   1.531   2.866  0.00  0.00    -0.070 Cl
ENDROOT
TORSDOF 0
ENDMDL
