MODEL 1
REMARK minimizedAffinity 20.6691284
REMARK minimizedRMSD -1
REMARK  0 active torsions:
REMARK  status: ('A' for Active; 'I' for Inactive)
ROOT
ATOM      1  C   UNL d   1      -4.616   3.401   4.857  0.00  0.00     0.020 A 
ATOM      2  C1  UNL d   1      -4.502   2.610   6.000  0.00  0.00     0.020 A 
ATOM      3  C2  UNL d   1      -3.895   1.354   5.922  0.00  0.00     0.034 A 
ATOM      4  C3  UNL d   1      -3.400   0.886   4.699  0.00  0.00     0.017 A 
ATOM      5  C4  UNL d   1      -3.515   1.681   3.553  0.00  0.00     0.017 A 
ATOM      6  C5  UNL d   1      -4.124   2.937   3.636  0.00  0.00     0.034 A 
ATOM      7 Cl   UNL d   1      -2.928   1.172   2.009  0.00  0.00    -0.070 Cl
ATOM      8 Cl1  UNL d   1      -2.661  -0.675   4.676  0.00  0.00    -0.070 Cl
ENDROOT
TORSDOF 0
ENDMDL
