MODEL 1
REMARK minimizedAffinity 13.8860493
REMARK minimizedRMSD -1
REMARK  0 active torsions:
REMARK  status: ('A' for Active; 'I' for Inactive)
ROOT
ATOM      1  C   UNL d   1      -5.622   2.997   4.821  0.00  0.00     0.020 A 
ATOM      2  C1  UNL d   1      -4.977   2.623   6.000  0.00  0.00     0.020 A 
ATOM      3  C2  UNL d   1      -4.092   1.543   6.000  0.00  0.00     0.034 A 
ATOM      4  C3  UNL d   1      -3.850   0.832   4.819  0.00  0.00     0.017 A 
ATOM      5  C4  UNL d   1      -4.497   1.208   3.636  0.00  0.00     0.017 A 
ATOM      6  C5  UNL d   1      -5.382   2.291   3.642  0.00  0.00     0.034 A 
ATOM      7 Cl   UNL d   1      -4.248   0.380   2.140  0.00  0.00    -0.070 Cl
ATOM      8 Cl1  UNL d   1      -2.743  -0.493   4.891  0.00  0.00    -0.070 Cl
ENDROOT
TORSDOF 0
ENDMDL
