MODEL 1
REMARK minimizedAffinity 6.4294734
REMARK minimizedRMSD -1
REMARK  0 active torsions:
REMARK  status: ('A' for Active; 'I' for Inactive)
ROOT
ATOM      1  C   UNL d   1       1.847  -4.375  -1.083  0.00  0.00     0.020 A 
ATOM      2  C1  UNL d   1       1.359  -4.185  -2.375  0.00  0.00     0.020 A 
ATOM      3  C2  UNL d   1       1.448  -2.929  -2.978  0.00  0.00     0.034 A 
ATOM      4  C3  UNL d   1       2.026  -1.857  -2.289  0.00  0.00     0.017 A 
ATOM      5  C4  UNL d   1       2.516  -2.048  -0.992  0.00  0.00     0.017 A 
ATOM      6  C5  UNL d   1       2.424  -3.308  -0.393  0.00  0.00     0.034 A 
ATOM      7 Cl   UNL d   1       3.243  -0.773  -0.079  0.00  0.00    -0.070 Cl
ATOM      8 Cl1  UNL d   1       2.103  -0.331  -3.096  0.00  0.00    -0.070 Cl
ENDROOT
TORSDOF 0
ENDMDL
