MODEL 1
REMARK minimizedAffinity 7.54696894
REMARK minimizedRMSD -1
REMARK  0 active torsions:
REMARK  status: ('A' for Active; 'I' for Inactive)
ROOT
ATOM      1  C   UNL d   1       2.895  -4.603  -0.473  0.00  0.00     0.020 A 
ATOM      2  C1  UNL d   1       3.451  -3.401  -0.034  0.00  0.00     0.020 A 
ATOM      3  C2  UNL d   1       3.021  -2.192  -0.584  0.00  0.00     0.034 A 
ATOM      4  C3  UNL d   1       2.033  -2.181  -1.575  0.00  0.00     0.017 A 
ATOM      5  C4  UNL d   1       1.476  -3.388  -2.014  0.00  0.00     0.017 A 
ATOM      6  C5  UNL d   1       1.910  -4.596  -1.460  0.00  0.00     0.034 A 
ATOM      7 Cl   UNL d   1       0.252  -3.454  -3.233  0.00  0.00    -0.070 Cl
ATOM      8 Cl1  UNL d   1       1.549  -0.649  -2.211  0.00  0.00    -0.070 Cl
ENDROOT
TORSDOF 0
ENDMDL
