MODEL 1
REMARK minimizedAffinity 7.62457085
REMARK minimizedRMSD -1
REMARK  0 active torsions:
REMARK  status: ('A' for Active; 'I' for Inactive)
ROOT
ATOM      1  C   UNL d   1       2.144  -0.687  -1.382  0.00  0.00     0.020 A 
ATOM      2  C1  UNL d   1       2.871  -1.253  -0.336  0.00  0.00     0.020 A 
ATOM      3  C2  UNL d   1       2.846  -2.635  -0.135  0.00  0.00     0.034 A 
ATOM      4  C3  UNL d   1       2.092  -3.456  -0.983  0.00  0.00     0.017 A 
ATOM      5  C4  UNL d   1       1.363  -2.886  -2.033  0.00  0.00     0.017 A 
ATOM      6  C5  UNL d   1       1.392  -1.502  -2.229  0.00  0.00     0.034 A 
ATOM      7 Cl   UNL d   1       0.409  -3.834  -3.120  0.00  0.00    -0.070 Cl
ATOM      8 Cl1  UNL d   1       2.107  -5.156  -0.677  0.00  0.00    -0.070 Cl
ENDROOT
TORSDOF 0
ENDMDL
