MODEL 1
REMARK minimizedAffinity 18.6123867
REMARK minimizedRMSD -1
REMARK  0 active torsions:
REMARK  status: ('A' for Active; 'I' for Inactive)
ROOT
ATOM      1  C   UNL d   1      -4.266   1.405   2.732  0.00  0.00     0.020 A 
ATOM      2  C1  UNL d   1      -4.726   1.946   3.931  0.00  0.00     0.020 A 
ATOM      3  C2  UNL d   1      -3.817   2.310   4.927  0.00  0.00     0.034 A 
ATOM      4  C3  UNL d   1      -2.444   2.134   4.725  0.00  0.00     0.017 A 
ATOM      5  C4  UNL d   1      -1.983   1.590   3.520  0.00  0.00     0.017 A 
ATOM      6  C5  UNL d   1      -2.897   1.227   2.526  0.00  0.00     0.034 A 
ATOM      7 Cl   UNL d   1      -0.303   1.342   3.197  0.00  0.00    -0.070 Cl
ATOM      8 Cl1  UNL d   1      -1.376   2.606   5.999  0.00  0.00    -0.070 Cl
ENDROOT
TORSDOF 0
ENDMDL
