MODEL 1
REMARK minimizedAffinity 12.2145815
REMARK minimizedRMSD -1
REMARK  0 active torsions:
REMARK  status: ('A' for Active; 'I' for Inactive)
ROOT
ATOM      1  C   UNL d   1       1.606  -0.429  -1.766  0.00  0.00     0.020 A 
ATOM      2  C1  UNL d   1       2.370  -0.410  -0.600  0.00  0.00     0.020 A 
ATOM      3  C2  UNL d   1       2.759  -1.609  -0.000  0.00  0.00     0.034 A 
ATOM      4  C3  UNL d   1       2.383  -2.833  -0.565  0.00  0.00     0.017 A 
ATOM      5  C4  UNL d   1       1.616  -2.852  -1.736  0.00  0.00     0.017 A 
ATOM      6  C5  UNL d   1       1.230  -1.647  -2.333  0.00  0.00     0.034 A 
ATOM      7 Cl   UNL d   1       1.114  -4.322  -2.492  0.00  0.00    -0.070 Cl
ATOM      8 Cl1  UNL d   1       2.899  -4.278   0.230  0.00  0.00    -0.070 Cl
ENDROOT
TORSDOF 0
ENDMDL
