MODEL 1
REMARK minimizedAffinity 17.7411747
REMARK minimizedRMSD -1
REMARK  0 active torsions:
REMARK  status: ('A' for Active; 'I' for Inactive)
ROOT
ATOM      1  C   UNL d   1      -3.567   1.130   3.327  0.00  0.00     0.020 A 
ATOM      2  C1  UNL d   1      -3.077   0.684   4.554  0.00  0.00     0.020 A 
ATOM      3  C2  UNL d   1      -3.358  -0.613   4.988  0.00  0.00     0.034 A 
ATOM      4  C3  UNL d   1      -4.131  -1.469   4.195  0.00  0.00     0.017 A 
ATOM      5  C4  UNL d   1      -4.622  -1.021   2.964  0.00  0.00     0.017 A 
ATOM      6  C5  UNL d   1      -4.338   0.279   2.534  0.00  0.00     0.034 A 
ATOM      7 Cl   UNL d   1      -5.583  -2.019   1.930  0.00  0.00    -0.070 Cl
ATOM      8 Cl1  UNL d   1      -4.439  -3.060   4.794  0.00  0.00    -0.070 Cl
ENDROOT
TORSDOF 0
ENDMDL
