MODEL 1
REMARK minimizedAffinity 18.6070671
REMARK minimizedRMSD -1
REMARK  0 active torsions:
REMARK  status: ('A' for Active; 'I' for Inactive)
ROOT
ATOM      1  C   UNL d   1      -4.178   0.870   3.374  0.00  0.00     0.020 A 
ATOM      2  C1  UNL d   1      -3.375   0.408   4.417  0.00  0.00     0.020 A 
ATOM      3  C2  UNL d   1      -3.374  -0.948   4.749  0.00  0.00     0.034 A 
ATOM      4  C3  UNL d   1      -4.177  -1.847   4.038  0.00  0.00     0.017 A 
ATOM      5  C4  UNL d   1      -4.982  -1.383   2.992  0.00  0.00     0.017 A 
ATOM      6  C5  UNL d   1      -4.980  -0.024   2.664  0.00  0.00     0.034 A 
ATOM      7 Cl   UNL d   1      -6.000  -2.432   2.069  0.00  0.00    -0.070 Cl
ATOM      8 Cl1  UNL d   1      -4.126  -3.511   4.503  0.00  0.00    -0.070 Cl
ENDROOT
TORSDOF 0
ENDMDL
