MODEL 1
REMARK minimizedAffinity 10.0904894
REMARK minimizedRMSD -1
REMARK  0 active torsions:
REMARK  status: ('A' for Active; 'I' for Inactive)
ROOT
ATOM      1  C   UNL d   1      -3.664   6.000  -5.192  0.00  0.00     0.020 A 
ATOM      2  C1  UNL d   1      -3.817   4.874  -5.999  0.00  0.00     0.020 A 
ATOM      3  C2  UNL d   1      -3.021   3.747  -5.784  0.00  0.00     0.034 A 
ATOM      4  C3  UNL d   1      -2.069   3.743  -4.759  0.00  0.00     0.017 A 
ATOM      5  C4  UNL d   1      -1.915   4.874  -3.949  0.00  0.00     0.017 A 
ATOM      6  C5  UNL d   1      -2.715   6.000  -4.169  0.00  0.00     0.034 A 
ATOM      7 Cl   UNL d   1      -0.761   4.944  -2.664  0.00  0.00    -0.070 Cl
ATOM      8 Cl1  UNL d   1      -1.119   2.315  -4.549  0.00  0.00    -0.070 Cl
ENDROOT
TORSDOF 0
ENDMDL
