MODEL 1
REMARK minimizedAffinity 19.089323
REMARK minimizedRMSD -1
REMARK  0 active torsions:
REMARK  status: ('A' for Active; 'I' for Inactive)
ROOT
ATOM      1  C   UNL d   1      -2.767   0.754   1.410  0.00  0.00     0.020 A 
ATOM      2  C1  UNL d   1      -2.206   0.871   2.681  0.00  0.00     0.020 A 
ATOM      3  C2  UNL d   1      -2.632   0.031   3.712  0.00  0.00     0.034 A 
ATOM      4  C3  UNL d   1      -3.622  -0.929   3.474  0.00  0.00     0.017 A 
ATOM      5  C4  UNL d   1      -4.185  -1.046   2.198  0.00  0.00     0.017 A 
ATOM      6  C5  UNL d   1      -3.755  -0.202   1.169  0.00  0.00     0.034 A 
ATOM      7 Cl   UNL d   1      -5.411  -2.206   1.828  0.00  0.00    -0.070 Cl
ATOM      8 Cl1  UNL d   1      -4.101  -1.934   4.796  0.00  0.00    -0.070 Cl
ENDROOT
TORSDOF 0
ENDMDL
