MODEL 1
REMARK minimizedAffinity 11.2322435
REMARK minimizedRMSD -1
REMARK  0 active torsions:
REMARK  status: ('A' for Active; 'I' for Inactive)
ROOT
ATOM      1  C   UNL d   1       3.488   1.480  -0.595  0.00  0.00     0.020 A 
ATOM      2  C1  UNL d   1       4.267   0.842   0.370  0.00  0.00     0.020 A 
ATOM      3  C2  UNL d   1       4.140  -0.534   0.571  0.00  0.00     0.034 A 
ATOM      4  C3  UNL d   1       3.233  -1.276  -0.194  0.00  0.00     0.017 A 
ATOM      5  C4  UNL d   1       2.452  -0.635  -1.162  0.00  0.00     0.017 A 
ATOM      6  C5  UNL d   1       2.583   0.743  -1.359  0.00  0.00     0.034 A 
ATOM      7 Cl   UNL d   1       1.311  -1.484  -2.145  0.00  0.00    -0.070 Cl
ATOM      8 Cl1  UNL d   1       3.128  -2.974   0.108  0.00  0.00    -0.070 Cl
ENDROOT
TORSDOF 0
ENDMDL
