MODEL 1
REMARK minimizedAffinity 17.1656837
REMARK minimizedRMSD -1
REMARK  0 active torsions:
REMARK  status: ('A' for Active; 'I' for Inactive)
ROOT
ATOM      1  C   UNL d   1      -5.836  -3.278   4.198  0.00  0.00     0.020 A 
ATOM      2  C1  UNL d   1      -5.999  -2.789   2.903  0.00  0.00     0.020 A 
ATOM      3  C2  UNL d   1      -5.352  -1.614   2.513  0.00  0.00     0.034 A 
ATOM      4  C3  UNL d   1      -4.539  -0.924   3.420  0.00  0.00     0.017 A 
ATOM      5  C4  UNL d   1      -4.376  -1.416   4.720  0.00  0.00     0.017 A 
ATOM      6  C5  UNL d   1      -5.026  -2.592   5.105  0.00  0.00     0.034 A 
ATOM      7 Cl   UNL d   1      -3.389  -0.620   5.894  0.00  0.00    -0.070 Cl
ATOM      8 Cl1  UNL d   1      -3.770   0.522   2.869  0.00  0.00    -0.070 Cl
ENDROOT
TORSDOF 0
ENDMDL
