MODEL 1
REMARK minimizedAffinity 18.7632637
REMARK minimizedRMSD -1
REMARK  0 active torsions:
REMARK  status: ('A' for Active; 'I' for Inactive)
ROOT
ATOM      1  C   UNL d   1      -3.414   0.733   2.256  0.00  0.00     0.020 A 
ATOM      2  C1  UNL d   1      -2.825   0.479   3.494  0.00  0.00     0.020 A 
ATOM      3  C2  UNL d   1      -3.213  -0.639   4.235  0.00  0.00     0.034 A 
ATOM      4  C3  UNL d   1      -4.192  -1.507   3.740  0.00  0.00     0.017 A 
ATOM      5  C4  UNL d   1      -4.782  -1.252   2.497  0.00  0.00     0.017 A 
ATOM      6  C5  UNL d   1      -4.390  -0.131   1.758  0.00  0.00     0.034 A 
ATOM      7 Cl   UNL d   1      -5.997  -2.278   1.819  0.00  0.00    -0.070 Cl
ATOM      8 Cl1  UNL d   1      -4.622  -2.871   4.710  0.00  0.00    -0.070 Cl
ENDROOT
TORSDOF 0
ENDMDL
