MODEL 1
REMARK minimizedAffinity 17.9536362
REMARK minimizedRMSD -1
REMARK  0 active torsions:
REMARK  status: ('A' for Active; 'I' for Inactive)
ROOT
ATOM      1  C   UNL d   1      -0.111   1.000   2.178  0.00  0.00     0.020 A 
ATOM      2  C1  UNL d   1       0.873   1.728   2.847  0.00  0.00     0.020 A 
ATOM      3  C2  UNL d   1       2.173   1.774   2.340  0.00  0.00     0.034 A 
ATOM      4  C3  UNL d   1       2.494   1.091   1.162  0.00  0.00     0.017 A 
ATOM      5  C4  UNL d   1       1.507   0.360   0.491  0.00  0.00     0.017 A 
ATOM      6  C5  UNL d   1       0.206   0.318   1.003  0.00  0.00     0.034 A 
ATOM      7 Cl   UNL d   1       1.827  -0.509  -0.968  0.00  0.00    -0.070 Cl
ATOM      8 Cl1  UNL d   1       4.123   1.192   0.593  0.00  0.00    -0.070 Cl
ENDROOT
TORSDOF 0
ENDMDL
