MODEL 1
REMARK minimizedAffinity 11.6665525
REMARK minimizedRMSD -1
REMARK  0 active torsions:
REMARK  status: ('A' for Active; 'I' for Inactive)
ROOT
ATOM      1  N1  IND d   1       5.485  -1.587  -3.034  0.00  0.00    -0.196 N 
ATOM      2  C2  IND d   1       5.410  -2.401  -4.129  0.00  0.00     0.054 A 
ATOM      3  C3  IND d   1       5.115  -3.666  -3.755  0.00  0.00    -0.031 A 
ATOM      4  C4  IND d   1       4.614  -4.604  -1.411  0.00  0.00     0.051 A 
ATOM      5  C5  IND d   1       4.597  -4.252  -0.091  0.00  0.00    -0.031 A 
ATOM      6  C6  IND d   1       4.878  -2.966   0.324  0.00  0.00     0.015 A 
ATOM      7  C7  IND d   1       5.177  -1.978  -0.571  0.00  0.00    -0.016 A 
ATOM      8  C8  IND d   1       5.202  -2.334  -1.912  0.00  0.00    -0.047 A 
ATOM      9  C9  IND d   1       4.960  -3.647  -2.335  0.00  0.00    -0.096 A 
ATOM     10  HN1 IND d   1       5.677  -0.749  -3.044  0.00  0.00     0.298 HD
ENDROOT
TORSDOF 0
ENDMDL
