MODEL 1
REMARK minimizedAffinity 10.381669
REMARK minimizedRMSD -1
REMARK  0 active torsions:
REMARK  status: ('A' for Active; 'I' for Inactive)
ROOT
ATOM      1  N1  IND d   1      -2.445   0.712  -5.241  0.00  0.00    -0.196 N 
ATOM      2  C2  IND d   1      -3.219   1.816  -5.014  0.00  0.00     0.054 A 
ATOM      3  C3  IND d   1      -3.387   2.008  -3.687  0.00  0.00    -0.031 A 
ATOM      4  C4  IND d   1      -2.400   0.693  -1.706  0.00  0.00     0.051 A 
ATOM      5  C5  IND d   1      -1.661  -0.419  -1.413  0.00  0.00    -0.031 A 
ATOM      6  C6  IND d   1      -1.134  -1.226  -2.400  0.00  0.00     0.015 A 
ATOM      7  C7  IND d   1      -1.316  -0.943  -3.724  0.00  0.00    -0.016 A 
ATOM      8  C8  IND d   1      -2.071   0.182  -4.026  0.00  0.00    -0.047 A 
ATOM      9  C9  IND d   1      -2.645   0.980  -3.028  0.00  0.00    -0.096 A 
ATOM     10  HN1 IND d   1      -2.229   0.401  -6.013  0.00  0.00     0.298 HD
ENDROOT
TORSDOF 0
ENDMDL
