MODEL 1
REMARK minimizedAffinity 3.2257154
REMARK minimizedRMSD -1
REMARK  0 active torsions:
REMARK  status: ('A' for Active; 'I' for Inactive)
ROOT
ATOM      1  N1  IND d   1      -0.478   1.714   2.169  0.00  0.00    -0.196 N 
ATOM      2  C2  IND d   1      -1.792   1.481   2.467  0.00  0.00     0.054 A 
ATOM      3  C3  IND d   1      -2.582   2.393   1.857  0.00  0.00    -0.031 A 
ATOM      4  C4  IND d   1      -1.940   4.293   0.242  0.00  0.00     0.051 A 
ATOM      5  C5  IND d   1      -0.857   4.922  -0.305  0.00  0.00    -0.031 A 
ATOM      6  C6  IND d   1       0.433   4.504  -0.052  0.00  0.00     0.015 A 
ATOM      7  C7  IND d   1       0.690   3.429   0.751  0.00  0.00    -0.016 A 
ATOM      8  C8  IND d   1      -0.407   2.792   1.314  0.00  0.00    -0.047 A 
ATOM      9  C9  IND d   1      -1.717   3.238   1.096  0.00  0.00    -0.096 A 
ATOM     10  HN1 IND d   1       0.191   1.263   2.465  0.00  0.00     0.298 HD
ENDROOT
TORSDOF 0
ENDMDL
