MODEL 1
REMARK minimizedAffinity 12.1047888
REMARK minimizedRMSD -1
REMARK  0 active torsions:
REMARK  status: ('A' for Active; 'I' for Inactive)
ROOT
ATOM      1  N1  IND d   1       0.198  -0.590   4.563  0.00  0.00    -0.196 N 
ATOM      2  C2  IND d   1       1.489  -1.038   4.514  0.00  0.00     0.054 A 
ATOM      3  C3  IND d   1       2.164  -0.418   3.520  0.00  0.00    -0.031 A 
ATOM      4  C4  IND d   1       1.379   1.439   1.919  0.00  0.00     0.051 A 
ATOM      5  C5  IND d   1       0.271   2.151   1.557  0.00  0.00    -0.031 A 
ATOM      6  C6  IND d   1      -0.943   1.985   2.193  0.00  0.00     0.015 A 
ATOM      7  C7  IND d   1      -1.090   1.104   3.227  0.00  0.00    -0.016 A 
ATOM      8  C8  IND d   1       0.032   0.374   3.593  0.00  0.00    -0.047 A 
ATOM      9  C9  IND d   1       1.255   0.507   2.923  0.00  0.00    -0.096 A 
ATOM     10  HN1 IND d   1      -0.408  -0.864   5.108  0.00  0.00     0.298 HD
ENDROOT
TORSDOF 0
ENDMDL
