MODEL 1
REMARK minimizedAffinity 15.8635473
REMARK minimizedRMSD -1
REMARK  0 active torsions:
REMARK  status: ('A' for Active; 'I' for Inactive)
ROOT
ATOM      1  N1  IND d   1       3.311  -4.905  -3.419  0.00  0.00    -0.196 N 
ATOM      2  C2  IND d   1       3.010  -6.000  -2.658  0.00  0.00     0.054 A 
ATOM      3  C3  IND d   1       3.726  -5.987  -1.511  0.00  0.00    -0.031 A 
ATOM      4  C4  IND d   1       5.374  -4.216  -0.631  0.00  0.00     0.051 A 
ATOM      5  C5  IND d   1       6.000  -3.055  -0.989  0.00  0.00    -0.031 A 
ATOM      6  C6  IND d   1       5.755  -2.438  -2.199  0.00  0.00     0.015 A 
ATOM      7  C7  IND d   1       4.862  -2.955  -3.094  0.00  0.00    -0.016 A 
ATOM      8  C8  IND d   1       4.230  -4.137  -2.737  0.00  0.00    -0.047 A 
ATOM      9  C9  IND d   1       4.506  -4.791  -1.529  0.00  0.00    -0.096 A 
ATOM     10  HN1 IND d   1       2.983  -4.726  -4.193  0.00  0.00     0.298 HD
ENDROOT
TORSDOF 0
ENDMDL
