MODEL 1
REMARK minimizedAffinity 12.6729288
REMARK minimizedRMSD -1
REMARK  0 active torsions:
REMARK  status: ('A' for Active; 'I' for Inactive)
ROOT
ATOM      1  N1  IND d   1       5.303  -1.162  -1.189  0.00  0.00    -0.196 N 
ATOM      2  C2  IND d   1       5.992  -2.337  -1.305  0.00  0.00     0.054 A 
ATOM      3  C3  IND d   1       5.260  -3.361  -0.812  0.00  0.00    -0.031 A 
ATOM      4  C4  IND d   1       2.868  -3.353   0.140  0.00  0.00     0.051 A 
ATOM      5  C5  IND d   1       1.848  -2.510   0.482  0.00  0.00    -0.031 A 
ATOM      6  C6  IND d   1       1.928  -1.147   0.278  0.00  0.00     0.015 A 
ATOM      7  C7  IND d   1       3.032  -0.576  -0.289  0.00  0.00    -0.016 A 
ATOM      8  C8  IND d   1       4.072  -1.428  -0.631  0.00  0.00    -0.047 A 
ATOM      9  C9  IND d   1       4.014  -2.806  -0.387  0.00  0.00    -0.096 A 
ATOM     10  HN1 IND d   1       5.591  -0.387  -1.426  0.00  0.00     0.298 HD
ENDROOT
TORSDOF 0
ENDMDL
