MODEL 1
REMARK minimizedAffinity 12.6303749
REMARK minimizedRMSD -1
REMARK  0 active torsions:
REMARK  status: ('A' for Active; 'I' for Inactive)
ROOT
ATOM      1  N1  IND d   1       0.622   4.280   0.158  0.00  0.00    -0.196 N 
ATOM      2  C2  IND d   1      -0.323   3.306  -0.000  0.00  0.00     0.054 A 
ATOM      3  C3  IND d   1      -0.035   2.239   0.779  0.00  0.00    -0.031 A 
ATOM      4  C4  IND d   1       1.882   1.918   2.467  0.00  0.00     0.051 A 
ATOM      5  C5  IND d   1       3.019   2.517   2.933  0.00  0.00    -0.031 A 
ATOM      6  C6  IND d   1       3.421   3.761   2.491  0.00  0.00     0.015 A 
ATOM      7  C7  IND d   1       2.692   4.460   1.571  0.00  0.00    -0.016 A 
ATOM      8  C8  IND d   1       1.542   3.851   1.090  0.00  0.00    -0.047 A 
ATOM      9  C9  IND d   1       1.151   2.571   1.503  0.00  0.00    -0.096 A 
ATOM     10  HN1 IND d   1       0.640   5.034  -0.256  0.00  0.00     0.298 HD
ENDROOT
TORSDOF 0
ENDMDL
