MODEL 1
REMARK minimizedAffinity 11.4689302
REMARK minimizedRMSD -1
REMARK  0 active torsions:
REMARK  status: ('A' for Active; 'I' for Inactive)
ROOT
ATOM      1  N1  IND d   1       2.771   4.114   1.369  0.00  0.00    -0.196 N 
ATOM      2  C2  IND d   1       3.058   5.422   1.094  0.00  0.00     0.054 A 
ATOM      3  C3  IND d   1       2.031   6.000   0.432  0.00  0.00    -0.031 A 
ATOM      4  C4  IND d   1      -0.259   5.015  -0.214  0.00  0.00     0.051 A 
ATOM      5  C5  IND d   1      -0.970   3.848  -0.207  0.00  0.00    -0.031 A 
ATOM      6  C6  IND d   1      -0.461   2.687   0.339  0.00  0.00     0.015 A 
ATOM      7  C7  IND d   1       0.779   2.653   0.911  0.00  0.00    -0.016 A 
ATOM      8  C8  IND d   1       1.507   3.835   0.900  0.00  0.00    -0.047 A 
ATOM      9  C9  IND d   1       1.013   5.005   0.309  0.00  0.00    -0.096 A 
ATOM     10  HN1 IND d   1       3.293   3.560   1.769  0.00  0.00     0.298 HD
ENDROOT
TORSDOF 0
ENDMDL
