MODEL 1
REMARK minimizedAffinity -2.98099422
REMARK minimizedRMSD -1
REMARK  1 active torsions:
REMARK  status: ('A' for Active; 'I' for Inactive)
REMARK    1  A    between atoms: C3_4  and  O_7 
ROOT
ATOM      1  C   UNL d   1      -0.727   0.184   2.532  0.00  0.00    -0.033 A 
ATOM      2  C1  UNL d   1       0.623   0.029   2.212  0.00  0.00     0.039 A 
ATOM      3  C2  UNL d   1       1.035   0.065   0.878  0.00  0.00    -0.080 A 
ATOM      4  C3  UNL d   1       0.088   0.257  -0.124  0.00  0.00     0.150 A 
ATOM      5  C4  UNL d   1      -1.258   0.415   0.188  0.00  0.00    -0.007 A 
ATOM      6  C5  UNL d   1      -1.667   0.378   1.520  0.00  0.00     0.039 A 
ENDROOT
BRANCH   4   7
ATOM      7  O   UNL d   1       0.442   0.294  -1.440  0.00  0.00    -0.526 OA
ATOM      8  H5  UNL d   1       1.399   0.141  -1.506  0.00  0.00     0.418 HD
ENDBRANCH   4   7
TORSDOF 1
ENDMDL
