MODEL 1
REMARK minimizedAffinity -4.35621119
REMARK minimizedRMSD -1
REMARK  1 active torsions:
REMARK  status: ('A' for Active; 'I' for Inactive)
REMARK    1  A    between atoms: C3_4  and  O_7 
ROOT
ATOM      1  C   UNL d   1      -0.194   0.369   1.722  0.00  0.00    -0.033 A 
ATOM      2  C1  UNL d   1      -0.871  -0.797   1.358  0.00  0.00     0.039 A 
ATOM      3  C2  UNL d   1      -0.815  -1.257   0.041  0.00  0.00    -0.080 A 
ATOM      4  C3  UNL d   1      -0.079  -0.544  -0.901  0.00  0.00     0.150 A 
ATOM      5  C4  UNL d   1       0.602   0.616  -0.545  0.00  0.00    -0.007 A 
ATOM      6  C5  UNL d   1       0.543   1.074   0.770  0.00  0.00     0.039 A 
ENDROOT
BRANCH   4   7
ATOM      7  O   UNL d   1       0.002  -0.952  -2.199  0.00  0.00    -0.526 OA
ATOM      8  H5  UNL d   1      -0.541  -1.751  -2.305  0.00  0.00     0.418 HD
ENDBRANCH   4   7
TORSDOF 1
ENDMDL
