MODEL 1
REMARK minimizedAffinity -4.92115068
REMARK minimizedRMSD -1
REMARK  1 active torsions:
REMARK  status: ('A' for Active; 'I' for Inactive)
REMARK    1  A    between atoms: C3_4  and  O_7 
ROOT
ATOM      1  C   UNL d   1      -1.283   1.006   0.188  0.00  0.00    -0.033 A 
ATOM      2  C1  UNL d   1      -0.028   0.648   0.685  0.00  0.00     0.039 A 
ATOM      3  C2  UNL d   1       0.077  -0.035   1.898  0.00  0.00    -0.080 A 
ATOM      4  C3  UNL d   1      -1.080  -0.355   2.604  0.00  0.00     0.150 A 
ATOM      5  C4  UNL d   1      -2.334  -0.006   2.113  0.00  0.00    -0.007 A 
ATOM      6  C5  UNL d   1      -2.436   0.677   0.902  0.00  0.00     0.039 A 
ENDROOT
BRANCH   4   7
ATOM      7  O   UNL d   1      -1.028  -1.017   3.794  0.00  0.00    -0.526 OA
ATOM      8  H5  UNL d   1      -0.095  -1.167   4.022  0.00  0.00     0.418 HD
ENDBRANCH   4   7
TORSDOF 1
ENDMDL
