MODEL 1
REMARK minimizedAffinity -3.25677299
REMARK minimizedRMSD -1
REMARK  1 active torsions:
REMARK  status: ('A' for Active; 'I' for Inactive)
REMARK    1  A    between atoms: C3_4  and  O_7 
ROOT
ATOM      1  C   UNL d   1      -0.062   0.353  -0.038  0.00  0.00    -0.033 A 
ATOM      2  C1  UNL d   1      -1.330  -0.117   0.308  0.00  0.00     0.039 A 
ATOM      3  C2  UNL d   1      -1.581  -0.565   1.606  0.00  0.00    -0.080 A 
ATOM      4  C3  UNL d   1      -0.556  -0.537   2.548  0.00  0.00     0.150 A 
ATOM      5  C4  UNL d   1       0.709  -0.067   2.211  0.00  0.00    -0.007 A 
ATOM      6  C5  UNL d   1       0.957   0.380   0.914  0.00  0.00     0.039 A 
ENDROOT
BRANCH   4   7
ATOM      7  O   UNL d   1      -0.751  -0.969   3.826  0.00  0.00    -0.526 OA
ATOM      8  H5  UNL d   1      -1.664  -1.293   3.906  0.00  0.00     0.418 HD
ENDBRANCH   4   7
TORSDOF 1
ENDMDL
