MODEL 1
REMARK minimizedAffinity -4.98901749
REMARK minimizedRMSD -1
REMARK  1 active torsions:
REMARK  status: ('A' for Active; 'I' for Inactive)
REMARK    1  A    between atoms: C3_4  and  O_7 
ROOT
ATOM      1  C   UNL d   1      -2.583   0.015   2.878  0.00  0.00    -0.033 A 
ATOM      2  C1  UNL d   1      -1.314  -0.384   3.304  0.00  0.00     0.039 A 
ATOM      3  C2  UNL d   1      -0.275  -0.513   2.381  0.00  0.00    -0.080 A 
ATOM      4  C3  UNL d   1      -0.516  -0.240   1.038  0.00  0.00     0.150 A 
ATOM      5  C4  UNL d   1      -1.776   0.162   0.607  0.00  0.00    -0.007 A 
ATOM      6  C5  UNL d   1      -2.813   0.289   1.530  0.00  0.00     0.039 A 
ENDROOT
BRANCH   4   7
ATOM      7  O   UNL d   1       0.466  -0.357   0.099  0.00  0.00    -0.526 OA
ATOM      8  H5  UNL d   1       1.275  -0.670   0.538  0.00  0.00     0.418 HD
ENDBRANCH   4   7
TORSDOF 1
ENDMDL
