MODEL 1
REMARK minimizedAffinity -4.06599331
REMARK minimizedRMSD -1
REMARK  1 active torsions:
REMARK  status: ('A' for Active; 'I' for Inactive)
REMARK    1  A    between atoms: C3_4  and  O_7 
ROOT
ATOM      1  C   UNL d   1      -1.334  -0.406   2.973  0.00  0.00    -0.033 A 
ATOM      2  C1  UNL d   1      -2.259  -0.525   1.935  0.00  0.00     0.039 A 
ATOM      3  C2  UNL d   1      -1.863  -0.302   0.615  0.00  0.00    -0.080 A 
ATOM      4  C3  UNL d   1      -0.540   0.039   0.347  0.00  0.00     0.150 A 
ATOM      5  C4  UNL d   1       0.388   0.156   1.377  0.00  0.00    -0.007 A 
ATOM      6  C5  UNL d   1      -0.010  -0.066   2.694  0.00  0.00     0.039 A 
ENDROOT
BRANCH   4   7
ATOM      7  O   UNL d   1      -0.107   0.271  -0.925  0.00  0.00    -0.526 OA
ATOM      8  H5  UNL d   1      -0.863   0.182  -1.528  0.00  0.00     0.418 HD
ENDBRANCH   4   7
TORSDOF 1
ENDMDL
