MODEL 1
REMARK minimizedAffinity -4.79822254
REMARK minimizedRMSD -1
REMARK  1 active torsions:
REMARK  status: ('A' for Active; 'I' for Inactive)
REMARK    1  A    between atoms: C3_4  and  O_7 
ROOT
ATOM      1  C   UNL d   1      -1.085  -0.720   3.175  0.00  0.00    -0.033 A 
ATOM      2  C1  UNL d   1      -1.985  -0.238   2.223  0.00  0.00     0.039 A 
ATOM      3  C2  UNL d   1      -1.525   0.177   0.972  0.00  0.00    -0.080 A 
ATOM      4  C3  UNL d   1      -0.164   0.105   0.686  0.00  0.00     0.150 A 
ATOM      5  C4  UNL d   1       0.738  -0.378   1.628  0.00  0.00    -0.007 A 
ATOM      6  C5  UNL d   1       0.277  -0.791   2.877  0.00  0.00     0.039 A 
ENDROOT
BRANCH   4   7
ATOM      7  O   UNL d   1       0.332   0.503  -0.520  0.00  0.00    -0.526 OA
ATOM      8  H5  UNL d   1      -0.402   0.840  -1.059  0.00  0.00     0.418 HD
ENDBRANCH   4   7
TORSDOF 1
ENDMDL
