MODEL 1
REMARK minimizedAffinity -4.01758432
REMARK minimizedRMSD -1
REMARK  1 active torsions:
REMARK  status: ('A' for Active; 'I' for Inactive)
REMARK    1  A    between atoms: C3_4  and  O_7 
ROOT
ATOM      1  C   UNL d   1       0.663  -0.331   0.711  0.00  0.00    -0.033 A 
ATOM      2  C1  UNL d   1      -0.572  -0.553   1.324  0.00  0.00     0.039 A 
ATOM      3  C2  UNL d   1      -1.745  -0.092   0.723  0.00  0.00    -0.080 A 
ATOM      4  C3  UNL d   1      -1.670   0.587  -0.490  0.00  0.00     0.150 A 
ATOM      5  C4  UNL d   1      -0.444   0.807  -1.108  0.00  0.00    -0.007 A 
ATOM      6  C5  UNL d   1       0.727   0.347  -0.506  0.00  0.00     0.039 A 
ENDROOT
BRANCH   4   7
ATOM      7  O   UNL d   1      -2.787   1.059  -1.112  0.00  0.00    -0.526 OA
ATOM      8  H5  UNL d   1      -3.558   0.859  -0.555  0.00  0.00     0.418 HD
ENDBRANCH   4   7
TORSDOF 1
ENDMDL
