MODEL 1
REMARK minimizedAffinity -2.55771899
REMARK minimizedRMSD -1
REMARK  1 active torsions:
REMARK  status: ('A' for Active; 'I' for Inactive)
REMARK    1  A    between atoms: C3_4  and  O_7 
ROOT
ATOM      1  C   UNL d   1       0.343   0.664   2.587  0.00  0.00    -0.033 A 
ATOM      2  C1  UNL d   1      -0.917   0.374   2.059  0.00  0.00     0.039 A 
ATOM      3  C2  UNL d   1      -1.055   0.073   0.703  0.00  0.00    -0.080 A 
ATOM      4  C3  UNL d   1       0.073   0.065  -0.114  0.00  0.00     0.150 A 
ATOM      5  C4  UNL d   1       1.331   0.349   0.406  0.00  0.00    -0.007 A 
ATOM      6  C5  UNL d   1       1.467   0.651   1.760  0.00  0.00     0.039 A 
ENDROOT
BRANCH   4   7
ATOM      7  O   UNL d   1      -0.013  -0.219  -1.445  0.00  0.00    -0.526 OA
ATOM      8  H5  UNL d   1      -0.947  -0.367  -1.668  0.00  0.00     0.418 HD
ENDBRANCH   4   7
TORSDOF 1
ENDMDL
