MODEL 1
REMARK minimizedAffinity -4.98106813
REMARK minimizedRMSD -1
REMARK  1 active torsions:
REMARK  status: ('A' for Active; 'I' for Inactive)
REMARK    1  A    between atoms: C3_4  and  O_7 
ROOT
ATOM      1  C   UNL d   1      -0.342   0.284  -0.444  0.00  0.00    -0.033 A 
ATOM      2  C1  UNL d   1       0.873   0.444   0.226  0.00  0.00     0.039 A 
ATOM      3  C2  UNL d   1       0.994   0.050   1.560  0.00  0.00    -0.080 A 
ATOM      4  C3  UNL d   1      -0.106  -0.502   2.211  0.00  0.00     0.150 A 
ATOM      5  C4  UNL d   1      -1.318  -0.668   1.549  0.00  0.00    -0.007 A 
ATOM      6  C5  UNL d   1      -1.437  -0.274   0.217  0.00  0.00     0.039 A 
ENDROOT
BRANCH   4   7
ATOM      7  O   UNL d   1      -0.037  -0.897   3.515  0.00  0.00    -0.526 OA
ATOM      8  H5  UNL d   1       0.852  -0.695   3.851  0.00  0.00     0.418 HD
ENDBRANCH   4   7
TORSDOF 1
ENDMDL
