MODEL 1
REMARK minimizedAffinity -4.60023975
REMARK minimizedRMSD -1
REMARK  1 active torsions:
REMARK  status: ('A' for Active; 'I' for Inactive)
REMARK    1  A    between atoms: C3_4  and  O_7 
ROOT
ATOM      1  C   UNL d   1       0.633  -0.342   0.169  0.00  0.00    -0.033 A 
ATOM      2  C1  UNL d   1      -0.691  -0.776   0.260  0.00  0.00     0.039 A 
ATOM      3  C2  UNL d   1      -1.307  -0.887   1.508  0.00  0.00    -0.080 A 
ATOM      4  C3  UNL d   1      -0.590  -0.560   2.655  0.00  0.00     0.150 A 
ATOM      5  C4  UNL d   1       0.728  -0.123   2.572  0.00  0.00    -0.007 A 
ATOM      6  C5  UNL d   1       1.342  -0.014   1.325  0.00  0.00     0.039 A 
ENDROOT
BRANCH   4   7
ATOM      7  O   UNL d   1      -1.147  -0.656   3.896  0.00  0.00    -0.526 OA
ATOM      8  H5  UNL d   1      -2.052  -0.998   3.801  0.00  0.00     0.418 HD
ENDBRANCH   4   7
TORSDOF 1
ENDMDL
