MODEL 1
REMARK minimizedAffinity -3.36155438
REMARK minimizedRMSD -1
REMARK  1 active torsions:
REMARK  status: ('A' for Active; 'I' for Inactive)
REMARK    1  A    between atoms: C3_4  and  O_7 
ROOT
ATOM      1  C   UNL d   1       0.859   0.291   1.344  0.00  0.00    -0.033 A 
ATOM      2  C1  UNL d   1      -0.116   0.473   2.327  0.00  0.00     0.039 A 
ATOM      3  C2  UNL d   1      -1.455   0.634   1.964  0.00  0.00    -0.080 A 
ATOM      4  C3  UNL d   1      -1.805   0.611   0.617  0.00  0.00     0.150 A 
ATOM      5  C4  UNL d   1      -0.840   0.426  -0.367  0.00  0.00    -0.007 A 
ATOM      6  C5  UNL d   1       0.497   0.267  -0.003  0.00  0.00     0.039 A 
ENDROOT
BRANCH   4   7
ATOM      7  O   UNL d   1      -3.098   0.768   0.214  0.00  0.00    -0.526 OA
ATOM      8  H5  UNL d   1      -3.650   0.915   1.000  0.00  0.00     0.418 HD
ENDBRANCH   4   7
TORSDOF 1
ENDMDL
