MODEL 1
REMARK minimizedAffinity -2.3030355
REMARK minimizedRMSD -1
REMARK  1 active torsions:
REMARK  status: ('A' for Active; 'I' for Inactive)
REMARK    1  A    between atoms: C3_4  and  O_7 
ROOT
ATOM      1  C   UNL d   1       0.137   0.315  -1.107  0.00  0.00    -0.033 A 
ATOM      2  C1  UNL d   1      -1.160  -0.069  -0.759  0.00  0.00     0.039 A 
ATOM      3  C2  UNL d   1      -1.459  -0.406   0.563  0.00  0.00    -0.080 A 
ATOM      4  C3  UNL d   1      -0.455  -0.354   1.526  0.00  0.00     0.150 A 
ATOM      5  C4  UNL d   1       0.838   0.032   1.187  0.00  0.00    -0.007 A 
ATOM      6  C5  UNL d   1       1.135   0.367  -0.133  0.00  0.00     0.039 A 
ENDROOT
BRANCH   4   7
ATOM      7  O   UNL d   1      -0.698  -0.678   2.827  0.00  0.00    -0.526 OA
ATOM      8  H5  UNL d   1      -1.627  -0.952   2.907  0.00  0.00     0.418 HD
ENDBRANCH   4   7
TORSDOF 1
ENDMDL
