MODEL 1
REMARK minimizedAffinity -5.44111538
REMARK minimizedRMSD -1
REMARK  1 active torsions:
REMARK  status: ('A' for Active; 'I' for Inactive)
REMARK    1  A    between atoms: C3_4  and  O_7 
ROOT
ATOM      1  C   UNL d   1      -0.011  -0.296   2.673  0.00  0.00    -0.033 A 
ATOM      2  C1  UNL d   1       0.058  -0.081   1.295  0.00  0.00     0.039 A 
ATOM      3  C2  UNL d   1      -1.083   0.303   0.588  0.00  0.00    -0.080 A 
ATOM      4  C3  UNL d   1      -2.285   0.470   1.270  0.00  0.00     0.150 A 
ATOM      5  C4  UNL d   1      -2.361   0.261   2.643  0.00  0.00    -0.007 A 
ATOM      6  C5  UNL d   1      -1.221  -0.123   3.347  0.00  0.00     0.039 A 
ENDROOT
BRANCH   4   7
ATOM      7  O   UNL d   1      -3.426   0.839   0.621  0.00  0.00    -0.526 OA
ATOM      8  H5  UNL d   1      -3.229   0.920  -0.327  0.00  0.00     0.418 HD
ENDBRANCH   4   7
TORSDOF 1
ENDMDL
