MODEL 1
REMARK minimizedAffinity 5.87158966
REMARK minimizedRMSD -1
REMARK  1 active torsions:
REMARK  status: ('A' for Active; 'I' for Inactive)
REMARK    1  A    between atoms: C3_4  and  O_7 
ROOT
ATOM      1  C   UNL d   1      -1.430   0.404  -1.782  0.00  0.00    -0.033 A 
ATOM      2  C1  UNL d   1      -2.813   0.481  -1.607  0.00  0.00     0.039 A 
ATOM      3  C2  UNL d   1      -3.558   1.419  -2.324  0.00  0.00    -0.080 A 
ATOM      4  C3  UNL d   1      -2.910   2.273  -3.212  0.00  0.00     0.150 A 
ATOM      5  C4  UNL d   1      -1.533   2.200  -3.394  0.00  0.00    -0.007 A 
ATOM      6  C5  UNL d   1      -0.790   1.263  -2.677  0.00  0.00     0.039 A 
ENDROOT
BRANCH   4   7
ATOM      7  O   UNL d   1      -3.594   3.208  -3.930  0.00  0.00    -0.526 OA
ATOM      8  H5  UNL d   1      -4.532   3.162  -3.680  0.00  0.00     0.418 HD
ENDBRANCH   4   7
TORSDOF 1
ENDMDL
