MODEL 1
REMARK minimizedAffinity -0.552569568
REMARK minimizedRMSD -1
REMARK  1 active torsions:
REMARK  status: ('A' for Active; 'I' for Inactive)
REMARK    1  A    between atoms: C3_4  and  O_7 
ROOT
ATOM      1  C   UNL d   1      -5.999   1.787   4.000  0.00  0.00    -0.033 A 
ATOM      2  C1  UNL d   1      -5.408   1.678   5.260  0.00  0.00     0.039 A 
ATOM      3  C2  UNL d   1      -4.049   1.376   5.372  0.00  0.00    -0.080 A 
ATOM      4  C3  UNL d   1      -3.294   1.187   4.218  0.00  0.00     0.150 A 
ATOM      5  C4  UNL d   1      -3.876   1.297   2.959  0.00  0.00    -0.007 A 
ATOM      6  C5  UNL d   1      -5.233   1.598   2.850  0.00  0.00     0.039 A 
ENDROOT
BRANCH   4   7
ATOM      7  O   UNL d   1      -1.966   0.886   4.277  0.00  0.00    -0.526 OA
ATOM      8  H5  UNL d   1      -1.708   0.814   5.211  0.00  0.00     0.418 HD
ENDBRANCH   4   7
TORSDOF 1
ENDMDL
