MODEL 1
REMARK minimizedAffinity 2.93050599
REMARK minimizedRMSD -1
REMARK  1 active torsions:
REMARK  status: ('A' for Active; 'I' for Inactive)
REMARK    1  A    between atoms: C3_4  and  O_7 
ROOT
ATOM      1  C   UNL d   1       2.752  -2.496   0.769  0.00  0.00    -0.033 A 
ATOM      2  C1  UNL d   1       2.395  -3.773   0.332  0.00  0.00     0.039 A 
ATOM      3  C2  UNL d   1       3.381  -4.731   0.088  0.00  0.00    -0.080 A 
ATOM      4  C3  UNL d   1       4.719  -4.399   0.284  0.00  0.00     0.150 A 
ATOM      5  C4  UNL d   1       5.082  -3.129   0.722  0.00  0.00    -0.007 A 
ATOM      6  C5  UNL d   1       4.095  -2.174   0.965  0.00  0.00     0.039 A 
ENDROOT
BRANCH   4   7
ATOM      7  O   UNL d   1       5.717  -5.298   0.054  0.00  0.00    -0.526 OA
ATOM      8  H5  UNL d   1       5.320  -6.123  -0.272  0.00  0.00     0.418 HD
ENDBRANCH   4   7
TORSDOF 1
ENDMDL
