MODEL 1
REMARK minimizedAffinity 3.7311275
REMARK minimizedRMSD -1
REMARK  1 active torsions:
REMARK  status: ('A' for Active; 'I' for Inactive)
REMARK    1  A    between atoms: C3_4  and  O_7 
ROOT
ATOM      1  C   UNL d   1       4.925  -2.465   1.124  0.00  0.00    -0.033 A 
ATOM      2  C1  UNL d   1       6.000  -1.876   1.792  0.00  0.00     0.039 A 
ATOM      3  C2  UNL d   1       5.999  -1.797   3.186  0.00  0.00    -0.080 A 
ATOM      4  C3  UNL d   1       4.920  -2.311   3.899  0.00  0.00     0.150 A 
ATOM      5  C4  UNL d   1       3.847  -2.903   3.241  0.00  0.00    -0.007 A 
ATOM      6  C5  UNL d   1       3.849  -2.980   1.848  0.00  0.00     0.039 A 
ENDROOT
BRANCH   4   7
ATOM      7  O   UNL d   1       4.873  -2.253   5.261  0.00  0.00    -0.526 OA
ATOM      8  H5  UNL d   1       5.667  -1.792   5.577  0.00  0.00     0.418 HD
ENDBRANCH   4   7
TORSDOF 1
ENDMDL
