MODEL 1
REMARK minimizedAffinity 6.72920799
REMARK minimizedRMSD -1
REMARK  1 active torsions:
REMARK  status: ('A' for Active; 'I' for Inactive)
REMARK    1  A    between atoms: C3_4  and  O_7 
ROOT
ATOM      1  C   UNL d   1       2.768  -3.472   0.405  0.00  0.00    -0.033 A 
ATOM      2  C1  UNL d   1       2.957  -2.355   1.221  0.00  0.00     0.039 A 
ATOM      3  C2  UNL d   1       1.864  -1.754   1.849  0.00  0.00    -0.080 A 
ATOM      4  C3  UNL d   1       0.590  -2.279   1.654  0.00  0.00     0.150 A 
ATOM      5  C4  UNL d   1       0.395  -3.395   0.846  0.00  0.00    -0.007 A 
ATOM      6  C5  UNL d   1       1.487  -3.993   0.219  0.00  0.00     0.039 A 
ENDROOT
BRANCH   4   7
ATOM      7  O   UNL d   1      -0.508  -1.724   2.241  0.00  0.00    -0.526 OA
ATOM      8  H5  UNL d   1      -0.224  -0.944   2.747  0.00  0.00     0.418 HD
ENDBRANCH   4   7
TORSDOF 1
ENDMDL
