MODEL 1
REMARK minimizedAffinity 5.70269156
REMARK minimizedRMSD -1
REMARK  1 active torsions:
REMARK  status: ('A' for Active; 'I' for Inactive)
REMARK    1  A    between atoms: C3_4  and  O_7 
ROOT
ATOM      1  C   UNL d   1       1.755  -1.134   1.135  0.00  0.00    -0.033 A 
ATOM      2  C1  UNL d   1       2.979  -1.747   0.862  0.00  0.00     0.039 A 
ATOM      3  C2  UNL d   1       3.039  -3.125   0.645  0.00  0.00    -0.080 A 
ATOM      4  C3  UNL d   1       1.869  -3.877   0.705  0.00  0.00     0.150 A 
ATOM      5  C4  UNL d   1       0.646  -3.272   0.973  0.00  0.00    -0.007 A 
ATOM      6  C5  UNL d   1       0.588  -1.896   1.190  0.00  0.00     0.039 A 
ENDROOT
BRANCH   4   7
ATOM      7  O   UNL d   1       1.879  -5.226   0.506  0.00  0.00    -0.526 OA
ATOM      8  H5  UNL d   1       2.797  -5.509   0.359  0.00  0.00     0.418 HD
ENDBRANCH   4   7
TORSDOF 1
ENDMDL
