MODEL 1
REMARK minimizedAffinity 4.01609707
REMARK minimizedRMSD -1
REMARK  1 active torsions:
REMARK  status: ('A' for Active; 'I' for Inactive)
REMARK    1  A    between atoms: C3_4  and  O_7 
ROOT
ATOM      1  C   UNL d   1       1.442  -1.953   0.517  0.00  0.00    -0.033 A 
ATOM      2  C1  UNL d   1       2.179  -3.009  -0.025  0.00  0.00     0.039 A 
ATOM      3  C2  UNL d   1       1.674  -4.310   0.018  0.00  0.00    -0.080 A 
ATOM      4  C3  UNL d   1       0.433  -4.541   0.605  0.00  0.00     0.150 A 
ATOM      5  C4  UNL d   1      -0.308  -3.494   1.143  0.00  0.00    -0.007 A 
ATOM      6  C5  UNL d   1       0.198  -2.196   1.100  0.00  0.00     0.039 A 
ENDROOT
BRANCH   4   7
ATOM      7  O   UNL d   1      -0.099  -5.795   0.675  0.00  0.00    -0.526 OA
ATOM      8  H5  UNL d   1       0.536  -6.421   0.290  0.00  0.00     0.418 HD
ENDBRANCH   4   7
TORSDOF 1
ENDMDL
