MODEL 1
REMARK minimizedAffinity 3.53909755
REMARK minimizedRMSD -1
REMARK  1 active torsions:
REMARK  status: ('A' for Active; 'I' for Inactive)
REMARK    1  A    between atoms: C3_4  and  O_7 
ROOT
ATOM      1  C   UNL d   1      -3.713   1.800  -5.518  0.00  0.00    -0.033 A 
ATOM      2  C1  UNL d   1      -4.152   2.318  -4.297  0.00  0.00     0.039 A 
ATOM      3  C2  UNL d   1      -3.227   2.680  -3.317  0.00  0.00    -0.080 A 
ATOM      4  C3  UNL d   1      -1.867   2.521  -3.569  0.00  0.00     0.150 A 
ATOM      5  C4  UNL d   1      -1.422   2.010  -4.784  0.00  0.00    -0.007 A 
ATOM      6  C5  UNL d   1      -2.348   1.648  -5.761  0.00  0.00     0.039 A 
ENDROOT
BRANCH   4   7
ATOM      7  O   UNL d   1      -0.926   2.856  -2.641  0.00  0.00    -0.526 OA
ATOM      8  H5  UNL d   1      -1.381   3.168  -1.841  0.00  0.00     0.418 HD
ENDBRANCH   4   7
TORSDOF 1
ENDMDL
