MODEL 1
REMARK minimizedAffinity -3.43494225
REMARK minimizedRMSD -1
REMARK  1 active torsions:
REMARK  status: ('A' for Active; 'I' for Inactive)
REMARK    1  A    between atoms: C3_4  and  O_7 
ROOT
ATOM      1  C   UNL d   1      -4.803   2.673  -1.865  0.00  0.00    -0.033 A 
ATOM      2  C1  UNL d   1      -5.994   2.999  -2.517  0.00  0.00     0.039 A 
ATOM      3  C2  UNL d   1      -5.998   3.228  -3.894  0.00  0.00    -0.080 A 
ATOM      4  C3  UNL d   1      -4.806   3.126  -4.607  0.00  0.00     0.150 A 
ATOM      5  C4  UNL d   1      -3.617   2.798  -3.965  0.00  0.00    -0.007 A 
ATOM      6  C5  UNL d   1      -3.615   2.570  -2.589  0.00  0.00     0.039 A 
ENDROOT
BRANCH   4   7
ATOM      7  O   UNL d   1      -4.759   3.346  -5.952  0.00  0.00    -0.526 OA
ATOM      8  H5  UNL d   1      -5.649   3.592  -6.255  0.00  0.00     0.418 HD
ENDBRANCH   4   7
TORSDOF 1
ENDMDL
