MODEL 1
REMARK minimizedAffinity 2.7534759
REMARK minimizedRMSD -1
REMARK  1 active torsions:
REMARK  status: ('A' for Active; 'I' for Inactive)
REMARK    1  A    between atoms: C3_4  and  O_7 
ROOT
ATOM      1  C   UNL d   1       1.260   3.521   1.890  0.00  0.00    -0.033 A 
ATOM      2  C1  UNL d   1       2.171   4.525   1.559  0.00  0.00     0.039 A 
ATOM      3  C2  UNL d   1       2.133   5.116   0.295  0.00  0.00    -0.080 A 
ATOM      4  C3  UNL d   1       1.180   4.695  -0.628  0.00  0.00     0.150 A 
ATOM      5  C4  UNL d   1       0.266   3.697  -0.304  0.00  0.00    -0.007 A 
ATOM      6  C5  UNL d   1       0.306   3.108   0.959  0.00  0.00     0.039 A 
ENDROOT
BRANCH   4   7
ATOM      7  O   UNL d   1       1.107   5.239  -1.876  0.00  0.00    -0.526 OA
ATOM      8  H5  UNL d   1       1.818   5.895  -1.968  0.00  0.00     0.418 HD
ENDBRANCH   4   7
TORSDOF 1
ENDMDL
