MODEL 1
REMARK minimizedAffinity 3.30419421
REMARK minimizedRMSD -1
REMARK  1 active torsions:
REMARK  status: ('A' for Active; 'I' for Inactive)
REMARK    1  A    between atoms: C3_4  and  O_7 
ROOT
ATOM      1  C   UNL d   1       1.453  -4.044  -0.484  0.00  0.00    -0.033 A 
ATOM      2  C1  UNL d   1       1.008  -2.789  -0.901  0.00  0.00     0.039 A 
ATOM      3  C2  UNL d   1      -0.224  -2.662  -1.546  0.00  0.00    -0.080 A 
ATOM      4  C3  UNL d   1      -0.999  -3.797  -1.767  0.00  0.00     0.150 A 
ATOM      5  C4  UNL d   1      -0.563  -5.051  -1.351  0.00  0.00    -0.007 A 
ATOM      6  C5  UNL d   1       0.667  -5.175  -0.707  0.00  0.00     0.039 A 
ENDROOT
BRANCH   4   7
ATOM      7  O   UNL d   1      -2.206  -3.724  -2.397  0.00  0.00    -0.526 OA
ATOM      8  H5  UNL d   1      -2.364  -2.800  -2.653  0.00  0.00     0.418 HD
ENDBRANCH   4   7
TORSDOF 1
ENDMDL
