MODEL 1
REMARK minimizedAffinity 3.18997908
REMARK minimizedRMSD -1
REMARK  1 active torsions:
REMARK  status: ('A' for Active; 'I' for Inactive)
REMARK    1  A    between atoms: C3_4  and  O_7 
ROOT
ATOM      1  C   UNL d   1      -0.161   3.370   0.914  0.00  0.00    -0.033 A 
ATOM      2  C1  UNL d   1       0.803   2.473   1.376  0.00  0.00     0.039 A 
ATOM      3  C2  UNL d   1       1.280   1.465   0.536  0.00  0.00    -0.080 A 
ATOM      4  C3  UNL d   1       0.787   1.366  -0.762  0.00  0.00     0.150 A 
ATOM      5  C4  UNL d   1      -0.171   2.260  -1.230  0.00  0.00    -0.007 A 
ATOM      6  C5  UNL d   1      -0.647   3.265  -0.389  0.00  0.00     0.039 A 
ENDROOT
BRANCH   4   7
ATOM      7  O   UNL d   1       1.219   0.396  -1.617  0.00  0.00    -0.526 OA
ATOM      8  H5  UNL d   1       1.858  -0.165  -1.147  0.00  0.00     0.418 HD
ENDBRANCH   4   7
TORSDOF 1
ENDMDL
