MODEL 1
REMARK minimizedAffinity -1.65315032
REMARK minimizedRMSD -1
REMARK  1 active torsions:
REMARK  status: ('A' for Active; 'I' for Inactive)
REMARK    1  A    between atoms: C3_4  and  O_7 
ROOT
ATOM      1  C   UNL d   1      -4.501   2.796  -3.530  0.00  0.00    -0.033 A 
ATOM      2  C1  UNL d   1      -3.967   2.647  -4.812  0.00  0.00     0.039 A 
ATOM      3  C2  UNL d   1      -4.446   1.645  -5.658  0.00  0.00    -0.080 A 
ATOM      4  C3  UNL d   1      -5.458   0.800  -5.211  0.00  0.00     0.150 A 
ATOM      5  C4  UNL d   1      -5.997   0.944  -3.937  0.00  0.00    -0.007 A 
ATOM      6  C5  UNL d   1      -5.517   1.945  -3.094  0.00  0.00     0.039 A 
ENDROOT
BRANCH   4   7
ATOM      7  O   UNL d   1      -5.954  -0.196  -5.999  0.00  0.00    -0.526 OA
ATOM      8  H5  UNL d   1      -5.467  -0.195  -6.840  0.00  0.00     0.418 HD
ENDBRANCH   4   7
TORSDOF 1
ENDMDL
