MODEL 1
REMARK minimizedAffinity 0.860885799
REMARK minimizedRMSD -1
REMARK  1 active torsions:
REMARK  status: ('A' for Active; 'I' for Inactive)
REMARK    1  A    between atoms: C3_4  and  O_7 
ROOT
ATOM      1  C   UNL d   1       0.234   3.167   0.720  0.00  0.00    -0.033 A 
ATOM      2  C1  UNL d   1       1.180   2.343   1.334  0.00  0.00     0.039 A 
ATOM      3  C2  UNL d   1       1.635   1.194   0.684  0.00  0.00    -0.080 A 
ATOM      4  C3  UNL d   1       1.138   0.881  -0.578  0.00  0.00     0.150 A 
ATOM      5  C4  UNL d   1       0.198   1.699  -1.197  0.00  0.00    -0.007 A 
ATOM      6  C5  UNL d   1      -0.256   2.845  -0.546  0.00  0.00     0.039 A 
ENDROOT
BRANCH   4   7
ATOM      7  O   UNL d   1       1.549  -0.232  -1.250  0.00  0.00    -0.526 OA
ATOM      8  H5  UNL d   1       2.177  -0.716  -0.688  0.00  0.00     0.418 HD
ENDBRANCH   4   7
TORSDOF 1
ENDMDL
