MODEL 1
REMARK minimizedAffinity -3.91633773
REMARK minimizedRMSD -1
REMARK  1 active torsions:
REMARK  status: ('A' for Active; 'I' for Inactive)
REMARK    1  A    between atoms: C3_4  and  O_7 
ROOT
ATOM      1  C   UNL d   1      -3.767   2.427  -4.549  0.00  0.00    -0.033 A 
ATOM      2  C1  UNL d   1      -5.129   2.353  -4.251  0.00  0.00     0.039 A 
ATOM      3  C2  UNL d   1      -5.893   1.288  -4.730  0.00  0.00    -0.080 A 
ATOM      4  C3  UNL d   1      -5.284   0.304  -5.505  0.00  0.00     0.150 A 
ATOM      5  C4  UNL d   1      -3.927   0.370  -5.803  0.00  0.00    -0.007 A 
ATOM      6  C5  UNL d   1      -3.166   1.435  -5.324  0.00  0.00     0.039 A 
ENDROOT
BRANCH   4   7
ATOM      7  O   UNL d   1      -5.990  -0.752  -6.000  0.00  0.00    -0.526 OA
ATOM      8  H5  UNL d   1      -6.921  -0.650  -5.738  0.00  0.00     0.418 HD
ENDBRANCH   4   7
TORSDOF 1
ENDMDL
