MODEL 1
REMARK minimizedAffinity -3.5041368
REMARK minimizedRMSD -1
REMARK  0 active torsions:
REMARK  status: ('A' for Active; 'I' for Inactive)
ROOT
ATOM      1  C1  BNZ d   1       0.645  -1.225  -1.108  0.00  0.00     0.000 A 
ATOM      2  C2  BNZ d   1      -0.643  -1.618  -0.855  0.00  0.00     0.000 A 
ATOM      3  C3  BNZ d   1      -1.239  -1.334   0.341  0.00  0.00     0.000 A 
ATOM      4  C4  BNZ d   1      -0.535  -0.693   1.297  0.00  0.00     0.000 A 
ATOM      5  C5  BNZ d   1       0.767  -0.298   1.060  0.00  0.00     0.000 A 
ATOM      6  C6  BNZ d   1       1.351  -0.552  -0.159  0.00  0.00     0.000 A 
ENDROOT
TORSDOF 0
ENDMDL
