MODEL 1
REMARK minimizedAffinity -4.54109335
REMARK minimizedRMSD -1
REMARK  0 active torsions:
REMARK  status: ('A' for Active; 'I' for Inactive)
ROOT
ATOM      1  C1  BNZ d   1      -0.374  -3.477  -1.500  0.00  0.00     0.000 A 
ATOM      2  C2  BNZ d   1       0.597  -2.831  -2.218  0.00  0.00     0.000 A 
ATOM      3  C3  BNZ d   1       1.026  -1.586  -1.851  0.00  0.00     0.000 A 
ATOM      4  C4  BNZ d   1       0.457  -0.973  -0.794  0.00  0.00     0.000 A 
ATOM      5  C5  BNZ d   1      -0.530  -1.608  -0.066  0.00  0.00     0.000 A 
ATOM      6  C6  BNZ d   1      -0.932  -2.877  -0.414  0.00  0.00     0.000 A 
ENDROOT
TORSDOF 0
ENDMDL
