MODEL 1
REMARK minimizedAffinity -2.49503994
REMARK minimizedRMSD -1
REMARK  0 active torsions:
REMARK  status: ('A' for Active; 'I' for Inactive)
ROOT
ATOM      1  C1  BNZ d   1      -0.980   0.583   1.373  0.00  0.00     0.000 A 
ATOM      2  C2  BNZ d   1      -0.517  -0.644   0.978  0.00  0.00     0.000 A 
ATOM      3  C3  BNZ d   1       0.247  -0.774  -0.148  0.00  0.00     0.000 A 
ATOM      4  C4  BNZ d   1       0.513   0.314  -0.899  0.00  0.00     0.000 A 
ATOM      5  C5  BNZ d   1       0.046   1.556  -0.519  0.00  0.00     0.000 A 
ATOM      6  C6  BNZ d   1      -0.690   1.690   0.636  0.00  0.00     0.000 A 
ENDROOT
TORSDOF 0
ENDMDL
