MODEL 1
REMARK minimizedAffinity -1.98568439
REMARK minimizedRMSD -1
REMARK  0 active torsions:
REMARK  status: ('A' for Active; 'I' for Inactive)
ROOT
ATOM      1  C1  BNZ d   1      -1.736   0.182   1.924  0.00  0.00     0.000 A 
ATOM      2  C2  BNZ d   1      -1.396  -0.935   1.208  0.00  0.00     0.000 A 
ATOM      3  C3  BNZ d   1      -0.333  -0.918   0.348  0.00  0.00     0.000 A 
ATOM      4  C4  BNZ d   1       0.362   0.225   0.175  0.00  0.00     0.000 A 
ATOM      5  C5  BNZ d   1       0.025   1.362   0.882  0.00  0.00     0.000 A 
ATOM      6  C6  BNZ d   1      -1.021   1.330   1.776  0.00  0.00     0.000 A 
ENDROOT
TORSDOF 0
ENDMDL
