MODEL 1
REMARK minimizedAffinity -2.90907741
REMARK minimizedRMSD -1
REMARK  0 active torsions:
REMARK  status: ('A' for Active; 'I' for Inactive)
ROOT
ATOM      1  C1  BNZ d   1       1.381  -2.345  -1.501  0.00  0.00     0.000 A 
ATOM      2  C2  BNZ d   1       1.307  -1.076  -0.992  0.00  0.00     0.000 A 
ATOM      3  C3  BNZ d   1       0.326  -0.734  -0.104  0.00  0.00     0.000 A 
ATOM      4  C4  BNZ d   1      -0.603  -1.648   0.242  0.00  0.00     0.000 A 
ATOM      5  C5  BNZ d   1      -0.548  -2.929  -0.270  0.00  0.00     0.000 A 
ATOM      6  C6  BNZ d   1       0.464  -3.281  -1.133  0.00  0.00     0.000 A 
ENDROOT
TORSDOF 0
ENDMDL
