MODEL 1
REMARK minimizedAffinity -5.12703133
REMARK minimizedRMSD -1
REMARK  0 active torsions:
REMARK  status: ('A' for Active; 'I' for Inactive)
ROOT
ATOM      1  C1  BNZ d   1      -1.575   2.580   0.875  0.00  0.00     0.000 A 
ATOM      2  C2  BNZ d   1      -1.735   1.318   1.381  0.00  0.00     0.000 A 
ATOM      3  C3  BNZ d   1      -0.936   0.290   0.965  0.00  0.00     0.000 A 
ATOM      4  C4  BNZ d   1      -0.006   0.516   0.015  0.00  0.00     0.000 A 
ATOM      5  C5  BNZ d   1       0.162   1.781  -0.512  0.00  0.00     0.000 A 
ATOM      6  C6  BNZ d   1      -0.618   2.822  -0.062  0.00  0.00     0.000 A 
ENDROOT
TORSDOF 0
ENDMDL
