MODEL 1
REMARK minimizedAffinity -3.05247641
REMARK minimizedRMSD -1
REMARK  0 active torsions:
REMARK  status: ('A' for Active; 'I' for Inactive)
ROOT
ATOM      1  C1  BNZ d   1       1.043  -0.245  -0.356  0.00  0.00     0.000 A 
ATOM      2  C2  BNZ d   1       0.394   0.195   0.766  0.00  0.00     0.000 A 
ATOM      3  C3  BNZ d   1      -0.730  -0.439   1.219  0.00  0.00     0.000 A 
ATOM      4  C4  BNZ d   1      -1.225  -1.485   0.527  0.00  0.00     0.000 A 
ATOM      5  C5  BNZ d   1      -0.587  -1.935  -0.612  0.00  0.00     0.000 A 
ATOM      6  C6  BNZ d   1       0.566  -1.319  -1.043  0.00  0.00     0.000 A 
ENDROOT
TORSDOF 0
ENDMDL
