MODEL 1
REMARK minimizedAffinity -2.71867847
REMARK minimizedRMSD -1
REMARK  0 active torsions:
REMARK  status: ('A' for Active; 'I' for Inactive)
ROOT
ATOM      1  C1  BNZ d   1      -0.752   0.553   1.739  0.00  0.00     0.000 A 
ATOM      2  C2  BNZ d   1       0.013  -0.462   1.230  0.00  0.00     0.000 A 
ATOM      3  C3  BNZ d   1       0.872  -0.237   0.191  0.00  0.00     0.000 A 
ATOM      4  C4  BNZ d   1       0.935   0.990  -0.364  0.00  0.00     0.000 A 
ATOM      5  C5  BNZ d   1       0.163   2.022   0.131  0.00  0.00     0.000 A 
ATOM      6  C6  BNZ d   1      -0.672   1.802   1.203  0.00  0.00     0.000 A 
ENDROOT
TORSDOF 0
ENDMDL
