MODEL 1
REMARK minimizedAffinity -3.61961961
REMARK minimizedRMSD -1
REMARK  0 active torsions:
REMARK  status: ('A' for Active; 'I' for Inactive)
ROOT
ATOM      1  C1  BNZ d   1       0.733  -0.813   1.557  0.00  0.00     0.000 A 
ATOM      2  C2  BNZ d   1      -0.234   0.078   1.940  0.00  0.00     0.000 A 
ATOM      3  C3  BNZ d   1      -0.761   0.967   1.045  0.00  0.00     0.000 A 
ATOM      4  C4  BNZ d   1      -0.292   0.991  -0.220  0.00  0.00     0.000 A 
ATOM      5  C5  BNZ d   1       0.690   0.106  -0.618  0.00  0.00     0.000 A 
ATOM      6  C6  BNZ d   1       1.190  -0.814   0.275  0.00  0.00     0.000 A 
ENDROOT
TORSDOF 0
ENDMDL
