MODEL 1
REMARK minimizedAffinity -3.60291243
REMARK minimizedRMSD -1
REMARK  0 active torsions:
REMARK  status: ('A' for Active; 'I' for Inactive)
ROOT
ATOM      1  C1  BNZ d   1       0.276  -1.433   0.771  0.00  0.00     0.000 A 
ATOM      2  C2  BNZ d   1      -0.455  -1.487   1.928  0.00  0.00     0.000 A 
ATOM      3  C3  BNZ d   1      -1.154  -0.397   2.366  0.00  0.00     0.000 A 
ATOM      4  C4  BNZ d   1      -1.089   0.756   1.669  0.00  0.00     0.000 A 
ATOM      5  C5  BNZ d   1      -0.349   0.829   0.506  0.00  0.00     0.000 A 
ATOM      6  C6  BNZ d   1       0.321  -0.281   0.047  0.00  0.00     0.000 A 
ENDROOT
TORSDOF 0
ENDMDL
