MODEL 1
REMARK minimizedAffinity -3.93944168
REMARK minimizedRMSD -1
REMARK  0 active torsions:
REMARK  status: ('A' for Active; 'I' for Inactive)
ROOT
ATOM      1  C1  BNZ d   1      -0.641  -1.321   0.538  0.00  0.00     0.000 A 
ATOM      2  C2  BNZ d   1      -0.404  -2.556  -0.005  0.00  0.00     0.000 A 
ATOM      3  C3  BNZ d   1       0.506  -2.714  -1.012  0.00  0.00     0.000 A 
ATOM      4  C4  BNZ d   1       1.149  -1.634  -1.502  0.00  0.00     0.000 A 
ATOM      5  C5  BNZ d   1       0.914  -0.381  -0.971  0.00  0.00     0.000 A 
ATOM      6  C6  BNZ d   1       0.026  -0.231   0.069  0.00  0.00     0.000 A 
ENDROOT
TORSDOF 0
ENDMDL
