MODEL 1
REMARK minimizedAffinity -1.43831754
REMARK minimizedRMSD -1
REMARK  0 active torsions:
REMARK  status: ('A' for Active; 'I' for Inactive)
ROOT
ATOM      1  C1  BNZ d   1      -1.487  -0.045   1.327  0.00  0.00     0.000 A 
ATOM      2  C2  BNZ d   1      -1.782   1.208   1.793  0.00  0.00     0.000 A 
ATOM      3  C3  BNZ d   1      -1.210   2.316   1.235  0.00  0.00     0.000 A 
ATOM      4  C4  BNZ d   1      -0.313   2.168   0.238  0.00  0.00     0.000 A 
ATOM      5  C5  BNZ d   1       0.002   0.911  -0.237  0.00  0.00     0.000 A 
ATOM      6  C6  BNZ d   1      -0.606  -0.200   0.301  0.00  0.00     0.000 A 
ENDROOT
TORSDOF 0
ENDMDL
