MODEL 1
REMARK minimizedAffinity -3.8161335
REMARK minimizedRMSD -1
REMARK  0 active torsions:
REMARK  status: ('A' for Active; 'I' for Inactive)
ROOT
ATOM      1  C1  BNZ d   1       0.047   0.071   0.452  0.00  0.00     0.000 A 
ATOM      2  C2  BNZ d   1       0.323   1.254  -0.179  0.00  0.00     0.000 A 
ATOM      3  C3  BNZ d   1      -0.148   2.439   0.315  0.00  0.00     0.000 A 
ATOM      4  C4  BNZ d   1      -0.927   2.435   1.416  0.00  0.00     0.000 A 
ATOM      5  C5  BNZ d   1      -1.222   1.249   2.059  0.00  0.00     0.000 A 
ATOM      6  C6  BNZ d   1      -0.714   0.063   1.581  0.00  0.00     0.000 A 
ENDROOT
TORSDOF 0
ENDMDL
