MODEL 1
REMARK minimizedAffinity -2.40249205
REMARK minimizedRMSD -1
REMARK  0 active torsions:
REMARK  status: ('A' for Active; 'I' for Inactive)
ROOT
ATOM      1  C1  BNZ d   1       1.580  -1.741  -1.563  0.00  0.00     0.000 A 
ATOM      2  C2  BNZ d   1       1.632  -0.816  -0.554  0.00  0.00     0.000 A 
ATOM      3  C3  BNZ d   1       0.485  -0.326   0.005  0.00  0.00     0.000 A 
ATOM      4  C4  BNZ d   1      -0.710  -0.730  -0.471  0.00  0.00     0.000 A 
ATOM      5  C5  BNZ d   1      -0.779  -1.655  -1.494  0.00  0.00     0.000 A 
ATOM      6  C6  BNZ d   1       0.378  -2.176  -2.028  0.00  0.00     0.000 A 
ENDROOT
TORSDOF 0
ENDMDL
