MODEL 1
REMARK minimizedAffinity -4.45771074
REMARK minimizedRMSD -1
REMARK  0 active torsions:
REMARK  status: ('A' for Active; 'I' for Inactive)
ROOT
ATOM      1  C1  BNZ d   1      -0.786   3.042   2.216  0.00  0.00     0.000 A 
ATOM      2  C2  BNZ d   1       0.330   3.654   2.721  0.00  0.00     0.000 A 
ATOM      3  C3  BNZ d   1       1.163   4.370   1.908  0.00  0.00     0.000 A 
ATOM      4  C4  BNZ d   1       0.902   4.440   0.586  0.00  0.00     0.000 A 
ATOM      5  C5  BNZ d   1      -0.214   3.820   0.061  0.00  0.00     0.000 A 
ATOM      6  C6  BNZ d   1      -1.072   3.133   0.889  0.00  0.00     0.000 A 
ENDROOT
TORSDOF 0
ENDMDL
