MODEL 1
REMARK minimizedAffinity -4.59087849
REMARK minimizedRMSD -1
REMARK  0 active torsions:
REMARK  status: ('A' for Active; 'I' for Inactive)
ROOT
ATOM      1  C1  BNZ d   1       0.107   0.739   0.041  0.00  0.00     0.000 A 
ATOM      2  C2  BNZ d   1       0.215   1.922  -0.640  0.00  0.00     0.000 A 
ATOM      3  C3  BNZ d   1      -0.434   3.042  -0.203  0.00  0.00     0.000 A 
ATOM      4  C4  BNZ d   1      -1.221   2.969   0.889  0.00  0.00     0.000 A 
ATOM      5  C5  BNZ d   1      -1.347   1.782   1.582  0.00  0.00     0.000 A 
ATOM      6  C6  BNZ d   1      -0.661   0.665   1.162  0.00  0.00     0.000 A 
ENDROOT
TORSDOF 0
ENDMDL
