MODEL 1
REMARK minimizedAffinity 4.11049461
REMARK minimizedRMSD -1
REMARK  0 active torsions:
REMARK  status: ('A' for Active; 'I' for Inactive)
ROOT
ATOM      1  C1  DEN d   1       3.199  -2.668   2.711  0.00  0.00     0.130 A 
ATOM      2  C2  DEN d   1       2.238  -1.694   3.219  0.00  0.00    -0.031 A 
ATOM      3  C3  DEN d   1       2.622  -1.351   4.603  0.00  0.00     0.027 A 
ATOM      4  C4  DEN d   1       4.607  -2.226   5.999  0.00  0.00     0.027 A 
ATOM      5  C5  DEN d   1       5.692  -3.075   5.999  0.00  0.00    -0.003 A 
ATOM      6  C6  DEN d   1       6.000  -3.866   4.924  0.00  0.00     0.001 A 
ATOM      7  C7  DEN d   1       5.240  -3.792   3.787  0.00  0.00     0.017 A 
ATOM      8  C8  DEN d   1       4.140  -2.944   3.782  0.00  0.00    -0.094 A 
ATOM      9  C9  DEN d   1       3.853  -2.143   4.874  0.00  0.00    -0.072 A 
ENDROOT
TORSDOF 0
ENDMDL
