MODEL 1
REMARK minimizedAffinity 8.74946499
REMARK minimizedRMSD -1
REMARK  0 active torsions:
REMARK  status: ('A' for Active; 'I' for Inactive)
ROOT
ATOM      1  C1  DEN d   1      -0.750  -5.631  -2.874  0.00  0.00     0.130 A 
ATOM      2  C2  DEN d   1      -0.386  -6.000  -4.239  0.00  0.00    -0.031 A 
ATOM      3  C3  DEN d   1       0.417  -4.900  -4.811  0.00  0.00     0.027 A 
ATOM      4  C4  DEN d   1       1.131  -2.675  -3.718  0.00  0.00     0.027 A 
ATOM      5  C5  DEN d   1       1.051  -1.909  -2.576  0.00  0.00    -0.003 A 
ATOM      6  C6  DEN d   1       0.342  -2.311  -1.475  0.00  0.00     0.001 A 
ATOM      7  C7  DEN d   1      -0.278  -3.532  -1.476  0.00  0.00     0.017 A 
ATOM      8  C8  DEN d   1      -0.207  -4.308  -2.626  0.00  0.00    -0.094 A 
ATOM      9  C9  DEN d   1       0.524  -3.889  -3.724  0.00  0.00    -0.072 A 
ENDROOT
TORSDOF 0
ENDMDL
