MODEL 1
REMARK minimizedAffinity 12.5736074
REMARK minimizedRMSD -1
REMARK  0 active torsions:
REMARK  status: ('A' for Active; 'I' for Inactive)
ROOT
ATOM      1  C1  DEN d   1      -0.336  -4.730  -3.828  0.00  0.00     0.130 A 
ATOM      2  C2  DEN d   1       0.215  -5.999  -3.362  0.00  0.00    -0.031 A 
ATOM      3  C3  DEN d   1       0.485  -5.876  -1.916  0.00  0.00     0.027 A 
ATOM      4  C4  DEN d   1       0.102  -3.856  -0.359  0.00  0.00     0.027 A 
ATOM      5  C5  DEN d   1      -0.336  -2.551  -0.301  0.00  0.00    -0.003 A 
ATOM      6  C6  DEN d   1      -0.769  -1.876  -1.411  0.00  0.00     0.001 A 
ATOM      7  C7  DEN d   1      -0.816  -2.517  -2.620  0.00  0.00     0.017 A 
ATOM      8  C8  DEN d   1      -0.369  -3.830  -2.689  0.00  0.00    -0.094 A 
ATOM      9  C9  DEN d   1       0.053  -4.500  -1.553  0.00  0.00    -0.072 A 
ENDROOT
TORSDOF 0
ENDMDL
