MODEL 1
REMARK minimizedAffinity 9.47059155
REMARK minimizedRMSD -1
REMARK  0 active torsions:
REMARK  status: ('A' for Active; 'I' for Inactive)
ROOT
ATOM      1  C1  DEN d   1       0.310  -1.132  -0.752  0.00  0.00     0.130 A 
ATOM      2  C2  DEN d   1       0.546  -1.518  -2.140  0.00  0.00    -0.031 A 
ATOM      3  C3  DEN d   1      -0.426  -2.572  -2.493  0.00  0.00     0.027 A 
ATOM      4  C4  DEN d   1      -2.268  -3.635  -1.033  0.00  0.00     0.027 A 
ATOM      5  C5  DEN d   1      -2.845  -3.641   0.218  0.00  0.00    -0.003 A 
ATOM      6  C6  DEN d   1      -2.393  -2.842   1.235  0.00  0.00     0.001 A 
ATOM      7  C7  DEN d   1      -1.361  -1.970   1.005  0.00  0.00     0.017 A 
ATOM      8  C8  DEN d   1      -0.769  -1.964  -0.251  0.00  0.00    -0.094 A 
ATOM      9  C9  DEN d   1      -1.249  -2.770  -1.269  0.00  0.00    -0.072 A 
ENDROOT
TORSDOF 0
ENDMDL
