MODEL 1
REMARK minimizedAffinity 2.67717767
REMARK minimizedRMSD -1
REMARK  0 active torsions:
REMARK  status: ('A' for Active; 'I' for Inactive)
ROOT
ATOM      1  C1  DEN d   1       5.078  -3.866   2.079  0.00  0.00     0.130 A 
ATOM      2  C2  DEN d   1       4.079  -3.082   1.360  0.00  0.00    -0.031 A 
ATOM      3  C3  DEN d   1       3.323  -2.287   2.349  0.00  0.00     0.027 A 
ATOM      4  C4  DEN d   1       3.606  -2.192   4.911  0.00  0.00     0.027 A 
ATOM      5  C5  DEN d   1       4.315  -2.690   5.981  0.00  0.00    -0.003 A 
ATOM      6  C6  DEN d   1       5.298  -3.632   5.831  0.00  0.00     0.001 A 
ATOM      7  C7  DEN d   1       5.629  -4.074   4.577  0.00  0.00     0.017 A 
ATOM      8  C8  DEN d   1       4.913  -3.582   3.493  0.00  0.00    -0.094 A 
ATOM      9  C9  DEN d   1       3.932  -2.620   3.665  0.00  0.00    -0.072 A 
ENDROOT
TORSDOF 0
ENDMDL
