MODEL 1
REMARK minimizedAffinity 26.3239307
REMARK minimizedRMSD -1
REMARK  0 active torsions:
REMARK  status: ('A' for Active; 'I' for Inactive)
ROOT
ATOM      1  C1  DEN d   1      -2.817  -0.561   1.678  0.00  0.00     0.130 A 
ATOM      2  C2  DEN d   1      -2.225  -1.780   1.132  0.00  0.00    -0.031 A 
ATOM      3  C3  DEN d   1      -1.453  -2.434   2.208  0.00  0.00     0.027 A 
ATOM      4  C4  DEN d   1      -1.122  -1.685   4.653  0.00  0.00     0.027 A 
ATOM      5  C5  DEN d   1      -1.420  -0.709   5.579  0.00  0.00    -0.003 A 
ATOM      6  C6  DEN d   1      -2.170   0.393   5.262  0.00  0.00     0.001 A 
ATOM      7  C7  DEN d   1      -2.686   0.523   4.000  0.00  0.00     0.017 A 
ATOM      8  C8  DEN d   1      -2.383  -0.453   3.059  0.00  0.00    -0.094 A 
ATOM      9  C9  DEN d   1      -1.633  -1.565   3.402  0.00  0.00    -0.072 A 
ENDROOT
TORSDOF 0
ENDMDL
