MODEL 1
REMARK minimizedAffinity 4.28116179
REMARK minimizedRMSD -1
REMARK  0 active torsions:
REMARK  status: ('A' for Active; 'I' for Inactive)
ROOT
ATOM      1  C1  DEN d   1       4.355   6.000  -1.897  0.00  0.00     0.130 A 
ATOM      2  C2  DEN d   1       5.201   5.224  -0.995  0.00  0.00    -0.031 A 
ATOM      3  C3  DEN d   1       5.995   4.283  -1.810  0.00  0.00     0.027 A 
ATOM      4  C4  DEN d   1       6.000   3.957  -4.369  0.00  0.00     0.027 A 
ATOM      5  C5  DEN d   1       5.441   4.378  -5.555  0.00  0.00    -0.003 A 
ATOM      6  C6  DEN d   1       4.464   5.338  -5.602  0.00  0.00     0.001 A 
ATOM      7  C7  DEN d   1       4.049   5.940  -4.444  0.00  0.00     0.017 A 
ATOM      8  C8  DEN d   1       4.602   5.516  -3.243  0.00  0.00    -0.094 A 
ATOM      9  C9  DEN d   1       5.597   4.553  -3.218  0.00  0.00    -0.072 A 
ENDROOT
TORSDOF 0
ENDMDL
