MODEL 1
REMARK minimizedAffinity 7.11918354
REMARK minimizedRMSD -1
REMARK  0 active torsions:
REMARK  status: ('A' for Active; 'I' for Inactive)
ROOT
ATOM      1  C1  DEN d   1       5.983  -4.432   5.974  0.00  0.00     0.130 A 
ATOM      2  C2  DEN d   1       4.901  -5.412   5.986  0.00  0.00    -0.031 A 
ATOM      3  C3  DEN d   1       3.620  -4.678   5.982  0.00  0.00     0.027 A 
ATOM      4  C4  DEN d   1       3.209  -2.132   5.954  0.00  0.00     0.027 A 
ATOM      5  C5  DEN d   1       3.817  -0.897   5.953  0.00  0.00    -0.003 A 
ATOM      6  C6  DEN d   1       5.179  -0.754   5.992  0.00  0.00     0.001 A 
ATOM      7  C7  DEN d   1       5.979  -1.866   5.989  0.00  0.00     0.017 A 
ATOM      8  C8  DEN d   1       5.372  -3.115   5.998  0.00  0.00    -0.094 A 
ATOM      9  C9  DEN d   1       3.994  -3.239   5.946  0.00  0.00    -0.072 A 
ENDROOT
TORSDOF 0
ENDMDL
