MODEL 1
REMARK minimizedAffinity 1.29022825
REMARK minimizedRMSD -1
REMARK  0 active torsions:
REMARK  status: ('A' for Active; 'I' for Inactive)
ROOT
ATOM      1  C1  DEN d   1      -1.120  -3.499  -2.586  0.00  0.00     0.130 A 
ATOM      2  C2  DEN d   1      -0.081  -2.639  -3.145  0.00  0.00    -0.031 A 
ATOM      3  C3  DEN d   1       0.295  -1.649  -2.116  0.00  0.00     0.027 A 
ATOM      4  C4  DEN d   1      -0.625  -1.367   0.277  0.00  0.00     0.027 A 
ATOM      5  C5  DEN d   1      -1.526  -1.854   1.198  0.00  0.00    -0.003 A 
ATOM      6  C6  DEN d   1      -2.372  -2.893   0.913  0.00  0.00     0.001 A 
ATOM      7  C7  DEN d   1      -2.303  -3.509  -0.309  0.00  0.00     0.017 A 
ATOM      8  C8  DEN d   1      -1.402  -3.019  -1.245  0.00  0.00    -0.094 A 
ATOM      9  C9  DEN d   1      -0.547  -1.975  -0.934  0.00  0.00    -0.072 A 
ENDROOT
TORSDOF 0
ENDMDL
