MODEL 1
REMARK minimizedAffinity 5.19543982
REMARK minimizedRMSD -1
REMARK  0 active torsions:
REMARK  status: ('A' for Active; 'I' for Inactive)
ROOT
ATOM      1  C1  DEN d   1      -0.471  -1.810  -2.517  0.00  0.00     0.130 A 
ATOM      2  C2  DEN d   1       0.003  -2.639  -1.413  0.00  0.00    -0.031 A 
ATOM      3  C3  DEN d   1       0.369  -3.961  -1.959  0.00  0.00     0.027 A 
ATOM      4  C4  DEN d   1       0.254  -4.798  -4.396  0.00  0.00     0.027 A 
ATOM      5  C5  DEN d   1      -0.093  -4.458  -5.685  0.00  0.00    -0.003 A 
ATOM      6  C6  DEN d   1      -0.618  -3.232  -6.000  0.00  0.00     0.001 A 
ATOM      7  C7  DEN d   1      -0.769  -2.286  -5.021  0.00  0.00     0.017 A 
ATOM      8  C8  DEN d   1      -0.428  -2.625  -3.718  0.00  0.00    -0.094 A 
ATOM      9  C9  DEN d   1       0.113  -3.865  -3.421  0.00  0.00    -0.072 A 
ENDROOT
TORSDOF 0
ENDMDL
