MODEL 1
REMARK minimizedAffinity 5.17816257
REMARK minimizedRMSD -1
REMARK  0 active torsions:
REMARK  status: ('A' for Active; 'I' for Inactive)
ROOT
ATOM      1  C1  DEN d   1       3.628   3.633  -4.500  0.00  0.00     0.130 A 
ATOM      2  C2  DEN d   1       4.850   3.095  -5.090  0.00  0.00    -0.031 A 
ATOM      3  C3  DEN d   1       5.998   3.628  -4.328  0.00  0.00     0.027 A 
ATOM      4  C4  DEN d   1       5.999   5.224  -2.302  0.00  0.00     0.027 A 
ATOM      5  C5  DEN d   1       5.203   5.958  -1.450  0.00  0.00    -0.003 A 
ATOM      6  C6  DEN d   1       3.840   5.995  -1.576  0.00  0.00     0.001 A 
ATOM      7  C7  DEN d   1       3.227   5.249  -2.548  0.00  0.00     0.017 A 
ATOM      8  C8  DEN d   1       4.023   4.512  -3.415  0.00  0.00    -0.094 A 
ATOM      9  C9  DEN d   1       5.399   4.478  -3.264  0.00  0.00    -0.072 A 
ENDROOT
TORSDOF 0
ENDMDL
