MODEL 1
REMARK minimizedAffinity 6.43973017
REMARK minimizedRMSD -1
REMARK  0 active torsions:
REMARK  status: ('A' for Active; 'I' for Inactive)
ROOT
ATOM      1  C1  DEN d   1      -0.791  -5.698  -3.451  0.00  0.00     0.130 A 
ATOM      2  C2  DEN d   1      -1.069  -5.999  -4.853  0.00  0.00    -0.031 A 
ATOM      3  C3  DEN d   1      -0.837  -4.771  -5.639  0.00  0.00     0.027 A 
ATOM      4  C4  DEN d   1      -0.074  -2.445  -4.828  0.00  0.00     0.027 A 
ATOM      5  C5  DEN d   1       0.275  -1.700  -3.723  0.00  0.00    -0.003 A 
ATOM      6  C6  DEN d   1       0.260  -2.222  -2.456  0.00  0.00     0.001 A 
ATOM      7  C7  DEN d   1      -0.068  -3.539  -2.268  0.00  0.00     0.017 A 
ATOM      8  C8  DEN d   1      -0.428  -4.294  -3.377  0.00  0.00    -0.094 A 
ATOM      9  C9  DEN d   1      -0.394  -3.752  -4.650  0.00  0.00    -0.072 A 
ENDROOT
TORSDOF 0
ENDMDL
