MODEL 1
REMARK minimizedAffinity 3.28127122
REMARK minimizedRMSD -1
REMARK  0 active torsions:
REMARK  status: ('A' for Active; 'I' for Inactive)
ROOT
ATOM      1  C1  DEN d   1      -0.986   0.541   1.725  0.00  0.00     0.130 A 
ATOM      2  C2  DEN d   1      -1.839   0.343   2.893  0.00  0.00    -0.031 A 
ATOM      3  C3  DEN d   1      -2.559  -0.936   2.722  0.00  0.00     0.027 A 
ATOM      4  C4  DEN d   1      -2.432  -2.620   0.773  0.00  0.00     0.027 A 
ATOM      5  C5  DEN d   1      -1.855  -2.880  -0.451  0.00  0.00    -0.003 A 
ATOM      6  C6  DEN d   1      -0.981  -2.008  -1.046  0.00  0.00     0.001 A 
ATOM      7  C7  DEN d   1      -0.624  -0.856  -0.397  0.00  0.00     0.017 A 
ATOM      8  C8  DEN d   1      -1.207  -0.584   0.834  0.00  0.00    -0.094 A 
ATOM      9  C9  DEN d   1      -2.079  -1.483   1.424  0.00  0.00    -0.072 A 
ENDROOT
TORSDOF 0
ENDMDL
