MODEL 1
REMARK minimizedAffinity 6.16957331
REMARK minimizedRMSD -1
REMARK  0 active torsions:
REMARK  status: ('A' for Active; 'I' for Inactive)
ROOT
ATOM      1  C1  DEN d   1      -0.799  -5.394  -3.193  0.00  0.00     0.130 A 
ATOM      2  C2  DEN d   1       0.106  -5.588  -4.323  0.00  0.00    -0.031 A 
ATOM      3  C3  DEN d   1       0.928  -4.370  -4.465  0.00  0.00     0.027 A 
ATOM      4  C4  DEN d   1       0.890  -2.214  -3.050  0.00  0.00     0.027 A 
ATOM      5  C5  DEN d   1       0.283  -1.577  -1.990  0.00  0.00    -0.003 A 
ATOM      6  C6  DEN d   1      -0.741  -2.150  -1.284  0.00  0.00     0.001 A 
ATOM      7  C7  DEN d   1      -1.160  -3.415  -1.601  0.00  0.00     0.017 A 
ATOM      8  C8  DEN d   1      -0.558  -4.060  -2.673  0.00  0.00    -0.094 A 
ATOM      9  C9  DEN d   1       0.484  -3.469  -3.367  0.00  0.00    -0.072 A 
ENDROOT
TORSDOF 0
ENDMDL
