MODEL 1
REMARK minimizedAffinity 6.14306593
REMARK minimizedRMSD -1
REMARK  0 active torsions:
REMARK  status: ('A' for Active; 'I' for Inactive)
ROOT
ATOM      1  C1  DEN d   1       0.245  -2.042  -0.736  0.00  0.00     0.130 A 
ATOM      2  C2  DEN d   1      -0.534  -2.055  -1.971  0.00  0.00    -0.031 A 
ATOM      3  C3  DEN d   1       0.410  -2.035  -3.107  0.00  0.00     0.027 A 
ATOM      4  C4  DEN d   1       2.989  -1.990  -3.073  0.00  0.00     0.027 A 
ATOM      5  C5  DEN d   1       4.100  -1.958  -2.260  0.00  0.00    -0.003 A 
ATOM      6  C6  DEN d   1       4.005  -1.918  -0.894  0.00  0.00     0.001 A 
ATOM      7  C7  DEN d   1       2.772  -1.954  -0.298  0.00  0.00     0.017 A 
ATOM      8  C8  DEN d   1       1.646  -1.979  -1.111  0.00  0.00    -0.094 A 
ATOM      9  C9  DEN d   1       1.764  -2.031  -2.490  0.00  0.00    -0.072 A 
ENDROOT
TORSDOF 0
ENDMDL
