MODEL 1
REMARK minimizedAffinity -4.38721037
REMARK minimizedRMSD -1
REMARK  0 active torsions:
REMARK  status: ('A' for Active; 'I' for Inactive)
ROOT
ATOM      1  C1  DEN d   1      -0.413  -1.654  -1.500  0.00  0.00     0.130 A 
ATOM      2  C2  DEN d   1      -0.846  -2.839  -0.765  0.00  0.00    -0.031 A 
ATOM      3  C3  DEN d   1      -1.183  -2.425   0.611  0.00  0.00     0.027 A 
ATOM      4  C4  DEN d   1      -1.083  -0.075   1.670  0.00  0.00     0.027 A 
ATOM      5  C5  DEN d   1      -0.766   1.246   1.442  0.00  0.00    -0.003 A 
ATOM      6  C6  DEN d   1      -0.281   1.683   0.238  0.00  0.00     0.001 A 
ATOM      7  C7  DEN d   1      -0.141   0.799  -0.799  0.00  0.00     0.017 A 
ATOM      8  C8  DEN d   1      -0.452  -0.535  -0.575  0.00  0.00    -0.094 A 
ATOM      9  C9  DEN d   1      -0.952  -0.956   0.646  0.00  0.00    -0.072 A 
ENDROOT
TORSDOF 0
ENDMDL
