MODEL 1
REMARK minimizedAffinity -5.35671759
REMARK minimizedRMSD -1
REMARK  0 active torsions:
REMARK  status: ('A' for Active; 'I' for Inactive)
ROOT
ATOM      1  C1  DEN d   1       0.539   0.686  -0.955  0.00  0.00     0.130 A 
ATOM      2  C2  DEN d   1       0.046   0.962   0.391  0.00  0.00    -0.031 A 
ATOM      3  C3  DEN d   1      -0.654  -0.243   0.878  0.00  0.00     0.027 A 
ATOM      4  C4  DEN d   1      -1.019  -2.500  -0.315  0.00  0.00     0.027 A 
ATOM      5  C5  DEN d   1      -0.794  -3.205  -1.477  0.00  0.00    -0.003 A 
ATOM      6  C6  DEN d   1      -0.144  -2.656  -2.550  0.00  0.00     0.001 A 
ATOM      7  C7  DEN d   1       0.344  -1.378  -2.467  0.00  0.00     0.017 A 
ATOM      8  C8  DEN d   1       0.114  -0.659  -1.302  0.00  0.00    -0.094 A 
ATOM      9  C9  DEN d   1      -0.534  -1.236  -0.223  0.00  0.00    -0.072 A 
ENDROOT
TORSDOF 0
ENDMDL
