MODEL 1
REMARK minimizedAffinity -4.57083654
REMARK minimizedRMSD -1
REMARK  0 active torsions:
REMARK  status: ('A' for Active; 'I' for Inactive)
ROOT
ATOM      1  C1  DEN d   1       0.804   0.279  -1.171  0.00  0.00     0.130 A 
ATOM      2  C2  DEN d   1       0.570   0.730   0.198  0.00  0.00    -0.031 A 
ATOM      3  C3  DEN d   1       0.099  -0.428   0.985  0.00  0.00     0.027 A 
ATOM      4  C4  DEN d   1      -0.283  -2.862   0.221  0.00  0.00     0.027 A 
ATOM      5  C5  DEN d   1      -0.231  -3.722  -0.853  0.00  0.00    -0.003 A 
ATOM      6  C6  DEN d   1       0.133  -3.305  -2.105  0.00  0.00     0.001 A 
ATOM      7  C7  DEN d   1       0.505  -2.002  -2.306  0.00  0.00     0.017 A 
ATOM      8  C8  DEN d   1       0.448  -1.127  -1.229  0.00  0.00    -0.094 A 
ATOM      9  C9  DEN d   1       0.088  -1.570   0.032  0.00  0.00    -0.072 A 
ENDROOT
TORSDOF 0
ENDMDL
