MODEL 1
REMARK minimizedAffinity -3.4542861
REMARK minimizedRMSD -1
REMARK  0 active torsions:
REMARK  status: ('A' for Active; 'I' for Inactive)
ROOT
ATOM      1  C1  DEN d   1       0.070  -1.832  -2.635  0.00  0.00     0.130 A 
ATOM      2  C2  DEN d   1      -0.332  -3.235  -2.690  0.00  0.00    -0.031 A 
ATOM      3  C3  DEN d   1      -0.867  -3.609  -1.366  0.00  0.00     0.027 A 
ATOM      4  C4  DEN d   1      -1.116  -2.159   0.753  0.00  0.00     0.027 A 
ATOM      5  C5  DEN d   1      -0.901  -0.908   1.288  0.00  0.00    -0.003 A 
ATOM      6  C6  DEN d   1      -0.321   0.104   0.571  0.00  0.00     0.001 A 
ATOM      7  C7  DEN d   1       0.023  -0.103  -0.739  0.00  0.00     0.017 A 
ATOM      8  C8  DEN d   1      -0.184  -1.364  -1.284  0.00  0.00    -0.094 A 
ATOM      9  C9  DEN d   1      -0.782  -2.370  -0.546  0.00  0.00    -0.072 A 
ENDROOT
TORSDOF 0
ENDMDL
