MODEL 1
REMARK minimizedAffinity -3.27463198
REMARK minimizedRMSD -1
REMARK  0 active torsions:
REMARK  status: ('A' for Active; 'I' for Inactive)
ROOT
ATOM      1  C1  DEN d   1       0.093   0.583  -0.862  0.00  0.00     0.130 A 
ATOM      2  C2  DEN d   1      -0.269   0.888   0.520  0.00  0.00    -0.031 A 
ATOM      3  C3  DEN d   1      -0.733  -0.361   1.157  0.00  0.00     0.027 A 
ATOM      4  C4  DEN d   1      -0.921  -2.726   0.145  0.00  0.00     0.027 A 
ATOM      5  C5  DEN d   1      -0.740  -3.476  -0.996  0.00  0.00    -0.003 A 
ATOM      6  C6  DEN d   1      -0.305  -2.924  -2.172  0.00  0.00     0.001 A 
ATOM      7  C7  DEN d   1       0.008  -1.591  -2.221  0.00  0.00     0.017 A 
ATOM      8  C8  DEN d   1      -0.179  -0.827  -1.077  0.00  0.00    -0.094 A 
ATOM      9  C9  DEN d   1      -0.608  -1.406   0.105  0.00  0.00    -0.072 A 
ENDROOT
TORSDOF 0
ENDMDL
