MODEL 1
REMARK minimizedAffinity -1.42512798
REMARK minimizedRMSD -1
REMARK  0 active torsions:
REMARK  status: ('A' for Active; 'I' for Inactive)
ROOT
ATOM      1  C1  DEN d   1       0.442  -0.145   1.985  0.00  0.00     0.130 A 
ATOM      2  C2  DEN d   1      -0.515  -0.862   1.147  0.00  0.00    -0.031 A 
ATOM      3  C3  DEN d   1      -0.765  -0.047  -0.060  0.00  0.00     0.027 A 
ATOM      4  C4  DEN d   1       0.235   2.240  -0.709  0.00  0.00     0.027 A 
ATOM      5  C5  DEN d   1       1.084   3.248  -0.309  0.00  0.00    -0.003 A 
ATOM      6  C6  DEN d   1       1.746   3.213   0.889  0.00  0.00     0.001 A 
ATOM      7  C7  DEN d   1       1.606   2.125   1.710  0.00  0.00     0.017 A 
ATOM      8  C8  DEN d   1       0.746   1.108   1.317  0.00  0.00    -0.094 A 
ATOM      9  C9  DEN d   1       0.095   1.157   0.096  0.00  0.00    -0.072 A 
ENDROOT
TORSDOF 0
ENDMDL
