MODEL 1
REMARK minimizedAffinity -2.12069678
REMARK minimizedRMSD -1
REMARK  0 active torsions:
REMARK  status: ('A' for Active; 'I' for Inactive)
ROOT
ATOM      1  C1  DEN d   1      -0.194   0.320  -0.787  0.00  0.00     0.130 A 
ATOM      2  C2  DEN d   1      -0.075   0.821   0.580  0.00  0.00    -0.031 A 
ATOM      3  C3  DEN d   1      -0.355  -0.298   1.502  0.00  0.00     0.027 A 
ATOM      4  C4  DEN d   1      -0.953  -2.745   0.950  0.00  0.00     0.027 A 
ATOM      5  C5  DEN d   1      -1.183  -3.642  -0.070  0.00  0.00    -0.003 A 
ATOM      6  C6  DEN d   1      -1.132  -3.276  -1.389  0.00  0.00     0.001 A 
ATOM      7  C7  DEN d   1      -0.801  -1.990  -1.724  0.00  0.00     0.017 A 
ATOM      8  C8  DEN d   1      -0.576  -1.078  -0.701  0.00  0.00    -0.094 A 
ATOM      9  C9  DEN d   1      -0.620  -1.470   0.626  0.00  0.00    -0.072 A 
ENDROOT
TORSDOF 0
ENDMDL
