MODEL 1
REMARK minimizedAffinity -0.67504251
REMARK minimizedRMSD -1
REMARK  0 active torsions:
REMARK  status: ('A' for Active; 'I' for Inactive)
ROOT
ATOM      1  C1  DEN d   1      -1.161  -3.507  -1.376  0.00  0.00     0.130 A 
ATOM      2  C2  DEN d   1      -0.687  -3.170  -2.716  0.00  0.00    -0.031 A 
ATOM      3  C3  DEN d   1      -0.155  -1.794  -2.680  0.00  0.00     0.027 A 
ATOM      4  C4  DEN d   1      -0.013  -0.160  -0.688  0.00  0.00     0.027 A 
ATOM      5  C5  DEN d   1      -0.299   0.007   0.649  0.00  0.00    -0.003 A 
ATOM      6  C6  DEN d   1      -0.918  -0.964   1.390  0.00  0.00     0.001 A 
ATOM      7  C7  DEN d   1      -1.231  -2.165   0.810  0.00  0.00     0.017 A 
ATOM      8  C8  DEN d   1      -0.952  -2.339  -0.539  0.00  0.00    -0.094 A 
ATOM      9  C9  DEN d   1      -0.315  -1.349  -1.269  0.00  0.00    -0.072 A 
ENDROOT
TORSDOF 0
ENDMDL
