MODEL 1
REMARK minimizedAffinity 1.47122324
REMARK minimizedRMSD -1
REMARK  0 active torsions:
REMARK  status: ('A' for Active; 'I' for Inactive)
ROOT
ATOM      1  C1  DEN d   1      -0.181  -0.143  -1.681  0.00  0.00     0.130 A 
ATOM      2  C2  DEN d   1       0.197   1.249  -1.458  0.00  0.00    -0.031 A 
ATOM      3  C3  DEN d   1       0.051   1.536  -0.016  0.00  0.00     0.027 A 
ATOM      4  C4  DEN d   1      -0.713  -0.034   1.882  0.00  0.00     0.027 A 
ATOM      5  C5  DEN d   1      -1.150  -1.306   2.179  0.00  0.00    -0.003 A 
ATOM      6  C6  DEN d   1      -1.326  -2.262   1.213  0.00  0.00     0.001 A 
ATOM      7  C7  DEN d   1      -1.019  -1.974  -0.090  0.00  0.00     0.017 A 
ATOM      8  C8  DEN d   1      -0.586  -0.691  -0.399  0.00  0.00    -0.094 A 
ATOM      9  C9  DEN d   1      -0.403   0.258   0.593  0.00  0.00    -0.072 A 
ENDROOT
TORSDOF 0
ENDMDL
