MODEL 1
REMARK minimizedAffinity -4.436028
REMARK minimizedRMSD -1
REMARK  0 active torsions:
REMARK  status: ('A' for Active; 'I' for Inactive)
ROOT
ATOM      1  C1  DEN d   1      -0.432   0.152   0.885  0.00  0.00     0.130 A 
ATOM      2  C2  DEN d   1       0.137   1.196   0.038  0.00  0.00    -0.031 A 
ATOM      3  C3  DEN d   1       0.402   0.611  -1.292  0.00  0.00     0.027 A 
ATOM      4  C4  DEN d   1      -0.017  -1.796  -2.118  0.00  0.00     0.027 A 
ATOM      5  C5  DEN d   1      -0.475  -3.043  -1.756  0.00  0.00    -0.003 A 
ATOM      6  C6  DEN d   1      -0.916  -3.320  -0.489  0.00  0.00     0.001 A 
ATOM      7  C7  DEN d   1      -0.950  -2.323   0.450  0.00  0.00     0.017 A 
ATOM      8  C8  DEN d   1      -0.483  -1.065   0.095  0.00  0.00    -0.094 A 
ATOM      9  C9  DEN d   1      -0.053  -0.802  -1.195  0.00  0.00    -0.072 A 
ENDROOT
TORSDOF 0
ENDMDL
