MODEL 1
REMARK minimizedAffinity 19.9724102
REMARK minimizedRMSD -1
REMARK  0 active torsions:
REMARK  status: ('A' for Active; 'I' for Inactive)
ROOT
ATOM      1  C   UNL d   1      -1.979  -3.943  -3.482  0.00  0.00    -0.002 A 
ATOM      2  C1  UNL d   1      -2.214  -5.288  -3.730  0.00  0.00     0.010 A 
ATOM      3  C2  UNL d   1      -3.138  -6.000  -2.963  0.00  0.00     0.041 A 
ATOM      4  C3  UNL d   1      -3.830  -5.331  -1.934  0.00  0.00    -0.075 A 
ATOM      5  S   UNL d   1      -5.008  -6.000  -0.867  0.00  0.00     0.015 SA
ATOM      6  C4  UNL d   1      -5.227  -4.516  -0.058  0.00  0.00     0.022 A 
ATOM      7  C5  UNL d   1      -4.429  -3.524  -0.576  0.00  0.00     0.026 A 
ATOM      8  C6  UNL d   1      -3.611  -3.977  -1.666  0.00  0.00    -0.082 A 
ATOM      9  C7  UNL d   1      -2.667  -3.282  -2.460  0.00  0.00     0.045 A 
ENDROOT
TORSDOF 0
ENDMDL
