MODEL 1
REMARK minimizedAffinity 16.6748943
REMARK minimizedRMSD -1
REMARK  0 active torsions:
REMARK  status: ('A' for Active; 'I' for Inactive)
ROOT
ATOM      1  C   UNL d   1      -1.241  -0.089   1.503  0.00  0.00    -0.002 A 
ATOM      2  C1  UNL d   1      -1.236   1.088   0.768  0.00  0.00     0.010 A 
ATOM      3  C2  UNL d   1      -0.068   1.532   0.146  0.00  0.00     0.041 A 
ATOM      4  C3  UNL d   1       1.106   0.764   0.274  0.00  0.00    -0.075 A 
ATOM      5  S   UNL d   1       2.654   1.111  -0.402  0.00  0.00     0.015 SA
ATOM      6  C4  UNL d   1       3.345  -0.295   0.267  0.00  0.00     0.022 A 
ATOM      7  C5  UNL d   1       2.431  -1.024   0.992  0.00  0.00     0.026 A 
ATOM      8  C6  UNL d   1       1.126  -0.425   1.007  0.00  0.00    -0.082 A 
ATOM      9  C7  UNL d   1      -0.074  -0.848   1.627  0.00  0.00     0.045 A 
ENDROOT
TORSDOF 0
ENDMDL
