MODEL 1
REMARK minimizedAffinity 3.04092574
REMARK minimizedRMSD -1
REMARK  0 active torsions:
REMARK  status: ('A' for Active; 'I' for Inactive)
ROOT
ATOM      1  C   UNL d   1       0.009  -0.878   0.337  0.00  0.00    -0.002 A 
ATOM      2  C1  UNL d   1      -0.863   0.201   0.316  0.00  0.00     0.010 A 
ATOM      3  C2  UNL d   1      -0.420   1.465  -0.079  0.00  0.00     0.041 A 
ATOM      4  C3  UNL d   1       0.927   1.627  -0.458  0.00  0.00    -0.075 A 
ATOM      5  S   UNL d   1       1.692   3.082  -0.979  0.00  0.00     0.015 SA
ATOM      6  C4  UNL d   1       3.195   2.305  -1.186  0.00  0.00     0.022 A 
ATOM      7  C5  UNL d   1       3.133   0.969  -0.870  0.00  0.00     0.026 A 
ATOM      8  C6  UNL d   1       1.824   0.556  -0.446  0.00  0.00    -0.082 A 
ATOM      9  C7  UNL d   1       1.345  -0.713  -0.039  0.00  0.00     0.045 A 
ENDROOT
TORSDOF 0
ENDMDL
