MODEL 1
REMARK minimizedAffinity 12.1945934
REMARK minimizedRMSD -1
REMARK  0 active torsions:
REMARK  status: ('A' for Active; 'I' for Inactive)
ROOT
ATOM      1  C   UNL d   1       1.405  -4.325  -4.032  0.00  0.00    -0.002 A 
ATOM      2  C1  UNL d   1       1.774  -3.057  -4.457  0.00  0.00     0.010 A 
ATOM      3  C2  UNL d   1       3.098  -2.781  -4.805  0.00  0.00     0.041 A 
ATOM      4  C3  UNL d   1       4.054  -3.813  -4.721  0.00  0.00    -0.075 A 
ATOM      5  S   UNL d   1       5.733  -3.707  -5.098  0.00  0.00     0.015 SA
ATOM      6  C4  UNL d   1       6.000  -5.344  -4.706  0.00  0.00     0.022 A 
ATOM      7  C5  UNL d   1       4.847  -5.971  -4.295  0.00  0.00     0.026 A 
ATOM      8  C6  UNL d   1       3.706  -5.099  -4.298  0.00  0.00    -0.082 A 
ATOM      9  C7  UNL d   1       2.356  -5.346  -3.951  0.00  0.00     0.045 A 
ENDROOT
TORSDOF 0
ENDMDL
