MODEL 1
REMARK minimizedAffinity 16.9519768
REMARK minimizedRMSD -1
REMARK  0 active torsions:
REMARK  status: ('A' for Active; 'I' for Inactive)
ROOT
ATOM      1  C   UNL d   1      -4.232  -4.406   3.607  0.00  0.00    -0.002 A 
ATOM      2  C1  UNL d   1      -5.148  -5.449   3.624  0.00  0.00     0.010 A 
ATOM      3  C2  UNL d   1      -5.618  -6.000   2.430  0.00  0.00     0.041 A 
ATOM      4  C3  UNL d   1      -5.147  -5.482   1.208  0.00  0.00    -0.075 A 
ATOM      5  S   UNL d   1      -5.582  -6.000  -0.378  0.00  0.00     0.015 SA
ATOM      6  C4  UNL d   1      -4.562  -4.850  -1.114  0.00  0.00     0.022 A 
ATOM      7  C5  UNL d   1      -3.898  -4.081  -0.188  0.00  0.00     0.026 A 
ATOM      8  C6  UNL d   1      -4.224  -4.433   1.166  0.00  0.00    -0.082 A 
ATOM      9  C7  UNL d   1      -3.767  -3.895   2.393  0.00  0.00     0.045 A 
ENDROOT
TORSDOF 0
ENDMDL
