MODEL 1
REMARK minimizedAffinity 4.48042393
REMARK minimizedRMSD -1
REMARK  0 active torsions:
REMARK  status: ('A' for Active; 'I' for Inactive)
ROOT
ATOM      1  C   UNL d   1      -3.657  -3.973   1.159  0.00  0.00    -0.002 A 
ATOM      2  C1  UNL d   1      -4.047  -5.299   1.287  0.00  0.00     0.010 A 
ATOM      3  C2  UNL d   1      -4.554  -6.000   0.191  0.00  0.00     0.041 A 
ATOM      4  C3  UNL d   1      -4.662  -5.340  -1.049  0.00  0.00    -0.075 A 
ATOM      5  S   UNL d   1      -5.253  -5.998  -2.529  0.00  0.00     0.015 SA
ATOM      6  C4  UNL d   1      -5.001  -4.535  -3.367  0.00  0.00     0.022 A 
ATOM      7  C5  UNL d   1      -4.480  -3.558  -2.553  0.00  0.00     0.026 A 
ATOM      8  C6  UNL d   1      -4.275  -4.005  -1.204  0.00  0.00    -0.082 A 
ATOM      9  C7  UNL d   1      -3.766  -3.322  -0.073  0.00  0.00     0.045 A 
ENDROOT
TORSDOF 0
ENDMDL
