MODEL 1
REMARK minimizedAffinity -0.331692457
REMARK minimizedRMSD -1
REMARK  0 active torsions:
REMARK  status: ('A' for Active; 'I' for Inactive)
ROOT
ATOM      1  C   UNL d   1       5.382  -5.998  -5.099  0.00  0.00    -0.002 A 
ATOM      2  C1  UNL d   1       4.306  -5.689  -5.920  0.00  0.00     0.010 A 
ATOM      3  C2  UNL d   1       3.826  -4.380  -5.997  0.00  0.00     0.041 A 
ATOM      4  C3  UNL d   1       4.452  -3.378  -5.230  0.00  0.00    -0.075 A 
ATOM      5  S   UNL d   1       4.036  -1.706  -5.166  0.00  0.00     0.015 SA
ATOM      6  C4  UNL d   1       5.276  -1.363  -4.048  0.00  0.00     0.022 A 
ATOM      7  C5  UNL d   1       6.000  -2.485  -3.721  0.00  0.00     0.026 A 
ATOM      8  C6  UNL d   1       5.537  -3.665  -4.397  0.00  0.00    -0.082 A 
ATOM      9  C7  UNL d   1       6.000  -5.001  -4.340  0.00  0.00     0.045 A 
ENDROOT
TORSDOF 0
ENDMDL
