MODEL 1
REMARK minimizedAffinity 15.6384268
REMARK minimizedRMSD -1
REMARK  0 active torsions:
REMARK  status: ('A' for Active; 'I' for Inactive)
ROOT
ATOM      1  C   UNL d   1       3.282  -0.474   2.328  0.00  0.00    -0.002 A 
ATOM      2  C1  UNL d   1       4.524   0.144   2.295  0.00  0.00     0.010 A 
ATOM      3  C2  UNL d   1       4.803   1.126   1.343  0.00  0.00     0.041 A 
ATOM      4  C3  UNL d   1       3.803   1.481   0.417  0.00  0.00    -0.075 A 
ATOM      5  S   UNL d   1       3.920   2.658  -0.838  0.00  0.00     0.015 SA
ATOM      6  C4  UNL d   1       2.323   2.368  -1.360  0.00  0.00     0.022 A 
ATOM      7  C5  UNL d   1       1.702   1.400  -0.607  0.00  0.00     0.026 A 
ATOM      8  C6  UNL d   1       2.545   0.873   0.430  0.00  0.00    -0.082 A 
ATOM      9  C7  UNL d   1       2.293  -0.119   1.407  0.00  0.00     0.045 A 
ENDROOT
TORSDOF 0
ENDMDL
