MODEL 1
REMARK minimizedAffinity 8.98962879
REMARK minimizedRMSD -1
REMARK  0 active torsions:
REMARK  status: ('A' for Active; 'I' for Inactive)
ROOT
ATOM      1  C   UNL d   1      -4.766  -4.218   0.568  0.00  0.00    -0.002 A 
ATOM      2  C1  UNL d   1      -5.514  -5.382   0.475  0.00  0.00     0.010 A 
ATOM      3  C2  UNL d   1      -5.718  -5.999  -0.762  0.00  0.00     0.041 A 
ATOM      4  C3  UNL d   1      -5.150  -5.420  -1.914  0.00  0.00    -0.075 A 
ATOM      5  S   UNL d   1      -5.266  -6.000  -3.533  0.00  0.00     0.015 SA
ATOM      6  C4  UNL d   1      -4.324  -4.716  -4.140  0.00  0.00     0.022 A 
ATOM      7  C5  UNL d   1      -3.923  -3.856  -3.145  0.00  0.00     0.026 A 
ATOM      8  C6  UNL d   1      -4.391  -4.248  -1.845  0.00  0.00    -0.082 A 
ATOM      9  C7  UNL d   1      -4.204  -3.647  -0.577  0.00  0.00     0.045 A 
ENDROOT
TORSDOF 0
ENDMDL
