MODEL 1
REMARK minimizedAffinity 2.33771276
REMARK minimizedRMSD -1
REMARK  0 active torsions:
REMARK  status: ('A' for Active; 'I' for Inactive)
ROOT
ATOM      1  C   UNL d   1      -0.372   1.050  -1.439  0.00  0.00    -0.002 A 
ATOM      2  C1  UNL d   1       0.300   0.178  -2.283  0.00  0.00     0.010 A 
ATOM      3  C2  UNL d   1       0.776  -1.046  -1.808  0.00  0.00     0.041 A 
ATOM      4  C3  UNL d   1       0.562  -1.382  -0.457  0.00  0.00    -0.075 A 
ATOM      5  S   UNL d   1       1.054  -2.826   0.346  0.00  0.00     0.015 SA
ATOM      6  C4  UNL d   1       0.383  -2.319   1.829  0.00  0.00     0.022 A 
ATOM      7  C5  UNL d   1      -0.207  -1.081   1.732  0.00  0.00     0.026 A 
ATOM      8  C6  UNL d   1      -0.114  -0.520   0.413  0.00  0.00    -0.082 A 
ATOM      9  C7  UNL d   1      -0.584   0.713  -0.099  0.00  0.00     0.045 A 
ENDROOT
TORSDOF 0
ENDMDL
