MODEL 1
REMARK minimizedAffinity 0.498522669
REMARK minimizedRMSD -1
REMARK  1 active torsions:
REMARK  status: ('A' for Active; 'I' for Inactive)
REMARK    1  A    between atoms: C1_2  and  C2_3 
ROOT
ATOM      1  C2  UNL d   1       1.344  -0.352   0.028  0.00  0.00    -0.076 A 
ATOM      2  C3  UNL d   1       1.720   0.952   0.394  0.00  0.00     0.004 A 
ATOM      3  C4  UNL d   1       0.869   2.033   0.172  0.00  0.00    -0.003 A 
ATOM      4  C5  UNL d   1      -0.373   1.827  -0.419  0.00  0.00     0.000 A 
ATOM      5  C6  UNL d   1      -0.770   0.538  -0.772  0.00  0.00     0.000 A 
ATOM      6  C7  UNL d   1       0.070  -0.565  -0.541  0.00  0.00    -0.073 A 
ATOM      7  C8  UNL d   1      -0.406  -1.933  -0.947  0.00  0.00     0.078 C 
ENDROOT
BRANCH   1   8
ATOM      8  C1  UNL d   1       2.321  -1.482   0.268  0.00  0.00     0.053 C 
ATOM      9  C   UNL d   1       2.954  -1.987  -1.019  0.00  0.00     0.018 C 
ENDBRANCH   1   8
TORSDOF 1
ENDMDL
