MODEL 1
REMARK minimizedAffinity -3.54083967
REMARK minimizedRMSD -1
REMARK  1 active torsions:
REMARK  status: ('A' for Active; 'I' for Inactive)
REMARK    1  A    between atoms: C1_2  and  C2_3 
ROOT
ATOM      1  C2  UNL d   1       1.411  -0.485   0.270  0.00  0.00    -0.076 A 
ATOM      2  C3  UNL d   1       0.477  -1.359  -0.311  0.00  0.00     0.004 A 
ATOM      3  C4  UNL d   1      -0.690  -0.875  -0.899  0.00  0.00    -0.003 A 
ATOM      4  C5  UNL d   1      -0.942   0.492  -0.915  0.00  0.00     0.000 A 
ATOM      5  C6  UNL d   1      -0.019   1.376  -0.358  0.00  0.00     0.000 A 
ATOM      6  C7  UNL d   1       1.171   0.905   0.224  0.00  0.00    -0.073 A 
ATOM      7  C8  UNL d   1       2.129   1.903   0.815  0.00  0.00     0.078 C 
ENDROOT
BRANCH   1   8
ATOM      8  C1  UNL d   1       2.647  -1.069   0.917  0.00  0.00     0.053 C 
ATOM      9  C   UNL d   1       3.505  -1.850  -0.066  0.00  0.00     0.018 C 
ENDBRANCH   1   8
TORSDOF 1
ENDMDL
