MODEL 1
REMARK minimizedAffinity -4.27437782
REMARK minimizedRMSD -1
REMARK  1 active torsions:
REMARK  status: ('A' for Active; 'I' for Inactive)
REMARK    1  A    between atoms: C1_2  and  C2_3 
ROOT
ATOM      1  C2  UNL d   1       0.616   0.468  -0.608  0.00  0.00    -0.076 A 
ATOM      2  C3  UNL d   1       0.117  -0.845  -0.663  0.00  0.00     0.004 A 
ATOM      3  C4  UNL d   1       0.968  -1.942  -0.539  0.00  0.00    -0.003 A 
ATOM      4  C5  UNL d   1       2.332  -1.744  -0.357  0.00  0.00     0.000 A 
ATOM      5  C6  UNL d   1       2.843  -0.448  -0.283  0.00  0.00     0.000 A 
ATOM      6  C7  UNL d   1       1.996   0.669  -0.389  0.00  0.00    -0.073 A 
ATOM      7  C8  UNL d   1       2.601   2.043  -0.307  0.00  0.00     0.078 C 
ENDROOT
BRANCH   1   8
ATOM      8  C1  UNL d   1      -0.351   1.618  -0.775  0.00  0.00     0.053 C 
ATOM      9  C   UNL d   1      -1.800   1.189  -0.610  0.00  0.00     0.018 C 
ENDBRANCH   1   8
TORSDOF 1
ENDMDL
