MODEL 1
REMARK minimizedAffinity 5.27378893
REMARK minimizedRMSD -1
REMARK  1 active torsions:
REMARK  status: ('A' for Active; 'I' for Inactive)
REMARK    1  A    between atoms: C1_2  and  C2_3 
ROOT
ATOM      1  C2  UNL d   1       0.516  -1.632  -1.313  0.00  0.00    -0.076 A 
ATOM      2  C3  UNL d   1       0.929  -1.579  -2.655  0.00  0.00     0.004 A 
ATOM      3  C4  UNL d   1       2.208  -1.990  -3.029  0.00  0.00    -0.003 A 
ATOM      4  C5  UNL d   1       3.094  -2.461  -2.067  0.00  0.00     0.000 A 
ATOM      5  C6  UNL d   1       2.695  -2.537  -0.733  0.00  0.00     0.000 A 
ATOM      6  C7  UNL d   1       1.404  -2.142  -0.341  0.00  0.00    -0.073 A 
ATOM      7  C8  UNL d   1       1.029  -2.240   1.112  0.00  0.00     0.078 C 
ENDROOT
BRANCH   1   8
ATOM      8  C1  UNL d   1      -0.873  -1.148  -0.963  0.00  0.00     0.053 C 
ATOM      9  C   UNL d   1      -0.886   0.301  -0.502  0.00  0.00     0.018 C 
ENDBRANCH   1   8
TORSDOF 1
ENDMDL
