MODEL 1
REMARK minimizedAffinity -0.451717287
REMARK minimizedRMSD -1
REMARK  0 active torsions:
REMARK  status: ('A' for Active; 'I' for Inactive)
ROOT
ATOM      1  C1  BNZ d   1      -0.299  -0.089  -3.389  0.00  0.00     0.000 A 
ATOM      2  C2  BNZ d   1      -0.043   1.138  -2.837  0.00  0.00     0.000 A 
ATOM      3  C3  BNZ d   1      -0.271   1.369  -1.509  0.00  0.00     0.000 A 
ATOM      4  C4  BNZ d   1      -0.791   0.387  -0.745  0.00  0.00     0.000 A 
ATOM      5  C5  BNZ d   1      -1.063  -0.852  -1.289  0.00  0.00     0.000 A 
ATOM      6  C6  BNZ d   1      -0.796  -1.093  -2.617  0.00  0.00     0.000 A 
ENDROOT
TORSDOF 0
ENDMDL
