MODEL 1
REMARK minimizedAffinity -2.08375382
REMARK minimizedRMSD -1
REMARK  0 active torsions:
REMARK  status: ('A' for Active; 'I' for Inactive)
ROOT
ATOM      1  C1  BNZ d   1      -6.000   1.431  -3.980  0.00  0.00     0.000 A 
ATOM      2  C2  BNZ d   1      -6.000   0.689  -5.131  0.00  0.00     0.000 A 
ATOM      3  C3  BNZ d   1      -4.932   0.719  -5.984  0.00  0.00     0.000 A 
ATOM      4  C4  BNZ d   1      -3.884   1.522  -5.706  0.00  0.00     0.000 A 
ATOM      5  C5  BNZ d   1      -3.874   2.284  -4.554  0.00  0.00     0.000 A 
ATOM      6  C6  BNZ d   1      -4.933   2.221  -3.679  0.00  0.00     0.000 A 
ENDROOT
TORSDOF 0
ENDMDL
