MODEL 1
REMARK minimizedAffinity -0.0737831742
REMARK minimizedRMSD -1
REMARK  0 active torsions:
REMARK  status: ('A' for Active; 'I' for Inactive)
ROOT
ATOM      1  C1  BNZ d   1      -0.714  -3.291  -2.400  0.00  0.00     0.000 A 
ATOM      2  C2  BNZ d   1      -0.528  -4.619  -2.122  0.00  0.00     0.000 A 
ATOM      3  C3  BNZ d   1       0.492  -5.027  -1.309  0.00  0.00     0.000 A 
ATOM      4  C4  BNZ d   1       1.347  -4.113  -0.807  0.00  0.00     0.000 A 
ATOM      5  C5  BNZ d   1       1.178  -2.771  -1.086  0.00  0.00     0.000 A 
ATOM      6  C6  BNZ d   1       0.128  -2.360  -1.874  0.00  0.00     0.000 A 
ENDROOT
TORSDOF 0
ENDMDL
