MODEL 1
REMARK minimizedAffinity 2.13955593
REMARK minimizedRMSD -1
REMARK  0 active torsions:
REMARK  status: ('A' for Active; 'I' for Inactive)
ROOT
ATOM      1  C1  BNZ d   1      -0.169   2.484  -0.830  0.00  0.00     0.000 A 
ATOM      2  C2  BNZ d   1      -1.396   2.657  -1.412  0.00  0.00     0.000 A 
ATOM      3  C3  BNZ d   1      -2.171   3.740  -1.104  0.00  0.00     0.000 A 
ATOM      4  C4  BNZ d   1      -1.736   4.627  -0.185  0.00  0.00     0.000 A 
ATOM      5  C5  BNZ d   1      -0.505   4.461   0.418  0.00  0.00     0.000 A 
ATOM      6  C6  BNZ d   1       0.289   3.391   0.076  0.00  0.00     0.000 A 
ENDROOT
TORSDOF 0
ENDMDL
