MODEL 1
REMARK minimizedAffinity 0.453027368
REMARK minimizedRMSD -1
REMARK  0 active torsions:
REMARK  status: ('A' for Active; 'I' for Inactive)
ROOT
ATOM      1  C1  BNZ d   1      -0.479   5.830  -0.599  0.00  0.00     0.000 A 
ATOM      2  C2  BNZ d   1      -1.260   4.873  -0.007  0.00  0.00     0.000 A 
ATOM      3  C3  BNZ d   1      -0.844   3.573   0.060  0.00  0.00     0.000 A 
ATOM      4  C4  BNZ d   1       0.332   3.223  -0.499  0.00  0.00     0.000 A 
ATOM      5  C5  BNZ d   1       1.126   4.174  -1.108  0.00  0.00     0.000 A 
ATOM      6  C6  BNZ d   1       0.723   5.489  -1.139  0.00  0.00     0.000 A 
ENDROOT
TORSDOF 0
ENDMDL
