MODEL 1
REMARK minimizedAffinity -0.672522604
REMARK minimizedRMSD -1
REMARK  0 active torsions:
REMARK  status: ('A' for Active; 'I' for Inactive)
ROOT
ATOM      1  C1  BNZ d   1      -1.231   1.602  -0.739  0.00  0.00     0.000 A 
ATOM      2  C2  BNZ d   1      -1.841   0.409  -1.019  0.00  0.00     0.000 A 
ATOM      3  C3  BNZ d   1      -1.133  -0.633  -1.549  0.00  0.00     0.000 A 
ATOM      4  C4  BNZ d   1       0.175  -0.468  -1.835  0.00  0.00     0.000 A 
ATOM      5  C5  BNZ d   1       0.803   0.733  -1.567  0.00  0.00     0.000 A 
ATOM      6  C6  BNZ d   1       0.095   1.766  -0.998  0.00  0.00     0.000 A 
ENDROOT
TORSDOF 0
ENDMDL
