MODEL 1
REMARK minimizedAffinity -3.05234909
REMARK minimizedRMSD -1
REMARK  0 active torsions:
REMARK  status: ('A' for Active; 'I' for Inactive)
ROOT
ATOM      1  C   UNL d   1      -0.014   1.289   2.440  0.00  0.00     0.078 C 
ATOM      2  C1  UNL d   1       0.429   0.514   1.235  0.00  0.00    -0.077 A 
ATOM      3  C2  UNL d   1       1.709  -0.052   1.173  0.00  0.00    -0.001 A 
ATOM      4  C3  UNL d   1       2.112  -0.762   0.041  0.00  0.00     0.003 A 
ATOM      5  C4  UNL d   1       1.242  -0.912  -1.038  0.00  0.00    -0.005 A 
ATOM      6  C5  UNL d   1      -0.032  -0.350  -0.985  0.00  0.00     0.003 A 
ATOM      7  C6  UNL d   1      -0.437   0.360   0.146  0.00  0.00    -0.001 A 
ENDROOT
TORSDOF 0
ENDMDL
