MODEL 1
REMARK minimizedAffinity -1.11146939
REMARK minimizedRMSD -1
REMARK  0 active torsions:
REMARK  status: ('A' for Active; 'I' for Inactive)
ROOT
ATOM      1  C   UNL d   1       1.944  -0.957  -0.058  0.00  0.00     0.078 C 
ATOM      2  C1  UNL d   1       1.563  -0.485  -1.429  0.00  0.00    -0.077 A 
ATOM      3  C2  UNL d   1       0.311  -0.791  -1.975  0.00  0.00    -0.001 A 
ATOM      4  C3  UNL d   1      -0.026  -0.353  -3.257  0.00  0.00     0.003 A 
ATOM      5  C4  UNL d   1       0.884   0.391  -4.004  0.00  0.00    -0.005 A 
ATOM      6  C5  UNL d   1       2.134   0.698  -3.470  0.00  0.00     0.003 A 
ATOM      7  C6  UNL d   1       2.473   0.261  -2.189  0.00  0.00    -0.001 A 
ENDROOT
TORSDOF 0
ENDMDL
