MODEL 1
REMARK minimizedAffinity -4.10083866
REMARK minimizedRMSD -1
REMARK  0 active torsions:
REMARK  status: ('A' for Active; 'I' for Inactive)
ROOT
ATOM      1  C   UNL d   1      -0.473   1.564   2.710  0.00  0.00     0.078 C 
ATOM      2  C1  UNL d   1      -0.163   0.766   1.479  0.00  0.00    -0.077 A 
ATOM      3  C2  UNL d   1      -1.181   0.363   0.606  0.00  0.00    -0.001 A 
ATOM      4  C3  UNL d   1      -0.879  -0.388  -0.531  0.00  0.00     0.003 A 
ATOM      5  C4  UNL d   1       0.440  -0.743  -0.806  0.00  0.00    -0.005 A 
ATOM      6  C5  UNL d   1       1.460  -0.348   0.058  0.00  0.00     0.003 A 
ATOM      7  C6  UNL d   1       1.160   0.403   1.196  0.00  0.00    -0.001 A 
ENDROOT
TORSDOF 0
ENDMDL
