MODEL 1
REMARK minimizedAffinity -3.2638948
REMARK minimizedRMSD -1
REMARK  0 active torsions:
REMARK  status: ('A' for Active; 'I' for Inactive)
ROOT
ATOM      1  C   UNL d   1      -0.350   1.488   2.830  0.00  0.00     0.078 C 
ATOM      2  C1  UNL d   1       0.160   0.736   1.637  0.00  0.00    -0.077 A 
ATOM      3  C2  UNL d   1       1.413   0.112   1.659  0.00  0.00    -0.001 A 
ATOM      4  C3  UNL d   1       1.879  -0.577   0.538  0.00  0.00     0.003 A 
ATOM      5  C4  UNL d   1       1.098  -0.647  -0.614  0.00  0.00    -0.005 A 
ATOM      6  C5  UNL d   1      -0.150  -0.027  -0.646  0.00  0.00     0.003 A 
ATOM      7  C6  UNL d   1      -0.617   0.662   0.474  0.00  0.00    -0.001 A 
ENDROOT
TORSDOF 0
ENDMDL
