MODEL 1
REMARK minimizedAffinity -1.80326021
REMARK minimizedRMSD -1
REMARK  0 active torsions:
REMARK  status: ('A' for Active; 'I' for Inactive)
ROOT
ATOM      1  C   UNL d   1      -1.157   0.021  -1.057  0.00  0.00     0.078 C 
ATOM      2  C1  UNL d   1       0.016  -0.063  -0.126  0.00  0.00    -0.077 A 
ATOM      3  C2  UNL d   1       1.108  -0.890  -0.415  0.00  0.00    -0.001 A 
ATOM      4  C3  UNL d   1       2.188  -0.966   0.465  0.00  0.00     0.003 A 
ATOM      5  C4  UNL d   1       2.187  -0.218   1.641  0.00  0.00    -0.005 A 
ATOM      6  C5  UNL d   1       1.104   0.606   1.938  0.00  0.00     0.003 A 
ATOM      7  C6  UNL d   1       0.022   0.683   1.059  0.00  0.00    -0.001 A 
ENDROOT
TORSDOF 0
ENDMDL
