MODEL 1
REMARK minimizedAffinity -4.33689165
REMARK minimizedRMSD -1
REMARK  0 active torsions:
REMARK  status: ('A' for Active; 'I' for Inactive)
ROOT
ATOM      1  C   UNL d   1       0.391  -0.731  -1.877  0.00  0.00     0.078 C 
ATOM      2  C1  UNL d   1       0.590  -0.239  -0.475  0.00  0.00    -0.077 A 
ATOM      3  C2  UNL d   1      -0.326   0.638   0.119  0.00  0.00    -0.001 A 
ATOM      4  C3  UNL d   1      -0.122   1.096   1.422  0.00  0.00     0.003 A 
ATOM      5  C4  UNL d   1       0.997   0.683   2.142  0.00  0.00    -0.005 A 
ATOM      6  C5  UNL d   1       1.915  -0.188   1.558  0.00  0.00     0.003 A 
ATOM      7  C6  UNL d   1       1.714  -0.646   0.256  0.00  0.00    -0.001 A 
ENDROOT
TORSDOF 0
ENDMDL
