MODEL 1
REMARK minimizedAffinity -4.53952932
REMARK minimizedRMSD -1
REMARK  0 active torsions:
REMARK  status: ('A' for Active; 'I' for Inactive)
ROOT
ATOM      1  C   UNL d   1       0.429  -0.205  -1.239  0.00  0.00     0.078 C 
ATOM      2  C1  UNL d   1      -0.537   0.078  -0.127  0.00  0.00    -0.077 A 
ATOM      3  C2  UNL d   1      -1.913   0.161  -0.371  0.00  0.00    -0.001 A 
ATOM      4  C3  UNL d   1      -2.799   0.435   0.672  0.00  0.00     0.003 A 
ATOM      5  C4  UNL d   1      -2.319   0.630   1.965  0.00  0.00    -0.005 A 
ATOM      6  C5  UNL d   1      -0.951   0.552   2.217  0.00  0.00     0.003 A 
ATOM      7  C6  UNL d   1      -0.063   0.278   1.175  0.00  0.00    -0.001 A 
ENDROOT
TORSDOF 0
ENDMDL
