MODEL 1
REMARK minimizedAffinity -3.38954949
REMARK minimizedRMSD -1
REMARK  0 active torsions:
REMARK  status: ('A' for Active; 'I' for Inactive)
ROOT
ATOM      1  C   UNL d   1      -2.342   0.533   1.469  0.00  0.00     0.078 C 
ATOM      2  C1  UNL d   1      -0.981   0.067   1.045  0.00  0.00    -0.077 A 
ATOM      3  C2  UNL d   1      -0.748  -0.386  -0.259  0.00  0.00    -0.001 A 
ATOM      4  C3  UNL d   1       0.521  -0.826  -0.638  0.00  0.00     0.003 A 
ATOM      5  C4  UNL d   1       1.568  -0.818   0.282  0.00  0.00    -0.005 A 
ATOM      6  C5  UNL d   1       1.345  -0.371   1.583  0.00  0.00     0.003 A 
ATOM      7  C6  UNL d   1       0.076   0.069   1.963  0.00  0.00    -0.001 A 
ENDROOT
TORSDOF 0
ENDMDL
