MODEL 1
REMARK minimizedAffinity -0.088867873
REMARK minimizedRMSD -1
REMARK  1 active torsions:
REMARK  status: ('A' for Active; 'I' for Inactive)
REMARK    1  A    between atoms: N_2  and  C1_3 
ROOT
ATOM      1  C1  UNL d   1       3.293  -2.440   5.170  0.00  0.00     0.143 A 
ATOM      2  C2  UNL d   1       3.464  -1.112   4.764  0.00  0.00    -0.057 A 
ATOM      3  C3  UNL d   1       2.583  -0.512   3.855  0.00  0.00     0.033 A 
ATOM      4  C4  UNL d   1       1.530  -1.241   3.313  0.00  0.00    -0.042 A 
ATOM      5  C5  UNL d   1       1.356  -2.569   3.684  0.00  0.00     0.033 A 
ATOM      6  C6  UNL d   1       2.234  -3.161   4.596  0.00  0.00    -0.057 A 
ENDROOT
BRANCH   1   7
ATOM      7  N   UNL d   1       4.191  -3.123   5.994  0.00  0.00    -0.732 N 
ATOM      8  C   UNL d   1       5.000  -4.201   5.468  0.00  0.00     0.284 C 
ATOM      9  H3  UNL d   1       4.688  -2.500   6.627  0.00  0.00     0.395 HD
ENDBRANCH   1   7
TORSDOF 1
ENDMDL
