MODEL 1
REMARK minimizedAffinity 9.39874268
REMARK minimizedRMSD -1
REMARK  1 active torsions:
REMARK  status: ('A' for Active; 'I' for Inactive)
REMARK    1  A    between atoms: N_2  and  C1_3 
ROOT
ATOM      1  C1  UNL d   1      -1.650  -3.284  -3.877  0.00  0.00     0.143 A 
ATOM      2  C2  UNL d   1      -1.734  -3.702  -5.210  0.00  0.00    -0.057 A 
ATOM      3  C3  UNL d   1      -1.964  -5.044  -5.536  0.00  0.00     0.033 A 
ATOM      4  C4  UNL d   1      -2.085  -5.999  -4.533  0.00  0.00    -0.042 A 
ATOM      5  C5  UNL d   1      -1.980  -5.611  -3.202  0.00  0.00     0.033 A 
ATOM      6  C6  UNL d   1      -1.757  -4.268  -2.882  0.00  0.00    -0.057 A 
ENDROOT
BRANCH   1   7
ATOM      7  N   UNL d   1      -1.326  -1.981  -3.490  0.00  0.00    -0.732 N 
ATOM      8  C   UNL d   1      -0.251  -1.265  -4.142  0.00  0.00     0.284 C 
ATOM      9  H3  UNL d   1      -2.150  -1.415  -3.303  0.00  0.00     0.395 HD
ENDBRANCH   1   7
TORSDOF 1
ENDMDL
