MODEL 1
REMARK minimizedAffinity 7.96954346
REMARK minimizedRMSD -1
REMARK  1 active torsions:
REMARK  status: ('A' for Active; 'I' for Inactive)
REMARK    1  A    between atoms: N_2  and  C1_3 
ROOT
ATOM      1  C1  UNL d   1       4.284  -2.949   5.225  0.00  0.00     0.143 A 
ATOM      2  C2  UNL d   1       4.845  -1.669   5.166  0.00  0.00    -0.057 A 
ATOM      3  C3  UNL d   1       4.133  -0.588   4.632  0.00  0.00     0.033 A 
ATOM      4  C4  UNL d   1       2.853  -0.775   4.120  0.00  0.00    -0.042 A 
ATOM      5  C5  UNL d   1       2.285  -2.043   4.146  0.00  0.00     0.033 A 
ATOM      6  C6  UNL d   1       2.999  -3.118   4.686  0.00  0.00    -0.057 A 
ENDROOT
BRANCH   1   7
ATOM      7  N   UNL d   1       4.978  -4.084   5.653  0.00  0.00    -0.732 N 
ATOM      8  C   UNL d   1       6.000  -4.680   4.820  0.00  0.00     0.284 C 
ATOM      9  H3  UNL d   1       5.218  -4.042   6.641  0.00  0.00     0.395 HD
ENDBRANCH   1   7
TORSDOF 1
ENDMDL
