MODEL 1
REMARK minimizedAffinity 5.71505022
REMARK minimizedRMSD -1
REMARK  1 active torsions:
REMARK  status: ('A' for Active; 'I' for Inactive)
REMARK    1  A    between atoms: N_2  and  C1_3 
ROOT
ATOM      1  C1  UNL d   1      -1.349  -3.145  -4.049  0.00  0.00     0.143 A 
ATOM      2  C2  UNL d   1      -1.516  -3.282  -5.431  0.00  0.00    -0.057 A 
ATOM      3  C3  UNL d   1      -1.887  -4.506  -6.000  0.00  0.00     0.033 A 
ATOM      4  C4  UNL d   1      -2.071  -5.626  -5.195  0.00  0.00    -0.042 A 
ATOM      5  C5  UNL d   1      -1.887  -5.519  -3.822  0.00  0.00     0.033 A 
ATOM      6  C6  UNL d   1      -1.522  -4.292  -3.259  0.00  0.00    -0.057 A 
ENDROOT
BRANCH   1   7
ATOM      7  N   UNL d   1      -0.885  -1.980  -3.433  0.00  0.00    -0.732 N 
ATOM      8  C   UNL d   1       0.022  -1.091  -4.127  0.00  0.00     0.284 C 
ATOM      9  H3  UNL d   1      -1.613  -1.502  -2.906  0.00  0.00     0.395 HD
ENDBRANCH   1   7
TORSDOF 1
ENDMDL
