MODEL 1
REMARK minimizedAffinity 3.49069452
REMARK minimizedRMSD -1
REMARK  1 active torsions:
REMARK  status: ('A' for Active; 'I' for Inactive)
REMARK    1  A    between atoms: N_2  and  C1_3 
ROOT
ATOM      1  C1  UNL d   1      -1.075  -2.676  -4.651  0.00  0.00     0.143 A 
ATOM      2  C2  UNL d   1      -1.200  -3.250  -3.382  0.00  0.00    -0.057 A 
ATOM      3  C3  UNL d   1      -1.615  -4.578  -3.224  0.00  0.00     0.033 A 
ATOM      4  C4  UNL d   1      -1.941  -5.349  -4.335  0.00  0.00    -0.042 A 
ATOM      5  C5  UNL d   1      -1.848  -4.791  -5.605  0.00  0.00     0.033 A 
ATOM      6  C6  UNL d   1      -1.427  -3.466  -5.757  0.00  0.00    -0.057 A 
ENDROOT
BRANCH   1   7
ATOM      7  N   UNL d   1      -0.763  -1.332  -4.870  0.00  0.00    -0.732 N 
ATOM      8  C   UNL d   1       0.423  -0.746  -4.283  0.00  0.00     0.284 C 
ATOM      9  H3  UNL d   1      -0.938  -1.043  -5.830  0.00  0.00     0.395 HD
ENDBRANCH   1   7
TORSDOF 1
ENDMDL
