MODEL 1
REMARK minimizedAffinity 16.420208
REMARK minimizedRMSD -1
REMARK  1 active torsions:
REMARK  status: ('A' for Active; 'I' for Inactive)
REMARK    1  A    between atoms: N_2  and  C1_3 
ROOT
ATOM      1  C1  UNL d   1      -1.419  -2.715  -4.866  0.00  0.00     0.143 A 
ATOM      2  C2  UNL d   1      -0.430  -1.847  -5.344  0.00  0.00    -0.057 A 
ATOM      3  C3  UNL d   1       0.257  -0.984  -4.481  0.00  0.00     0.033 A 
ATOM      4  C4  UNL d   1      -0.055  -0.952  -3.126  0.00  0.00    -0.042 A 
ATOM      5  C5  UNL d   1      -1.052  -1.788  -2.634  0.00  0.00     0.033 A 
ATOM      6  C6  UNL d   1      -1.729  -2.652  -3.499  0.00  0.00    -0.057 A 
ENDROOT
BRANCH   1   7
ATOM      7  N   UNL d   1      -2.205  -3.526  -5.688  0.00  0.00    -0.732 N 
ATOM      8  C   UNL d   1      -1.795  -4.879  -5.998  0.00  0.00     0.284 C 
ATOM      9  H3  UNL d   1      -3.199  -3.426  -5.496  0.00  0.00     0.395 HD
ENDBRANCH   1   7
TORSDOF 1
ENDMDL
