MODEL 1
REMARK minimizedAffinity 9.82857513
REMARK minimizedRMSD -1
REMARK  1 active torsions:
REMARK  status: ('A' for Active; 'I' for Inactive)
REMARK    1  A    between atoms: N_2  and  C1_3 
ROOT
ATOM      1  C1  UNL d   1       1.079   0.320   2.986  0.00  0.00     0.143 A 
ATOM      2  C2  UNL d   1       0.894  -0.955   2.441  0.00  0.00    -0.057 A 
ATOM      3  C3  UNL d   1      -0.286  -1.292   1.767  0.00  0.00     0.033 A 
ATOM      4  C4  UNL d   1      -1.317  -0.365   1.652  0.00  0.00    -0.042 A 
ATOM      5  C5  UNL d   1      -1.165   0.900   2.209  0.00  0.00     0.033 A 
ATOM      6  C6  UNL d   1       0.019   1.232   2.874  0.00  0.00    -0.057 A 
ENDROOT
BRANCH   1   7
ATOM      7  N   UNL d   1       2.189   0.684   3.753  0.00  0.00    -0.732 N 
ATOM      8  C   UNL d   1       3.428   1.077   3.116  0.00  0.00     0.284 C 
ATOM      9  H3  UNL d   1       1.936   1.254   4.557  0.00  0.00     0.395 HD
ENDBRANCH   1   7
TORSDOF 1
ENDMDL
