MODEL 1
REMARK minimizedAffinity 10.0135994
REMARK minimizedRMSD -1
REMARK  1 active torsions:
REMARK  status: ('A' for Active; 'I' for Inactive)
REMARK    1  A    between atoms: N_2  and  C1_3 
ROOT
ATOM      1  C1  UNL d   1      -1.101  -2.732  -4.974  0.00  0.00     0.143 A 
ATOM      2  C2  UNL d   1      -1.313  -2.993  -3.616  0.00  0.00    -0.057 A 
ATOM      3  C3  UNL d   1      -0.837  -2.125  -2.626  0.00  0.00     0.033 A 
ATOM      4  C4  UNL d   1      -0.112  -0.991  -2.978  0.00  0.00    -0.042 A 
ATOM      5  C5  UNL d   1       0.132  -0.724  -4.320  0.00  0.00     0.033 A 
ATOM      6  C6  UNL d   1      -0.352  -1.592  -5.304  0.00  0.00    -0.057 A 
ENDROOT
BRANCH   1   7
ATOM      7  N   UNL d   1      -1.464  -3.607  -6.000  0.00  0.00    -0.732 N 
ATOM      8  C   UNL d   1      -2.574  -4.520  -5.832  0.00  0.00     0.284 C 
ATOM      9  H3  UNL d   1      -1.421  -3.170  -6.917  0.00  0.00     0.395 HD
ENDBRANCH   1   7
TORSDOF 1
ENDMDL
