MODEL 1
REMARK minimizedAffinity 13.340024
REMARK minimizedRMSD -1
REMARK  1 active torsions:
REMARK  status: ('A' for Active; 'I' for Inactive)
REMARK    1  A    between atoms: N_2  and  C1_3 
ROOT
ATOM      1  C1  UNL d   1      -0.034  -2.855  -5.301  0.00  0.00     0.143 A 
ATOM      2  C2  UNL d   1       1.343  -2.620  -5.218  0.00  0.00    -0.057 A 
ATOM      3  C3  UNL d   1       1.847  -1.473  -4.594  0.00  0.00     0.033 A 
ATOM      4  C4  UNL d   1       0.980  -0.523  -4.065  0.00  0.00    -0.042 A 
ATOM      5  C5  UNL d   1      -0.393  -0.723  -4.159  0.00  0.00     0.033 A 
ATOM      6  C6  UNL d   1      -0.890  -1.874  -4.778  0.00  0.00    -0.057 A 
ENDROOT
BRANCH   1   7
ATOM      7  N   UNL d   1      -0.599  -3.927  -5.996  0.00  0.00    -0.732 N 
ATOM      8  C   UNL d   1      -2.032  -4.132  -5.996  0.00  0.00     0.284 C 
ATOM      9  H3  UNL d   1      -0.157  -4.081  -6.899  0.00  0.00     0.395 HD
ENDBRANCH   1   7
TORSDOF 1
ENDMDL
