MODEL 1
REMARK minimizedAffinity 12.0137854
REMARK minimizedRMSD -1
REMARK  1 active torsions:
REMARK  status: ('A' for Active; 'I' for Inactive)
REMARK    1  A    between atoms: N_2  and  C1_3 
ROOT
ATOM      1  C1  UNL d   1       1.702  -2.688  -5.137  0.00  0.00     0.143 A 
ATOM      2  C2  UNL d   1       1.904  -1.481  -4.458  0.00  0.00    -0.057 A 
ATOM      3  C3  UNL d   1       0.963  -0.445  -4.524  0.00  0.00     0.033 A 
ATOM      4  C4  UNL d   1      -0.185  -0.588  -5.296  0.00  0.00    -0.042 A 
ATOM      5  C5  UNL d   1      -0.394  -1.770  -5.999  0.00  0.00     0.033 A 
ATOM      6  C6  UNL d   1       0.546  -2.803  -5.924  0.00  0.00    -0.057 A 
ENDROOT
BRANCH   1   7
ATOM      7  N   UNL d   1       2.646  -3.716  -5.191  0.00  0.00    -0.732 N 
ATOM      8  C   UNL d   1       2.360  -4.942  -5.905  0.00  0.00     0.284 C 
ATOM      9  H3  UNL d   1       3.593  -3.369  -5.325  0.00  0.00     0.395 HD
ENDBRANCH   1   7
TORSDOF 1
ENDMDL
