MODEL 1
REMARK minimizedAffinity 16.982708
REMARK minimizedRMSD -1
REMARK  1 active torsions:
REMARK  status: ('A' for Active; 'I' for Inactive)
REMARK    1  A    between atoms: N_2  and  C1_3 
ROOT
ATOM      1  C1  UNL d   1       0.904  -0.024  -4.161  0.00  0.00     0.143 A 
ATOM      2  C2  UNL d   1       0.528  -0.766  -3.037  0.00  0.00    -0.057 A 
ATOM      3  C3  UNL d   1      -0.520  -1.693  -3.096  0.00  0.00     0.033 A 
ATOM      4  C4  UNL d   1      -1.232  -1.872  -4.277  0.00  0.00    -0.042 A 
ATOM      5  C5  UNL d   1      -0.892  -1.127  -5.400  0.00  0.00     0.033 A 
ATOM      6  C6  UNL d   1       0.160  -0.208  -5.337  0.00  0.00    -0.057 A 
ENDROOT
BRANCH   1   7
ATOM      7  N   UNL d   1       1.872   0.983  -4.140  0.00  0.00    -0.732 N 
ATOM      8  C   UNL d   1       3.250   0.688  -4.471  0.00  0.00     0.284 C 
ATOM      9  H3  UNL d   1       1.530   1.859  -4.528  0.00  0.00     0.395 HD
ENDBRANCH   1   7
TORSDOF 1
ENDMDL
