MODEL 1
REMARK minimizedAffinity 0.833176792
REMARK minimizedRMSD -1
REMARK  1 active torsions:
REMARK  status: ('A' for Active; 'I' for Inactive)
REMARK    1  A    between atoms: C1_2  and  C2_3 
ROOT
ATOM      1  C2  UNL d   1      -3.199  -2.872   5.056  0.00  0.00    -0.076 A 
ATOM      2  C3  UNL d   1      -3.969  -3.575   5.999  0.00  0.00     0.004 A 
ATOM      3  C4  UNL d   1      -5.357  -3.632   5.892  0.00  0.00    -0.003 A 
ATOM      4  C5  UNL d   1      -5.999  -2.988   4.840  0.00  0.00     0.000 A 
ATOM      5  C6  UNL d   1      -5.250  -2.301   3.886  0.00  0.00     0.000 A 
ATOM      6  C7  UNL d   1      -3.848  -2.247   3.969  0.00  0.00    -0.073 A 
ATOM      7  C8  UNL d   1      -3.091  -1.487   2.915  0.00  0.00     0.078 C 
ENDROOT
BRANCH   1   8
ATOM      8  C1  UNL d   1      -1.699  -2.821   5.238  0.00  0.00     0.053 C 
ATOM      9  C   UNL d   1      -1.245  -1.582   5.993  0.00  0.00     0.018 C 
ENDBRANCH   1   8
TORSDOF 1
ENDMDL
