MODEL 1
REMARK minimizedAffinity 9.24838448
REMARK minimizedRMSD -1
REMARK  1 active torsions:
REMARK  status: ('A' for Active; 'I' for Inactive)
REMARK    1  A    between atoms: C1_2  and  C2_3 
ROOT
ATOM      1  C2  UNL d   1      -0.557   3.585  -0.982  0.00  0.00    -0.076 A 
ATOM      2  C3  UNL d   1       0.342   4.630  -0.706  0.00  0.00     0.004 A 
ATOM      3  C4  UNL d   1       0.290   5.827  -1.418  0.00  0.00    -0.003 A 
ATOM      4  C5  UNL d   1      -0.662   5.999  -2.417  0.00  0.00     0.000 A 
ATOM      5  C6  UNL d   1      -1.572   4.980  -2.692  0.00  0.00     0.000 A 
ATOM      6  C7  UNL d   1      -1.544   3.773  -1.973  0.00  0.00    -0.073 A 
ATOM      7  C8  UNL d   1      -2.547   2.705  -2.315  0.00  0.00     0.078 C 
ENDROOT
BRANCH   1   8
ATOM      8  C1  UNL d   1      -0.435   2.299  -0.196  0.00  0.00     0.053 C 
ATOM      9  C   UNL d   1      -0.034   2.536   1.251  0.00  0.00     0.018 C 
ENDBRANCH   1   8
TORSDOF 1
ENDMDL
