MODEL 1
REMARK minimizedAffinity 13.58319
REMARK minimizedRMSD -1
REMARK  1 active torsions:
REMARK  status: ('A' for Active; 'I' for Inactive)
REMARK    1  A    between atoms: C1_2  and  C2_3 
ROOT
ATOM      1  C2  UNL d   1      -0.393   2.548  -0.961  0.00  0.00    -0.076 A 
ATOM      2  C3  UNL d   1      -0.350   1.218  -0.509  0.00  0.00     0.004 A 
ATOM      3  C4  UNL d   1       0.150   0.905   0.754  0.00  0.00    -0.003 A 
ATOM      4  C5  UNL d   1       0.614   1.917   1.586  0.00  0.00     0.000 A 
ATOM      5  C6  UNL d   1       0.563   3.244   1.162  0.00  0.00     0.000 A 
ATOM      6  C7  UNL d   1       0.047   3.579  -0.102  0.00  0.00    -0.073 A 
ATOM      7  C8  UNL d   1       0.021   5.026  -0.511  0.00  0.00     0.078 C 
ENDROOT
BRANCH   1   8
ATOM      8  C1  UNL d   1      -0.920   2.825  -2.350  0.00  0.00     0.053 C 
ATOM      9  C   UNL d   1      -2.390   2.464  -2.498  0.00  0.00     0.018 C 
ENDBRANCH   1   8
TORSDOF 1
ENDMDL
