MODEL 1
REMARK minimizedAffinity 9.72401428
REMARK minimizedRMSD -1
REMARK  1 active torsions:
REMARK  status: ('A' for Active; 'I' for Inactive)
REMARK    1  A    between atoms: C1_2  and  C2_3 
ROOT
ATOM      1  C2  UNL d   1      -2.072  -3.798  -5.945  0.00  0.00    -0.076 A 
ATOM      2  C3  UNL d   1      -1.973  -5.200  -5.959  0.00  0.00     0.004 A 
ATOM      3  C4  UNL d   1      -3.114  -6.000  -5.983  0.00  0.00    -0.003 A 
ATOM      4  C5  UNL d   1      -4.373  -5.411  -5.994  0.00  0.00     0.000 A 
ATOM      5  C6  UNL d   1      -4.491  -4.022  -5.999  0.00  0.00     0.000 A 
ATOM      6  C7  UNL d   1      -3.350  -3.200  -5.991  0.00  0.00    -0.073 A 
ATOM      7  C8  UNL d   1      -3.536  -1.707  -5.990  0.00  0.00     0.078 C 
ENDROOT
BRANCH   1   8
ATOM      8  C1  UNL d   1      -0.801  -2.981  -5.891  0.00  0.00     0.053 C 
ATOM      9  C   UNL d   1       0.449  -3.846  -5.943  0.00  0.00     0.018 C 
ENDBRANCH   1   8
TORSDOF 1
ENDMDL
