MODEL 1
REMARK minimizedAffinity 4.07496023
REMARK minimizedRMSD -1
REMARK  1 active torsions:
REMARK  status: ('A' for Active; 'I' for Inactive)
REMARK    1  A    between atoms: C1_2  and  C2_3 
ROOT
ATOM      1  C2  UNL d   1      -3.321  -2.621   4.851  0.00  0.00    -0.076 A 
ATOM      2  C3  UNL d   1      -3.741  -3.462   5.896  0.00  0.00     0.004 A 
ATOM      3  C4  UNL d   1      -5.069  -3.873   5.998  0.00  0.00    -0.003 A 
ATOM      4  C5  UNL d   1      -5.999  -3.449   5.055  0.00  0.00     0.000 A 
ATOM      5  C6  UNL d   1      -5.597  -2.629   4.001  0.00  0.00     0.000 A 
ATOM      6  C7  UNL d   1      -4.259  -2.219   3.875  0.00  0.00    -0.073 A 
ATOM      7  C8  UNL d   1      -3.882  -1.330   2.722  0.00  0.00     0.078 C 
ENDROOT
BRANCH   1   8
ATOM      8  C1  UNL d   1      -1.874  -2.187   4.807  0.00  0.00     0.053 C 
ATOM      9  C   UNL d   1      -1.495  -1.303   5.986  0.00  0.00     0.018 C 
ENDBRANCH   1   8
TORSDOF 1
ENDMDL
