MODEL 1
REMARK minimizedAffinity 13.6386185
REMARK minimizedRMSD -1
REMARK  1 active torsions:
REMARK  status: ('A' for Active; 'I' for Inactive)
REMARK    1  A    between atoms: C1_2  and  C2_3 
ROOT
ATOM      1  C2  UNL d   1      -1.921  -4.095  -5.332  0.00  0.00    -0.076 A 
ATOM      2  C3  UNL d   1      -3.162  -4.125  -5.991  0.00  0.00     0.004 A 
ATOM      3  C4  UNL d   1      -4.136  -5.060  -5.645  0.00  0.00    -0.003 A 
ATOM      4  C5  UNL d   1      -3.884  -5.980  -4.634  0.00  0.00     0.000 A 
ATOM      5  C6  UNL d   1      -2.665  -5.954  -3.957  0.00  0.00     0.000 A 
ATOM      6  C7  UNL d   1      -1.679  -5.007  -4.283  0.00  0.00    -0.073 A 
ATOM      7  C8  UNL d   1      -0.380  -5.028  -3.525  0.00  0.00     0.078 C 
ENDROOT
BRANCH   1   8
ATOM      8  C1  UNL d   1      -0.893  -3.075  -5.769  0.00  0.00     0.053 C 
ATOM      9  C   UNL d   1      -1.499  -1.699  -5.998  0.00  0.00     0.018 C 
ENDBRANCH   1   8
TORSDOF 1
ENDMDL
