MODEL 1
REMARK minimizedAffinity 9.86187649
REMARK minimizedRMSD -1
REMARK  1 active torsions:
REMARK  status: ('A' for Active; 'I' for Inactive)
REMARK    1  A    between atoms: C1_2  and  C2_3 
ROOT
ATOM      1  C2  UNL d   1      -0.625   4.554  -1.872  0.00  0.00    -0.076 A 
ATOM      2  C3  UNL d   1      -0.698   3.803  -3.058  0.00  0.00     0.004 A 
ATOM      3  C4  UNL d   1      -1.909   3.635  -3.727  0.00  0.00    -0.003 A 
ATOM      4  C5  UNL d   1      -3.067   4.216  -3.222  0.00  0.00     0.000 A 
ATOM      5  C6  UNL d   1      -3.009   4.980  -2.056  0.00  0.00     0.000 A 
ATOM      6  C7  UNL d   1      -1.794   5.172  -1.378  0.00  0.00    -0.073 A 
ATOM      7  C8  UNL d   1      -1.791   6.000  -0.122  0.00  0.00     0.078 C 
ENDROOT
BRANCH   1   8
ATOM      8  C1  UNL d   1       0.711   4.679  -1.175  0.00  0.00     0.053 C 
ATOM      9  C   UNL d   1       1.127   3.393  -0.478  0.00  0.00     0.018 C 
ENDBRANCH   1   8
TORSDOF 1
ENDMDL
