MODEL 1
REMARK minimizedAffinity 12.5545521
REMARK minimizedRMSD -1
REMARK  1 active torsions:
REMARK  status: ('A' for Active; 'I' for Inactive)
REMARK    1  A    between atoms: C1_2  and  C2_3 
ROOT
ATOM      1  C2  UNL d   1      -3.168  -3.601  -5.969  0.00  0.00    -0.076 A 
ATOM      2  C3  UNL d   1      -1.795  -3.298  -5.973  0.00  0.00     0.004 A 
ATOM      3  C4  UNL d   1      -0.837  -4.310  -5.931  0.00  0.00    -0.003 A 
ATOM      4  C5  UNL d   1      -1.237  -5.641  -5.886  0.00  0.00     0.000 A 
ATOM      5  C6  UNL d   1      -2.594  -5.960  -5.899  0.00  0.00     0.000 A 
ATOM      6  C7  UNL d   1      -3.572  -4.953  -5.957  0.00  0.00    -0.073 A 
ATOM      7  C8  UNL d   1      -5.022  -5.354  -5.963  0.00  0.00     0.078 C 
ENDROOT
BRANCH   1   8
ATOM      8  C1  UNL d   1      -4.161  -2.461  -5.988  0.00  0.00     0.053 C 
ATOM      9  C   UNL d   1      -3.484  -1.099  -5.979  0.00  0.00     0.018 C 
ENDBRANCH   1   8
TORSDOF 1
ENDMDL
