MODEL 1
REMARK minimizedAffinity 10.0044069
REMARK minimizedRMSD -1
REMARK  1 active torsions:
REMARK  status: ('A' for Active; 'I' for Inactive)
REMARK    1  A    between atoms: C1_2  and  C2_3 
ROOT
ATOM      1  C2  UNL d   1      -5.365  -0.043   2.175  0.00  0.00    -0.076 A 
ATOM      2  C3  UNL d   1      -5.995   0.624   1.110  0.00  0.00     0.004 A 
ATOM      3  C4  UNL d   1      -5.445   0.612  -0.170  0.00  0.00    -0.003 A 
ATOM      4  C5  UNL d   1      -4.255  -0.067  -0.408  0.00  0.00     0.000 A 
ATOM      5  C6  UNL d   1      -3.625  -0.749   0.633  0.00  0.00     0.000 A 
ATOM      6  C7  UNL d   1      -4.175  -0.761   1.926  0.00  0.00    -0.073 A 
ATOM      7  C8  UNL d   1      -3.450  -1.508   3.012  0.00  0.00     0.078 C 
ENDROOT
BRANCH   1   8
ATOM      8  C1  UNL d   1      -5.994   0.027   3.548  0.00  0.00     0.053 C 
ATOM      9  C   UNL d   1      -6.000  -1.320   4.255  0.00  0.00     0.018 C 
ENDBRANCH   1   8
TORSDOF 1
ENDMDL
