MODEL 1
REMARK minimizedAffinity 7.71235991
REMARK minimizedRMSD -1
REMARK  0 active torsions:
REMARK  status: ('A' for Active; 'I' for Inactive)
ROOT
ATOM      1  C   UNL d   1      -2.498   0.575  -0.011  0.00  0.00     0.077 C 
ATOM      2  C1  UNL d   1      -1.310   0.185   0.816  0.00  0.00    -0.074 A 
ATOM      3  C2  UNL d   1      -0.016   0.239   0.286  0.00  0.00    -0.005 A 
ATOM      4  C3  UNL d   1       1.080  -0.117   1.071  0.00  0.00     0.006 A 
ATOM      5  C4  UNL d   1       0.896  -0.530   2.391  0.00  0.00    -0.005 A 
ATOM      6  C5  UNL d   1      -0.390  -0.589   2.938  0.00  0.00    -0.074 A 
ATOM      7  C6  UNL d   1      -0.605  -1.021   4.358  0.00  0.00     0.077 C 
ATOM      8  C7  UNL d   1      -1.486  -0.223   2.146  0.00  0.00    -0.001 A 
ENDROOT
TORSDOF 0
ENDMDL
