MODEL 1
REMARK minimizedAffinity -1.26539171
REMARK minimizedRMSD -1
REMARK  0 active torsions:
REMARK  status: ('A' for Active; 'I' for Inactive)
ROOT
ATOM      1  C   UNL d   1       3.300   0.759  -0.530  0.00  0.00     0.077 C 
ATOM      2  C1  UNL d   1       2.151   0.078  -1.212  0.00  0.00    -0.074 A 
ATOM      3  C2  UNL d   1       1.361  -0.854  -0.531  0.00  0.00    -0.005 A 
ATOM      4  C3  UNL d   1       0.289  -1.472  -1.176  0.00  0.00     0.006 A 
ATOM      5  C4  UNL d   1      -0.003  -1.165  -2.506  0.00  0.00    -0.005 A 
ATOM      6  C5  UNL d   1       0.776  -0.235  -3.202  0.00  0.00    -0.074 A 
ATOM      7  C6  UNL d   1       0.469   0.114  -4.628  0.00  0.00     0.077 C 
ATOM      8  C7  UNL d   1       1.846   0.387  -2.545  0.00  0.00    -0.001 A 
ENDROOT
TORSDOF 0
ENDMDL
