MODEL 1
REMARK minimizedAffinity 7.85948992
REMARK minimizedRMSD -1
REMARK  0 active torsions:
REMARK  status: ('A' for Active; 'I' for Inactive)
ROOT
ATOM      1  C   UNL d   1      -2.779   0.748   0.639  0.00  0.00     0.077 C 
ATOM      2  C1  UNL d   1      -2.330  -0.070   1.814  0.00  0.00    -0.074 A 
ATOM      3  C2  UNL d   1      -3.246  -0.812   2.565  0.00  0.00    -0.005 A 
ATOM      4  C3  UNL d   1      -2.812  -1.575   3.649  0.00  0.00     0.006 A 
ATOM      5  C4  UNL d   1      -1.460  -1.604   3.992  0.00  0.00    -0.005 A 
ATOM      6  C5  UNL d   1      -0.529  -0.869   3.251  0.00  0.00    -0.074 A 
ATOM      7  C6  UNL d   1       0.930  -0.897   3.600  0.00  0.00     0.077 C 
ATOM      8  C7  UNL d   1      -0.972  -0.110   2.159  0.00  0.00    -0.001 A 
ENDROOT
TORSDOF 0
ENDMDL
