MODEL 1
REMARK minimizedAffinity 1.39169931
REMARK minimizedRMSD -1
REMARK  0 active torsions:
REMARK  status: ('A' for Active; 'I' for Inactive)
ROOT
ATOM      1  C   UNL d   1       1.789  -0.445  -0.132  0.00  0.00     0.077 C 
ATOM      2  C1  UNL d   1       0.417  -0.012   0.290  0.00  0.00    -0.074 A 
ATOM      3  C2  UNL d   1       0.237   0.853   1.374  0.00  0.00    -0.005 A 
ATOM      4  C3  UNL d   1      -1.045   1.255   1.748  0.00  0.00     0.006 A 
ATOM      5  C4  UNL d   1      -2.159   0.795   1.044  0.00  0.00    -0.005 A 
ATOM      6  C5  UNL d   1      -1.999  -0.070  -0.043  0.00  0.00    -0.074 A 
ATOM      7  C6  UNL d   1      -3.185  -0.565  -0.817  0.00  0.00     0.077 C 
ATOM      8  C7  UNL d   1      -0.707  -0.463  -0.418  0.00  0.00    -0.001 A 
ENDROOT
TORSDOF 0
ENDMDL
