MODEL 1
REMARK minimizedAffinity 4.1748786
REMARK minimizedRMSD -1
REMARK  0 active torsions:
REMARK  status: ('A' for Active; 'I' for Inactive)
ROOT
ATOM      1  C   UNL d   1       5.992   6.000   2.625  0.00  0.00     0.077 C 
ATOM      2  C1  UNL d   1       5.081   4.910   2.144  0.00  0.00    -0.074 A 
ATOM      3  C2  UNL d   1       4.418   4.075   3.050  0.00  0.00    -0.005 A 
ATOM      4  C3  UNL d   1       3.567   3.072   2.588  0.00  0.00     0.006 A 
ATOM      5  C4  UNL d   1       3.370   2.893   1.218  0.00  0.00    -0.005 A 
ATOM      6  C5  UNL d   1       4.023   3.718   0.298  0.00  0.00    -0.074 A 
ATOM      7  C6  UNL d   1       3.815   3.546  -1.178  0.00  0.00     0.077 C 
ATOM      8  C7  UNL d   1       4.872   4.729   0.770  0.00  0.00    -0.001 A 
ENDROOT
TORSDOF 0
ENDMDL
