MODEL 1
REMARK minimizedAffinity -1.16207433
REMARK minimizedRMSD -1
REMARK  0 active torsions:
REMARK  status: ('A' for Active; 'I' for Inactive)
ROOT
ATOM      1  C   UNL d   1      -2.270  -0.421   3.461  0.00  0.00     0.077 C 
ATOM      2  C1  UNL d   1      -1.718  -0.472   2.068  0.00  0.00    -0.074 A 
ATOM      3  C2  UNL d   1      -2.544  -0.767   0.978  0.00  0.00    -0.005 A 
ATOM      4  C3  UNL d   1      -2.018  -0.801  -0.314  0.00  0.00     0.006 A 
ATOM      5  C4  UNL d   1      -0.664  -0.541  -0.528  0.00  0.00    -0.005 A 
ATOM      6  C5  UNL d   1       0.177  -0.243   0.549  0.00  0.00    -0.074 A 
ATOM      7  C6  UNL d   1       1.632   0.048   0.335  0.00  0.00     0.077 C 
ATOM      8  C7  UNL d   1      -0.360  -0.204   1.843  0.00  0.00    -0.001 A 
ENDROOT
TORSDOF 0
ENDMDL
