MODEL 1
REMARK minimizedAffinity -0.93756634
REMARK minimizedRMSD -1
REMARK  0 active torsions:
REMARK  status: ('A' for Active; 'I' for Inactive)
ROOT
ATOM      1  C   UNL d   1      -2.465   0.104   2.883  0.00  0.00     0.077 C 
ATOM      2  C1  UNL d   1      -2.170  -0.309   1.471  0.00  0.00    -0.074 A 
ATOM      3  C2  UNL d   1      -0.916  -0.071   0.899  0.00  0.00    -0.005 A 
ATOM      4  C3  UNL d   1      -0.654  -0.469  -0.411  0.00  0.00     0.006 A 
ATOM      5  C4  UNL d   1      -1.641  -1.109  -1.162  0.00  0.00    -0.005 A 
ATOM      6  C5  UNL d   1      -2.901  -1.356  -0.607  0.00  0.00    -0.074 A 
ATOM      7  C6  UNL d   1      -3.970  -2.051  -1.397  0.00  0.00     0.077 C 
ATOM      8  C7  UNL d   1      -3.154  -0.959   0.713  0.00  0.00    -0.001 A 
ENDROOT
TORSDOF 0
ENDMDL
