MODEL 1
REMARK minimizedAffinity 0.243301824
REMARK minimizedRMSD -1
REMARK  0 active torsions:
REMARK  status: ('A' for Active; 'I' for Inactive)
ROOT
ATOM      1  C   UNL d   1       0.361  -1.162   4.583  0.00  0.00     0.077 C 
ATOM      2  C1  UNL d   1      -0.335  -0.707   3.335  0.00  0.00    -0.074 A 
ATOM      3  C2  UNL d   1      -1.688  -0.355   3.355  0.00  0.00    -0.005 A 
ATOM      4  C3  UNL d   1      -2.320   0.075   2.188  0.00  0.00     0.006 A 
ATOM      5  C4  UNL d   1      -1.607   0.157   0.992  0.00  0.00    -0.005 A 
ATOM      6  C5  UNL d   1      -0.252  -0.190   0.953  0.00  0.00    -0.074 A 
ATOM      7  C6  UNL d   1       0.532  -0.098  -0.322  0.00  0.00     0.077 C 
ATOM      8  C7  UNL d   1       0.377  -0.615   2.131  0.00  0.00    -0.001 A 
ENDROOT
TORSDOF 0
ENDMDL
