MODEL 1
REMARK minimizedAffinity 0.516955554
REMARK minimizedRMSD -1
REMARK  0 active torsions:
REMARK  status: ('A' for Active; 'I' for Inactive)
ROOT
ATOM      1  C   UNL d   1      -0.366  -1.091   3.163  0.00  0.00     0.077 C 
ATOM      2  C1  UNL d   1      -0.957  -0.487   1.923  0.00  0.00    -0.074 A 
ATOM      3  C2  UNL d   1      -2.342  -0.384   1.765  0.00  0.00    -0.005 A 
ATOM      4  C3  UNL d   1      -2.877   0.189   0.611  0.00  0.00     0.006 A 
ATOM      5  C4  UNL d   1      -2.033   0.663  -0.394  0.00  0.00    -0.005 A 
ATOM      6  C5  UNL d   1      -0.645   0.569  -0.253  0.00  0.00    -0.074 A 
ATOM      7  C6  UNL d   1       0.276   1.083  -1.319  0.00  0.00     0.077 C 
ATOM      8  C7  UNL d   1      -0.115  -0.001   0.913  0.00  0.00    -0.001 A 
ENDROOT
TORSDOF 0
ENDMDL
