MODEL 1
REMARK minimizedAffinity -1.22204506
REMARK minimizedRMSD -1
REMARK  0 active torsions:
REMARK  status: ('A' for Active; 'I' for Inactive)
ROOT
ATOM      1  C   UNL d   1       2.308   6.000   1.725  0.00  0.00     0.077 C 
ATOM      2  C1  UNL d   1       3.141   5.051   2.535  0.00  0.00    -0.074 A 
ATOM      3  C2  UNL d   1       2.954   3.669   2.439  0.00  0.00    -0.005 A 
ATOM      4  C3  UNL d   1       3.742   2.799   3.192  0.00  0.00     0.006 A 
ATOM      5  C4  UNL d   1       4.724   3.301   4.047  0.00  0.00    -0.005 A 
ATOM      6  C5  UNL d   1       4.926   4.681   4.155  0.00  0.00    -0.074 A 
ATOM      7  C6  UNL d   1       5.983   5.238   5.062  0.00  0.00     0.077 C 
ATOM      8  C7  UNL d   1       4.134   5.549   3.390  0.00  0.00    -0.001 A 
ENDROOT
TORSDOF 0
ENDMDL
