MODEL 1
REMARK minimizedAffinity 7.26308966
REMARK minimizedRMSD -1
REMARK  0 active torsions:
REMARK  status: ('A' for Active; 'I' for Inactive)
ROOT
ATOM      1  C   UNL d   1       4.880   4.133  -0.683  0.00  0.00    -0.002 A 
ATOM      2  C1  UNL d   1       5.346   3.019   0.001  0.00  0.00     0.010 A 
ATOM      3  C2  UNL d   1       5.178   2.912   1.383  0.00  0.00     0.041 A 
ATOM      4  C3  UNL d   1       4.525   3.953   2.072  0.00  0.00    -0.075 A 
ATOM      5  S   UNL d   1       4.205   4.038   3.765  0.00  0.00     0.015 SA
ATOM      6  C4  UNL d   1       3.442   5.554   3.620  0.00  0.00     0.022 A 
ATOM      7  C5  UNL d   1       3.422   6.000   2.319  0.00  0.00     0.026 A 
ATOM      8  C6  UNL d   1       4.046   5.084   1.406  0.00  0.00    -0.082 A 
ATOM      9  C7  UNL d   1       4.233   5.164   0.005  0.00  0.00     0.045 A 
ENDROOT
TORSDOF 0
ENDMDL
