MODEL 1
REMARK minimizedAffinity 2.59159255
REMARK minimizedRMSD -1
REMARK  0 active torsions:
REMARK  status: ('A' for Active; 'I' for Inactive)
ROOT
ATOM      1  C   UNL d   1      -0.252  -4.143  -0.908  0.00  0.00    -0.002 A 
ATOM      2  C1  UNL d   1      -1.241  -4.082  -1.880  0.00  0.00     0.010 A 
ATOM      3  C2  UNL d   1      -2.266  -3.139  -1.792  0.00  0.00     0.041 A 
ATOM      4  C3  UNL d   1      -2.280  -2.247  -0.702  0.00  0.00    -0.075 A 
ATOM      5  S   UNL d   1      -3.437  -1.008  -0.387  0.00  0.00     0.015 SA
ATOM      6  C4  UNL d   1      -2.646  -0.529   1.044  0.00  0.00     0.022 A 
ATOM      7  C5  UNL d   1      -1.525  -1.286   1.292  0.00  0.00     0.026 A 
ATOM      8  C6  UNL d   1      -1.295  -2.288   0.289  0.00  0.00    -0.082 A 
ATOM      9  C7  UNL d   1      -0.269  -3.257   0.172  0.00  0.00     0.045 A 
ENDROOT
TORSDOF 0
ENDMDL
