MODEL 1
REMARK minimizedAffinity 18.3248005
REMARK minimizedRMSD -1
REMARK  0 active torsions:
REMARK  status: ('A' for Active; 'I' for Inactive)
ROOT
ATOM      1  C   UNL d   1       3.844   4.228   3.046  0.00  0.00    -0.002 A 
ATOM      2  C1  UNL d   1       2.550   4.256   3.545  0.00  0.00     0.010 A 
ATOM      3  C2  UNL d   1       1.580   3.379   3.055  0.00  0.00     0.041 A 
ATOM      4  C3  UNL d   1       1.938   2.464   2.045  0.00  0.00    -0.075 A 
ATOM      5  S   UNL d   1       0.918   1.294   1.294  0.00  0.00     0.015 SA
ATOM      6  C4  UNL d   1       2.177   0.730   0.293  0.00  0.00     0.022 A 
ATOM      7  C5  UNL d   1       3.354   1.406   0.514  0.00  0.00     0.026 A 
ATOM      8  C6  UNL d   1       3.236   2.416   1.527  0.00  0.00    -0.082 A 
ATOM      9  C7  UNL d   1       4.195   3.319   2.045  0.00  0.00     0.045 A 
ENDROOT
TORSDOF 0
ENDMDL
