MODEL 1
REMARK minimizedAffinity 5.89878893
REMARK minimizedRMSD -1
REMARK  0 active torsions:
REMARK  status: ('A' for Active; 'I' for Inactive)
ROOT
ATOM      1  C   UNL d   1       2.764   4.744   4.005  0.00  0.00    -0.002 A 
ATOM      2  C1  UNL d   1       1.497   4.179   4.048  0.00  0.00     0.010 A 
ATOM      3  C2  UNL d   1       1.207   3.030   3.309  0.00  0.00     0.041 A 
ATOM      4  C3  UNL d   1       2.222   2.453   2.520  0.00  0.00    -0.075 A 
ATOM      5  S   UNL d   1       2.096   1.046   1.532  0.00  0.00     0.015 SA
ATOM      6  C4  UNL d   1       3.721   1.161   1.031  0.00  0.00     0.022 A 
ATOM      7  C5  UNL d   1       4.358   2.242   1.594  0.00  0.00     0.026 A 
ATOM      8  C6  UNL d   1       3.505   3.004   2.461  0.00  0.00    -0.082 A 
ATOM      9  C7  UNL d   1       3.768   4.169   3.221  0.00  0.00     0.045 A 
ENDROOT
TORSDOF 0
ENDMDL
