MODEL 1
REMARK minimizedAffinity 15.186512
REMARK minimizedRMSD -1
REMARK  0 active torsions:
REMARK  status: ('A' for Active; 'I' for Inactive)
ROOT
ATOM      1  C   UNL d   1       4.553   4.231   2.629  0.00  0.00    -0.002 A 
ATOM      2  C1  UNL d   1       3.301   4.809   2.781  0.00  0.00     0.010 A 
ATOM      3  C2  UNL d   1       2.144   4.083   2.495  0.00  0.00     0.041 A 
ATOM      4  C3  UNL d   1       2.267   2.751   2.051  0.00  0.00    -0.075 A 
ATOM      5  S   UNL d   1       0.989   1.669   1.642  0.00  0.00     0.015 SA
ATOM      6  C4  UNL d   1       2.075   0.413   1.257  0.00  0.00     0.022 A 
ATOM      7  C5  UNL d   1       3.385   0.793   1.430  0.00  0.00     0.026 A 
ATOM      8  C6  UNL d   1       3.517   2.147   1.891  0.00  0.00    -0.082 A 
ATOM      9  C7  UNL d   1       4.672   2.910   2.188  0.00  0.00     0.045 A 
ENDROOT
TORSDOF 0
ENDMDL
