MODEL 1
REMARK minimizedAffinity 10.713726
REMARK minimizedRMSD -1
REMARK  0 active torsions:
REMARK  status: ('A' for Active; 'I' for Inactive)
ROOT
ATOM      1  C   UNL d   1      -0.980  -3.740  -0.393  0.00  0.00    -0.002 A 
ATOM      2  C1  UNL d   1       0.014  -4.627  -0.780  0.00  0.00     0.010 A 
ATOM      3  C2  UNL d   1       1.361  -4.284  -0.654  0.00  0.00     0.041 A 
ATOM      4  C3  UNL d   1       1.696  -3.022  -0.124  0.00  0.00    -0.075 A 
ATOM      5  S   UNL d   1       3.279  -2.386   0.124  0.00  0.00     0.015 SA
ATOM      6  C4  UNL d   1       2.673  -0.921   0.751  0.00  0.00     0.022 A 
ATOM      7  C5  UNL d   1       1.299  -0.901   0.777  0.00  0.00     0.026 A 
ATOM      8  C6  UNL d   1       0.713  -2.111   0.274  0.00  0.00    -0.082 A 
ATOM      9  C7  UNL d   1      -0.644  -2.489   0.132  0.00  0.00     0.045 A 
ENDROOT
TORSDOF 0
ENDMDL
