MODEL 1
REMARK minimizedAffinity 4.55529785
REMARK minimizedRMSD -1
REMARK  0 active torsions:
REMARK  status: ('A' for Active; 'I' for Inactive)
ROOT
ATOM      1  C   UNL d   1       1.490  -3.400   0.753  0.00  0.00    -0.002 A 
ATOM      2  C1  UNL d   1       1.929  -4.642   0.315  0.00  0.00     0.010 A 
ATOM      3  C2  UNL d   1       1.132  -5.420  -0.527  0.00  0.00     0.041 A 
ATOM      4  C3  UNL d   1      -0.123  -4.924  -0.929  0.00  0.00    -0.075 A 
ATOM      5  S   UNL d   1      -1.268  -5.701  -1.957  0.00  0.00     0.015 SA
ATOM      6  C4  UNL d   1      -2.366  -4.402  -1.841  0.00  0.00     0.022 A 
ATOM      7  C5  UNL d   1      -1.887  -3.392  -1.041  0.00  0.00     0.026 A 
ATOM      8  C6  UNL d   1      -0.587  -3.676  -0.502  0.00  0.00    -0.082 A 
ATOM      9  C7  UNL d   1       0.244  -2.911   0.352  0.00  0.00     0.045 A 
ENDROOT
TORSDOF 0
ENDMDL
