MODEL 1
REMARK minimizedAffinity 13.731101
REMARK minimizedRMSD -1
REMARK  0 active torsions:
REMARK  status: ('A' for Active; 'I' for Inactive)
ROOT
ATOM      1  C   UNL d   1      -5.673   3.140  -0.101  0.00  0.00    -0.002 A 
ATOM      2  C1  UNL d   1      -5.984   2.310  -1.169  0.00  0.00     0.010 A 
ATOM      3  C2  UNL d   1      -5.258   1.139  -1.393  0.00  0.00     0.041 A 
ATOM      4  C3  UNL d   1      -4.205   0.812  -0.517  0.00  0.00    -0.075 A 
ATOM      5  S   UNL d   1      -3.179  -0.572  -0.595  0.00  0.00     0.015 SA
ATOM      6  C4  UNL d   1      -2.304  -0.095   0.788  0.00  0.00     0.022 A 
ATOM      7  C5  UNL d   1      -2.770   1.089   1.309  0.00  0.00     0.026 A 
ATOM      8  C6  UNL d   1      -3.873   1.631   0.566  0.00  0.00    -0.082 A 
ATOM      9  C7  UNL d   1      -4.628   2.812   0.766  0.00  0.00     0.045 A 
ENDROOT
TORSDOF 0
ENDMDL
