MODEL 1
REMARK minimizedAffinity 5.43326473
REMARK minimizedRMSD -1
REMARK  0 active torsions:
REMARK  status: ('A' for Active; 'I' for Inactive)
ROOT
ATOM      1  C   UNL d   1       3.618   6.000   3.605  0.00  0.00    -0.002 A 
ATOM      2  C1  UNL d   1       2.239   5.974   3.757  0.00  0.00     0.010 A 
ATOM      3  C2  UNL d   1       1.503   4.851   3.372  0.00  0.00     0.041 A 
ATOM      4  C3  UNL d   1       2.184   3.743   2.830  0.00  0.00    -0.075 A 
ATOM      5  S   UNL d   1       1.491   2.260   2.290  0.00  0.00     0.015 SA
ATOM      6  C4  UNL d   1       3.010   1.625   1.847  0.00  0.00     0.022 A 
ATOM      7  C5  UNL d   1       4.031   2.510   2.098  0.00  0.00     0.026 A 
ATOM      8  C6  UNL d   1       3.573   3.746   2.668  0.00  0.00    -0.082 A 
ATOM      9  C7  UNL d   1       4.290   4.899   3.067  0.00  0.00     0.045 A 
ENDROOT
TORSDOF 0
ENDMDL
