MODEL 1
REMARK minimizedAffinity 11.6569614
REMARK minimizedRMSD -1
REMARK  1 active torsions:
REMARK  status: ('A' for Active; 'I' for Inactive)
REMARK    1  A    between atoms: C1_2  and  C2_3 
ROOT
ATOM      1  C2  UNL d   1      -0.387  -1.124   3.297  0.00  0.00    -0.077 A 
ATOM      2  C3  UNL d   1      -1.301  -2.110   2.898  0.00  0.00     0.002 A 
ATOM      3  C4  UNL d   1      -2.103  -2.753   3.843  0.00  0.00     0.002 A 
ATOM      4  C5  UNL d   1      -2.003  -2.414   5.191  0.00  0.00    -0.004 A 
ATOM      5  C6  UNL d   1      -1.096  -1.437   5.598  0.00  0.00     0.002 A 
ATOM      6  C7  UNL d   1      -0.292  -0.794   4.655  0.00  0.00     0.002 A 
ENDROOT
BRANCH   1   7
ATOM      7  C1  UNL d   1       0.444  -0.395   2.274  0.00  0.00     0.055 C 
ATOM      8  C   UNL d   1       0.756  -1.284   1.079  0.00  0.00     0.019 C 
ENDBRANCH   1   7
TORSDOF 1
ENDMDL
