MODEL 1
REMARK minimizedAffinity 11.814476
REMARK minimizedRMSD -1
REMARK  1 active torsions:
REMARK  status: ('A' for Active; 'I' for Inactive)
REMARK    1  A    between atoms: C1_2  and  C2_3 
ROOT
ATOM      1  C2  UNL d   1      -3.958   2.657  -4.676  0.00  0.00    -0.077 A 
ATOM      2  C3  UNL d   1      -3.515   3.320  -5.829  0.00  0.00     0.002 A 
ATOM      3  C4  UNL d   1      -2.219   3.835  -5.894  0.00  0.00     0.002 A 
ATOM      4  C5  UNL d   1      -1.354   3.687  -4.812  0.00  0.00    -0.004 A 
ATOM      5  C6  UNL d   1      -1.786   3.031  -3.660  0.00  0.00     0.002 A 
ATOM      6  C7  UNL d   1      -3.082   2.518  -3.593  0.00  0.00     0.002 A 
ENDROOT
BRANCH   1   7
ATOM      7  C1  UNL d   1      -5.340   2.059  -4.623  0.00  0.00     0.055 C 
ATOM      8  C   UNL d   1      -5.949   2.197  -3.236  0.00  0.00     0.019 C 
ENDBRANCH   1   7
TORSDOF 1
ENDMDL
