MODEL 1
REMARK minimizedAffinity 4.12113237
REMARK minimizedRMSD -1
REMARK  1 active torsions:
REMARK  status: ('A' for Active; 'I' for Inactive)
REMARK    1  A    between atoms: C1_2  and  C2_3 
ROOT
ATOM      1  C2  UNL d   1      -4.082  -4.540   0.958  0.00  0.00    -0.077 A 
ATOM      2  C3  UNL d   1      -3.700  -5.688   1.666  0.00  0.00     0.002 A 
ATOM      3  C4  UNL d   1      -3.643  -5.671   3.061  0.00  0.00     0.002 A 
ATOM      4  C5  UNL d   1      -3.970  -4.510   3.760  0.00  0.00    -0.004 A 
ATOM      5  C6  UNL d   1      -4.349  -3.363   3.065  0.00  0.00     0.002 A 
ATOM      6  C7  UNL d   1      -4.406  -3.377   1.670  0.00  0.00     0.002 A 
ENDROOT
BRANCH   1   7
ATOM      7  C1  UNL d   1      -4.192  -4.570  -0.544  0.00  0.00     0.055 C 
ATOM      8  C   UNL d   1      -4.225  -5.999  -1.067  0.00  0.00     0.019 C 
ENDBRANCH   1   7
TORSDOF 1
ENDMDL
