MODEL 1
REMARK minimizedAffinity 15.4900761
REMARK minimizedRMSD -1
REMARK  1 active torsions:
REMARK  status: ('A' for Active; 'I' for Inactive)
REMARK    1  A    between atoms: C1_2  and  C2_3 
ROOT
ATOM      1  C2  UNL d   1      -1.467  -2.346   2.264  0.00  0.00    -0.077 A 
ATOM      2  C3  UNL d   1      -1.198  -1.069   2.777  0.00  0.00     0.002 A 
ATOM      3  C4  UNL d   1       0.066  -0.496   2.618  0.00  0.00     0.002 A 
ATOM      4  C5  UNL d   1       1.068  -1.190   1.943  0.00  0.00    -0.004 A 
ATOM      5  C6  UNL d   1       0.811  -2.461   1.431  0.00  0.00     0.002 A 
ATOM      6  C7  UNL d   1      -0.451  -3.036   1.590  0.00  0.00     0.002 A 
ENDROOT
BRANCH   1   7
ATOM      7  C1  UNL d   1      -2.843  -2.946   2.391  0.00  0.00     0.055 C 
ATOM      8  C   UNL d   1      -3.412  -3.319   1.030  0.00  0.00     0.019 C 
ENDBRANCH   1   7
TORSDOF 1
ENDMDL
