MODEL 1
REMARK minimizedAffinity 14.5214205
REMARK minimizedRMSD -1
REMARK  1 active torsions:
REMARK  status: ('A' for Active; 'I' for Inactive)
REMARK    1  A    between atoms: C1_2  and  C2_3 
ROOT
ATOM      1  C2  UNL d   1       2.022  -0.592   1.944  0.00  0.00    -0.077 A 
ATOM      2  C3  UNL d   1       0.681  -0.285   2.210  0.00  0.00     0.002 A 
ATOM      3  C4  UNL d   1      -0.334  -1.167   1.833  0.00  0.00     0.002 A 
ATOM      4  C5  UNL d   1      -0.016  -2.363   1.192  0.00  0.00    -0.004 A 
ATOM      5  C6  UNL d   1       1.315  -2.676   0.921  0.00  0.00     0.002 A 
ATOM      6  C7  UNL d   1       2.330  -1.795   1.297  0.00  0.00     0.002 A 
ENDROOT
BRANCH   1   7
ATOM      7  C1  UNL d   1       3.121   0.336   2.394  0.00  0.00     0.055 C 
ATOM      8  C   UNL d   1       3.634   1.187   1.242  0.00  0.00     0.019 C 
ENDBRANCH   1   7
TORSDOF 1
ENDMDL
