MODEL 1
REMARK minimizedAffinity 5.72868156
REMARK minimizedRMSD -1
REMARK  1 active torsions:
REMARK  status: ('A' for Active; 'I' for Inactive)
REMARK    1  A    between atoms: C1_2  and  C2_3 
ROOT
ATOM      1  C2  UNL d   1       1.225  -1.830   2.471  0.00  0.00    -0.077 A 
ATOM      2  C3  UNL d   1       2.337  -1.483   1.692  0.00  0.00     0.002 A 
ATOM      3  C4  UNL d   1       3.297  -0.597   2.186  0.00  0.00     0.002 A 
ATOM      4  C5  UNL d   1       3.156  -0.055   3.462  0.00  0.00    -0.004 A 
ATOM      5  C6  UNL d   1       2.052  -0.392   4.243  0.00  0.00     0.002 A 
ATOM      6  C7  UNL d   1       1.091  -1.276   3.751  0.00  0.00     0.002 A 
ENDROOT
BRANCH   1   7
ATOM      7  C1  UNL d   1       0.214  -2.823   1.959  0.00  0.00     0.055 C 
ATOM      8  C   UNL d   1       0.768  -4.240   1.986  0.00  0.00     0.019 C 
ENDBRANCH   1   7
TORSDOF 1
ENDMDL
