MODEL 1
REMARK minimizedAffinity 9.20205975
REMARK minimizedRMSD -1
REMARK  1 active torsions:
REMARK  status: ('A' for Active; 'I' for Inactive)
REMARK    1  A    between atoms: C1_2  and  C2_3 
ROOT
ATOM      1  C2  UNL d   1       2.362  -0.866   1.323  0.00  0.00    -0.077 A 
ATOM      2  C3  UNL d   1       2.012   0.339   0.697  0.00  0.00     0.002 A 
ATOM      3  C4  UNL d   1       2.895   1.421   0.705  0.00  0.00     0.002 A 
ATOM      4  C5  UNL d   1       4.133   1.307   1.334  0.00  0.00    -0.004 A 
ATOM      5  C6  UNL d   1       4.489   0.114   1.961  0.00  0.00     0.002 A 
ATOM      6  C7  UNL d   1       3.607  -0.968   1.955  0.00  0.00     0.002 A 
ENDROOT
BRANCH   1   7
ATOM      7  C1  UNL d   1       1.432  -2.050   1.273  0.00  0.00     0.055 C 
ATOM      8  C   UNL d   1      -0.004  -1.639   1.563  0.00  0.00     0.019 C 
ENDBRANCH   1   7
TORSDOF 1
ENDMDL
