MODEL 1
REMARK minimizedAffinity 4.31448603
REMARK minimizedRMSD -1
REMARK  1 active torsions:
REMARK  status: ('A' for Active; 'I' for Inactive)
REMARK    1  A    between atoms: C1_2  and  C2_3 
ROOT
ATOM      1  C2  UNL d   1      -3.889  -4.169   1.217  0.00  0.00    -0.077 A 
ATOM      2  C3  UNL d   1      -2.893  -4.187   2.203  0.00  0.00     0.002 A 
ATOM      3  C4  UNL d   1      -3.236  -4.316   3.551  0.00  0.00     0.002 A 
ATOM      4  C5  UNL d   1      -4.573  -4.433   3.923  0.00  0.00    -0.004 A 
ATOM      5  C6  UNL d   1      -5.571  -4.415   2.949  0.00  0.00     0.002 A 
ATOM      6  C7  UNL d   1      -5.230  -4.284   1.602  0.00  0.00     0.002 A 
ENDROOT
BRANCH   1   7
ATOM      7  C1  UNL d   1      -3.518  -4.079  -0.241  0.00  0.00     0.055 C 
ATOM      8  C   UNL d   1      -3.928  -5.335  -0.995  0.00  0.00     0.019 C 
ENDBRANCH   1   7
TORSDOF 1
ENDMDL
