MODEL 1
REMARK minimizedAffinity -0.861140192
REMARK minimizedRMSD -1
REMARK  1 active torsions:
REMARK  status: ('A' for Active; 'I' for Inactive)
REMARK    1  A    between atoms: C1_2  and  C2_3 
ROOT
ATOM      1  C2  UNL d   1      -4.428  -4.715   2.715  0.00  0.00    -0.077 A 
ATOM      2  C3  UNL d   1      -4.229  -3.535   1.985  0.00  0.00     0.002 A 
ATOM      3  C4  UNL d   1      -3.938  -3.590   0.620  0.00  0.00     0.002 A 
ATOM      4  C5  UNL d   1      -3.847  -4.821  -0.026  0.00  0.00    -0.004 A 
ATOM      5  C6  UNL d   1      -4.040  -6.000   0.693  0.00  0.00     0.002 A 
ATOM      6  C7  UNL d   1      -4.330  -5.947   2.057  0.00  0.00     0.002 A 
ENDROOT
BRANCH   1   7
ATOM      7  C1  UNL d   1      -4.791  -4.656   4.176  0.00  0.00     0.055 C 
ATOM      8  C   UNL d   1      -5.944  -5.596   4.498  0.00  0.00     0.019 C 
ENDBRANCH   1   7
TORSDOF 1
ENDMDL
