MODEL 1
REMARK minimizedAffinity 13.630784
REMARK minimizedRMSD -1
REMARK  1 active torsions:
REMARK  status: ('A' for Active; 'I' for Inactive)
REMARK    1  A    between atoms: C1_2  and  C2_3 
ROOT
ATOM      1  C2  UNL d   1      -0.217   2.884  -1.625  0.00  0.00    -0.077 A 
ATOM      2  C3  UNL d   1       0.345   2.070  -0.632  0.00  0.00     0.002 A 
ATOM      3  C4  UNL d   1       1.329   2.574   0.222  0.00  0.00     0.002 A 
ATOM      4  C5  UNL d   1       1.755   3.894   0.093  0.00  0.00    -0.004 A 
ATOM      5  C6  UNL d   1       1.204   4.711  -0.893  0.00  0.00     0.002 A 
ATOM      6  C7  UNL d   1       0.222   4.209  -1.748  0.00  0.00     0.002 A 
ENDROOT
BRANCH   1   7
ATOM      7  C1  UNL d   1      -1.313   2.357  -2.514  0.00  0.00     0.055 C 
ATOM      8  C   UNL d   1      -1.931   3.469  -3.349  0.00  0.00     0.019 C 
ENDBRANCH   1   7
TORSDOF 1
ENDMDL
