MODEL 1
REMARK minimizedAffinity 16.3262634
REMARK minimizedRMSD -1
REMARK  1 active torsions:
REMARK  status: ('A' for Active; 'I' for Inactive)
REMARK    1  A    between atoms: C1_2  and  C2_3 
ROOT
ATOM      1  C2  UNL d   1      -2.614   3.398  -2.293  0.00  0.00    -0.077 A 
ATOM      2  C3  UNL d   1      -2.424   4.788  -2.300  0.00  0.00     0.002 A 
ATOM      3  C4  UNL d   1      -3.424   5.639  -1.826  0.00  0.00     0.002 A 
ATOM      4  C5  UNL d   1      -4.618   5.111  -1.338  0.00  0.00    -0.004 A 
ATOM      5  C6  UNL d   1      -4.817   3.731  -1.328  0.00  0.00     0.002 A 
ATOM      6  C7  UNL d   1      -3.819   2.879  -1.803  0.00  0.00     0.002 A 
ENDROOT
BRANCH   1   7
ATOM      7  C1  UNL d   1      -1.518   2.476  -2.757  0.00  0.00     0.055 C 
ATOM      8  C   UNL d   1      -0.372   2.429  -1.756  0.00  0.00     0.019 C 
ENDBRANCH   1   7
TORSDOF 1
ENDMDL
