MODEL 1
REMARK minimizedAffinity -6.24870491
REMARK minimizedRMSD -1
REMARK  0 active torsions:
REMARK  status: ('A' for Active; 'I' for Inactive)
ROOT
ATOM      1  N1  IND d   1      -0.313   0.967   0.362  0.00  0.00    -0.196 N 
ATOM      2  C2  IND d   1       0.835   0.392  -0.107  0.00  0.00     0.054 A 
ATOM      3  C3  IND d   1       0.833  -0.936   0.146  0.00  0.00    -0.031 A 
ATOM      4  C4  IND d   1      -0.995  -2.393   1.224  0.00  0.00     0.051 A 
ATOM      5  C5  IND d   1      -2.210  -2.313   1.845  0.00  0.00    -0.031 A 
ATOM      6  C6  IND d   1      -2.869  -1.111   2.004  0.00  0.00     0.015 A 
ATOM      7  C7  IND d   1      -2.340   0.059   1.536  0.00  0.00    -0.016 A 
ATOM      8  C8  IND d   1      -1.104  -0.018   0.912  0.00  0.00    -0.047 A 
ATOM      9  C9  IND d   1      -0.411  -1.229   0.785  0.00  0.00    -0.096 A 
ATOM     10  HN1 IND d   1      -0.508   1.803   0.321  0.00  0.00     0.298 HD
ENDROOT
TORSDOF 0
ENDMDL
