MODEL 1
REMARK minimizedAffinity -2.92978239
REMARK minimizedRMSD -1
REMARK  0 active torsions:
REMARK  status: ('A' for Active; 'I' for Inactive)
ROOT
ATOM      1  N1  IND d   1      -0.231   1.028   0.196  0.00  0.00    -0.196 N 
ATOM      2  C2  IND d   1       0.841   0.265  -0.175  0.00  0.00     0.054 A 
ATOM      3  C3  IND d   1       0.732  -0.981   0.338  0.00  0.00    -0.031 A 
ATOM      4  C4  IND d   1      -1.171  -2.017   1.728  0.00  0.00     0.051 A 
ATOM      5  C5  IND d   1      -2.348  -1.701   2.348  0.00  0.00    -0.031 A 
ATOM      6  C6  IND d   1      -2.891  -0.434   2.279  0.00  0.00     0.015 A 
ATOM      7  C7  IND d   1      -2.281   0.565   1.575  0.00  0.00    -0.016 A 
ATOM      8  C8  IND d   1      -1.083   0.250   0.949  0.00  0.00    -0.047 A 
ATOM      9  C9  IND d   1      -0.505  -1.022   1.051  0.00  0.00    -0.096 A 
ATOM     10  HN1 IND d   1      -0.353   1.855  -0.006  0.00  0.00     0.298 HD
ENDROOT
TORSDOF 0
ENDMDL
