MODEL 1
REMARK minimizedAffinity -6.2457552
REMARK minimizedRMSD -1
REMARK  0 active torsions:
REMARK  status: ('A' for Active; 'I' for Inactive)
ROOT
ATOM      1  N1  IND d   1      -0.592   0.676   0.343  0.00  0.00    -0.196 N 
ATOM      2  C2  IND d   1       0.744   0.486   0.127  0.00  0.00     0.054 A 
ATOM      3  C3  IND d   1       1.077  -0.806   0.349  0.00  0.00    -0.031 A 
ATOM      4  C4  IND d   1      -0.428  -2.798   0.976  0.00  0.00     0.051 A 
ATOM      5  C5  IND d   1      -1.713  -3.111   1.318  0.00  0.00    -0.031 A 
ATOM      6  C6  IND d   1      -2.712  -2.159   1.349  0.00  0.00     0.015 A 
ATOM      7  C7  IND d   1      -2.463  -0.855   1.029  0.00  0.00    -0.016 A 
ATOM      8  C8  IND d   1      -1.157  -0.532   0.688  0.00  0.00    -0.047 A 
ATOM      9  C9  IND d   1      -0.131  -1.485   0.696  0.00  0.00    -0.096 A 
ATOM     10  HN1 IND d   1      -1.009   1.425   0.274  0.00  0.00     0.298 HD
ENDROOT
TORSDOF 0
ENDMDL
