MODEL 1
REMARK minimizedAffinity -2.25665116
REMARK minimizedRMSD -1
REMARK  0 active torsions:
REMARK  status: ('A' for Active; 'I' for Inactive)
ROOT
ATOM      1  N1  IND d   1       1.404   0.343  -0.182  0.00  0.00    -0.196 N 
ATOM      2  C2  IND d   1       2.367  -0.619  -0.061  0.00  0.00     0.054 A 
ATOM      3  C3  IND d   1       1.819  -1.786   0.347  0.00  0.00    -0.031 A 
ATOM      4  C4  IND d   1      -0.652  -2.369   0.777  0.00  0.00     0.051 A 
ATOM      5  C5  IND d   1      -1.897  -1.808   0.834  0.00  0.00    -0.031 A 
ATOM      6  C6  IND d   1      -2.110  -0.476   0.547  0.00  0.00     0.015 A 
ATOM      7  C7  IND d   1      -1.083   0.347   0.179  0.00  0.00    -0.016 A 
ATOM      8  C8  IND d   1       0.184  -0.217   0.127  0.00  0.00    -0.047 A 
ATOM      9  C9  IND d   1       0.413  -1.559   0.459  0.00  0.00    -0.096 A 
ATOM     10  HN1 IND d   1       1.537   1.161  -0.412  0.00  0.00     0.298 HD
ENDROOT
TORSDOF 0
ENDMDL
