MODEL 1
REMARK minimizedAffinity 0.754823983
REMARK minimizedRMSD -1
REMARK  0 active torsions:
REMARK  status: ('A' for Active; 'I' for Inactive)
ROOT
ATOM      1  N1  IND d   1      -0.929   0.792   0.518  0.00  0.00    -0.196 N 
ATOM      2  C2  IND d   1       0.354   1.166   0.228  0.00  0.00     0.054 A 
ATOM      3  C3  IND d   1       1.182   0.100   0.297  0.00  0.00    -0.031 A 
ATOM      4  C4  IND d   1       0.631  -2.370   0.768  0.00  0.00     0.051 A 
ATOM      5  C5  IND d   1      -0.398  -3.195   1.127  0.00  0.00    -0.031 A 
ATOM      6  C6  IND d   1      -1.683  -2.724   1.301  0.00  0.00     0.015 A 
ATOM      7  C7  IND d   1      -1.990  -1.406   1.112  0.00  0.00    -0.016 A 
ATOM      8  C8  IND d   1      -0.947  -0.565   0.755  0.00  0.00    -0.047 A 
ATOM      9  C9  IND d   1       0.368  -1.029   0.618  0.00  0.00    -0.096 A 
ATOM     10  HN1 IND d   1      -1.610   1.316   0.547  0.00  0.00     0.298 HD
ENDROOT
TORSDOF 0
ENDMDL
