MODEL 1
REMARK minimizedAffinity -2.73918223
REMARK minimizedRMSD -1
REMARK  0 active torsions:
REMARK  status: ('A' for Active; 'I' for Inactive)
ROOT
ATOM      1  N1  IND d   1       1.349  -0.042   1.000  0.00  0.00    -0.196 N 
ATOM      2  C2  IND d   1       1.159   1.069   0.227  0.00  0.00     0.054 A 
ATOM      3  C3  IND d   1      -0.094   1.081  -0.279  0.00  0.00    -0.031 A 
ATOM      4  C4  IND d   1      -2.033  -0.567   0.112  0.00  0.00     0.051 A 
ATOM      5  C5  IND d   1      -2.329  -1.758   0.714  0.00  0.00    -0.031 A 
ATOM      6  C6  IND d   1      -1.397  -2.450   1.460  0.00  0.00     0.015 A 
ATOM      7  C7  IND d   1      -0.131  -1.970   1.641  0.00  0.00    -0.016 A 
ATOM      8  C8  IND d   1       0.176  -0.764   1.025  0.00  0.00    -0.047 A 
ATOM      9  C9  IND d   1      -0.753  -0.078   0.233  0.00  0.00    -0.096 A 
ATOM     10  HN1 IND d   1       2.078  -0.255   1.403  0.00  0.00     0.298 HD
ENDROOT
TORSDOF 0
ENDMDL
