MODEL 1
REMARK minimizedAffinity -1.44933414
REMARK minimizedRMSD -1
REMARK  0 active torsions:
REMARK  status: ('A' for Active; 'I' for Inactive)
ROOT
ATOM      1  N1  IND d   1       0.321   0.514   0.098  0.00  0.00    -0.196 N 
ATOM      2  C2  IND d   1       1.459  -0.218  -0.096  0.00  0.00     0.054 A 
ATOM      3  C3  IND d   1       1.300  -1.472   0.383  0.00  0.00    -0.031 A 
ATOM      4  C4  IND d   1      -0.779  -2.569   1.433  0.00  0.00     0.051 A 
ATOM      5  C5  IND d   1      -2.049  -2.289   1.853  0.00  0.00    -0.031 A 
ATOM      6  C6  IND d   1      -2.606  -1.035   1.704  0.00  0.00     0.015 A 
ATOM      7  C7  IND d   1      -1.915  -0.014   1.117  0.00  0.00    -0.016 A 
ATOM      8  C8  IND d   1      -0.622  -0.293   0.695  0.00  0.00    -0.047 A 
ATOM      9  C9  IND d   1      -0.037  -1.552   0.882  0.00  0.00    -0.096 A 
ATOM     10  HN1 IND d   1       0.212   1.340  -0.116  0.00  0.00     0.298 HD
ENDROOT
TORSDOF 0
ENDMDL
