MODEL 1
REMARK minimizedAffinity -4.86152458
REMARK minimizedRMSD -1
REMARK  0 active torsions:
REMARK  status: ('A' for Active; 'I' for Inactive)
ROOT
ATOM      1  N1  IND d   1      -1.892  -1.039   0.889  0.00  0.00    -0.196 N 
ATOM      2  C2  IND d   1      -1.790  -2.379   1.138  0.00  0.00     0.054 A 
ATOM      3  C3  IND d   1      -0.527  -2.805   0.914  0.00  0.00    -0.031 A 
ATOM      4  C4  IND d   1       1.557  -1.455   0.232  0.00  0.00     0.051 A 
ATOM      5  C5  IND d   1       1.953  -0.203  -0.145  0.00  0.00    -0.031 A 
ATOM      6  C6  IND d   1       1.071   0.857  -0.196  0.00  0.00     0.015 A 
ATOM      7  C7  IND d   1      -0.245   0.705   0.142  0.00  0.00    -0.016 A 
ATOM      8  C8  IND d   1      -0.652  -0.567   0.519  0.00  0.00    -0.047 A 
ATOM      9  C9  IND d   1       0.230  -1.655   0.531  0.00  0.00    -0.096 A 
ATOM     10  HN1 IND d   1      -2.610  -0.570   0.952  0.00  0.00     0.298 HD
ENDROOT
TORSDOF 0
ENDMDL
