MODEL 1
REMARK minimizedAffinity -2.0411427
REMARK minimizedRMSD -1
REMARK  0 active torsions:
REMARK  status: ('A' for Active; 'I' for Inactive)
ROOT
ATOM      1  N1  IND d   1      -1.460   1.265   1.291  0.00  0.00    -0.196 N 
ATOM      2  C2  IND d   1      -0.530   1.880   0.499  0.00  0.00     0.054 A 
ATOM      3  C3  IND d   1       0.430   1.002   0.132  0.00  0.00    -0.031 A 
ATOM      4  C4  IND d   1       0.621  -1.516   0.632  0.00  0.00     0.051 A 
ATOM      5  C5  IND d   1       0.031  -2.521   1.346  0.00  0.00    -0.031 A 
ATOM      6  C6  IND d   1      -1.112  -2.311   2.091  0.00  0.00     0.015 A 
ATOM      7  C7  IND d   1      -1.715  -1.086   2.141  0.00  0.00    -0.016 A 
ATOM      8  C8  IND d   1      -1.114  -0.062   1.423  0.00  0.00    -0.047 A 
ATOM      9  C9  IND d   1       0.069  -0.259   0.699  0.00  0.00    -0.096 A 
ATOM     10  HN1 IND d   1      -2.145   1.643   1.647  0.00  0.00     0.298 HD
ENDROOT
TORSDOF 0
ENDMDL
