MODEL 1
REMARK minimizedAffinity -4.54354477
REMARK minimizedRMSD -1
REMARK  0 active torsions:
REMARK  status: ('A' for Active; 'I' for Inactive)
ROOT
ATOM      1  N1  IND d   1       0.513   1.197   0.575  0.00  0.00    -0.196 N 
ATOM      2  C2  IND d   1      -0.709   1.806   0.643  0.00  0.00     0.054 A 
ATOM      3  C3  IND d   1      -1.696   0.882   0.646  0.00  0.00    -0.031 A 
ATOM      4  C4  IND d   1      -1.530  -1.687   0.648  0.00  0.00     0.051 A 
ATOM      5  C5  IND d   1      -0.627  -2.709   0.555  0.00  0.00    -0.031 A 
ATOM      6  C6  IND d   1       0.731  -2.475   0.464  0.00  0.00     0.015 A 
ATOM      7  C7  IND d   1       1.238  -1.207   0.475  0.00  0.00    -0.016 A 
ATOM      8  C8  IND d   1       0.323  -0.167   0.563  0.00  0.00    -0.047 A 
ATOM      9  C9  IND d   1      -1.058  -0.397   0.612  0.00  0.00    -0.096 A 
ATOM     10  HN1 IND d   1       1.272   1.599   0.545  0.00  0.00     0.298 HD
ENDROOT
TORSDOF 0
ENDMDL
