MODEL 1
REMARK minimizedAffinity -1.99234557
REMARK minimizedRMSD -1
REMARK  0 active torsions:
REMARK  status: ('A' for Active; 'I' for Inactive)
ROOT
ATOM      1  N1  IND d   1      -0.834   2.461  -1.959  0.00  0.00    -0.196 N 
ATOM      2  C2  IND d   1       0.309   2.998  -2.482  0.00  0.00     0.054 A 
ATOM      3  C3  IND d   1       1.394   2.346  -2.007  0.00  0.00    -0.031 A 
ATOM      4  C4  IND d   1       1.521   0.305  -0.442  0.00  0.00     0.051 A 
ATOM      5  C5  IND d   1       0.741  -0.515   0.324  0.00  0.00    -0.031 A 
ATOM      6  C6  IND d   1      -0.632  -0.385   0.366  0.00  0.00     0.015 A 
ATOM      7  C7  IND d   1      -1.280   0.568  -0.367  0.00  0.00    -0.016 A 
ATOM      8  C8  IND d   1      -0.490   1.408  -1.141  0.00  0.00    -0.047 A 
ATOM      9  C9  IND d   1       0.907   1.308  -1.155  0.00  0.00    -0.096 A 
ATOM     10  HN1 IND d   1      -1.634   2.736  -2.115  0.00  0.00     0.298 HD
ENDROOT
TORSDOF 0
ENDMDL
