MODEL 1
REMARK minimizedAffinity -4.11648798
REMARK minimizedRMSD -1
REMARK  0 active torsions:
REMARK  status: ('A' for Active; 'I' for Inactive)
ROOT
ATOM      1  N1  IND d   1      -0.076   0.487  -0.256  0.00  0.00    -0.196 N 
ATOM      2  C2  IND d   1       1.229   0.119  -0.429  0.00  0.00     0.054 A 
ATOM      3  C3  IND d   1       1.434  -1.127   0.055  0.00  0.00    -0.031 A 
ATOM      4  C4  IND d   1      -0.251  -2.782   1.079  0.00  0.00     0.051 A 
ATOM      5  C5  IND d   1      -1.555  -2.884   1.478  0.00  0.00    -0.031 A 
ATOM      6  C6  IND d   1      -2.451  -1.847   1.313  0.00  0.00     0.015 A 
ATOM      7  C7  IND d   1      -2.078  -0.669   0.730  0.00  0.00    -0.016 A 
ATOM      8  C8  IND d   1      -0.753  -0.559   0.331  0.00  0.00    -0.047 A 
ATOM      9  C9  IND d   1       0.171  -1.592   0.534  0.00  0.00    -0.096 A 
ATOM     10  HN1 IND d   1      -0.417   1.245  -0.477  0.00  0.00     0.298 HD
ENDROOT
TORSDOF 0
ENDMDL
