MODEL 1
REMARK minimizedAffinity 0.683621645
REMARK minimizedRMSD -1
REMARK  0 active torsions:
REMARK  status: ('A' for Active; 'I' for Inactive)
ROOT
ATOM      1  N1  IND d   1      -1.870   0.372   0.743  0.00  0.00    -0.196 N 
ATOM      2  C2  IND d   1      -1.258   1.448   0.163  0.00  0.00     0.054 A 
ATOM      3  C3  IND d   1       0.006   1.132  -0.199  0.00  0.00    -0.031 A 
ATOM      4  C4  IND d   1       1.241  -1.120  -0.028  0.00  0.00     0.051 A 
ATOM      5  C5  IND d   1       1.106  -2.388   0.463  0.00  0.00    -0.031 A 
ATOM      6  C6  IND d   1      -0.052  -2.811   1.083  0.00  0.00     0.015 A 
ATOM      7  C7  IND d   1      -1.127  -1.980   1.225  0.00  0.00    -0.016 A 
ATOM      8  C8  IND d   1      -0.991  -0.689   0.733  0.00  0.00    -0.047 A 
ATOM      9  C9  IND d   1       0.197  -0.242   0.141  0.00  0.00    -0.096 A 
ATOM     10  HN1 IND d   1      -2.669   0.360   1.060  0.00  0.00     0.298 HD
ENDROOT
TORSDOF 0
ENDMDL
