MODEL 1
REMARK minimizedAffinity -6.25877666
REMARK minimizedRMSD -1
REMARK  0 active torsions:
REMARK  status: ('A' for Active; 'I' for Inactive)
ROOT
ATOM      1  N1  IND d   1      -0.232   0.940   0.020  0.00  0.00    -0.196 N 
ATOM      2  C2  IND d   1       1.132   0.894   0.106  0.00  0.00     0.054 A 
ATOM      3  C3  IND d   1       1.541  -0.353   0.432  0.00  0.00    -0.031 A 
ATOM      4  C4  IND d   1       0.151  -2.493   0.773  0.00  0.00     0.051 A 
ATOM      5  C5  IND d   1      -1.138  -2.941   0.835  0.00  0.00    -0.031 A 
ATOM      6  C6  IND d   1      -2.213  -2.103   0.622  0.00  0.00     0.015 A 
ATOM      7  C7  IND d   1      -2.037  -0.781   0.326  0.00  0.00    -0.016 A 
ATOM      8  C8  IND d   1      -0.729  -0.320   0.269  0.00  0.00    -0.047 A 
ATOM      9  C9  IND d   1       0.364  -1.157   0.526  0.00  0.00    -0.096 A 
ATOM     10  HN1 IND d   1      -0.700   1.639  -0.159  0.00  0.00     0.298 HD
ENDROOT
TORSDOF 0
ENDMDL
