MODEL 1
REMARK minimizedAffinity -3.2110734
REMARK minimizedRMSD -1
REMARK  0 active torsions:
REMARK  status: ('A' for Active; 'I' for Inactive)
ROOT
ATOM      1  N1  IND d   1      -0.266   0.906  -0.131  0.00  0.00    -0.196 N 
ATOM      2  C2  IND d   1       1.062   0.688  -0.371  0.00  0.00     0.054 A 
ATOM      3  C3  IND d   1       1.403  -0.571  -0.014  0.00  0.00    -0.031 A 
ATOM      4  C4  IND d   1      -0.077  -2.474   0.889  0.00  0.00     0.051 A 
ATOM      5  C5  IND d   1      -1.350  -2.742   1.309  0.00  0.00    -0.031 A 
ATOM      6  C6  IND d   1      -2.347  -1.789   1.267  0.00  0.00     0.015 A 
ATOM      7  C7  IND d   1      -2.110  -0.531   0.791  0.00  0.00    -0.016 A 
ATOM      8  C8  IND d   1      -0.818  -0.253   0.370  0.00  0.00    -0.047 A 
ATOM      9  C9  IND d   1       0.209  -1.203   0.450  0.00  0.00    -0.096 A 
ATOM     10  HN1 IND d   1      -0.686   1.643  -0.269  0.00  0.00     0.298 HD
ENDROOT
TORSDOF 0
ENDMDL
