MODEL 1
REMARK minimizedAffinity -4.47238064
REMARK minimizedRMSD -1
REMARK  0 active torsions:
REMARK  status: ('A' for Active; 'I' for Inactive)
ROOT
ATOM      1  N1  IND d   1       0.250   0.276  -0.625  0.00  0.00    -0.196 N 
ATOM      2  C2  IND d   1       1.525   0.184  -0.141  0.00  0.00     0.054 A 
ATOM      3  C3  IND d   1       1.626  -0.849   0.725  0.00  0.00    -0.031 A 
ATOM      4  C4  IND d   1      -0.147  -2.582   1.417  0.00  0.00     0.051 A 
ATOM      5  C5  IND d   1      -1.471  -2.888   1.268  0.00  0.00    -0.031 A 
ATOM      6  C6  IND d   1      -2.305  -2.141   0.461  0.00  0.00     0.015 A 
ATOM      7  C7  IND d   1      -1.841  -1.063  -0.238  0.00  0.00    -0.016 A 
ATOM      8  C8  IND d   1      -0.499  -0.745  -0.083  0.00  0.00    -0.047 A 
ATOM      9  C9  IND d   1       0.342  -1.474   0.767  0.00  0.00    -0.096 A 
ATOM     10  HN1 IND d   1      -0.036   0.871  -1.176  0.00  0.00     0.298 HD
ENDROOT
TORSDOF 0
ENDMDL
