MODEL 1
REMARK minimizedAffinity -1.23050606
REMARK minimizedRMSD -1
REMARK  0 active torsions:
REMARK  status: ('A' for Active; 'I' for Inactive)
ROOT
ATOM      1  C   UNL d   1      -0.526   1.510   2.932  0.00  0.00     0.172 C 
ATOM      2  N   UNL d   1      -0.503   0.578   1.829  0.00  0.00    -0.070 N 
ATOM      3  C1  UNL d   1       0.218  -0.585   1.783  0.00  0.00    -0.004 A 
ATOM      4  C2  UNL d   1      -0.030  -1.186   0.567  0.00  0.00    -0.047 A 
ATOM      5  C3  UNL d   1      -0.929  -0.355  -0.141  0.00  0.00    -0.047 A 
ATOM      6  C4  UNL d   1      -1.205   0.731   0.663  0.00  0.00    -0.004 A 
ENDROOT
TORSDOF 0
ENDMDL
