MODEL 1
REMARK minimizedAffinity -3.82995605
REMARK minimizedRMSD -1
REMARK  0 active torsions:
REMARK  status: ('A' for Active; 'I' for Inactive)
ROOT
ATOM      1  C   UNL d   1      -0.232  -0.692   0.444  0.00  0.00     0.172 C 
ATOM      2  N   UNL d   1      -0.013  -1.694  -0.573  0.00  0.00    -0.070 N 
ATOM      3  C1  UNL d   1       0.869  -1.594  -1.616  0.00  0.00    -0.004 A 
ATOM      4  C2  UNL d   1       0.780  -2.753  -2.356  0.00  0.00    -0.047 A 
ATOM      5  C3  UNL d   1      -0.189  -3.578  -1.737  0.00  0.00    -0.047 A 
ATOM      6  C4  UNL d   1      -0.664  -2.898  -0.636  0.00  0.00    -0.004 A 
ENDROOT
TORSDOF 0
ENDMDL
