MODEL 1
REMARK minimizedAffinity -1.91116834
REMARK minimizedRMSD -1
REMARK  0 active torsions:
REMARK  status: ('A' for Active; 'I' for Inactive)
ROOT
ATOM      1  C   UNL d   1       1.058  -0.918  -0.207  0.00  0.00     0.172 C 
ATOM      2  N   UNL d   1       0.045  -0.278   0.600  0.00  0.00    -0.070 N 
ATOM      3  C1  UNL d   1       0.073   1.021   1.034  0.00  0.00    -0.004 A 
ATOM      4  C2  UNL d   1      -1.070   1.243   1.771  0.00  0.00    -0.047 A 
ATOM      5  C3  UNL d   1      -1.809   0.037   1.782  0.00  0.00    -0.047 A 
ATOM      6  C4  UNL d   1      -1.096  -0.888   1.049  0.00  0.00    -0.004 A 
ENDROOT
TORSDOF 0
ENDMDL
