MODEL 1
REMARK minimizedAffinity -3.21341538
REMARK minimizedRMSD -1
REMARK  0 active torsions:
REMARK  status: ('A' for Active; 'I' for Inactive)
ROOT
ATOM      1  C   UNL d   1       0.468  -2.122  -2.277  0.00  0.00     0.172 C 
ATOM      2  N   UNL d   1       0.308  -1.534  -0.968  0.00  0.00    -0.070 N 
ATOM      3  C1  UNL d   1      -0.884  -1.326  -0.326  0.00  0.00    -0.004 A 
ATOM      4  C2  UNL d   1      -0.611  -0.748   0.894  0.00  0.00    -0.047 A 
ATOM      5  C3  UNL d   1       0.793  -0.602   0.989  0.00  0.00    -0.047 A 
ATOM      6  C4  UNL d   1       1.337  -1.096  -0.177  0.00  0.00    -0.004 A 
ENDROOT
TORSDOF 0
ENDMDL
