MODEL 1
REMARK minimizedAffinity -2.21657944
REMARK minimizedRMSD -1
REMARK  0 active torsions:
REMARK  status: ('A' for Active; 'I' for Inactive)
ROOT
ATOM      1  C   UNL d   1       0.906  -2.492  -1.620  0.00  0.00     0.172 C 
ATOM      2  N   UNL d   1       0.275  -1.754  -0.551  0.00  0.00    -0.070 N 
ATOM      3  C1  UNL d   1       0.697  -0.550  -0.054  0.00  0.00    -0.004 A 
ATOM      4  C2  UNL d   1      -0.168  -0.182   0.953  0.00  0.00    -0.047 A 
ATOM      5  C3  UNL d   1      -1.144  -1.201   1.067  0.00  0.00    -0.047 A 
ATOM      6  C4  UNL d   1      -0.845  -2.162   0.124  0.00  0.00    -0.004 A 
ENDROOT
TORSDOF 0
ENDMDL
