MODEL 1
REMARK minimizedAffinity -4.00152969
REMARK minimizedRMSD -1
REMARK  0 active torsions:
REMARK  status: ('A' for Active; 'I' for Inactive)
ROOT
ATOM      1  C   UNL d   1       1.184  -0.141  -0.352  0.00  0.00     0.172 C 
ATOM      2  N   UNL d   1       0.112   0.674   0.169  0.00  0.00    -0.070 N 
ATOM      3  C1  UNL d   1      -0.749   0.315   1.172  0.00  0.00    -0.004 A 
ATOM      4  C2  UNL d   1      -1.621   1.362   1.374  0.00  0.00    -0.047 A 
ATOM      5  C3  UNL d   1      -1.273   2.386   0.461  0.00  0.00    -0.047 A 
ATOM      6  C4  UNL d   1      -0.198   1.933  -0.273  0.00  0.00    -0.004 A 
ENDROOT
TORSDOF 0
ENDMDL
