MODEL 1
REMARK minimizedAffinity -2.02106762
REMARK minimizedRMSD -1
REMARK  0 active torsions:
REMARK  status: ('A' for Active; 'I' for Inactive)
ROOT
ATOM      1  C   UNL d   1       1.304  -0.760  -0.403  0.00  0.00     0.172 C 
ATOM      2  N   UNL d   1       0.135  -0.409   0.368  0.00  0.00    -0.070 N 
ATOM      3  C1  UNL d   1      -1.165  -0.596  -0.021  0.00  0.00    -0.004 A 
ATOM      4  C2  UNL d   1      -1.979  -0.133   0.989  0.00  0.00    -0.047 A 
ATOM      5  C3  UNL d   1      -1.140   0.350   2.022  0.00  0.00    -0.047 A 
ATOM      6  C4  UNL d   1       0.164   0.167   1.611  0.00  0.00    -0.004 A 
ENDROOT
TORSDOF 0
ENDMDL
