MODEL 1
REMARK minimizedAffinity -2.37402487
REMARK minimizedRMSD -1
REMARK  0 active torsions:
REMARK  status: ('A' for Active; 'I' for Inactive)
ROOT
ATOM      1  C   UNL d   1       0.492  -1.025  -0.604  0.00  0.00     0.172 C 
ATOM      2  N   UNL d   1      -0.302  -0.337   0.387  0.00  0.00    -0.070 N 
ATOM      3  C1  UNL d   1      -1.211  -0.922   1.228  0.00  0.00    -0.004 A 
ATOM      4  C2  UNL d   1      -1.753   0.069   2.017  0.00  0.00    -0.047 A 
ATOM      5  C3  UNL d   1      -1.150   1.292   1.637  0.00  0.00    -0.047 A 
ATOM      6  C4  UNL d   1      -0.255   1.011   0.626  0.00  0.00    -0.004 A 
ENDROOT
TORSDOF 0
ENDMDL
