MODEL 1
REMARK minimizedAffinity -2.69065309
REMARK minimizedRMSD -1
REMARK  0 active torsions:
REMARK  status: ('A' for Active; 'I' for Inactive)
ROOT
ATOM      1  C   UNL d   1       0.726  -2.667  -2.144  0.00  0.00     0.172 C 
ATOM      2  N   UNL d   1       0.410  -1.721  -1.101  0.00  0.00    -0.070 N 
ATOM      3  C1  UNL d   1      -0.695  -1.763  -0.293  0.00  0.00    -0.004 A 
ATOM      4  C2  UNL d   1      -0.630  -0.689   0.568  0.00  0.00    -0.047 A 
ATOM      5  C3  UNL d   1       0.554   0.025   0.266  0.00  0.00    -0.047 A 
ATOM      6  C4  UNL d   1       1.179  -0.636  -0.771  0.00  0.00    -0.004 A 
ENDROOT
TORSDOF 0
ENDMDL
