MODEL 1
REMARK minimizedAffinity -2.13156176
REMARK minimizedRMSD -1
REMARK  0 active torsions:
REMARK  status: ('A' for Active; 'I' for Inactive)
ROOT
ATOM      1  C   UNL d   1       0.251   3.152  -0.322  0.00  0.00     0.172 C 
ATOM      2  N   UNL d   1       0.140   1.834   0.256  0.00  0.00    -0.070 N 
ATOM      3  C1  UNL d   1       0.826   0.722  -0.156  0.00  0.00    -0.004 A 
ATOM      4  C2  UNL d   1       0.443  -0.331   0.646  0.00  0.00    -0.047 A 
ATOM      5  C3  UNL d   1      -0.506   0.164   1.572  0.00  0.00    -0.047 A 
ATOM      6  C4  UNL d   1      -0.675   1.507   1.307  0.00  0.00    -0.004 A 
ENDROOT
TORSDOF 0
ENDMDL
