MODEL 1
REMARK minimizedAffinity -3.02618194
REMARK minimizedRMSD -1
REMARK  0 active torsions:
REMARK  status: ('A' for Active; 'I' for Inactive)
ROOT
ATOM      1  C   UNL d   1       1.065  -0.829  -0.544  0.00  0.00     0.172 C 
ATOM      2  N   UNL d   1       0.162  -0.549   0.548  0.00  0.00    -0.070 N 
ATOM      3  C1  UNL d   1      -0.171  -1.418   1.552  0.00  0.00    -0.004 A 
ATOM      4  C2  UNL d   1      -1.054  -0.775   2.392  0.00  0.00    -0.047 A 
ATOM      5  C3  UNL d   1      -1.259   0.526   1.874  0.00  0.00    -0.047 A 
ATOM      6  C4  UNL d   1      -0.495   0.639   0.732  0.00  0.00    -0.004 A 
ENDROOT
TORSDOF 0
ENDMDL
