MODEL 1
REMARK minimizedAffinity -2.88407278
REMARK minimizedRMSD -1
REMARK  0 active torsions:
REMARK  status: ('A' for Active; 'I' for Inactive)
ROOT
ATOM      1  C   UNL d   1      -1.029   1.460   1.610  0.00  0.00     0.172 C 
ATOM      2  N   UNL d   1      -0.273   0.456   0.899  0.00  0.00    -0.070 N 
ATOM      3  C1  UNL d   1       0.601  -0.435   1.463  0.00  0.00    -0.004 A 
ATOM      4  C2  UNL d   1       1.114  -1.220   0.454  0.00  0.00    -0.047 A 
ATOM      5  C3  UNL d   1       0.531  -0.785  -0.760  0.00  0.00    -0.047 A 
ATOM      6  C4  UNL d   1      -0.324   0.254  -0.455  0.00  0.00    -0.004 A 
ENDROOT
TORSDOF 0
ENDMDL
