MODEL 1
REMARK minimizedAffinity -2.99470901
REMARK minimizedRMSD -1
REMARK  0 active torsions:
REMARK  status: ('A' for Active; 'I' for Inactive)
ROOT
ATOM      1  C   UNL d   1       0.397   2.770  -0.741  0.00  0.00     0.172 C 
ATOM      2  N   UNL d   1      -0.118   1.877   0.270  0.00  0.00    -0.070 N 
ATOM      3  C1  UNL d   1       0.067   0.520   0.306  0.00  0.00    -0.004 A 
ATOM      4  C2  UNL d   1      -0.580   0.036   1.422  0.00  0.00    -0.047 A 
ATOM      5  C3  UNL d   1      -1.175   1.139   2.079  0.00  0.00    -0.047 A 
ATOM      6  C4  UNL d   1      -0.874   2.266   1.344  0.00  0.00    -0.004 A 
ENDROOT
TORSDOF 0
ENDMDL
