MODEL 1
REMARK minimizedAffinity -3.66056919
REMARK minimizedRMSD -1
REMARK  0 active torsions:
REMARK  status: ('A' for Active; 'I' for Inactive)
ROOT
ATOM      1  C   UNL d   1       0.065  -0.690   1.415  0.00  0.00     0.172 C 
ATOM      2  N   UNL d   1      -0.181   0.688   1.061  0.00  0.00    -0.070 N 
ATOM      3  C1  UNL d   1      -0.909   1.584   1.798  0.00  0.00    -0.004 A 
ATOM      4  C2  UNL d   1      -0.906   2.786   1.123  0.00  0.00    -0.047 A 
ATOM      5  C3  UNL d   1      -0.152   2.606  -0.060  0.00  0.00    -0.047 A 
ATOM      6  C4  UNL d   1       0.286   1.298  -0.073  0.00  0.00    -0.004 A 
ENDROOT
TORSDOF 0
ENDMDL
