MODEL 1
REMARK minimizedAffinity -2.42970872
REMARK minimizedRMSD -1
REMARK  0 active torsions:
REMARK  status: ('A' for Active; 'I' for Inactive)
ROOT
ATOM      1  C   UNL d   1       0.316  -2.642  -2.832  0.00  0.00     0.172 C 
ATOM      2  N   UNL d   1       0.346  -1.741  -1.704  0.00  0.00    -0.070 N 
ATOM      3  C1  UNL d   1      -0.748  -1.169  -1.110  0.00  0.00    -0.004 A 
ATOM      4  C2  UNL d   1      -0.300  -0.378  -0.075  0.00  0.00    -0.047 A 
ATOM      5  C3  UNL d   1       1.111  -0.477  -0.045  0.00  0.00    -0.047 A 
ATOM      6  C4  UNL d   1       1.484  -1.327  -1.065  0.00  0.00    -0.004 A 
ENDROOT
TORSDOF 0
ENDMDL
