MODEL 1
REMARK minimizedAffinity -1.33163965
REMARK minimizedRMSD -1
REMARK  0 active torsions:
REMARK  status: ('A' for Active; 'I' for Inactive)
ROOT
ATOM      1  C   UNL d   1      -0.322   3.360  -0.075  0.00  0.00     0.172 C 
ATOM      2  N   UNL d   1      -0.685   2.070   0.462  0.00  0.00    -0.070 N 
ATOM      3  C1  UNL d   1      -1.500   1.855   1.542  0.00  0.00    -0.004 A 
ATOM      4  C2  UNL d   1      -1.599   0.494   1.733  0.00  0.00    -0.047 A 
ATOM      5  C3  UNL d   1      -0.815  -0.131   0.734  0.00  0.00    -0.047 A 
ATOM      6  C4  UNL d   1      -0.261   0.867  -0.038  0.00  0.00    -0.004 A 
ENDROOT
TORSDOF 0
ENDMDL
