MODEL 1
REMARK minimizedAffinity -3.07751107
REMARK minimizedRMSD -1
REMARK  0 active torsions:
REMARK  status: ('A' for Active; 'I' for Inactive)
ROOT
ATOM      1  C   UNL d   1      -0.129   0.352   0.052  0.00  0.00     0.172 C 
ATOM      2  N   UNL d   1      -0.240   1.744   0.420  0.00  0.00    -0.070 N 
ATOM      3  C1  UNL d   1      -0.589   2.218   1.656  0.00  0.00    -0.004 A 
ATOM      4  C2  UNL d   1      -0.581   3.595   1.598  0.00  0.00    -0.047 A 
ATOM      5  C3  UNL d   1      -0.214   3.961   0.281  0.00  0.00    -0.047 A 
ATOM      6  C4  UNL d   1      -0.009   2.796  -0.427  0.00  0.00    -0.004 A 
ENDROOT
TORSDOF 0
ENDMDL
