MODEL 1
REMARK minimizedAffinity -3.84303451
REMARK minimizedRMSD -1
REMARK  0 active torsions:
REMARK  status: ('A' for Active; 'I' for Inactive)
ROOT
ATOM      1  C   UNL d   1       0.083  -0.337   1.026  0.00  0.00     0.172 C 
ATOM      2  N   UNL d   1      -0.365   1.014   0.781  0.00  0.00    -0.070 N 
ATOM      3  C1  UNL d   1       0.046   1.816  -0.250  0.00  0.00    -0.004 A 
ATOM      4  C2  UNL d   1      -0.611   3.022  -0.134  0.00  0.00    -0.047 A 
ATOM      5  C3  UNL d   1      -1.446   2.942   1.006  0.00  0.00    -0.047 A 
ATOM      6  C4  UNL d   1      -1.274   1.688   1.553  0.00  0.00    -0.004 A 
ENDROOT
TORSDOF 0
ENDMDL
