MODEL 1
REMARK minimizedAffinity 10.3872204
REMARK minimizedRMSD -1
REMARK  0 active torsions:
REMARK  status: ('A' for Active; 'I' for Inactive)
ROOT
ATOM      1  C   UNL d   1      -3.983   3.395  -4.710  0.00  0.00     0.020 A 
ATOM      2  C1  UNL d   1      -2.951   3.356  -3.773  0.00  0.00     0.020 A 
ATOM      3  C2  UNL d   1      -2.846   2.276  -2.894  0.00  0.00     0.034 A 
ATOM      4  C3  UNL d   1      -3.775   1.230  -2.950  0.00  0.00     0.017 A 
ATOM      5  C4  UNL d   1      -4.811   1.271  -3.890  0.00  0.00     0.017 A 
ATOM      6  C5  UNL d   1      -4.911   2.354  -4.768  0.00  0.00     0.034 A 
ATOM      7 Cl   UNL d   1      -5.994   0.018  -4.020  0.00  0.00    -0.070 Cl
ATOM      8 Cl1  UNL d   1      -3.585  -0.074  -1.833  0.00  0.00    -0.070 Cl
ENDROOT
TORSDOF 0
ENDMDL
