MODEL 1
REMARK minimizedAffinity 17.7441826
REMARK minimizedRMSD -1
REMARK  0 active torsions:
REMARK  status: ('A' for Active; 'I' for Inactive)
ROOT
ATOM      1  C   UNL d   1      -5.932  -2.239  -4.114  0.00  0.00     0.020 A 
ATOM      2  C1  UNL d   1      -5.999  -0.918  -4.555  0.00  0.00     0.020 A 
ATOM      3  C2  UNL d   1      -5.399   0.098  -3.809  0.00  0.00     0.034 A 
ATOM      4  C3  UNL d   1      -4.729  -0.205  -2.618  0.00  0.00     0.017 A 
ATOM      5  C4  UNL d   1      -4.662  -1.531  -2.176  0.00  0.00     0.017 A 
ATOM      6  C5  UNL d   1      -5.265  -2.545  -2.927  0.00  0.00     0.034 A 
ATOM      7 Cl   UNL d   1      -3.853  -1.982  -0.717  0.00  0.00    -0.070 Cl
ATOM      8 Cl1  UNL d   1      -4.009   1.102  -1.746  0.00  0.00    -0.070 Cl
ENDROOT
TORSDOF 0
ENDMDL
