MODEL 1
REMARK minimizedAffinity 7.2486186
REMARK minimizedRMSD -1
REMARK  0 active torsions:
REMARK  status: ('A' for Active; 'I' for Inactive)
ROOT
ATOM      1  C   UNL d   1       2.069  -2.934  -0.455  0.00  0.00     0.020 A 
ATOM      2  C1  UNL d   1       3.123  -2.523   0.361  0.00  0.00     0.020 A 
ATOM      3  C2  UNL d   1       2.863  -1.786   1.518  0.00  0.00     0.034 A 
ATOM      4  C3  UNL d   1       1.548  -1.456   1.862  0.00  0.00     0.017 A 
ATOM      5  C4  UNL d   1       0.491  -1.869   1.043  0.00  0.00     0.017 A 
ATOM      6  C5  UNL d   1       0.756  -2.607  -0.114  0.00  0.00     0.034 A 
ATOM      7 Cl   UNL d   1      -1.159  -1.500   1.402  0.00  0.00    -0.070 Cl
ATOM      8 Cl1  UNL d   1       1.300  -0.542   3.308  0.00  0.00    -0.070 Cl
ENDROOT
TORSDOF 0
ENDMDL
