MODEL 1
REMARK minimizedAffinity 11.4749117
REMARK minimizedRMSD -1
REMARK  0 active torsions:
REMARK  status: ('A' for Active; 'I' for Inactive)
ROOT
ATOM      1  C   UNL d   1      -0.361   2.265  -4.210  0.00  0.00     0.020 A 
ATOM      2  C1  UNL d   1      -0.230   1.565  -3.011  0.00  0.00     0.020 A 
ATOM      3  C2  UNL d   1      -1.335   1.404  -2.172  0.00  0.00     0.034 A 
ATOM      4  C3  UNL d   1      -2.576   1.944  -2.531  0.00  0.00     0.017 A 
ATOM      5  C4  UNL d   1      -2.706   2.647  -3.734  0.00  0.00     0.017 A 
ATOM      6  C5  UNL d   1      -1.597   2.805  -4.570  0.00  0.00     0.034 A 
ATOM      7 Cl   UNL d   1      -4.204   3.342  -4.244  0.00  0.00    -0.070 Cl
ATOM      8 Cl1  UNL d   1      -3.899   1.707  -1.445  0.00  0.00    -0.070 Cl
ENDROOT
TORSDOF 0
ENDMDL
