MODEL 1
REMARK minimizedAffinity 1.04596627
REMARK minimizedRMSD -1
REMARK  0 active torsions:
REMARK  status: ('A' for Active; 'I' for Inactive)
ROOT
ATOM      1  C   UNL d   1       3.526   1.919  -1.077  0.00  0.00     0.172 C 
ATOM      2  N   UNL d   1       2.981   0.595  -1.265  0.00  0.00    -0.070 N 
ATOM      3  C1  UNL d   1       2.678   0.020  -2.470  0.00  0.00    -0.004 A 
ATOM      4  C2  UNL d   1       2.183  -1.242  -2.223  0.00  0.00    -0.047 A 
ATOM      5  C3  UNL d   1       2.187  -1.432  -0.820  0.00  0.00    -0.047 A 
ATOM      6  C4  UNL d   1       2.686  -0.279  -0.252  0.00  0.00    -0.004 A 
ENDROOT
TORSDOF 0
ENDMDL
