MODEL 1
REMARK minimizedAffinity -0.210265905
REMARK minimizedRMSD -1
REMARK  0 active torsions:
REMARK  status: ('A' for Active; 'I' for Inactive)
ROOT
ATOM      1  C   UNL d   1      -5.724   1.810   1.031  0.00  0.00     0.172 C 
ATOM      2  N   UNL d   1      -5.268   3.092   1.514  0.00  0.00    -0.070 N 
ATOM      3  C1  UNL d   1      -6.000   3.966   2.273  0.00  0.00    -0.004 A 
ATOM      4  C2  UNL d   1      -5.212   5.068   2.527  0.00  0.00    -0.047 A 
ATOM      5  C3  UNL d   1      -3.964   4.849   1.897  0.00  0.00    -0.047 A 
ATOM      6  C4  UNL d   1      -4.026   3.619   1.278  0.00  0.00    -0.004 A 
ENDROOT
TORSDOF 0
ENDMDL
