MODEL 1
REMARK minimizedAffinity -1.02868378
REMARK minimizedRMSD -1
REMARK  0 active torsions:
REMARK  status: ('A' for Active; 'I' for Inactive)
ROOT
ATOM      1  C   UNL d   1       2.009   2.202   2.687  0.00  0.00     0.172 C 
ATOM      2  N   UNL d   1       2.907   2.025   1.570  0.00  0.00    -0.070 N 
ATOM      3  C1  UNL d   1       4.226   2.391   1.540  0.00  0.00    -0.004 A 
ATOM      4  C2  UNL d   1       4.729   2.054   0.302  0.00  0.00    -0.047 A 
ATOM      5  C3  UNL d   1       3.676   1.466  -0.438  0.00  0.00    -0.047 A 
ATOM      6  C4  UNL d   1       2.559   1.461   0.371  0.00  0.00    -0.004 A 
ENDROOT
TORSDOF 0
ENDMDL
