MODEL 1
REMARK minimizedAffinity 0.103607573
REMARK minimizedRMSD -1
REMARK  0 active torsions:
REMARK  status: ('A' for Active; 'I' for Inactive)
ROOT
ATOM      1  C   UNL d   1      -5.419   2.350  -2.544  0.00  0.00     0.172 C 
ATOM      2  N   UNL d   1      -4.480   1.542  -3.286  0.00  0.00    -0.070 N 
ATOM      3  C1  UNL d   1      -4.560   1.250  -4.621  0.00  0.00    -0.004 A 
ATOM      4  C2  UNL d   1      -3.479   0.458  -4.945  0.00  0.00    -0.047 A 
ATOM      5  C3  UNL d   1      -2.725   0.267  -3.763  0.00  0.00    -0.047 A 
ATOM      6  C4  UNL d   1      -3.367   0.949  -2.751  0.00  0.00    -0.004 A 
ENDROOT
TORSDOF 0
ENDMDL
