MODEL 1
REMARK minimizedAffinity -2.62663651
REMARK minimizedRMSD -1
REMARK  0 active torsions:
REMARK  status: ('A' for Active; 'I' for Inactive)
ROOT
ATOM      1  C   UNL d   1      -2.556   0.509  -3.440  0.00  0.00     0.172 C 
ATOM      2  N   UNL d   1      -3.793   1.174  -3.777  0.00  0.00    -0.070 N 
ATOM      3  C1  UNL d   1      -4.253   2.336  -3.217  0.00  0.00    -0.004 A 
ATOM      4  C2  UNL d   1      -5.462   2.639  -3.806  0.00  0.00    -0.047 A 
ATOM      5  C3  UNL d   1      -5.738   1.623  -4.752  0.00  0.00    -0.047 A 
ATOM      6  C4  UNL d   1      -4.689   0.729  -4.713  0.00  0.00    -0.004 A 
ENDROOT
TORSDOF 0
ENDMDL
