MODEL 1
REMARK minimizedAffinity 0.0129774082
REMARK minimizedRMSD -1
REMARK  0 active torsions:
REMARK  status: ('A' for Active; 'I' for Inactive)
ROOT
ATOM      1  C   UNL d   1      -6.000   2.509  -2.253  0.00  0.00     0.172 C 
ATOM      2  N   UNL d   1      -5.337   1.581  -3.138  0.00  0.00    -0.070 N 
ATOM      3  C1  UNL d   1      -3.995   1.309  -3.150  0.00  0.00    -0.004 A 
ATOM      4  C2  UNL d   1      -3.762   0.373  -4.134  0.00  0.00    -0.047 A 
ATOM      5  C3  UNL d   1      -5.007   0.072  -4.736  0.00  0.00    -0.047 A 
ATOM      6  C4  UNL d   1      -5.965   0.834  -4.100  0.00  0.00    -0.004 A 
ENDROOT
TORSDOF 0
ENDMDL
