MODEL 1
REMARK minimizedAffinity 2.24120426
REMARK minimizedRMSD -1
REMARK  0 active torsions:
REMARK  status: ('A' for Active; 'I' for Inactive)
ROOT
ATOM      1  C   UNL d   1      -5.780   4.452   1.771  0.00  0.00     0.172 C 
ATOM      2  N   UNL d   1      -5.785   4.761   3.182  0.00  0.00    -0.070 N 
ATOM      3  C1  UNL d   1      -5.577   6.000   3.728  0.00  0.00    -0.004 A 
ATOM      4  C2  UNL d   1      -5.661   5.877   5.098  0.00  0.00    -0.047 A 
ATOM      5  C3  UNL d   1      -5.928   4.517   5.385  0.00  0.00    -0.047 A 
ATOM      6  C4  UNL d   1      -5.999   3.849   4.181  0.00  0.00    -0.004 A 
ENDROOT
TORSDOF 0
ENDMDL
