MODEL 1
REMARK minimizedAffinity -4.58930254
REMARK minimizedRMSD -1
REMARK  0 active torsions:
REMARK  status: ('A' for Active; 'I' for Inactive)
ROOT
ATOM      1  C1  DEN d   1       0.357  -0.953   1.368  0.00  0.00     0.130 A 
ATOM      2  C2  DEN d   1       1.501  -0.274   0.767  0.00  0.00    -0.031 A 
ATOM      3  C3  DEN d   1       1.054   0.342  -0.499  0.00  0.00     0.027 A 
ATOM      4  C4  DEN d   1      -1.288   0.315  -1.578  0.00  0.00     0.027 A 
ATOM      5  C5  DEN d   1      -2.580  -0.144  -1.445  0.00  0.00    -0.003 A 
ATOM      6  C6  DEN d   1      -2.972  -0.927  -0.391  0.00  0.00     0.001 A 
ATOM      7  C7  DEN d   1      -2.074  -1.237   0.595  0.00  0.00     0.017 A 
ATOM      8  C8  DEN d   1      -0.767  -0.784   0.464  0.00  0.00    -0.094 A 
ATOM      9  C9  DEN d   1      -0.394   0.016  -0.602  0.00  0.00    -0.072 A 
ENDROOT
TORSDOF 0
ENDMDL
