MODEL 1
REMARK minimizedAffinity -6.51603699
REMARK minimizedRMSD -1
REMARK  0 active torsions:
REMARK  status: ('A' for Active; 'I' for Inactive)
ROOT
ATOM      1  C1  DEN d   1       0.674  -0.529   0.409  0.00  0.00     0.130 A 
ATOM      2  C2  DEN d   1       0.761   0.396  -0.718  0.00  0.00    -0.031 A 
ATOM      3  C3  DEN d   1      -0.558   0.434  -1.381  0.00  0.00     0.027 A 
ATOM      4  C4  DEN d   1      -2.717  -0.841  -0.773  0.00  0.00     0.027 A 
ATOM      5  C5  DEN d   1      -3.276  -1.751   0.096  0.00  0.00    -0.003 A 
ATOM      6  C6  DEN d   1      -2.554  -2.339   1.101  0.00  0.00     0.001 A 
ATOM      7  C7  DEN d   1      -1.243  -1.989   1.290  0.00  0.00     0.017 A 
ATOM      8  C8  DEN d   1      -0.671  -1.077   0.413  0.00  0.00    -0.094 A 
ATOM      9  C9  DEN d   1      -1.420  -0.485  -0.589  0.00  0.00    -0.072 A 
ENDROOT
TORSDOF 0
ENDMDL
