MODEL 1
REMARK minimizedAffinity -2.70545721
REMARK minimizedRMSD -1
REMARK  0 active torsions:
REMARK  status: ('A' for Active; 'I' for Inactive)
ROOT
ATOM      1  C1  DEN d   1      -2.663  -1.062   1.165  0.00  0.00     0.130 A 
ATOM      2  C2  DEN d   1      -3.524  -0.971  -0.011  0.00  0.00    -0.031 A 
ATOM      3  C3  DEN d   1      -2.709  -0.467  -1.135  0.00  0.00     0.027 A 
ATOM      4  C4  DEN d   1      -0.210   0.173  -1.168  0.00  0.00     0.027 A 
ATOM      5  C5  DEN d   1       0.932   0.275  -0.406  0.00  0.00    -0.003 A 
ATOM      6  C6  DEN d   1       0.949  -0.026   0.930  0.00  0.00     0.001 A 
ATOM      7  C7  DEN d   1      -0.190  -0.488   1.536  0.00  0.00     0.017 A 
ATOM      8  C8  DEN d   1      -1.348  -0.587   0.775  0.00  0.00    -0.094 A 
ATOM      9  C9  DEN d   1      -1.341  -0.289  -0.577  0.00  0.00    -0.072 A 
ENDROOT
TORSDOF 0
ENDMDL
