MODEL 1
REMARK minimizedAffinity -5.71252346
REMARK minimizedRMSD -1
REMARK  0 active torsions:
REMARK  status: ('A' for Active; 'I' for Inactive)
ROOT
ATOM      1  C1  DEN d   1      -3.001  -2.256   0.307  0.00  0.00     0.130 A 
ATOM      2  C2  DEN d   1      -2.314  -2.811   1.470  0.00  0.00    -0.031 A 
ATOM      3  C3  DEN d   1      -1.017  -2.118   1.607  0.00  0.00     0.027 A 
ATOM      4  C4  DEN d   1      -0.014  -0.247   0.142  0.00  0.00     0.027 A 
ATOM      5  C5  DEN d   1      -0.222   0.545  -0.965  0.00  0.00    -0.003 A 
ATOM      6  C6  DEN d   1      -1.347   0.436  -1.740  0.00  0.00     0.001 A 
ATOM      7  C7  DEN d   1      -2.328  -0.455  -1.391  0.00  0.00     0.017 A 
ATOM      8  C8  DEN d   1      -2.122  -1.262  -0.280  0.00  0.00    -0.094 A 
ATOM      9  C9  DEN d   1      -0.984  -1.128   0.497  0.00  0.00    -0.072 A 
ENDROOT
TORSDOF 0
ENDMDL
