MODEL 1
REMARK minimizedAffinity -6.91643095
REMARK minimizedRMSD -1
REMARK  0 active torsions:
REMARK  status: ('A' for Active; 'I' for Inactive)
ROOT
ATOM      1  C1  DEN d   1       0.554  -0.158   0.368  0.00  0.00     0.130 A 
ATOM      2  C2  DEN d   1       0.731   0.792  -0.727  0.00  0.00    -0.031 A 
ATOM      3  C3  DEN d   1      -0.525   0.833  -1.502  0.00  0.00     0.027 A 
ATOM      4  C4  DEN d   1      -2.716  -0.471  -1.112  0.00  0.00     0.027 A 
ATOM      5  C5  DEN d   1      -3.340  -1.404  -0.314  0.00  0.00    -0.003 A 
ATOM      6  C6  DEN d   1      -2.704  -2.007   0.738  0.00  0.00     0.001 A 
ATOM      7  C7  DEN d   1      -1.418  -1.651   1.048  0.00  0.00     0.017 A 
ATOM      8  C8  DEN d   1      -0.780  -0.716   0.244  0.00  0.00    -0.094 A 
ATOM      9  C9  DEN d   1      -1.444  -0.109  -0.808  0.00  0.00    -0.072 A 
ENDROOT
TORSDOF 0
ENDMDL
