MODEL 1
REMARK minimizedAffinity -5.55880213
REMARK minimizedRMSD -1
REMARK  0 active torsions:
REMARK  status: ('A' for Active; 'I' for Inactive)
ROOT
ATOM      1  C1  DEN d   1      -0.003   0.633  -1.123  0.00  0.00     0.130 A 
ATOM      2  C2  DEN d   1       1.179   0.378  -0.304  0.00  0.00    -0.031 A 
ATOM      3  C3  DEN d   1       0.814  -0.612   0.729  0.00  0.00     0.027 A 
ATOM      4  C4  DEN d   1      -1.454  -1.771   1.136  0.00  0.00     0.027 A 
ATOM      5  C5  DEN d   1      -2.759  -1.867   0.705  0.00  0.00    -0.003 A 
ATOM      6  C6  DEN d   1      -3.242  -1.118  -0.335  0.00  0.00     0.001 A 
ATOM      7  C7  DEN d   1      -2.401  -0.271  -1.009  0.00  0.00     0.017 A 
ATOM      8  C8  DEN d   1      -1.087  -0.163  -0.576  0.00  0.00    -0.094 A 
ATOM      9  C9  DEN d   1      -0.614  -0.939   0.470  0.00  0.00    -0.072 A 
ENDROOT
TORSDOF 0
ENDMDL
