MODEL 1
REMARK minimizedAffinity -3.46659541
REMARK minimizedRMSD -1
REMARK  0 active torsions:
REMARK  status: ('A' for Active; 'I' for Inactive)
ROOT
ATOM      1  C1  DEN d   1      -2.535  -0.883   0.903  0.00  0.00     0.130 A 
ATOM      2  C2  DEN d   1      -3.446  -0.648  -0.214  0.00  0.00    -0.031 A 
ATOM      3  C3  DEN d   1      -2.656  -0.116  -1.343  0.00  0.00     0.027 A 
ATOM      4  C4  DEN d   1      -0.124   0.358  -1.471  0.00  0.00     0.027 A 
ATOM      5  C5  DEN d   1       1.061   0.326  -0.769  0.00  0.00    -0.003 A 
ATOM      6  C6  DEN d   1       1.124  -0.075   0.540  0.00  0.00     0.001 A 
ATOM      7  C7  DEN d   1      -0.012  -0.504   1.173  0.00  0.00     0.017 A 
ATOM      8  C8  DEN d   1      -1.211  -0.469   0.474  0.00  0.00    -0.094 A 
ATOM      9  C9  DEN d   1      -1.252  -0.071  -0.851  0.00  0.00    -0.072 A 
ENDROOT
TORSDOF 0
ENDMDL
