MODEL 1
REMARK minimizedAffinity -4.1304388
REMARK minimizedRMSD -1
REMARK  0 active torsions:
REMARK  status: ('A' for Active; 'I' for Inactive)
ROOT
ATOM      1  C1  DEN d   1       1.427   3.600   1.115  0.00  0.00     0.130 A 
ATOM      2  C2  DEN d   1       2.790   3.330   1.563  0.00  0.00    -0.031 A 
ATOM      3  C3  DEN d   1       3.132   1.946   1.176  0.00  0.00     0.027 A 
ATOM      4  C4  DEN d   1       1.692   0.207  -0.070  0.00  0.00     0.027 A 
ATOM      5  C5  DEN d   1       0.461  -0.028  -0.643  0.00  0.00    -0.003 A 
ATOM      6  C6  DEN d   1      -0.537   0.910  -0.640  0.00  0.00     0.001 A 
ATOM      7  C7  DEN d   1      -0.307   2.144  -0.093  0.00  0.00     0.017 A 
ATOM      8  C8  DEN d   1       0.929   2.386   0.494  0.00  0.00    -0.094 A 
ATOM      9  C9  DEN d   1       1.929   1.429   0.470  0.00  0.00    -0.072 A 
ENDROOT
TORSDOF 0
ENDMDL
