MODEL 1
REMARK minimizedAffinity -5.77673149
REMARK minimizedRMSD -1
REMARK  0 active torsions:
REMARK  status: ('A' for Active; 'I' for Inactive)
ROOT
ATOM      1  C1  DEN d   1       0.864  -0.684   0.568  0.00  0.00     0.130 A 
ATOM      2  C2  DEN d   1       0.967   0.293  -0.513  0.00  0.00    -0.031 A 
ATOM      3  C3  DEN d   1      -0.327   0.324  -1.225  0.00  0.00     0.027 A 
ATOM      4  C4  DEN d   1      -2.470  -1.033  -0.756  0.00  0.00     0.027 A 
ATOM      5  C5  DEN d   1      -3.035  -1.996   0.051  0.00  0.00    -0.003 A 
ATOM      6  C6  DEN d   1      -2.335  -2.609   1.057  0.00  0.00     0.001 A 
ATOM      7  C7  DEN d   1      -1.042  -2.232   1.311  0.00  0.00     0.017 A 
ATOM      8  C8  DEN d   1      -0.464  -1.267   0.497  0.00  0.00    -0.094 A 
ATOM      9  C9  DEN d   1      -1.192  -0.651  -0.507  0.00  0.00    -0.072 A 
ENDROOT
TORSDOF 0
ENDMDL
