MODEL 1
REMARK minimizedAffinity -6.28082561
REMARK minimizedRMSD -1
REMARK  0 active torsions:
REMARK  status: ('A' for Active; 'I' for Inactive)
ROOT
ATOM      1  C1  DEN d   1      -0.136   0.338  -0.993  0.00  0.00     0.130 A 
ATOM      2  C2  DEN d   1       1.113  -0.036  -0.335  0.00  0.00    -0.031 A 
ATOM      3  C3  DEN d   1       0.805  -1.062   0.681  0.00  0.00     0.027 A 
ATOM      4  C4  DEN d   1      -1.473  -2.106   1.293  0.00  0.00     0.027 A 
ATOM      5  C5  DEN d   1      -2.822  -2.098   1.016  0.00  0.00    -0.003 A 
ATOM      6  C6  DEN d   1      -3.371  -1.261   0.081  0.00  0.00     0.001 A 
ATOM      7  C7  DEN d   1      -2.560  -0.427  -0.643  0.00  0.00     0.017 A 
ATOM      8  C8  DEN d   1      -1.199  -0.424  -0.364  0.00  0.00    -0.094 A 
ATOM      9  C9  DEN d   1      -0.662  -1.287   0.576  0.00  0.00    -0.072 A 
ENDROOT
TORSDOF 0
ENDMDL
