MODEL 1
REMARK minimizedAffinity -4.99045849
REMARK minimizedRMSD -1
REMARK  0 active torsions:
REMARK  status: ('A' for Active; 'I' for Inactive)
ROOT
ATOM      1  C1  DEN d   1       0.457  -0.687   0.782  0.00  0.00     0.130 A 
ATOM      2  C2  DEN d   1       0.641   0.348  -0.232  0.00  0.00    -0.031 A 
ATOM      3  C3  DEN d   1      -0.630   0.496  -0.969  0.00  0.00     0.027 A 
ATOM      4  C4  DEN d   1      -2.854  -0.768  -0.638  0.00  0.00     0.027 A 
ATOM      5  C5  DEN d   1      -3.491  -1.747   0.092  0.00  0.00    -0.003 A 
ATOM      6  C6  DEN d   1      -2.852  -2.459   1.072  0.00  0.00     0.001 A 
ATOM      7  C7  DEN d   1      -1.549  -2.171   1.380  0.00  0.00     0.017 A 
ATOM      8  C8  DEN d   1      -0.898  -1.190   0.643  0.00  0.00    -0.094 A 
ATOM      9  C9  DEN d   1      -1.565  -0.473  -0.335  0.00  0.00    -0.072 A 
ENDROOT
TORSDOF 0
ENDMDL
