MODEL 1
REMARK minimizedAffinity -4.80448151
REMARK minimizedRMSD -1
REMARK  0 active torsions:
REMARK  status: ('A' for Active; 'I' for Inactive)
ROOT
ATOM      1  C1  DEN d   1      -0.197   0.156  -1.324  0.00  0.00     0.130 A 
ATOM      2  C2  DEN d   1       0.993   0.156  -0.477  0.00  0.00    -0.031 A 
ATOM      3  C3  DEN d   1       0.655  -0.532   0.785  0.00  0.00     0.027 A 
ATOM      4  C4  DEN d   1      -1.582  -1.597   1.505  0.00  0.00     0.027 A 
ATOM      5  C5  DEN d   1      -2.884  -1.835   1.126  0.00  0.00    -0.003 A 
ATOM      6  C6  DEN d   1      -3.388  -1.400  -0.071  0.00  0.00     0.001 A 
ATOM      7  C7  DEN d   1      -2.571  -0.743  -0.953  0.00  0.00     0.017 A 
ATOM      8  C8  DEN d   1      -1.259  -0.492  -0.575  0.00  0.00    -0.094 A 
ATOM      9  C9  DEN d   1      -0.765  -0.951   0.634  0.00  0.00    -0.072 A 
ENDROOT
TORSDOF 0
ENDMDL
