MODEL 1
REMARK minimizedAffinity -2.92674708
REMARK minimizedRMSD -1
REMARK  0 active torsions:
REMARK  status: ('A' for Active; 'I' for Inactive)
ROOT
ATOM      1  C1  DEN d   1       0.034   0.689  -0.210  0.00  0.00     0.130 A 
ATOM      2  C2  DEN d   1       1.351   0.372   0.334  0.00  0.00    -0.031 A 
ATOM      3  C3  DEN d   1       1.243  -0.899   1.078  0.00  0.00     0.027 A 
ATOM      4  C4  DEN d   1      -0.823  -2.401   1.433  0.00  0.00     0.027 A 
ATOM      5  C5  DEN d   1      -2.169  -2.540   1.172  0.00  0.00    -0.003 A 
ATOM      6  C6  DEN d   1      -2.876  -1.603   0.466  0.00  0.00     0.001 A 
ATOM      7  C7  DEN d   1      -2.230  -0.506  -0.042  0.00  0.00     0.017 A 
ATOM      8  C8  DEN d   1      -0.876  -0.356   0.224  0.00  0.00    -0.094 A 
ATOM      9  C9  DEN d   1      -0.176  -1.320   0.929  0.00  0.00    -0.072 A 
ENDROOT
TORSDOF 0
ENDMDL
