MODEL 1
REMARK minimizedAffinity -4.18037462
REMARK minimizedRMSD -1
REMARK  0 active torsions:
REMARK  status: ('A' for Active; 'I' for Inactive)
ROOT
ATOM      1  C1  DEN d   1       0.461  -0.288   0.545  0.00  0.00     0.130 A 
ATOM      2  C2  DEN d   1       0.572   0.635  -0.581  0.00  0.00    -0.031 A 
ATOM      3  C3  DEN d   1      -0.710   0.618  -1.314  0.00  0.00     0.027 A 
ATOM      4  C4  DEN d   1      -2.846  -0.739  -0.814  0.00  0.00     0.027 A 
ATOM      5  C5  DEN d   1      -3.414  -1.668   0.030  0.00  0.00    -0.003 A 
ATOM      6  C6  DEN d   1      -2.725  -2.222   1.076  0.00  0.00     0.001 A 
ATOM      7  C7  DEN d   1      -1.441  -1.819   1.332  0.00  0.00     0.017 A 
ATOM      8  C8  DEN d   1      -0.859  -0.889   0.481  0.00  0.00    -0.094 A 
ATOM      9  C9  DEN d   1      -1.576  -0.331  -0.563  0.00  0.00    -0.072 A 
ENDROOT
TORSDOF 0
ENDMDL
