MODEL 1
REMARK minimizedAffinity -5.74613237
REMARK minimizedRMSD -1
REMARK  0 active torsions:
REMARK  status: ('A' for Active; 'I' for Inactive)
ROOT
ATOM      1  C1  DEN d   1      -0.225   0.338  -1.269  0.00  0.00     0.130 A 
ATOM      2  C2  DEN d   1       1.063   0.050  -0.644  0.00  0.00    -0.031 A 
ATOM      3  C3  DEN d   1       0.842  -0.953   0.417  0.00  0.00     0.027 A 
ATOM      4  C4  DEN d   1      -1.358  -2.085   1.147  0.00  0.00     0.027 A 
ATOM      5  C5  DEN d   1      -2.715  -2.153   0.918  0.00  0.00    -0.003 A 
ATOM      6  C6  DEN d   1      -3.337  -1.378  -0.024  0.00  0.00     0.001 A 
ATOM      7  C7  DEN d   1      -2.594  -0.532  -0.805  0.00  0.00     0.017 A 
ATOM      8  C8  DEN d   1      -1.227  -0.452  -0.575  0.00  0.00    -0.094 A 
ATOM      9  C9  DEN d   1      -0.615  -1.253   0.374  0.00  0.00    -0.072 A 
ENDROOT
TORSDOF 0
ENDMDL
