MODEL 1
REMARK minimizedAffinity -3.19034171
REMARK minimizedRMSD -1
REMARK  0 active torsions:
REMARK  status: ('A' for Active; 'I' for Inactive)
ROOT
ATOM      1  C1  DEN d   1       0.127   0.663  -0.877  0.00  0.00     0.130 A 
ATOM      2  C2  DEN d   1       1.215   0.377   0.054  0.00  0.00    -0.031 A 
ATOM      3  C3  DEN d   1       0.799  -0.752   0.910  0.00  0.00     0.027 A 
ATOM      4  C4  DEN d   1      -1.410  -2.083   0.880  0.00  0.00     0.027 A 
ATOM      5  C5  DEN d   1      -2.641  -2.201   0.274  0.00  0.00    -0.003 A 
ATOM      6  C6  DEN d   1      -3.046  -1.358  -0.727  0.00  0.00     0.001 A 
ATOM      7  C7  DEN d   1      -2.194  -0.387  -1.183  0.00  0.00     0.017 A 
ATOM      8  C8  DEN d   1      -0.954  -0.257  -0.572  0.00  0.00    -0.094 A 
ATOM      9  C9  DEN d   1      -0.558  -1.127   0.430  0.00  0.00    -0.072 A 
ENDROOT
TORSDOF 0
ENDMDL
