MODEL 1
REMARK minimizedAffinity 15.9868546
REMARK minimizedRMSD -1
REMARK  0 active torsions:
REMARK  status: ('A' for Active; 'I' for Inactive)
ROOT
ATOM      1  O1  BZF d   1       1.652   0.348   3.774  0.00  0.00    -0.204 OA
ATOM      2  C2  BZF d   1       1.326   1.681   3.930  0.00  0.00     0.174 A 
ATOM      3  C3  BZF d   1       1.954   2.439   3.008  0.00  0.00    -0.012 A 
ATOM      4  C3A BZF d   1       2.649   1.511   2.169  0.00  0.00    -0.107 A 
ATOM      5  C4  BZF d   1       3.440   1.654   1.065  0.00  0.00     0.055 A 
ATOM      6  C5  BZF d   1       4.025   0.553   0.525  0.00  0.00    -0.016 A 
ATOM      7  C6  BZF d   1       3.845  -0.704   1.065  0.00  0.00     0.022 A 
ATOM      8  C7  BZF d   1       3.064  -0.896   2.156  0.00  0.00     0.029 A 
ATOM      9  C7A BZF d   1       2.445   0.210   2.684  0.00  0.00     0.058 A 
ENDROOT
TORSDOF 0
ENDMDL
