MODEL 1
REMARK minimizedAffinity 15.2386789
REMARK minimizedRMSD -1
REMARK  0 active torsions:
REMARK  status: ('A' for Active; 'I' for Inactive)
ROOT
ATOM      1  O1  BZF d   1      -2.784   1.267  -3.637  0.00  0.00    -0.204 OA
ATOM      2  C2  BZF d   1      -2.474  -0.015  -4.047  0.00  0.00     0.174 A 
ATOM      3  C3  BZF d   1      -1.981  -0.739  -3.022  0.00  0.00    -0.012 A 
ATOM      4  C3A BZF d   1      -2.069   0.117  -1.879  0.00  0.00    -0.107 A 
ATOM      5  C4  BZF d   1      -1.748  -0.040  -0.561  0.00  0.00     0.055 A 
ATOM      6  C5  BZF d   1      -1.889   1.015   0.283  0.00  0.00    -0.016 A 
ATOM      7  C6  BZF d   1      -2.342   2.241  -0.157  0.00  0.00     0.022 A 
ATOM      8  C7  BZF d   1      -2.678   2.444  -1.454  0.00  0.00     0.029 A 
ATOM      9  C7A BZF d   1      -2.568   1.370  -2.303  0.00  0.00     0.058 A 
ENDROOT
TORSDOF 0
ENDMDL
