MODEL 1
REMARK minimizedAffinity 10.1043568
REMARK minimizedRMSD -1
REMARK  0 active torsions:
REMARK  status: ('A' for Active; 'I' for Inactive)
ROOT
ATOM      1  O1  BZF d   1       3.280  -5.943  -2.816  0.00  0.00    -0.204 OA
ATOM      2  C2  BZF d   1       2.256  -5.938  -3.743  0.00  0.00     0.174 A 
ATOM      3  C3  BZF d   1       1.056  -5.999  -3.131  0.00  0.00    -0.012 A 
ATOM      4  C3A BZF d   1       1.345  -5.951  -1.731  0.00  0.00    -0.107 A 
ATOM      5  C4  BZF d   1       0.565  -5.960  -0.610  0.00  0.00     0.055 A 
ATOM      6  C5  BZF d   1       1.162  -5.977   0.610  0.00  0.00    -0.016 A 
ATOM      7  C6  BZF d   1       2.534  -5.990   0.747  0.00  0.00     0.022 A 
ATOM      8  C7  BZF d   1       3.350  -5.976  -0.335  0.00  0.00     0.029 A 
ATOM      9  C7A BZF d   1       2.750  -5.926  -1.569  0.00  0.00     0.058 A 
ENDROOT
TORSDOF 0
ENDMDL
