MODEL 1
REMARK minimizedAffinity 2.53749347
REMARK minimizedRMSD -1
REMARK  0 active torsions:
REMARK  status: ('A' for Active; 'I' for Inactive)
ROOT
ATOM      1  O1  BZF d   1       0.758  -5.930  -0.744  0.00  0.00    -0.204 OA
ATOM      2  C2  BZF d   1       0.868  -5.928   0.633  0.00  0.00     0.174 A 
ATOM      3  C3  BZF d   1       2.161  -6.000   1.010  0.00  0.00    -0.012 A 
ATOM      4  C3A BZF d   1       2.911  -5.956  -0.209  0.00  0.00    -0.107 A 
ATOM      5  C4  BZF d   1       4.247  -5.976  -0.490  0.00  0.00     0.055 A 
ATOM      6  C5  BZF d   1       4.648  -5.994  -1.789  0.00  0.00    -0.016 A 
ATOM      7  C6  BZF d   1       3.741  -5.999  -2.828  0.00  0.00     0.022 A 
ATOM      8  C7  BZF d   1       2.406  -5.975  -2.599  0.00  0.00     0.029 A 
ATOM      9  C7A BZF d   1       1.998  -5.923  -1.288  0.00  0.00     0.058 A 
ENDROOT
TORSDOF 0
ENDMDL
