MODEL 1
REMARK minimizedAffinity 5.30850172
REMARK minimizedRMSD -1
REMARK  0 active torsions:
REMARK  status: ('A' for Active; 'I' for Inactive)
ROOT
ATOM      1  O1  BZF d   1       0.388  -5.915  -0.109  0.00  0.00    -0.204 OA
ATOM      2  C2  BZF d   1       1.032  -5.918   1.113  0.00  0.00     0.174 A 
ATOM      3  C3  BZF d   1       2.368  -5.999   0.949  0.00  0.00    -0.012 A 
ATOM      4  C3A BZF d   1       2.577  -5.955  -0.466  0.00  0.00    -0.107 A 
ATOM      5  C4  BZF d   1       3.694  -5.982  -1.251  0.00  0.00     0.055 A 
ATOM      6  C5  BZF d   1       3.551  -5.998  -2.602  0.00  0.00    -0.016 A 
ATOM      7  C6  BZF d   1       2.308  -5.994  -3.201  0.00  0.00     0.022 A 
ATOM      8  C7  BZF d   1       1.171  -5.963  -2.463  0.00  0.00     0.029 A 
ATOM      9  C7A BZF d   1       1.313  -5.913  -1.098  0.00  0.00     0.058 A 
ENDROOT
TORSDOF 0
ENDMDL
