MODEL 1
REMARK minimizedAffinity -4.15179396
REMARK minimizedRMSD -1
REMARK  0 active torsions:
REMARK  status: ('A' for Active; 'I' for Inactive)
ROOT
ATOM      1  O1  BZF d   1       1.270  -5.980  -2.095  0.00  0.00    -0.204 OA
ATOM      2  C2  BZF d   1       1.844  -6.000  -0.838  0.00  0.00     0.174 A 
ATOM      3  C3  BZF d   1       3.190  -5.981  -0.927  0.00  0.00    -0.012 A 
ATOM      4  C3A BZF d   1       3.473  -5.854  -2.324  0.00  0.00    -0.107 A 
ATOM      5  C4  BZF d   1       4.631  -5.765  -3.042  0.00  0.00     0.055 A 
ATOM      6  C5  BZF d   1       4.565  -5.725  -4.399  0.00  0.00    -0.016 A 
ATOM      7  C6  BZF d   1       3.360  -5.776  -5.069  0.00  0.00     0.022 A 
ATOM      8  C7  BZF d   1       2.185  -5.859  -4.399  0.00  0.00     0.029 A 
ATOM      9  C7A BZF d   1       2.247  -5.867  -3.027  0.00  0.00     0.058 A 
ENDROOT
TORSDOF 0
ENDMDL
