MODEL 1
REMARK minimizedAffinity 5.59009933
REMARK minimizedRMSD -1
REMARK  0 active torsions:
REMARK  status: ('A' for Active; 'I' for Inactive)
ROOT
ATOM      1  O1  BZF d   1       2.811  -1.650   1.505  0.00  0.00    -0.204 OA
ATOM      2  C2  BZF d   1       2.431  -0.326   1.618  0.00  0.00     0.174 A 
ATOM      3  C3  BZF d   1       1.819  -0.104   2.798  0.00  0.00    -0.012 A 
ATOM      4  C3A BZF d   1       1.897  -1.346   3.503  0.00  0.00    -0.107 A 
ATOM      5  C4  BZF d   1       1.480  -1.753   4.738  0.00  0.00     0.055 A 
ATOM      6  C5  BZF d   1       1.645  -3.054   5.096  0.00  0.00    -0.016 A 
ATOM      7  C6  BZF d   1       2.218  -3.974   4.243  0.00  0.00     0.022 A 
ATOM      8  C7  BZF d   1       2.652  -3.616   3.010  0.00  0.00     0.029 A 
ATOM      9  C7A BZF d   1       2.517  -2.296   2.658  0.00  0.00     0.058 A 
ENDROOT
TORSDOF 0
ENDMDL
