MODEL 1
REMARK minimizedAffinity 9.93473911
REMARK minimizedRMSD -1
REMARK  0 active torsions:
REMARK  status: ('A' for Active; 'I' for Inactive)
ROOT
ATOM      1  O1  BZF d   1       2.865  -5.479  -5.173  0.00  0.00    -0.204 OA
ATOM      2  C2  BZF d   1       3.982  -5.625  -5.972  0.00  0.00     0.174 A 
ATOM      3  C3  BZF d   1       5.090  -5.791  -5.221  0.00  0.00    -0.012 A 
ATOM      4  C3A BZF d   1       4.624  -5.838  -3.869  0.00  0.00    -0.107 A 
ATOM      5  C4  BZF d   1       5.249  -6.000  -2.666  0.00  0.00     0.055 A 
ATOM      6  C5  BZF d   1       4.514  -5.925  -1.525  0.00  0.00    -0.016 A 
ATOM      7  C6  BZF d   1       3.156  -5.683  -1.550  0.00  0.00     0.022 A 
ATOM      8  C7  BZF d   1       2.492  -5.520  -2.719  0.00  0.00     0.029 A 
ATOM      9  C7A BZF d   1       3.225  -5.629  -3.876  0.00  0.00     0.058 A 
ENDROOT
TORSDOF 0
ENDMDL
