MODEL 1
REMARK minimizedAffinity 10.2902632
REMARK minimizedRMSD -1
REMARK  0 active torsions:
REMARK  status: ('A' for Active; 'I' for Inactive)
ROOT
ATOM      1  O1  BZF d   1       4.223  -5.915  -4.475  0.00  0.00    -0.204 OA
ATOM      2  C2  BZF d   1       2.843  -5.909  -4.540  0.00  0.00     0.174 A 
ATOM      3  C3  BZF d   1       2.306  -5.973  -3.304  0.00  0.00    -0.012 A 
ATOM      4  C3A BZF d   1       3.420  -5.929  -2.407  0.00  0.00    -0.107 A 
ATOM      5  C4  BZF d   1       3.530  -5.943  -1.046  0.00  0.00     0.055 A 
ATOM      6  C5  BZF d   1       4.767  -5.963  -0.483  0.00  0.00    -0.016 A 
ATOM      7  C6  BZF d   1       5.913  -5.974  -1.251  0.00  0.00     0.022 A 
ATOM      8  C7  BZF d   1       5.854  -5.956  -2.605  0.00  0.00     0.029 A 
ATOM      9  C7A BZF d   1       4.606  -5.903  -3.176  0.00  0.00     0.058 A 
ENDROOT
TORSDOF 0
ENDMDL
