MODEL 1
REMARK minimizedAffinity 0.97194916
REMARK minimizedRMSD -1
REMARK  0 active torsions:
REMARK  status: ('A' for Active; 'I' for Inactive)
ROOT
ATOM      1  O1  BZF d   1       1.334  -0.309   3.003  0.00  0.00    -0.204 OA
ATOM      2  C2  BZF d   1       1.809  -0.279   1.706  0.00  0.00     0.174 A 
ATOM      3  C3  BZF d   1       2.364  -1.461   1.372  0.00  0.00    -0.012 A 
ATOM      4  C3A BZF d   1       2.146  -2.312   2.501  0.00  0.00    -0.107 A 
ATOM      5  C4  BZF d   1       2.454  -3.615   2.769  0.00  0.00     0.055 A 
ATOM      6  C5  BZF d   1       2.166  -4.124   3.996  0.00  0.00    -0.016 A 
ATOM      7  C6  BZF d   1       1.575  -3.357   4.979  0.00  0.00     0.022 A 
ATOM      8  C7  BZF d   1       1.246  -2.061   4.759  0.00  0.00     0.029 A 
ATOM      9  C7A BZF d   1       1.506  -1.554   3.509  0.00  0.00     0.058 A 
ENDROOT
TORSDOF 0
ENDMDL
