MODEL 1
REMARK minimizedAffinity -4.64379549
REMARK minimizedRMSD -1
REMARK  3 active torsions:
REMARK  status: ('A' for Active; 'I' for Inactive)
REMARK    1  A    between atoms: C3'_2  and  C2'_3 
REMARK    2  A    between atoms: C2'_3  and  C1'_4 
REMARK    3  A    between atoms: C1'_4  and  C1_5 
ROOT
ATOM      1  C1  N4B d   1       2.811  -4.249  -0.902  0.00  0.00    -0.075 A 
ATOM      2  C2  N4B d   1       3.747  -4.113  -1.951  0.00  0.00     0.002 A 
ATOM      3  C3  N4B d   1       4.856  -4.922  -1.991  0.00  0.00     0.002 A 
ATOM      4  C4  N4B d   1       5.060  -5.857  -0.986  0.00  0.00    -0.004 A 
ATOM      5  C5  N4B d   1       4.138  -5.999   0.010  0.00  0.00     0.002 A 
ATOM      6  C6  N4B d   1       3.017  -5.196   0.060  0.00  0.00     0.002 A 
ENDROOT
BRANCH   1   7
ATOM      7  C1' N4B d   1       1.628  -3.330  -0.770  0.00  0.00     0.057 C 
BRANCH   7   8
ATOM      8  C2' N4B d   1       0.454  -3.908  -1.555  0.00  0.00     0.009 C 
BRANCH   8   9
ATOM      9  C3' N4B d   1      -0.354  -4.892  -0.726  0.00  0.00     0.004 C 
ATOM     10  C4' N4B d   1      -1.541  -4.257  -0.066  0.00  0.00     0.003 C 
ENDBRANCH   8   9
ENDBRANCH   7   8
ENDBRANCH   1   7
TORSDOF 3
ENDMDL
