MODEL 1
REMARK minimizedAffinity -3.48619723
REMARK minimizedRMSD -1
REMARK  3 active torsions:
REMARK  status: ('A' for Active; 'I' for Inactive)
REMARK    1  A    between atoms: C3'_2  and  C2'_3 
REMARK    2  A    between atoms: C2'_3  and  C1'_4 
REMARK    3  A    between atoms: C1'_4  and  C1_5 
ROOT
ATOM      1  C1  N4B d   1      -0.295   0.588   0.120  0.00  0.00    -0.075 A 
ATOM      2  C2  N4B d   1       0.243   1.038   1.346  0.00  0.00     0.002 A 
ATOM      3  C3  N4B d   1      -0.168   2.236   1.877  0.00  0.00     0.002 A 
ATOM      4  C4  N4B d   1      -1.098   3.006   1.195  0.00  0.00    -0.004 A 
ATOM      5  C5  N4B d   1      -1.632   2.552   0.024  0.00  0.00     0.002 A 
ATOM      6  C6  N4B d   1      -1.231   1.348  -0.520  0.00  0.00     0.002 A 
ENDROOT
BRANCH   1   7
ATOM      7  C1' N4B d   1       0.186  -0.674  -0.543  0.00  0.00     0.057 C 
BRANCH   7   8
ATOM      8  C2' N4B d   1      -0.849  -1.775  -0.336  0.00  0.00     0.009 C 
BRANCH   8   9
ATOM      9  C3' N4B d   1      -1.068  -2.593  -1.597  0.00  0.00     0.004 C 
ATOM     10  C4' N4B d   1      -0.702  -4.037  -1.423  0.00  0.00     0.003 C 
ENDBRANCH   8   9
ENDBRANCH   7   8
ENDBRANCH   1   7
TORSDOF 3
ENDMDL
