MODEL 1
REMARK minimizedAffinity -5.5776329
REMARK minimizedRMSD -1
REMARK  3 active torsions:
REMARK  status: ('A' for Active; 'I' for Inactive)
REMARK    1  A    between atoms: C3'_2  and  C2'_3 
REMARK    2  A    between atoms: C2'_3  and  C1'_4 
REMARK    3  A    between atoms: C1'_4  and  C1_5 
ROOT
ATOM      1  C1  N4B d   1      -0.186   0.198   0.393  0.00  0.00    -0.075 A 
ATOM      2  C2  N4B d   1       0.443   0.977   1.389  0.00  0.00     0.002 A 
ATOM      3  C3  N4B d   1      -0.219   2.043   1.947  0.00  0.00     0.002 A 
ATOM      4  C4  N4B d   1      -1.498   2.360   1.514  0.00  0.00    -0.004 A 
ATOM      5  C5  N4B d   1      -2.108   1.587   0.569  0.00  0.00     0.002 A 
ATOM      6  C6  N4B d   1      -1.457   0.510   0.003  0.00  0.00     0.002 A 
ENDROOT
BRANCH   1   7
ATOM      7  C1' N4B d   1       0.529  -0.924  -0.307  0.00  0.00     0.057 C 
BRANCH   7   8
ATOM      8  C2' N4B d   1      -0.499  -1.919  -0.837  0.00  0.00     0.009 C 
BRANCH   8   9
ATOM      9  C3' N4B d   1       0.096  -3.305  -1.025  0.00  0.00     0.004 C 
ATOM     10  C4' N4B d   1      -0.846  -4.400  -0.623  0.00  0.00     0.003 C 
ENDBRANCH   8   9
ENDBRANCH   7   8
ENDBRANCH   1   7
TORSDOF 3
ENDMDL
