MODEL 1
REMARK minimizedAffinity -5.17002964
REMARK minimizedRMSD -1
REMARK  0 active torsions:
REMARK  status: ('A' for Active; 'I' for Inactive)
ROOT
ATOM      1  O1  BZF d   1      -3.486   2.087   0.939  0.00  0.00    -0.204 OA
ATOM      2  C2  BZF d   1      -4.262   0.959   1.122  0.00  0.00     0.174 A 
ATOM      3  C3  BZF d   1      -3.533  -0.159   0.928  0.00  0.00    -0.012 A 
ATOM      4  C3A BZF d   1      -2.198   0.298   0.693  0.00  0.00    -0.107 A 
ATOM      5  C4  BZF d   1      -1.016  -0.341   0.449  0.00  0.00     0.055 A 
ATOM      6  C5  BZF d   1       0.094   0.399   0.190  0.00  0.00    -0.016 A 
ATOM      7  C6  BZF d   1       0.057   1.778   0.161  0.00  0.00     0.022 A 
ATOM      8  C7  BZF d   1      -1.091   2.457   0.402  0.00  0.00     0.029 A 
ATOM      9  C7A BZF d   1      -2.207   1.712   0.697  0.00  0.00     0.058 A 
ENDROOT
TORSDOF 0
ENDMDL
