MODEL 1
REMARK minimizedAffinity 8.87626553
REMARK minimizedRMSD -1
REMARK  0 active torsions:
REMARK  status: ('A' for Active; 'I' for Inactive)
ROOT
ATOM      1  O1  BZF d   1       4.291  -4.813  -2.353  0.00  0.00    -0.204 OA
ATOM      2  C2  BZF d   1       3.482  -5.881  -2.015  0.00  0.00     0.174 A 
ATOM      3  C3  BZF d   1       2.870  -5.663  -0.833  0.00  0.00    -0.012 A 
ATOM      4  C3A BZF d   1       3.254  -4.339  -0.449  0.00  0.00    -0.107 A 
ATOM      5  C4  BZF d   1       2.956  -3.549   0.624  0.00  0.00     0.055 A 
ATOM      6  C5  BZF d   1       3.553  -2.334   0.736  0.00  0.00    -0.016 A 
ATOM      7  C6  BZF d   1       4.456  -1.880  -0.203  0.00  0.00     0.022 A 
ATOM      8  C7  BZF d   1       4.780  -2.625  -1.287  0.00  0.00     0.029 A 
ATOM      9  C7A BZF d   1       4.153  -3.840  -1.420  0.00  0.00     0.058 A 
ENDROOT
TORSDOF 0
ENDMDL
