MODEL 1
REMARK minimizedAffinity 0.171015322
REMARK minimizedRMSD -1
REMARK  0 active torsions:
REMARK  status: ('A' for Active; 'I' for Inactive)
ROOT
ATOM      1  O1  BZF d   1      -4.693   0.555   1.256  0.00  0.00    -0.204 OA
ATOM      2  C2  BZF d   1      -5.533   1.643   1.119  0.00  0.00     0.174 A 
ATOM      3  C3  BZF d   1      -4.859   2.712   0.649  0.00  0.00    -0.012 A 
ATOM      4  C3A BZF d   1      -3.532   2.239   0.396  0.00  0.00    -0.107 A 
ATOM      5  C4  BZF d   1      -2.402   2.830  -0.093  0.00  0.00     0.055 A 
ATOM      6  C5  BZF d   1      -1.251   2.109  -0.147  0.00  0.00    -0.016 A 
ATOM      7  C6  BZF d   1      -1.193   0.800   0.284  0.00  0.00     0.022 A 
ATOM      8  C7  BZF d   1      -2.289   0.170   0.773  0.00  0.00     0.029 A 
ATOM      9  C7A BZF d   1      -3.461   0.885   0.798  0.00  0.00     0.058 A 
ENDROOT
TORSDOF 0
ENDMDL
