MODEL 1
REMARK minimizedAffinity -2.24511528
REMARK minimizedRMSD -1
REMARK  0 active torsions:
REMARK  status: ('A' for Active; 'I' for Inactive)
ROOT
ATOM      1  O1  BZF d   1       2.160   0.621   1.746  0.00  0.00    -0.204 OA
ATOM      2  C2  BZF d   1       2.968   1.350   0.895  0.00  0.00     0.174 A 
ATOM      3  C3  BZF d   1       2.241   1.911  -0.092  0.00  0.00    -0.012 A 
ATOM      4  C3A BZF d   1       0.881   1.584   0.210  0.00  0.00    -0.107 A 
ATOM      5  C4  BZF d   1      -0.310   1.871  -0.393  0.00  0.00     0.055 A 
ATOM      6  C5  BZF d   1      -1.453   1.339   0.115  0.00  0.00    -0.016 A 
ATOM      7  C6  BZF d   1      -1.440   0.512   1.220  0.00  0.00     0.022 A 
ATOM      8  C7  BZF d   1      -0.284   0.203   1.855  0.00  0.00     0.029 A 
ATOM      9  C7A BZF d   1       0.869   0.766   1.364  0.00  0.00     0.058 A 
ENDROOT
TORSDOF 0
ENDMDL
