MODEL 1
REMARK minimizedAffinity -2.23173261
REMARK minimizedRMSD -1
REMARK  0 active torsions:
REMARK  status: ('A' for Active; 'I' for Inactive)
ROOT
ATOM      1  O1  BZF d   1      -2.459   0.412   1.959  0.00  0.00    -0.204 OA
ATOM      2  C2  BZF d   1      -3.549   0.595   1.130  0.00  0.00     0.174 A 
ATOM      3  C3  BZF d   1      -3.209   1.317   0.043  0.00  0.00    -0.012 A 
ATOM      4  C3A BZF d   1      -1.798   1.525   0.157  0.00  0.00    -0.107 A 
ATOM      5  C4  BZF d   1      -0.876   2.161  -0.625  0.00  0.00     0.055 A 
ATOM      6  C5  BZF d   1       0.409   2.248  -0.193  0.00  0.00    -0.016 A 
ATOM      7  C6  BZF d   1       0.807   1.716   1.016  0.00  0.00     0.022 A 
ATOM      8  C7  BZF d   1      -0.070   1.072   1.824  0.00  0.00     0.029 A 
ATOM      9  C7A BZF d   1      -1.363   0.954   1.375  0.00  0.00     0.058 A 
ENDROOT
TORSDOF 0
ENDMDL
