MODEL 1
REMARK minimizedAffinity 0.209175661
REMARK minimizedRMSD -1
REMARK  0 active torsions:
REMARK  status: ('A' for Active; 'I' for Inactive)
ROOT
ATOM      1  O1  BZF d   1      -3.742   2.516   0.959  0.00  0.00    -0.204 OA
ATOM      2  C2  BZF d   1      -4.603   1.440   0.865  0.00  0.00     0.174 A 
ATOM      3  C3  BZF d   1      -3.915   0.285   0.760  0.00  0.00    -0.012 A 
ATOM      4  C3A BZF d   1      -2.538   0.655   0.883  0.00  0.00    -0.107 A 
ATOM      5  C4  BZF d   1      -1.371  -0.055   0.875  0.00  0.00     0.055 A 
ATOM      6  C5  BZF d   1      -0.191   0.615   0.943  0.00  0.00    -0.016 A 
ATOM      7  C6  BZF d   1      -0.140   1.992   1.016  0.00  0.00     0.022 A 
ATOM      8  C7  BZF d   1      -1.271   2.738   1.032  0.00  0.00     0.029 A 
ATOM      9  C7A BZF d   1      -2.467   2.062   0.996  0.00  0.00     0.058 A 
ENDROOT
TORSDOF 0
ENDMDL
