MODEL 1
REMARK minimizedAffinity 7.49586725
REMARK minimizedRMSD -1
REMARK  0 active torsions:
REMARK  status: ('A' for Active; 'I' for Inactive)
ROOT
ATOM      1  O1  BZF d   1       4.208  -1.791  -0.653  0.00  0.00    -0.204 OA
ATOM      2  C2  BZF d   1       3.825  -0.807   0.237  0.00  0.00     0.174 A 
ATOM      3  C3  BZF d   1       2.850  -1.254   1.055  0.00  0.00    -0.012 A 
ATOM      4  C3A BZF d   1       2.673  -2.631   0.711  0.00  0.00    -0.107 A 
ATOM      5  C4  BZF d   1       1.857  -3.619   1.184  0.00  0.00     0.055 A 
ATOM      6  C5  BZF d   1       1.879  -4.838   0.582  0.00  0.00    -0.016 A 
ATOM      7  C6  BZF d   1       2.698  -5.101  -0.496  0.00  0.00     0.022 A 
ATOM      8  C7  BZF d   1       3.529  -4.154  -0.997  0.00  0.00     0.029 A 
ATOM      9  C7A BZF d   1       3.533  -2.932  -0.370  0.00  0.00     0.058 A 
ENDROOT
TORSDOF 0
ENDMDL
