MODEL 1
REMARK minimizedAffinity 5.73188162
REMARK minimizedRMSD -1
REMARK  0 active torsions:
REMARK  status: ('A' for Active; 'I' for Inactive)
ROOT
ATOM      1  O1  BZF d   1      -2.478   3.303  -0.146  0.00  0.00    -0.204 OA
ATOM      2  C2  BZF d   1      -3.611   3.168   0.634  0.00  0.00     0.174 A 
ATOM      3  C3  BZF d   1      -3.470   2.152   1.510  0.00  0.00    -0.012 A 
ATOM      4  C3A BZF d   1      -2.132   1.679   1.326  0.00  0.00    -0.107 A 
ATOM      5  C4  BZF d   1      -1.395   0.694   1.918  0.00  0.00     0.055 A 
ATOM      6  C5  BZF d   1      -0.142   0.439   1.457  0.00  0.00    -0.016 A 
ATOM      7  C6  BZF d   1       0.401   1.145   0.404  0.00  0.00     0.022 A 
ATOM      8  C7  BZF d   1      -0.290   2.135  -0.212  0.00  0.00     0.029 A 
ATOM      9  C7A BZF d   1      -1.543   2.417   0.273  0.00  0.00     0.058 A 
ENDROOT
TORSDOF 0
ENDMDL
