MODEL 1
REMARK minimizedAffinity -0.993332148
REMARK minimizedRMSD -1
REMARK  0 active torsions:
REMARK  status: ('A' for Active; 'I' for Inactive)
ROOT
ATOM      1  O1  BZF d   1       2.896   0.712   2.557  0.00  0.00    -0.204 OA
ATOM      2  C2  BZF d   1       3.478   0.384   1.348  0.00  0.00     0.174 A 
ATOM      3  C3  BZF d   1       2.629   0.622   0.328  0.00  0.00    -0.012 A 
ATOM      4  C3A BZF d   1       1.475   1.217   0.930  0.00  0.00    -0.107 A 
ATOM      5  C4  BZF d   1       0.295   1.690   0.432  0.00  0.00     0.055 A 
ATOM      6  C5  BZF d   1      -0.652   2.142   1.296  0.00  0.00    -0.016 A 
ATOM      7  C6  BZF d   1      -0.455   2.130   2.661  0.00  0.00     0.022 A 
ATOM      8  C7  BZF d   1       0.702   1.675   3.201  0.00  0.00     0.029 A 
ATOM      9  C7A BZF d   1       1.674   1.249   2.330  0.00  0.00     0.058 A 
ENDROOT
TORSDOF 0
ENDMDL
