MODEL 1
REMARK minimizedAffinity -4.05201101
REMARK minimizedRMSD -1
REMARK  0 active torsions:
REMARK  status: ('A' for Active; 'I' for Inactive)
ROOT
ATOM      1  O1  BZF d   1      -3.070   2.985  -0.504  0.00  0.00    -0.204 OA
ATOM      2  C2  BZF d   1      -4.380   2.680  -0.188  0.00  0.00     0.174 A 
ATOM      3  C3  BZF d   1      -4.448   1.527   0.509  0.00  0.00    -0.012 A 
ATOM      4  C3A BZF d   1      -3.089   1.131   0.715  0.00  0.00    -0.107 A 
ATOM      5  C4  BZF d   1      -2.505   0.075   1.355  0.00  0.00     0.055 A 
ATOM      6  C5  BZF d   1      -1.154  -0.058   1.311  0.00  0.00    -0.016 A 
ATOM      7  C6  BZF d   1      -0.357   0.841   0.633  0.00  0.00     0.022 A 
ATOM      8  C7  BZF d   1      -0.889   1.907  -0.013  0.00  0.00     0.029 A 
ATOM      9  C7A BZF d   1      -2.252   2.063   0.058  0.00  0.00     0.058 A 
ENDROOT
TORSDOF 0
ENDMDL
