MODEL 1
REMARK minimizedAffinity 0.207927972
REMARK minimizedRMSD -1
REMARK  0 active torsions:
REMARK  status: ('A' for Active; 'I' for Inactive)
ROOT
ATOM      1  O1  BZF d   1      -4.103   0.758   0.935  0.00  0.00    -0.204 OA
ATOM      2  C2  BZF d   1      -5.011   1.781   0.743  0.00  0.00     0.174 A 
ATOM      3  C3  BZF d   1      -4.378   2.932   0.435  0.00  0.00    -0.012 A 
ATOM      4  C3A BZF d   1      -2.993   2.586   0.344  0.00  0.00    -0.107 A 
ATOM      5  C4  BZF d   1      -1.865   3.298   0.052  0.00  0.00     0.055 A 
ATOM      6  C5  BZF d   1      -0.657   2.679   0.119  0.00  0.00    -0.016 A 
ATOM      7  C6  BZF d   1      -0.540   1.352   0.479  0.00  0.00     0.022 A 
ATOM      8  C7  BZF d   1      -1.631   0.603   0.772  0.00  0.00     0.029 A 
ATOM      9  C7A BZF d   1      -2.856   1.218   0.674  0.00  0.00     0.058 A 
ENDROOT
TORSDOF 0
ENDMDL
