MODEL 1
REMARK minimizedAffinity -3.11337924
REMARK minimizedRMSD -1
REMARK  0 active torsions:
REMARK  status: ('A' for Active; 'I' for Inactive)
ROOT
ATOM      1  O1  BZF d   1      -2.940   2.424  -0.712  0.00  0.00    -0.204 OA
ATOM      2  C2  BZF d   1      -4.051   1.854  -0.121  0.00  0.00     0.174 A 
ATOM      3  C3  BZF d   1      -3.686   0.930   0.791  0.00  0.00    -0.012 A 
ATOM      4  C3A BZF d   1      -2.257   0.988   0.835  0.00  0.00    -0.107 A 
ATOM      5  C4  BZF d   1      -1.312   0.321   1.562  0.00  0.00     0.055 A 
ATOM      6  C5  BZF d   1       0.002   0.560   1.313  0.00  0.00    -0.016 A 
ATOM      7  C6  BZF d   1       0.407   1.455   0.344  0.00  0.00     0.022 A 
ATOM      8  C7  BZF d   1      -0.493   2.143  -0.399  0.00  0.00     0.029 A 
ATOM      9  C7A BZF d   1      -1.823   1.928  -0.127  0.00  0.00     0.058 A 
ENDROOT
TORSDOF 0
ENDMDL
