MODEL 1
REMARK minimizedAffinity -2.69762254
REMARK minimizedRMSD -1
REMARK  0 active torsions:
REMARK  status: ('A' for Active; 'I' for Inactive)
ROOT
ATOM      1  O1  BZF d   1      -3.733   0.115   1.297  0.00  0.00    -0.204 OA
ATOM      2  C2  BZF d   1      -4.462   1.141   0.728  0.00  0.00     0.174 A 
ATOM      3  C3  BZF d   1      -3.644   2.080   0.210  0.00  0.00    -0.012 A 
ATOM      4  C3A BZF d   1      -2.321   1.566   0.391  0.00  0.00    -0.107 A 
ATOM      5  C4  BZF d   1      -1.080   2.036   0.068  0.00  0.00     0.055 A 
ATOM      6  C5  BZF d   1       0.015   1.326   0.449  0.00  0.00    -0.016 A 
ATOM      7  C6  BZF d   1      -0.095   0.148   1.158  0.00  0.00     0.022 A 
ATOM      8  C7  BZF d   1      -1.305  -0.360   1.497  0.00  0.00     0.029 A 
ATOM      9  C7A BZF d   1      -2.414   0.338   1.085  0.00  0.00     0.058 A 
ENDROOT
TORSDOF 0
ENDMDL
