MODEL 1
REMARK minimizedAffinity 4.36474228
REMARK minimizedRMSD -1
REMARK  0 active torsions:
REMARK  status: ('A' for Active; 'I' for Inactive)
ROOT
ATOM      1  O1  BZF d   1      -1.310   3.200  -0.431  0.00  0.00    -0.204 OA
ATOM      2  C2  BZF d   1      -2.621   3.317  -0.010  0.00  0.00     0.174 A 
ATOM      3  C3  BZF d   1      -2.909   2.386   0.923  0.00  0.00    -0.012 A 
ATOM      4  C3A BZF d   1      -1.677   1.699   1.162  0.00  0.00    -0.107 A 
ATOM      5  C4  BZF d   1      -1.317   0.679   1.995  0.00  0.00     0.055 A 
ATOM      6  C5  BZF d   1      -0.050   0.191   1.934  0.00  0.00    -0.016 A 
ATOM      7  C6  BZF d   1       0.880   0.696   1.049  0.00  0.00     0.022 A 
ATOM      8  C7  BZF d   1       0.572   1.712   0.207  0.00  0.00     0.029 A 
ATOM      9  C7A BZF d   1      -0.698   2.229   0.289  0.00  0.00     0.058 A 
ENDROOT
TORSDOF 0
ENDMDL
