MODEL 1
REMARK minimizedAffinity -2.81822705
REMARK minimizedRMSD -1
REMARK  0 active torsions:
REMARK  status: ('A' for Active; 'I' for Inactive)
ROOT
ATOM      1  O1  BZF d   1      -1.217   2.954   0.229  0.00  0.00    -0.204 OA
ATOM      2  C2  BZF d   1      -0.016   2.303   0.438  0.00  0.00     0.174 A 
ATOM      3  C3  BZF d   1      -0.219   0.998   0.706  0.00  0.00    -0.012 A 
ATOM      4  C3A BZF d   1      -1.630   0.801   0.570  0.00  0.00    -0.107 A 
ATOM      5  C4  BZF d   1      -2.443  -0.289   0.697  0.00  0.00     0.055 A 
ATOM      6  C5  BZF d   1      -3.786  -0.130   0.572  0.00  0.00    -0.016 A 
ATOM      7  C6  BZF d   1      -4.351   1.104   0.326  0.00  0.00     0.022 A 
ATOM      8  C7  BZF d   1      -3.586   2.214   0.187  0.00  0.00     0.029 A 
ATOM      9  C7A BZF d   1      -2.225   2.051   0.280  0.00  0.00     0.058 A 
ENDROOT
TORSDOF 0
ENDMDL
