MODEL 1
REMARK minimizedAffinity 0.238596186
REMARK minimizedRMSD -1
REMARK  0 active torsions:
REMARK  status: ('A' for Active; 'I' for Inactive)
ROOT
ATOM      1  O1  BZF d   1      -0.115   2.276   1.794  0.00  0.00    -0.204 OA
ATOM      2  C2  BZF d   1      -0.953   1.876   0.772  0.00  0.00     0.174 A 
ATOM      3  C3  BZF d   1      -0.365   0.927   0.014  0.00  0.00    -0.012 A 
ATOM      4  C3A BZF d   1       0.885   0.656   0.655  0.00  0.00    -0.107 A 
ATOM      5  C4  BZF d   1       1.911  -0.205   0.386  0.00  0.00     0.055 A 
ATOM      6  C5  BZF d   1       3.023  -0.172   1.166  0.00  0.00    -0.016 A 
ATOM      7  C6  BZF d   1       3.145   0.711   2.220  0.00  0.00     0.022 A 
ATOM      8  C7  BZF d   1       2.152   1.580   2.529  0.00  0.00     0.029 A 
ATOM      9  C7A BZF d   1       1.013   1.526   1.762  0.00  0.00     0.058 A 
ENDROOT
TORSDOF 0
ENDMDL
