MODEL 1
REMARK minimizedAffinity -0.735635996
REMARK minimizedRMSD -1
REMARK  0 active torsions:
REMARK  status: ('A' for Active; 'I' for Inactive)
ROOT
ATOM      1  O1  BZF d   1      -4.370   0.927   1.436  0.00  0.00    -0.204 OA
ATOM      2  C2  BZF d   1      -4.856   2.165   1.064  0.00  0.00     0.174 A 
ATOM      3  C3  BZF d   1      -3.844   3.004   0.762  0.00  0.00    -0.012 A 
ATOM      4  C3A BZF d   1      -2.656   2.215   0.868  0.00  0.00    -0.107 A 
ATOM      5  C4  BZF d   1      -1.330   2.481   0.673  0.00  0.00     0.055 A 
ATOM      6  C5  BZF d   1      -0.416   1.510   0.931  0.00  0.00    -0.016 A 
ATOM      7  C6  BZF d   1      -0.791   0.264   1.391  0.00  0.00     0.022 A 
ATOM      8  C7  BZF d   1      -2.094  -0.049   1.595  0.00  0.00     0.029 A 
ATOM      9  C7A BZF d   1      -3.022   0.920   1.302  0.00  0.00     0.058 A 
ENDROOT
TORSDOF 0
ENDMDL
