MODEL 1
REMARK minimizedAffinity -3.24323869
REMARK minimizedRMSD -1
REMARK  0 active torsions:
REMARK  status: ('A' for Active; 'I' for Inactive)
ROOT
ATOM      1  C   UNL d   1       0.097   1.123  -0.166  0.00  0.00     0.172 C 
ATOM      2  N   UNL d   1       0.374  -0.206   0.328  0.00  0.00    -0.070 N 
ATOM      3  C1  UNL d   1       1.552  -0.886   0.172  0.00  0.00    -0.004 A 
ATOM      4  C2  UNL d   1       1.415  -2.113   0.784  0.00  0.00    -0.047 A 
ATOM      5  C3  UNL d   1       0.109  -2.172   1.327  0.00  0.00    -0.047 A 
ATOM      6  C4  UNL d   1      -0.513  -0.978   1.030  0.00  0.00    -0.004 A 
ENDROOT
TORSDOF 0
ENDMDL
