MODEL 1
REMARK minimizedAffinity -3.19528532
REMARK minimizedRMSD -1
REMARK  0 active torsions:
REMARK  status: ('A' for Active; 'I' for Inactive)
ROOT
ATOM      1  C   UNL d   1      -0.176   1.749  -0.255  0.00  0.00     0.172 C 
ATOM      2  N   UNL d   1      -0.859   2.044  -1.493  0.00  0.00    -0.070 N 
ATOM      3  C1  UNL d   1      -2.038   1.485  -1.907  0.00  0.00    -0.004 A 
ATOM      4  C2  UNL d   1      -2.355   2.027  -3.133  0.00  0.00    -0.047 A 
ATOM      5  C3  UNL d   1      -1.329   2.943  -3.469  0.00  0.00    -0.047 A 
ATOM      6  C4  UNL d   1      -0.416   2.934  -2.436  0.00  0.00    -0.004 A 
ENDROOT
TORSDOF 0
ENDMDL
