MODEL 1
REMARK minimizedAffinity -0.217303246
REMARK minimizedRMSD -1
REMARK  0 active torsions:
REMARK  status: ('A' for Active; 'I' for Inactive)
ROOT
ATOM      1  C   UNL d   1      -0.161   1.134  -0.371  0.00  0.00     0.172 C 
ATOM      2  N   UNL d   1      -0.689   0.146   0.540  0.00  0.00    -0.070 N 
ATOM      3  C1  UNL d   1      -0.338  -1.177   0.575  0.00  0.00    -0.004 A 
ATOM      4  C2  UNL d   1      -1.061  -1.780   1.582  0.00  0.00    -0.047 A 
ATOM      5  C3  UNL d   1      -1.875  -0.784   2.172  0.00  0.00    -0.047 A 
ATOM      6  C4  UNL d   1      -1.625   0.398   1.509  0.00  0.00    -0.004 A 
ENDROOT
TORSDOF 0
ENDMDL
