MODEL 1
REMARK minimizedAffinity -3.75135231
REMARK minimizedRMSD -1
REMARK  0 active torsions:
REMARK  status: ('A' for Active; 'I' for Inactive)
ROOT
ATOM      1  C   UNL d   1      -0.731   1.511   0.760  0.00  0.00     0.172 C 
ATOM      2  N   UNL d   1       0.265   0.506   0.471  0.00  0.00    -0.070 N 
ATOM      3  C1  UNL d   1       1.611   0.726   0.353  0.00  0.00    -0.004 A 
ATOM      4  C2  UNL d   1       2.214  -0.481   0.075  0.00  0.00    -0.047 A 
ATOM      5  C3  UNL d   1       1.194  -1.461   0.022  0.00  0.00    -0.047 A 
ATOM      6  C4  UNL d   1      -0.002  -0.823   0.271  0.00  0.00    -0.004 A 
ENDROOT
TORSDOF 0
ENDMDL
