MODEL 1
REMARK minimizedAffinity -1.78498924
REMARK minimizedRMSD -1
REMARK  0 active torsions:
REMARK  status: ('A' for Active; 'I' for Inactive)
ROOT
ATOM      1  C   UNL d   1       1.536  -2.540   1.001  0.00  0.00     0.172 C 
ATOM      2  N   UNL d   1       0.623  -1.469   0.676  0.00  0.00    -0.070 N 
ATOM      3  C1  UNL d   1      -0.670  -1.362   1.113  0.00  0.00    -0.004 A 
ATOM      4  C2  UNL d   1      -1.199  -0.204   0.584  0.00  0.00    -0.047 A 
ATOM      5  C3  UNL d   1      -0.190   0.405  -0.198  0.00  0.00    -0.047 A 
ATOM      6  C4  UNL d   1       0.928  -0.399  -0.124  0.00  0.00    -0.004 A 
ENDROOT
TORSDOF 0
ENDMDL
