MODEL 1
REMARK minimizedAffinity -2.12890863
REMARK minimizedRMSD -1
REMARK  0 active torsions:
REMARK  status: ('A' for Active; 'I' for Inactive)
ROOT
ATOM      1  C   UNL d   1       2.112   3.190  -0.002  0.00  0.00     0.172 C 
ATOM      2  N   UNL d   1       1.349   1.965  -0.063  0.00  0.00    -0.070 N 
ATOM      3  C1  UNL d   1       1.866   0.711  -0.246  0.00  0.00    -0.004 A 
ATOM      4  C2  UNL d   1       0.816  -0.183  -0.244  0.00  0.00    -0.047 A 
ATOM      5  C3  UNL d   1      -0.373   0.561  -0.056  0.00  0.00    -0.047 A 
ATOM      6  C4  UNL d   1      -0.014   1.888   0.053  0.00  0.00    -0.004 A 
ENDROOT
TORSDOF 0
ENDMDL
