MODEL 1
REMARK minimizedAffinity -1.98918235
REMARK minimizedRMSD -1
REMARK  0 active torsions:
REMARK  status: ('A' for Active; 'I' for Inactive)
ROOT
ATOM      1  C   UNL d   1       0.287   3.784  -0.616  0.00  0.00     0.172 C 
ATOM      2  N   UNL d   1      -0.168   3.355  -1.918  0.00  0.00    -0.070 N 
ATOM      3  C1  UNL d   1      -1.090   2.371  -2.157  0.00  0.00    -0.004 A 
ATOM      4  C2  UNL d   1      -1.248   2.264  -3.522  0.00  0.00    -0.047 A 
ATOM      5  C3  UNL d   1      -0.391   3.216  -4.124  0.00  0.00    -0.047 A 
ATOM      6  C4  UNL d   1       0.266   3.877  -3.108  0.00  0.00    -0.004 A 
ENDROOT
TORSDOF 0
ENDMDL
