MODEL 1
REMARK minimizedAffinity -1.74967015
REMARK minimizedRMSD -1
REMARK  0 active torsions:
REMARK  status: ('A' for Active; 'I' for Inactive)
ROOT
ATOM      1  C   UNL d   1       0.051   1.384  -0.657  0.00  0.00     0.172 C 
ATOM      2  N   UNL d   1       0.904   2.456  -0.198  0.00  0.00    -0.070 N 
ATOM      3  C1  UNL d   1       2.273   2.447  -0.209  0.00  0.00    -0.004 A 
ATOM      4  C2  UNL d   1       2.707   3.649   0.308  0.00  0.00    -0.047 A 
ATOM      5  C3  UNL d   1       1.558   4.405   0.642  0.00  0.00    -0.047 A 
ATOM      6  C4  UNL d   1       0.456   3.643   0.319  0.00  0.00    -0.004 A 
ENDROOT
TORSDOF 0
ENDMDL
