MODEL 1
REMARK minimizedAffinity -2.62760329
REMARK minimizedRMSD -1
REMARK  0 active torsions:
REMARK  status: ('A' for Active; 'I' for Inactive)
ROOT
ATOM      1  C   UNL d   1       1.431  -2.641   1.459  0.00  0.00     0.172 C 
ATOM      2  N   UNL d   1       1.563  -1.397   0.738  0.00  0.00    -0.070 N 
ATOM      3  C1  UNL d   1       0.537  -0.551   0.410  0.00  0.00    -0.004 A 
ATOM      4  C2  UNL d   1       1.075   0.520  -0.272  0.00  0.00    -0.047 A 
ATOM      5  C3  UNL d   1       2.471   0.309  -0.358  0.00  0.00    -0.047 A 
ATOM      6  C4  UNL d   1       2.747  -0.884   0.275  0.00  0.00    -0.004 A 
ENDROOT
TORSDOF 0
ENDMDL
