MODEL 1
REMARK minimizedAffinity 0.473306149
REMARK minimizedRMSD -1
REMARK  0 active torsions:
REMARK  status: ('A' for Active; 'I' for Inactive)
ROOT
ATOM      1  C   UNL d   1      -1.026   0.645  -0.650  0.00  0.00     0.172 C 
ATOM      2  N   UNL d   1      -1.705   0.872  -1.904  0.00  0.00    -0.070 N 
ATOM      3  C1  UNL d   1      -2.568   0.000  -2.514  0.00  0.00    -0.004 A 
ATOM      4  C2  UNL d   1      -3.001   0.584  -3.684  0.00  0.00    -0.047 A 
ATOM      5  C3  UNL d   1      -2.376   1.850  -3.782  0.00  0.00    -0.047 A 
ATOM      6  C4  UNL d   1      -1.580   2.003  -2.667  0.00  0.00    -0.004 A 
ENDROOT
TORSDOF 0
ENDMDL
