MODEL 1
REMARK minimizedAffinity -2.29154921
REMARK minimizedRMSD -1
REMARK  0 active torsions:
REMARK  status: ('A' for Active; 'I' for Inactive)
ROOT
ATOM      1  C   UNL d   1      -2.347   1.400  -2.289  0.00  0.00     0.172 C 
ATOM      2  N   UNL d   1      -1.696   0.986  -1.068  0.00  0.00    -0.070 N 
ATOM      3  C1  UNL d   1      -0.368   0.682  -0.935  0.00  0.00    -0.004 A 
ATOM      4  C2  UNL d   1      -0.144   0.335   0.379  0.00  0.00    -0.047 A 
ATOM      5  C3  UNL d   1      -1.381   0.432   1.060  0.00  0.00    -0.047 A 
ATOM      6  C4  UNL d   1      -2.325   0.837   0.140  0.00  0.00    -0.004 A 
ENDROOT
TORSDOF 0
ENDMDL
