MODEL 1
REMARK minimizedAffinity -2.40322518
REMARK minimizedRMSD -1
REMARK  0 active torsions:
REMARK  status: ('A' for Active; 'I' for Inactive)
ROOT
ATOM      1  C   UNL d   1       0.524  -2.445   0.517  0.00  0.00     0.172 C 
ATOM      2  N   UNL d   1       1.487  -1.370   0.486  0.00  0.00    -0.070 N 
ATOM      3  C1  UNL d   1       2.552  -1.228   1.335  0.00  0.00    -0.004 A 
ATOM      4  C2  UNL d   1       3.226  -0.079   0.978  0.00  0.00    -0.047 A 
ATOM      5  C3  UNL d   1       2.541   0.488  -0.123  0.00  0.00    -0.047 A 
ATOM      6  C4  UNL d   1       1.469  -0.331  -0.407  0.00  0.00    -0.004 A 
ENDROOT
TORSDOF 0
ENDMDL
