MODEL 1
REMARK minimizedAffinity -2.35094237
REMARK minimizedRMSD -1
REMARK  0 active torsions:
REMARK  status: ('A' for Active; 'I' for Inactive)
ROOT
ATOM      1  C   UNL d   1       1.525  -2.751   1.435  0.00  0.00     0.172 C 
ATOM      2  N   UNL d   1       0.686  -1.634   1.067  0.00  0.00    -0.070 N 
ATOM      3  C1  UNL d   1       0.845  -0.847  -0.042  0.00  0.00    -0.004 A 
ATOM      4  C2  UNL d   1      -0.153   0.103  -0.032  0.00  0.00    -0.047 A 
ATOM      5  C3  UNL d   1      -0.939  -0.120   1.123  0.00  0.00    -0.047 A 
ATOM      6  C4  UNL d   1      -0.397  -1.201   1.786  0.00  0.00    -0.004 A 
ENDROOT
TORSDOF 0
ENDMDL
