MODEL 1
REMARK minimizedAffinity -2.59648275
REMARK minimizedRMSD -1
REMARK  0 active torsions:
REMARK  status: ('A' for Active; 'I' for Inactive)
ROOT
ATOM      1  C   UNL d   1      -0.744   1.611  -0.374  0.00  0.00     0.172 C 
ATOM      2  N   UNL d   1       0.502   2.321  -0.197  0.00  0.00    -0.070 N 
ATOM      3  C1  UNL d   1       1.751   1.760  -0.227  0.00  0.00    -0.004 A 
ATOM      4  C2  UNL d   1       2.670   2.766  -0.018  0.00  0.00    -0.047 A 
ATOM      5  C3  UNL d   1       1.948   3.972   0.144  0.00  0.00    -0.047 A 
ATOM      6  C4  UNL d   1       0.608   3.668   0.028  0.00  0.00    -0.004 A 
ENDROOT
TORSDOF 0
ENDMDL
