MODEL 1
REMARK minimizedAffinity -2.52237582
REMARK minimizedRMSD -1
REMARK  0 active torsions:
REMARK  status: ('A' for Active; 'I' for Inactive)
ROOT
ATOM      1  C   UNL d   1      -0.427   0.038  -0.591  0.00  0.00     0.172 C 
ATOM      2  N   UNL d   1      -1.347   0.622  -1.539  0.00  0.00    -0.070 N 
ATOM      3  C1  UNL d   1      -2.564   1.171  -1.235  0.00  0.00    -0.004 A 
ATOM      4  C2  UNL d   1      -3.131   1.617  -2.410  0.00  0.00    -0.047 A 
ATOM      5  C3  UNL d   1      -2.223   1.324  -3.456  0.00  0.00    -0.047 A 
ATOM      6  C4  UNL d   1      -1.128   0.708  -2.888  0.00  0.00    -0.004 A 
ENDROOT
TORSDOF 0
ENDMDL
