MODEL 1
REMARK minimizedAffinity -4.03844547
REMARK minimizedRMSD -1
REMARK  2 active torsions:
REMARK  status: ('A' for Active; 'I' for Inactive)
REMARK    1  A    between atoms: C2'_3  and  C1'_4 
REMARK    2  A    between atoms: C1'_4  and  C1_5 
ROOT
ATOM      1  C1  I4B d   1      -0.812   0.542  -0.486  0.00  0.00    -0.075 A 
ATOM      2  C2  I4B d   1      -0.122  -0.495   0.091  0.00  0.00     0.003 A 
ATOM      3  C3  I4B d   1       1.221  -0.316   0.501  0.00  0.00     0.002 A 
ATOM      4  C4  I4B d   1       1.847   0.892   0.272  0.00  0.00    -0.004 A 
ATOM      5  C5  I4B d   1       1.140   1.949  -0.292  0.00  0.00     0.002 A 
ATOM      6  C6  I4B d   1      -0.202   1.778  -0.662  0.00  0.00     0.003 A 
ENDROOT
BRANCH   1   7
ATOM      7  C1' I4B d   1      -2.218   0.309  -0.938  0.00  0.00     0.060 C 
BRANCH   7   8
ATOM      8  C2' I4B d   1      -2.195   0.071  -2.434  0.00  0.00    -0.013 C 
ATOM      9  C4' I4B d   1      -1.892  -1.369  -2.752  0.00  0.00     0.013 C 
ATOM     10  C3' I4B d   1      -3.527   0.480  -2.989  0.00  0.00     0.013 C 
ENDBRANCH   7   8
ENDBRANCH   1   7
TORSDOF 2
ENDMDL
