MODEL 1
REMARK minimizedAffinity -4.84944439
REMARK minimizedRMSD -1
REMARK  2 active torsions:
REMARK  status: ('A' for Active; 'I' for Inactive)
REMARK    1  A    between atoms: C2'_3  and  C1'_4 
REMARK    2  A    between atoms: C1'_4  and  C1_5 
ROOT
ATOM      1  C1  I4B d   1       2.445  -0.415   2.406  0.00  0.00    -0.075 A 
ATOM      2  C2  I4B d   1       2.350   0.602   1.490  0.00  0.00     0.003 A 
ATOM      3  C3  I4B d   1       2.383   1.952   1.917  0.00  0.00     0.002 A 
ATOM      4  C4  I4B d   1       2.460   2.236   3.265  0.00  0.00    -0.004 A 
ATOM      5  C5  I4B d   1       2.580   1.203   4.191  0.00  0.00     0.002 A 
ATOM      6  C6  I4B d   1       2.585  -0.131   3.758  0.00  0.00     0.003 A 
ENDROOT
BRANCH   1   7
ATOM      7  C1' I4B d   1       2.374  -1.829   1.922  0.00  0.00     0.060 C 
BRANCH   7   8
ATOM      8  C2' I4B d   1       0.913  -2.216   1.825  0.00  0.00    -0.013 C 
ATOM      9  C4' I4B d   1       0.299  -1.714   0.545  0.00  0.00     0.013 C 
ATOM     10  C3' I4B d   1       0.822  -3.710   1.919  0.00  0.00     0.013 C 
ENDBRANCH   7   8
ENDBRANCH   1   7
TORSDOF 2
ENDMDL
