MODEL 1
REMARK minimizedAffinity -5.28753424
REMARK minimizedRMSD -1
REMARK  2 active torsions:
REMARK  status: ('A' for Active; 'I' for Inactive)
REMARK    1  A    between atoms: C2'_3  and  C1'_4 
REMARK    2  A    between atoms: C1'_4  and  C1_5 
ROOT
ATOM      1  C1  I4B d   1       1.836  -0.400   0.991  0.00  0.00    -0.075 A 
ATOM      2  C2  I4B d   1       0.476  -0.437   0.810  0.00  0.00     0.003 A 
ATOM      3  C3  I4B d   1      -0.176   0.600   0.099  0.00  0.00     0.002 A 
ATOM      4  C4  I4B d   1       0.558   1.671  -0.368  0.00  0.00    -0.004 A 
ATOM      5  C5  I4B d   1       1.940   1.694  -0.204  0.00  0.00     0.002 A 
ATOM      6  C6  I4B d   1       2.585   0.646   0.469  0.00  0.00     0.003 A 
ENDROOT
BRANCH   1   7
ATOM      7  C1' I4B d   1       2.488  -1.494   1.775  0.00  0.00     0.060 C 
BRANCH   7   8
ATOM      8  C2' I4B d   1       1.400  -2.271   2.488  0.00  0.00    -0.013 C 
ATOM      9  C4' I4B d   1       1.365  -3.705   2.032  0.00  0.00     0.013 C 
ATOM     10  C3' I4B d   1       1.655  -2.177   3.963  0.00  0.00     0.013 C 
ENDBRANCH   7   8
ENDBRANCH   1   7
TORSDOF 2
ENDMDL
