MODEL 1
REMARK minimizedAffinity -4.07420254
REMARK minimizedRMSD -1
REMARK  2 active torsions:
REMARK  status: ('A' for Active; 'I' for Inactive)
REMARK    1  A    between atoms: C2'_3  and  C1'_4 
REMARK    2  A    between atoms: C1'_4  and  C1_5 
ROOT
ATOM      1  C1  I4B d   1      -1.254   0.151  -0.941  0.00  0.00    -0.075 A 
ATOM      2  C2  I4B d   1      -1.039  -0.910  -1.784  0.00  0.00     0.003 A 
ATOM      3  C3  I4B d   1      -1.813  -1.054  -2.961  0.00  0.00     0.002 A 
ATOM      4  C4  I4B d   1      -2.820  -0.148  -3.227  0.00  0.00    -0.004 A 
ATOM      5  C5  I4B d   1      -3.021   0.940  -2.383  0.00  0.00     0.002 A 
ATOM      6  C6  I4B d   1      -2.225   1.098  -1.238  0.00  0.00     0.003 A 
ENDROOT
BRANCH   1   7
ATOM      7  C1' I4B d   1      -0.440   0.254   0.310  0.00  0.00     0.060 C 
BRANCH   7   8
ATOM      8  C2' I4B d   1       0.860   0.952  -0.035  0.00  0.00    -0.013 C 
ATOM      9  C4' I4B d   1       0.700   2.449  -0.003  0.00  0.00     0.013 C 
ATOM     10  C3' I4B d   1       1.903   0.497   0.942  0.00  0.00     0.013 C 
ENDBRANCH   7   8
ENDBRANCH   1   7
TORSDOF 2
ENDMDL
