MODEL 1
REMARK minimizedAffinity -4.73804283
REMARK minimizedRMSD -1
REMARK  2 active torsions:
REMARK  status: ('A' for Active; 'I' for Inactive)
REMARK    1  A    between atoms: C2'_3  and  C1'_4 
REMARK    2  A    between atoms: C1'_4  and  C1_5 
ROOT
ATOM      1  C1  I4B d   1       0.765  -0.096   0.445  0.00  0.00    -0.075 A 
ATOM      2  C2  I4B d   1       1.883   0.592   0.846  0.00  0.00     0.003 A 
ATOM      3  C3  I4B d   1       2.966  -0.096   1.447  0.00  0.00     0.002 A 
ATOM      4  C4  I4B d   1       2.868  -1.454   1.671  0.00  0.00    -0.004 A 
ATOM      5  C5  I4B d   1       1.743  -2.153   1.243  0.00  0.00     0.002 A 
ATOM      6  C6  I4B d   1       0.690  -1.472   0.614  0.00  0.00     0.003 A 
ENDROOT
BRANCH   1   7
ATOM      7  C1' I4B d   1      -0.373   0.666  -0.156  0.00  0.00     0.060 C 
BRANCH   7   8
ATOM      8  C2' I4B d   1      -1.516  -0.302  -0.383  0.00  0.00    -0.013 C 
ATOM      9  C4' I4B d   1      -2.153  -0.708   0.920  0.00  0.00     0.013 C 
ATOM     10  C3' I4B d   1      -2.511   0.359  -1.289  0.00  0.00     0.013 C 
ENDBRANCH   7   8
ENDBRANCH   1   7
TORSDOF 2
ENDMDL
