MODEL 1
REMARK minimizedAffinity -5.70132065
REMARK minimizedRMSD -1
REMARK  2 active torsions:
REMARK  status: ('A' for Active; 'I' for Inactive)
REMARK    1  A    between atoms: C2'_3  and  C1'_4 
REMARK    2  A    between atoms: C1'_4  and  C1_5 
ROOT
ATOM      1  C1  I4B d   1       0.985  -0.733  -0.095  0.00  0.00    -0.075 A 
ATOM      2  C2  I4B d   1       1.660   0.314   0.482  0.00  0.00     0.003 A 
ATOM      3  C3  I4B d   1       2.581   0.077   1.531  0.00  0.00     0.002 A 
ATOM      4  C4  I4B d   1       2.758  -1.208   2.003  0.00  0.00    -0.004 A 
ATOM      5  C5  I4B d   1       2.090  -2.271   1.401  0.00  0.00     0.002 A 
ATOM      6  C6  I4B d   1       1.207  -2.034   0.338  0.00  0.00     0.003 A 
ENDROOT
BRANCH   1   7
ATOM      7  C1' I4B d   1      -0.005  -0.443  -1.178  0.00  0.00     0.060 C 
BRANCH   7   8
ATOM      8  C2' I4B d   1      -1.204   0.234  -0.546  0.00  0.00    -0.013 C 
ATOM      9  C4' I4B d   1      -2.309   0.433  -1.549  0.00  0.00     0.013 C 
ATOM     10  C3' I4B d   1      -1.662  -0.615   0.603  0.00  0.00     0.013 C 
ENDBRANCH   7   8
ENDBRANCH   1   7
TORSDOF 2
ENDMDL
