MODEL 1
REMARK minimizedAffinity -3.56469607
REMARK minimizedRMSD -1
REMARK  2 active torsions:
REMARK  status: ('A' for Active; 'I' for Inactive)
REMARK    1  A    between atoms: C2'_3  and  C1'_4 
REMARK    2  A    between atoms: C1'_4  and  C1_5 
ROOT
ATOM      1  C1  I4B d   1      -1.473  -0.143  -0.603  0.00  0.00    -0.075 A 
ATOM      2  C2  I4B d   1      -0.432   0.750  -0.645  0.00  0.00     0.003 A 
ATOM      3  C3  I4B d   1       0.633   0.648   0.282  0.00  0.00     0.002 A 
ATOM      4  C4  I4B d   1       0.593  -0.326   1.259  0.00  0.00    -0.004 A 
ATOM      5  C5  I4B d   1      -0.452  -1.245   1.286  0.00  0.00     0.002 A 
ATOM      6  C6  I4B d   1      -1.485  -1.162   0.342  0.00  0.00     0.003 A 
ENDROOT
BRANCH   1   7
ATOM      7  C1' I4B d   1      -2.598   0.014  -1.576  0.00  0.00     0.060 C 
BRANCH   7   8
ATOM      8  C2' I4B d   1      -2.121  -0.483  -2.925  0.00  0.00    -0.013 C 
ATOM      9  C4' I4B d   1      -2.478  -1.933  -3.129  0.00  0.00     0.013 C 
ATOM     10  C3' I4B d   1      -2.742   0.380  -3.982  0.00  0.00     0.013 C 
ENDBRANCH   7   8
ENDBRANCH   1   7
TORSDOF 2
ENDMDL
