MODEL 1
REMARK minimizedAffinity 5.67931128
REMARK minimizedRMSD -1
REMARK  1 active torsions:
REMARK  status: ('A' for Active; 'I' for Inactive)
REMARK    1  A    between atoms: C1_2  and  C2_3 
ROOT
ATOM      1  C2  UNL d   1       0.757   2.716   0.457  0.00  0.00    -0.073 A 
ATOM      2  C3  UNL d   1       0.908   1.664  -0.453  0.00  0.00    -0.002 A 
ATOM      3  C4  UNL d   1       1.087   1.929  -1.812  0.00  0.00     0.004 A 
ATOM      4  C5  UNL d   1       1.125   3.245  -2.272  0.00  0.00    -0.004 A 
ATOM      5  C6  UNL d   1       0.988   4.310  -1.375  0.00  0.00    -0.075 A 
ATOM      6  C7  UNL d   1       1.025   5.731  -1.854  0.00  0.00     0.076 C 
ATOM      7  C8  UNL d   1       0.805   4.036  -0.013  0.00  0.00     0.001 A 
ENDROOT
BRANCH   1   8
ATOM      8  C1  UNL d   1       0.569   2.436   1.926  0.00  0.00     0.053 C 
ATOM      9  C   UNL d   1      -0.897   2.261   2.290  0.00  0.00     0.018 C 
ENDBRANCH   1   8
TORSDOF 1
ENDMDL
