MODEL 1
REMARK minimizedAffinity 1.45618963
REMARK minimizedRMSD -1
REMARK  1 active torsions:
REMARK  status: ('A' for Active; 'I' for Inactive)
REMARK    1  A    between atoms: C1_2  and  C2_3 
ROOT
ATOM      1  C2  UNL d   1       0.893   2.765  -1.328  0.00  0.00    -0.073 A 
ATOM      2  C3  UNL d   1       0.558   2.715   0.029  0.00  0.00    -0.002 A 
ATOM      3  C4  UNL d   1       0.576   1.500   0.716  0.00  0.00     0.004 A 
ATOM      4  C5  UNL d   1       0.935   0.326   0.054  0.00  0.00    -0.004 A 
ATOM      5  C6  UNL d   1       1.284   0.357  -1.299  0.00  0.00    -0.075 A 
ATOM      6  C7  UNL d   1       1.671  -0.898  -2.026  0.00  0.00     0.076 C 
ATOM      7  C8  UNL d   1       1.261   1.581  -1.982  0.00  0.00     0.001 A 
ENDROOT
BRANCH   1   8
ATOM      8  C1  UNL d   1       0.881   4.076  -2.072  0.00  0.00     0.053 C 
ATOM      9  C   UNL d   1       1.228   5.247  -1.168  0.00  0.00     0.018 C 
ENDBRANCH   1   8
TORSDOF 1
ENDMDL
