MODEL 1
REMARK minimizedAffinity -2.5941112
REMARK minimizedRMSD -1
REMARK  1 active torsions:
REMARK  status: ('A' for Active; 'I' for Inactive)
REMARK    1  A    between atoms: C1_2  and  C2_3 
ROOT
ATOM      1  C2  UNL d   1       0.964   0.430  -0.646  0.00  0.00    -0.073 A 
ATOM      2  C3  UNL d   1       1.060   0.515   0.747  0.00  0.00    -0.002 A 
ATOM      3  C4  UNL d   1       1.111   1.760   1.376  0.00  0.00     0.004 A 
ATOM      4  C5  UNL d   1       1.061   2.931   0.620  0.00  0.00    -0.004 A 
ATOM      5  C6  UNL d   1       0.953   2.867  -0.773  0.00  0.00    -0.075 A 
ATOM      6  C7  UNL d   1       0.899   4.117  -1.601  0.00  0.00     0.076 C 
ATOM      7  C8  UNL d   1       0.904   1.613  -1.397  0.00  0.00     0.001 A 
ENDROOT
BRANCH   1   8
ATOM      8  C1  UNL d   1       0.901  -0.911  -1.329  0.00  0.00     0.053 C 
ATOM      9  C   UNL d   1       0.464  -2.015  -0.378  0.00  0.00     0.018 C 
ENDBRANCH   1   8
TORSDOF 1
ENDMDL
