MODEL 1
REMARK minimizedAffinity 4.84557295
REMARK minimizedRMSD -1
REMARK  1 active torsions:
REMARK  status: ('A' for Active; 'I' for Inactive)
REMARK    1  A    between atoms: C1_2  and  C2_3 
ROOT
ATOM      1  C2  UNL d   1       1.090   2.084  -0.970  0.00  0.00    -0.073 A 
ATOM      2  C3  UNL d   1       1.103   1.824   0.406  0.00  0.00    -0.002 A 
ATOM      3  C4  UNL d   1       1.177   2.875   1.321  0.00  0.00     0.004 A 
ATOM      4  C5  UNL d   1       1.231   4.195   0.872  0.00  0.00    -0.004 A 
ATOM      5  C6  UNL d   1       1.207   4.475  -0.498  0.00  0.00    -0.075 A 
ATOM      6  C7  UNL d   1       1.266   5.889  -0.997  0.00  0.00     0.076 C 
ATOM      7  C8  UNL d   1       1.135   3.414  -1.411  0.00  0.00     0.001 A 
ENDROOT
BRANCH   1   8
ATOM      8  C1  UNL d   1       1.004   0.953  -1.961  0.00  0.00     0.053 C 
ATOM      9  C   UNL d   1       1.330  -0.389  -1.325  0.00  0.00     0.018 C 
ENDBRANCH   1   8
TORSDOF 1
ENDMDL
