MODEL 1
REMARK minimizedAffinity 0.890003979
REMARK minimizedRMSD -1
REMARK  1 active torsions:
REMARK  status: ('A' for Active; 'I' for Inactive)
REMARK    1  A    between atoms: C1_2  and  C2_3 
ROOT
ATOM      1  C2  UNL d   1       0.866   0.725  -1.022  0.00  0.00    -0.073 A 
ATOM      2  C3  UNL d   1       0.879   1.369  -2.265  0.00  0.00    -0.002 A 
ATOM      3  C4  UNL d   1       0.883   2.763  -2.336  0.00  0.00     0.004 A 
ATOM      4  C5  UNL d   1       0.882   3.526  -1.168  0.00  0.00    -0.004 A 
ATOM      5  C6  UNL d   1       0.881   2.901   0.083  0.00  0.00    -0.075 A 
ATOM      6  C7  UNL d   1       0.877   3.707   1.348  0.00  0.00     0.076 C 
ATOM      7  C8  UNL d   1       0.874   1.501   0.146  0.00  0.00     0.001 A 
ENDROOT
BRANCH   1   8
ATOM      8  C1  UNL d   1       0.868  -0.779  -0.940  0.00  0.00     0.053 C 
ATOM      9  C   UNL d   1       1.598  -1.282   0.295  0.00  0.00     0.018 C 
ENDBRANCH   1   8
TORSDOF 1
ENDMDL
