MODEL 1
REMARK minimizedAffinity 5.17201376
REMARK minimizedRMSD -1
REMARK  1 active torsions:
REMARK  status: ('A' for Active; 'I' for Inactive)
REMARK    1  A    between atoms: C1_2  and  C2_3 
ROOT
ATOM      1  C2  UNL d   1       1.236   2.277  -1.127  0.00  0.00    -0.073 A 
ATOM      2  C3  UNL d   1       1.001   2.211   0.251  0.00  0.00    -0.002 A 
ATOM      3  C4  UNL d   1       1.065   3.364   1.033  0.00  0.00     0.004 A 
ATOM      4  C5  UNL d   1       1.357   4.595   0.446  0.00  0.00    -0.004 A 
ATOM      5  C6  UNL d   1       1.583   4.684  -0.932  0.00  0.00    -0.075 A 
ATOM      6  C7  UNL d   1       1.901   6.000  -1.578  0.00  0.00     0.076 C 
ATOM      7  C8  UNL d   1       1.520   3.520  -1.710  0.00  0.00     0.001 A 
ENDROOT
BRANCH   1   8
ATOM      8  C1  UNL d   1       1.162   1.034  -1.977  0.00  0.00     0.053 C 
ATOM      9  C   UNL d   1       1.870  -0.144  -1.326  0.00  0.00     0.018 C 
ENDBRANCH   1   8
TORSDOF 1
ENDMDL
