MODEL 1
REMARK minimizedAffinity 4.05545378
REMARK minimizedRMSD -1
REMARK  1 active torsions:
REMARK  status: ('A' for Active; 'I' for Inactive)
REMARK    1  A    between atoms: C1_2  and  C2_3 
ROOT
ATOM      1  C2  UNL d   1       0.895   1.500  -1.415  0.00  0.00    -0.073 A 
ATOM      2  C3  UNL d   1       0.479   0.283  -1.965  0.00  0.00    -0.002 A 
ATOM      3  C4  UNL d   1       0.366  -0.853  -1.162  0.00  0.00     0.004 A 
ATOM      4  C5  UNL d   1       0.661  -0.781   0.200  0.00  0.00    -0.004 A 
ATOM      5  C6  UNL d   1       1.067   0.429   0.771  0.00  0.00    -0.075 A 
ATOM      6  C7  UNL d   1       1.390   0.522   2.233  0.00  0.00     0.076 C 
ATOM      7  C8  UNL d   1       1.180   1.564  -0.043  0.00  0.00     0.001 A 
ENDROOT
BRANCH   1   8
ATOM      8  C1  UNL d   1       1.012   2.730  -2.277  0.00  0.00     0.053 C 
ATOM      9  C   UNL d   1       1.538   3.925  -1.498  0.00  0.00     0.018 C 
ENDBRANCH   1   8
TORSDOF 1
ENDMDL
