MODEL 1
REMARK minimizedAffinity -1.66843772
REMARK minimizedRMSD -1
REMARK  1 active torsions:
REMARK  status: ('A' for Active; 'I' for Inactive)
REMARK    1  A    between atoms: C1_2  and  C2_3 
ROOT
ATOM      1  C2  UNL d   1       0.927  -0.933  -1.495  0.00  0.00    -0.073 A 
ATOM      2  C3  UNL d   1       1.452  -1.324  -0.258  0.00  0.00    -0.002 A 
ATOM      3  C4  UNL d   1       1.030  -2.510   0.343  0.00  0.00     0.004 A 
ATOM      4  C5  UNL d   1       0.086  -3.320  -0.288  0.00  0.00    -0.004 A 
ATOM      5  C6  UNL d   1      -0.441  -2.953  -1.530  0.00  0.00    -0.075 A 
ATOM      6  C7  UNL d   1      -1.459  -3.812  -2.221  0.00  0.00     0.076 C 
ATOM      7  C8  UNL d   1      -0.015  -1.758  -2.126  0.00  0.00     0.001 A 
ENDROOT
BRANCH   1   8
ATOM      8  C1  UNL d   1       1.384   0.344  -2.152  0.00  0.00     0.053 C 
ATOM      9  C   UNL d   1       0.885   1.576  -1.412  0.00  0.00     0.018 C 
ENDBRANCH   1   8
TORSDOF 1
ENDMDL
