MODEL 1
REMARK minimizedAffinity 6.6971426
REMARK minimizedRMSD -1
REMARK  1 active torsions:
REMARK  status: ('A' for Active; 'I' for Inactive)
REMARK    1  A    between atoms: C1_2  and  C2_3 
ROOT
ATOM      1  C2  UNL d   1       0.521   2.645  -2.121  0.00  0.00    -0.073 A 
ATOM      2  C3  UNL d   1       0.707   1.260  -2.195  0.00  0.00    -0.002 A 
ATOM      3  C4  UNL d   1       1.065   0.536  -1.057  0.00  0.00     0.004 A 
ATOM      4  C5  UNL d   1       1.235   1.186   0.165  0.00  0.00    -0.004 A 
ATOM      5  C6  UNL d   1       1.043   2.568   0.261  0.00  0.00    -0.075 A 
ATOM      6  C7  UNL d   1       1.223   3.283   1.568  0.00  0.00     0.076 C 
ATOM      7  C8  UNL d   1       0.685   3.289  -0.886  0.00  0.00     0.001 A 
ENDROOT
BRANCH   1   8
ATOM      8  C1  UNL d   1       0.128   3.431  -3.345  0.00  0.00     0.053 C 
ATOM      9  C   UNL d   1      -1.265   4.027  -3.216  0.00  0.00     0.018 C 
ENDBRANCH   1   8
TORSDOF 1
ENDMDL
