MODEL 1
REMARK minimizedAffinity 4.21393633
REMARK minimizedRMSD -1
REMARK  1 active torsions:
REMARK  status: ('A' for Active; 'I' for Inactive)
REMARK    1  A    between atoms: C1_2  and  C2_3 
ROOT
ATOM      1  C2  UNL d   1       1.362   2.291  -1.213  0.00  0.00    -0.073 A 
ATOM      2  C3  UNL d   1       1.448   1.112  -1.962  0.00  0.00    -0.002 A 
ATOM      3  C4  UNL d   1       1.938  -0.059  -1.380  0.00  0.00     0.004 A 
ATOM      4  C5  UNL d   1       2.339  -0.064  -0.044  0.00  0.00    -0.004 A 
ATOM      5  C6  UNL d   1       2.249   1.102   0.724  0.00  0.00    -0.075 A 
ATOM      6  C7  UNL d   1       2.679   1.113   2.162  0.00  0.00     0.076 C 
ATOM      7  C8  UNL d   1       1.759   2.273   0.132  0.00  0.00     0.001 A 
ENDROOT
BRANCH   1   8
ATOM      8  C1  UNL d   1       0.828   3.555  -1.835  0.00  0.00     0.053 C 
ATOM      9  C   UNL d   1       1.298   4.797  -1.094  0.00  0.00     0.018 C 
ENDBRANCH   1   8
TORSDOF 1
ENDMDL
