MODEL 1
REMARK minimizedAffinity 5.94902849
REMARK minimizedRMSD -1
REMARK  1 active torsions:
REMARK  status: ('A' for Active; 'I' for Inactive)
REMARK    1  A    between atoms: C1_2  and  C2_3 
ROOT
ATOM      1  C2  UNL d   1       1.045   3.555  -0.862  0.00  0.00    -0.073 A 
ATOM      2  C3  UNL d   1       0.204   3.623  -1.979  0.00  0.00    -0.002 A 
ATOM      3  C4  UNL d   1      -0.180   2.458  -2.643  0.00  0.00     0.004 A 
ATOM      4  C5  UNL d   1       0.265   1.215  -2.196  0.00  0.00    -0.004 A 
ATOM      5  C6  UNL d   1       1.097   1.125  -1.074  0.00  0.00    -0.075 A 
ATOM      6  C7  UNL d   1       1.587  -0.205  -0.581  0.00  0.00     0.076 C 
ATOM      7  C8  UNL d   1       1.481   2.300  -0.414  0.00  0.00     0.001 A 
ENDROOT
BRANCH   1   8
ATOM      8  C1  UNL d   1       1.458   4.810  -0.137  0.00  0.00     0.053 C 
ATOM      9  C   UNL d   1       1.914   5.898  -1.095  0.00  0.00     0.018 C 
ENDBRANCH   1   8
TORSDOF 1
ENDMDL
