MODEL 1
REMARK minimizedAffinity -2.42886209
REMARK minimizedRMSD -1
REMARK  0 active torsions:
REMARK  status: ('A' for Active; 'I' for Inactive)
ROOT
ATOM      1  C   UNL d   1       0.209  -0.614  -2.582  0.00  0.00     0.077 C 
ATOM      2  C1  UNL d   1       0.606  -0.323  -1.166  0.00  0.00    -0.074 A 
ATOM      3  C2  UNL d   1       1.876   0.180  -0.864  0.00  0.00    -0.005 A 
ATOM      4  C3  UNL d   1       2.228   0.455   0.457  0.00  0.00     0.006 A 
ATOM      5  C4  UNL d   1       1.315   0.230   1.489  0.00  0.00    -0.005 A 
ATOM      6  C5  UNL d   1       0.041  -0.271   1.206  0.00  0.00    -0.074 A 
ATOM      7  C6  UNL d   1      -0.955  -0.509   2.302  0.00  0.00     0.077 C 
ATOM      8  C7  UNL d   1      -0.308  -0.539  -0.125  0.00  0.00    -0.001 A 
ENDROOT
TORSDOF 0
ENDMDL
