MODEL 1
REMARK minimizedAffinity -4.68466377
REMARK minimizedRMSD -1
REMARK  0 active torsions:
REMARK  status: ('A' for Active; 'I' for Inactive)
ROOT
ATOM      1  C   UNL d   1      -0.784  -0.148   2.824  0.00  0.00     0.077 C 
ATOM      2  C1  UNL d   1      -0.146  -0.231   1.469  0.00  0.00    -0.074 A 
ATOM      3  C2  UNL d   1       1.129  -0.784   1.307  0.00  0.00    -0.005 A 
ATOM      4  C3  UNL d   1       1.705  -0.863   0.040  0.00  0.00     0.006 A 
ATOM      5  C4  UNL d   1       1.014  -0.392  -1.077  0.00  0.00    -0.005 A 
ATOM      6  C5  UNL d   1      -0.262   0.163  -0.935  0.00  0.00    -0.074 A 
ATOM      7  C6  UNL d   1      -1.022   0.666  -2.126  0.00  0.00     0.077 C 
ATOM      8  C7  UNL d   1      -0.837   0.233   0.341  0.00  0.00    -0.001 A 
ENDROOT
TORSDOF 0
ENDMDL
