MODEL 1
REMARK minimizedAffinity -4.11919928
REMARK minimizedRMSD -1
REMARK  0 active torsions:
REMARK  status: ('A' for Active; 'I' for Inactive)
ROOT
ATOM      1  C   UNL d   1       0.498  -0.308  -0.975  0.00  0.00     0.077 C 
ATOM      2  C1  UNL d   1      -0.035  -0.410   0.423  0.00  0.00    -0.074 A 
ATOM      3  C2  UNL d   1       0.759  -0.912   1.459  0.00  0.00    -0.005 A 
ATOM      4  C3  UNL d   1       0.253  -0.992   2.757  0.00  0.00     0.006 A 
ATOM      5  C4  UNL d   1      -1.049  -0.572   3.031  0.00  0.00    -0.005 A 
ATOM      6  C5  UNL d   1      -1.857  -0.066   2.007  0.00  0.00    -0.074 A 
ATOM      7  C6  UNL d   1      -3.255   0.400   2.286  0.00  0.00     0.077 C 
ATOM      8  C7  UNL d   1      -1.339   0.018   0.708  0.00  0.00    -0.001 A 
ENDROOT
TORSDOF 0
ENDMDL
