MODEL 1
REMARK minimizedAffinity -5.27588081
REMARK minimizedRMSD -1
REMARK  0 active torsions:
REMARK  status: ('A' for Active; 'I' for Inactive)
ROOT
ATOM      1  C   UNL d   1       0.088  -0.913   1.939  0.00  0.00     0.077 C 
ATOM      2  C1  UNL d   1       0.164  -0.739   0.451  0.00  0.00    -0.074 A 
ATOM      3  C2  UNL d   1      -0.106   0.498  -0.143  0.00  0.00    -0.005 A 
ATOM      4  C3  UNL d   1      -0.022   0.646  -1.528  0.00  0.00     0.006 A 
ATOM      5  C4  UNL d   1       0.331  -0.439  -2.331  0.00  0.00    -0.005 A 
ATOM      6  C5  UNL d   1       0.605  -1.684  -1.754  0.00  0.00    -0.074 A 
ATOM      7  C6  UNL d   1       0.996  -2.858  -2.602  0.00  0.00     0.077 C 
ATOM      8  C7  UNL d   1       0.526  -1.823  -0.362  0.00  0.00    -0.001 A 
ENDROOT
TORSDOF 0
ENDMDL
