MODEL 1
REMARK minimizedAffinity -1.51478636
REMARK minimizedRMSD -1
REMARK  0 active torsions:
REMARK  status: ('A' for Active; 'I' for Inactive)
ROOT
ATOM      1  C   UNL d   1       1.244  -0.051  -2.885  0.00  0.00     0.077 C 
ATOM      2  C1  UNL d   1       0.395   0.076  -1.656  0.00  0.00    -0.074 A 
ATOM      3  C2  UNL d   1      -0.954   0.432  -1.747  0.00  0.00    -0.005 A 
ATOM      4  C3  UNL d   1      -1.734   0.537  -0.596  0.00  0.00     0.006 A 
ATOM      5  C4  UNL d   1      -1.173   0.288   0.658  0.00  0.00    -0.005 A 
ATOM      6  C5  UNL d   1       0.174  -0.070   0.769  0.00  0.00    -0.074 A 
ATOM      7  C6  UNL d   1       0.790  -0.350   2.107  0.00  0.00     0.077 C 
ATOM      8  C7  UNL d   1       0.949  -0.180  -0.394  0.00  0.00    -0.001 A 
ENDROOT
TORSDOF 0
ENDMDL
