MODEL 1
REMARK minimizedAffinity -3.61850238
REMARK minimizedRMSD -1
REMARK  0 active torsions:
REMARK  status: ('A' for Active; 'I' for Inactive)
ROOT
ATOM      1  C   UNL d   1       1.138  -1.148   1.156  0.00  0.00     0.077 C 
ATOM      2  C1  UNL d   1       0.714  -0.718  -0.217  0.00  0.00    -0.074 A 
ATOM      3  C2  UNL d   1      -0.207   0.320  -0.392  0.00  0.00    -0.005 A 
ATOM      4  C3  UNL d   1      -0.585   0.716  -1.675  0.00  0.00     0.006 A 
ATOM      5  C4  UNL d   1      -0.046   0.079  -2.794  0.00  0.00    -0.005 A 
ATOM      6  C5  UNL d   1       0.877  -0.960  -2.638  0.00  0.00    -0.074 A 
ATOM      7  C6  UNL d   1       1.473  -1.648  -3.830  0.00  0.00     0.077 C 
ATOM      8  C7  UNL d   1       1.257  -1.347  -1.346  0.00  0.00    -0.001 A 
ENDROOT
TORSDOF 0
ENDMDL
