MODEL 1
REMARK minimizedAffinity -3.06192875
REMARK minimizedRMSD -1
REMARK  0 active torsions:
REMARK  status: ('A' for Active; 'I' for Inactive)
ROOT
ATOM      1  C   UNL d   1       1.168  -0.134  -2.682  0.00  0.00     0.077 C 
ATOM      2  C1  UNL d   1       0.346   0.094  -1.449  0.00  0.00    -0.074 A 
ATOM      3  C2  UNL d   1      -0.974   0.549  -1.538  0.00  0.00    -0.005 A 
ATOM      4  C3  UNL d   1      -1.728   0.748  -0.382  0.00  0.00     0.006 A 
ATOM      5  C4  UNL d   1      -1.172   0.495   0.873  0.00  0.00    -0.005 A 
ATOM      6  C5  UNL d   1       0.145   0.039   0.982  0.00  0.00    -0.074 A 
ATOM      7  C6  UNL d   1       0.755  -0.247   2.322  0.00  0.00     0.077 C 
ATOM      8  C7  UNL d   1       0.895  -0.165  -0.185  0.00  0.00    -0.001 A 
ENDROOT
TORSDOF 0
ENDMDL
