MODEL 1
REMARK minimizedAffinity -2.6176126
REMARK minimizedRMSD -1
REMARK  0 active torsions:
REMARK  status: ('A' for Active; 'I' for Inactive)
ROOT
ATOM      1  C   UNL d   1       2.385   0.996  -4.279  0.00  0.00     0.077 C 
ATOM      2  C1  UNL d   1       1.601  -0.018  -3.501  0.00  0.00    -0.074 A 
ATOM      3  C2  UNL d   1       1.384  -1.303  -4.009  0.00  0.00    -0.005 A 
ATOM      4  C3  UNL d   1       0.661  -2.239  -3.270  0.00  0.00     0.006 A 
ATOM      5  C4  UNL d   1       0.148  -1.900  -2.017  0.00  0.00    -0.005 A 
ATOM      6  C5  UNL d   1       0.355  -0.620  -1.492  0.00  0.00    -0.074 A 
ATOM      7  C6  UNL d   1      -0.180  -0.243  -0.143  0.00  0.00     0.077 C 
ATOM      8  C7  UNL d   1       1.089   0.312  -2.238  0.00  0.00    -0.001 A 
ENDROOT
TORSDOF 0
ENDMDL
