MODEL 1
REMARK minimizedAffinity -2.38465166
REMARK minimizedRMSD -1
REMARK  0 active torsions:
REMARK  status: ('A' for Active; 'I' for Inactive)
ROOT
ATOM      1  C   UNL d   1       0.765  -0.283   2.126  0.00  0.00     0.077 C 
ATOM      2  C1  UNL d   1       0.218  -0.015   0.755  0.00  0.00    -0.074 A 
ATOM      3  C2  UNL d   1      -1.105   0.404   0.578  0.00  0.00    -0.005 A 
ATOM      4  C3  UNL d   1      -1.596   0.659  -0.702  0.00  0.00     0.006 A 
ATOM      5  C4  UNL d   1      -0.772   0.497  -1.816  0.00  0.00    -0.005 A 
ATOM      6  C5  UNL d   1       0.553   0.080  -1.659  0.00  0.00    -0.074 A 
ATOM      7  C6  UNL d   1       1.455  -0.089  -2.845  0.00  0.00     0.077 C 
ATOM      8  C7  UNL d   1       1.042  -0.167  -0.369  0.00  0.00    -0.001 A 
ENDROOT
TORSDOF 0
ENDMDL
