MODEL 1
REMARK minimizedAffinity -1.63354981
REMARK minimizedRMSD -1
REMARK  0 active torsions:
REMARK  status: ('A' for Active; 'I' for Inactive)
ROOT
ATOM      1  C   UNL d   1       3.047  -0.941  -4.152  0.00  0.00     0.077 C 
ATOM      2  C1  UNL d   1       1.674  -1.194  -3.605  0.00  0.00    -0.074 A 
ATOM      3  C2  UNL d   1       0.934  -2.310  -4.008  0.00  0.00    -0.005 A 
ATOM      4  C3  UNL d   1      -0.339  -2.537  -3.484  0.00  0.00     0.006 A 
ATOM      5  C4  UNL d   1      -0.883  -1.653  -2.552  0.00  0.00    -0.005 A 
ATOM      6  C5  UNL d   1      -0.158  -0.531  -2.137  0.00  0.00    -0.074 A 
ATOM      7  C6  UNL d   1      -0.724   0.424  -1.129  0.00  0.00     0.077 C 
ATOM      8  C7  UNL d   1       1.123  -0.314  -2.663  0.00  0.00    -0.001 A 
ENDROOT
TORSDOF 0
ENDMDL
