MODEL 1
REMARK minimizedAffinity -3.59950948
REMARK minimizedRMSD -1
REMARK  0 active torsions:
REMARK  status: ('A' for Active; 'I' for Inactive)
ROOT
ATOM      1  C   UNL d   1      -2.027   0.789  -1.447  0.00  0.00     0.077 C 
ATOM      2  C1  UNL d   1      -0.927   0.441  -0.488  0.00  0.00    -0.074 A 
ATOM      3  C2  UNL d   1       0.413   0.489  -0.884  0.00  0.00    -0.005 A 
ATOM      4  C3  UNL d   1       1.426   0.171   0.021  0.00  0.00     0.006 A 
ATOM      5  C4  UNL d   1       1.109  -0.196   1.329  0.00  0.00    -0.005 A 
ATOM      6  C5  UNL d   1      -0.225  -0.249   1.743  0.00  0.00    -0.074 A 
ATOM      7  C6  UNL d   1      -0.583  -0.632   3.149  0.00  0.00     0.077 C 
ATOM      8  C7  UNL d   1      -1.237   0.079   0.830  0.00  0.00    -0.001 A 
ENDROOT
TORSDOF 0
ENDMDL
