MODEL 1
REMARK minimizedAffinity -2.86624479
REMARK minimizedRMSD -1
REMARK  0 active torsions:
REMARK  status: ('A' for Active; 'I' for Inactive)
ROOT
ATOM      1  C   UNL d   1       0.683  -1.637   2.165  0.00  0.00     0.077 C 
ATOM      2  C1  UNL d   1       0.684  -0.794   0.925  0.00  0.00    -0.074 A 
ATOM      3  C2  UNL d   1       0.904   0.586   0.995  0.00  0.00    -0.005 A 
ATOM      4  C3  UNL d   1       0.912   1.356  -0.168  0.00  0.00     0.006 A 
ATOM      5  C4  UNL d   1       0.701   0.756  -1.410  0.00  0.00    -0.005 A 
ATOM      6  C5  UNL d   1       0.481  -0.622  -1.499  0.00  0.00    -0.074 A 
ATOM      7  C6  UNL d   1       0.263  -1.285  -2.827  0.00  0.00     0.077 C 
ATOM      8  C7  UNL d   1       0.481  -1.391  -0.327  0.00  0.00    -0.001 A 
ENDROOT
TORSDOF 0
ENDMDL
