MODEL 1
REMARK minimizedAffinity -3.57481742
REMARK minimizedRMSD -1
REMARK  0 active torsions:
REMARK  status: ('A' for Active; 'I' for Inactive)
ROOT
ATOM      1  C   UNL d   1       4.442   1.084  -4.136  0.00  0.00     0.077 C 
ATOM      2  C1  UNL d   1       3.311   0.131  -3.886  0.00  0.00    -0.074 A 
ATOM      3  C2  UNL d   1       3.313  -1.150  -4.449  0.00  0.00    -0.005 A 
ATOM      4  C3  UNL d   1       2.259  -2.029  -4.200  0.00  0.00     0.006 A 
ATOM      5  C4  UNL d   1       1.194  -1.637  -3.388  0.00  0.00    -0.005 A 
ATOM      6  C5  UNL d   1       1.175  -0.361  -2.816  0.00  0.00    -0.074 A 
ATOM      7  C6  UNL d   1       0.043   0.073  -1.933  0.00  0.00     0.077 C 
ATOM      8  C7  UNL d   1       2.241   0.514  -3.065  0.00  0.00    -0.001 A 
ENDROOT
TORSDOF 0
ENDMDL
