MODEL 1
REMARK minimizedAffinity -3.80791306
REMARK minimizedRMSD -1
REMARK  0 active torsions:
REMARK  status: ('A' for Active; 'I' for Inactive)
ROOT
ATOM      1  C   UNL d   1       1.593  -2.242  -3.534  0.00  0.00     0.077 C 
ATOM      2  C1  UNL d   1       1.032  -1.111  -2.723  0.00  0.00    -0.074 A 
ATOM      3  C2  UNL d   1       0.622   0.077  -3.336  0.00  0.00    -0.005 A 
ATOM      4  C3  UNL d   1       0.094   1.117  -2.570  0.00  0.00     0.006 A 
ATOM      5  C4  UNL d   1      -0.029   0.978  -1.187  0.00  0.00    -0.005 A 
ATOM      6  C5  UNL d   1       0.375  -0.203  -0.557  0.00  0.00    -0.074 A 
ATOM      7  C6  UNL d   1       0.240  -0.372   0.927  0.00  0.00     0.077 C 
ATOM      8  C7  UNL d   1       0.898  -1.246  -1.334  0.00  0.00    -0.001 A 
ENDROOT
TORSDOF 0
ENDMDL
