MODEL 1
REMARK minimizedAffinity -3.63566184
REMARK minimizedRMSD -1
REMARK  0 active torsions:
REMARK  status: ('A' for Active; 'I' for Inactive)
ROOT
ATOM      1  C   UNL d   1       0.384  -0.759  -1.702  0.00  0.00     0.077 C 
ATOM      2  C1  UNL d   1       0.744  -0.661  -0.250  0.00  0.00    -0.074 A 
ATOM      3  C2  UNL d   1       2.046  -0.924   0.188  0.00  0.00    -0.005 A 
ATOM      4  C3  UNL d   1       2.368  -0.820   1.541  0.00  0.00     0.006 A 
ATOM      5  C4  UNL d   1       1.393  -0.451   2.469  0.00  0.00    -0.005 A 
ATOM      6  C5  UNL d   1       0.086  -0.184   2.050  0.00  0.00    -0.074 A 
ATOM      7  C6  UNL d   1      -0.972   0.223   3.033  0.00  0.00     0.077 C 
ATOM      8  C7  UNL d   1      -0.228  -0.284   0.688  0.00  0.00    -0.001 A 
ENDROOT
TORSDOF 0
ENDMDL
