MODEL 1
REMARK minimizedAffinity -3.77406836
REMARK minimizedRMSD -1
REMARK  0 active torsions:
REMARK  status: ('A' for Active; 'I' for Inactive)
ROOT
ATOM      1  N1  IND d   1       0.110   2.387  -1.167  0.00  0.00    -0.196 N 
ATOM      2  C2  IND d   1      -0.687   3.472  -0.926  0.00  0.00     0.054 A 
ATOM      3  C3  IND d   1      -1.375   3.303   0.225  0.00  0.00    -0.031 A 
ATOM      4  C4  IND d   1      -1.274   1.371   1.924  0.00  0.00     0.051 A 
ATOM      5  C5  IND d   1      -0.720   0.137   2.120  0.00  0.00    -0.031 A 
ATOM      6  C6  IND d   1       0.159  -0.420   1.213  0.00  0.00     0.015 A 
ATOM      7  C7  IND d   1       0.527   0.244   0.078  0.00  0.00    -0.016 A 
ATOM      8  C8  IND d   1      -0.039   1.494  -0.128  0.00  0.00    -0.047 A 
ATOM      9  C9  IND d   1      -0.965   2.047   0.767  0.00  0.00    -0.096 A 
ATOM     10  HN1 IND d   1       0.618   2.281  -1.852  0.00  0.00     0.298 HD
ENDROOT
TORSDOF 0
ENDMDL
