MODEL 1
REMARK minimizedAffinity -5.19406176
REMARK minimizedRMSD -1
REMARK  0 active torsions:
REMARK  status: ('A' for Active; 'I' for Inactive)
ROOT
ATOM      1  N1  IND d   1       0.626   0.032  -0.476  0.00  0.00    -0.196 N 
ATOM      2  C2  IND d   1       0.438  -1.040   0.351  0.00  0.00     0.054 A 
ATOM      3  C3  IND d   1      -0.385  -0.709   1.371  0.00  0.00    -0.031 A 
ATOM      4  C4  IND d   1      -1.618   1.505   1.824  0.00  0.00     0.051 A 
ATOM      5  C5  IND d   1      -1.732   2.788   1.366  0.00  0.00    -0.031 A 
ATOM      6  C6  IND d   1      -1.055   3.225   0.247  0.00  0.00     0.015 A 
ATOM      7  C7  IND d   1      -0.243   2.390  -0.466  0.00  0.00    -0.016 A 
ATOM      8  C8  IND d   1      -0.119   1.089  -0.000  0.00  0.00    -0.047 A 
ATOM      9  C9  IND d   1      -0.771   0.651   1.160  0.00  0.00    -0.096 A 
ATOM     10  HN1 IND d   1       1.126   0.044  -1.175  0.00  0.00     0.298 HD
ENDROOT
TORSDOF 0
ENDMDL
