MODEL 1
REMARK minimizedAffinity -6.67130566
REMARK minimizedRMSD -1
REMARK  0 active torsions:
REMARK  status: ('A' for Active; 'I' for Inactive)
ROOT
ATOM      1  N1  IND d   1       0.765   0.769  -0.823  0.00  0.00    -0.196 N 
ATOM      2  C2  IND d   1       0.552  -0.428  -0.198  0.00  0.00     0.054 A 
ATOM      3  C3  IND d   1      -0.397  -0.297   0.757  0.00  0.00    -0.031 A 
ATOM      4  C4  IND d   1      -1.804   1.762   1.394  0.00  0.00     0.051 A 
ATOM      5  C5  IND d   1      -1.945   3.095   1.127  0.00  0.00    -0.031 A 
ATOM      6  C6  IND d   1      -1.176   3.733   0.175  0.00  0.00     0.015 A 
ATOM      7  C7  IND d   1      -0.241   3.056  -0.556  0.00  0.00    -0.016 A 
ATOM      8  C8  IND d   1      -0.091   1.704  -0.283  0.00  0.00    -0.047 A 
ATOM      9  C9  IND d   1      -0.839   1.060   0.711  0.00  0.00    -0.096 A 
ATOM     10  HN1 IND d   1       1.336   0.913  -1.449  0.00  0.00     0.298 HD
ENDROOT
TORSDOF 0
ENDMDL
