MODEL 1
REMARK minimizedAffinity -4.92882252
REMARK minimizedRMSD -1
REMARK  0 active torsions:
REMARK  status: ('A' for Active; 'I' for Inactive)
ROOT
ATOM      1  N1  IND d   1       1.416   0.778  -0.817  0.00  0.00    -0.196 N 
ATOM      2  C2  IND d   1       1.203   1.861  -1.623  0.00  0.00     0.054 A 
ATOM      3  C3  IND d   1       0.066   2.498  -1.264  0.00  0.00    -0.031 A 
ATOM      4  C4  IND d   1      -1.547   1.996   0.678  0.00  0.00     0.051 A 
ATOM      5  C5  IND d   1      -1.791   1.085   1.668  0.00  0.00    -0.031 A 
ATOM      6  C6  IND d   1      -0.960   0.005   1.886  0.00  0.00     0.015 A 
ATOM      7  C7  IND d   1       0.157  -0.199   1.126  0.00  0.00    -0.016 A 
ATOM      8  C8  IND d   1       0.404   0.720   0.116  0.00  0.00    -0.047 A 
ATOM      9  C9  IND d   1      -0.459   1.794  -0.138  0.00  0.00    -0.096 A 
ATOM     10  HN1 IND d   1       2.071   0.225  -0.882  0.00  0.00     0.298 HD
ENDROOT
TORSDOF 0
ENDMDL
