MODEL 1
REMARK minimizedAffinity -3.6131897
REMARK minimizedRMSD -1
REMARK  0 active torsions:
REMARK  status: ('A' for Active; 'I' for Inactive)
ROOT
ATOM      1  N1  IND d   1       1.496   2.260  -1.892  0.00  0.00    -0.196 N 
ATOM      2  C2  IND d   1       0.835   3.429  -1.636  0.00  0.00     0.054 A 
ATOM      3  C3  IND d   1      -0.018   3.269  -0.598  0.00  0.00    -0.031 A 
ATOM      4  C4  IND d   1      -0.415   1.207   0.889  0.00  0.00     0.051 A 
ATOM      5  C5  IND d   1      -0.070  -0.109   1.021  0.00  0.00    -0.031 A 
ATOM      6  C6  IND d   1       0.834  -0.714   0.172  0.00  0.00     0.015 A 
ATOM      7  C7  IND d   1       1.440  -0.019  -0.836  0.00  0.00    -0.016 A 
ATOM      8  C8  IND d   1       1.087   1.315  -0.977  0.00  0.00    -0.047 A 
ATOM      9  C9  IND d   1       0.137   1.923  -0.146  0.00  0.00    -0.096 A 
ATOM     10  HN1 IND d   1       2.071   2.136  -2.519  0.00  0.00     0.298 HD
ENDROOT
TORSDOF 0
ENDMDL
