MODEL 1
REMARK minimizedAffinity -6.8211689
REMARK minimizedRMSD -1
REMARK  0 active torsions:
REMARK  status: ('A' for Active; 'I' for Inactive)
ROOT
ATOM      1  N1  IND d   1       1.384   1.332  -1.415  0.00  0.00    -0.196 N 
ATOM      2  C2  IND d   1       1.653   0.103  -0.880  0.00  0.00     0.054 A 
ATOM      3  C3  IND d   1       0.747  -0.204   0.075  0.00  0.00    -0.031 A 
ATOM      4  C4  IND d   1      -1.320   1.119   0.853  0.00  0.00     0.051 A 
ATOM      5  C5  IND d   1      -1.959   2.315   0.685  0.00  0.00    -0.031 A 
ATOM      6  C6  IND d   1      -1.510   3.262  -0.212  0.00  0.00     0.015 A 
ATOM      7  C7  IND d   1      -0.405   3.043  -0.986  0.00  0.00    -0.016 A 
ATOM      8  C8  IND d   1       0.251   1.833  -0.812  0.00  0.00    -0.047 A 
ATOM      9  C9  IND d   1      -0.176   0.885   0.127  0.00  0.00    -0.096 A 
ATOM     10  HN1 IND d   1       1.845   1.726  -2.024  0.00  0.00     0.298 HD
ENDROOT
TORSDOF 0
ENDMDL
