MODEL 1
REMARK minimizedAffinity -6.065207
REMARK minimizedRMSD -1
REMARK  0 active torsions:
REMARK  status: ('A' for Active; 'I' for Inactive)
ROOT
ATOM      1  N1  IND d   1       0.215  -0.080  -0.851  0.00  0.00    -0.196 N 
ATOM      2  C2  IND d   1       0.236  -1.063   0.099  0.00  0.00     0.054 A 
ATOM      3  C3  IND d   1      -0.197  -0.579   1.285  0.00  0.00    -0.031 A 
ATOM      4  C4  IND d   1      -1.085   1.765   1.870  0.00  0.00     0.051 A 
ATOM      5  C5  IND d   1      -1.261   3.013   1.341  0.00  0.00    -0.031 A 
ATOM      6  C6  IND d   1      -0.950   3.299   0.027  0.00  0.00     0.015 A 
ATOM      7  C7  IND d   1      -0.460   2.340  -0.814  0.00  0.00    -0.016 A 
ATOM      8  C8  IND d   1      -0.274   1.073  -0.278  0.00  0.00    -0.047 A 
ATOM      9  C9  IND d   1      -0.547   0.788   1.066  0.00  0.00    -0.096 A 
ATOM     10  HN1 IND d   1       0.465  -0.168  -1.669  0.00  0.00     0.298 HD
ENDROOT
TORSDOF 0
ENDMDL
