MODEL 1
REMARK minimizedAffinity -2.40227127
REMARK minimizedRMSD -1
REMARK  0 active torsions:
REMARK  status: ('A' for Active; 'I' for Inactive)
ROOT
ATOM      1  N1  IND d   1      -0.115  -0.591  -1.612  0.00  0.00    -0.196 N 
ATOM      2  C2  IND d   1       0.496  -1.743  -1.200  0.00  0.00     0.054 A 
ATOM      3  C3  IND d   1       0.547  -1.792   0.150  0.00  0.00    -0.031 A 
ATOM      4  C4  IND d   1      -0.401  -0.141   1.883  0.00  0.00     0.051 A 
ATOM      5  C5  IND d   1      -1.012   1.077   1.988  0.00  0.00    -0.031 A 
ATOM      6  C6  IND d   1      -1.365   1.815   0.877  0.00  0.00     0.015 A 
ATOM      7  C7  IND d   1      -1.129   1.355  -0.388  0.00  0.00    -0.016 A 
ATOM      8  C8  IND d   1      -0.502   0.122  -0.499  0.00  0.00    -0.047 A 
ATOM      9  C9  IND d   1      -0.103  -0.612   0.626  0.00  0.00    -0.096 A 
ATOM     10  HN1 IND d   1      -0.237  -0.353  -2.429  0.00  0.00     0.298 HD
ENDROOT
TORSDOF 0
ENDMDL
