MODEL 1
REMARK minimizedAffinity -3.78645563
REMARK minimizedRMSD -1
REMARK  0 active torsions:
REMARK  status: ('A' for Active; 'I' for Inactive)
ROOT
ATOM      1  N1  IND d   1      -1.170   2.646   0.172  0.00  0.00    -0.196 N 
ATOM      2  C2  IND d   1      -1.753   2.699   1.407  0.00  0.00     0.054 A 
ATOM      3  C3  IND d   1      -1.499   1.564   2.096  0.00  0.00    -0.031 A 
ATOM      4  C4  IND d   1      -0.064  -0.467   1.430  0.00  0.00     0.051 A 
ATOM      5  C5  IND d   1       0.642  -0.991   0.384  0.00  0.00    -0.031 A 
ATOM      6  C6  IND d   1       0.785  -0.314  -0.810  0.00  0.00     0.015 A 
ATOM      7  C7  IND d   1       0.235   0.922  -0.999  0.00  0.00    -0.016 A 
ATOM      8  C8  IND d   1      -0.489   1.454   0.059  0.00  0.00    -0.047 A 
ATOM      9  C9  IND d   1      -0.673   0.753   1.258  0.00  0.00    -0.096 A 
ATOM     10  HN1 IND d   1      -1.220   3.255  -0.434  0.00  0.00     0.298 HD
ENDROOT
TORSDOF 0
ENDMDL
