MODEL 1
REMARK minimizedAffinity -5.20284843
REMARK minimizedRMSD -1
REMARK  0 active torsions:
REMARK  status: ('A' for Active; 'I' for Inactive)
ROOT
ATOM      1  N1  IND d   1       1.341   0.883  -0.942  0.00  0.00    -0.196 N 
ATOM      2  C2  IND d   1       1.233   2.100  -1.555  0.00  0.00     0.054 A 
ATOM      3  C3  IND d   1       0.199   2.799  -1.034  0.00  0.00    -0.031 A 
ATOM      4  C4  IND d   1      -1.384   2.179   0.899  0.00  0.00     0.051 A 
ATOM      5  C5  IND d   1      -1.700   1.155   1.747  0.00  0.00    -0.031 A 
ATOM      6  C6  IND d   1      -1.002  -0.035   1.744  0.00  0.00     0.015 A 
ATOM      7  C7  IND d   1       0.050  -0.242   0.897  0.00  0.00    -0.016 A 
ATOM      8  C8  IND d   1       0.368   0.793   0.029  0.00  0.00    -0.047 A 
ATOM      9  C9  IND d   1      -0.363   1.987  -0.001  0.00  0.00    -0.096 A 
ATOM     10  HN1 IND d   1       1.919   0.276  -1.131  0.00  0.00     0.298 HD
ENDROOT
TORSDOF 0
ENDMDL
