MODEL 1
REMARK minimizedAffinity -4.67571259
REMARK minimizedRMSD -1
REMARK  0 active torsions:
REMARK  status: ('A' for Active; 'I' for Inactive)
ROOT
ATOM      1  N1  IND d   1      -1.489   2.679   0.363  0.00  0.00    -0.196 N 
ATOM      2  C2  IND d   1      -1.969   2.641   1.643  0.00  0.00     0.054 A 
ATOM      3  C3  IND d   1      -1.457   1.579   2.305  0.00  0.00    -0.031 A 
ATOM      4  C4  IND d   1       0.263  -0.167   1.517  0.00  0.00     0.051 A 
ATOM      5  C5  IND d   1       0.963  -0.567   0.414  0.00  0.00    -0.031 A 
ATOM      6  C6  IND d   1       0.883   0.110  -0.786  0.00  0.00     0.015 A 
ATOM      7  C7  IND d   1       0.104   1.224  -0.925  0.00  0.00    -0.016 A 
ATOM      8  C8  IND d   1      -0.615   1.629   0.191  0.00  0.00    -0.047 A 
ATOM      9  C9  IND d   1      -0.570   0.921   1.399  0.00  0.00    -0.096 A 
ATOM     10  HN1 IND d   1      -1.698   3.261  -0.234  0.00  0.00     0.298 HD
ENDROOT
TORSDOF 0
ENDMDL
