MODEL 1
REMARK minimizedAffinity -5.34259701
REMARK minimizedRMSD -1
REMARK  0 active torsions:
REMARK  status: ('A' for Active; 'I' for Inactive)
ROOT
ATOM      1  N1  IND d   1       0.930   0.343  -0.769  0.00  0.00    -0.196 N 
ATOM      2  C2  IND d   1       1.559  -0.647  -0.068  0.00  0.00     0.054 A 
ATOM      3  C3  IND d   1       1.079  -0.709   1.194  0.00  0.00    -0.031 A 
ATOM      4  C4  IND d   1      -0.812   0.650   2.292  0.00  0.00     0.051 A 
ATOM      5  C5  IND d   1      -1.662   1.695   2.060  0.00  0.00    -0.031 A 
ATOM      6  C6  IND d   1      -1.695   2.354   0.848  0.00  0.00     0.015 A 
ATOM      7  C7  IND d   1      -0.882   1.984  -0.186  0.00  0.00    -0.016 A 
ATOM      8  C8  IND d   1      -0.013   0.928   0.048  0.00  0.00    -0.047 A 
ATOM      9  C9  IND d   1       0.054   0.283   1.290  0.00  0.00    -0.096 A 
ATOM     10  HN1 IND d   1       1.094   0.563  -1.584  0.00  0.00     0.298 HD
ENDROOT
TORSDOF 0
ENDMDL
