MODEL 1
REMARK minimizedAffinity -2.83744264
REMARK minimizedRMSD -1
REMARK  0 active torsions:
REMARK  status: ('A' for Active; 'I' for Inactive)
ROOT
ATOM      1  N1  IND d   1       0.741   1.175  -1.056  0.00  0.00    -0.196 N 
ATOM      2  C2  IND d   1       1.426   0.023  -0.787  0.00  0.00     0.054 A 
ATOM      3  C3  IND d   1       0.924  -0.575   0.317  0.00  0.00    -0.031 A 
ATOM      4  C4  IND d   1      -1.082   0.108   1.778  0.00  0.00     0.051 A 
ATOM      5  C5  IND d   1      -2.000   1.106   1.949  0.00  0.00    -0.031 A 
ATOM      6  C6  IND d   1      -2.054   2.198   1.108  0.00  0.00     0.015 A 
ATOM      7  C7  IND d   1      -1.196   2.329   0.054  0.00  0.00    -0.016 A 
ATOM      8  C8  IND d   1      -0.258   1.321  -0.119  0.00  0.00    -0.047 A 
ATOM      9  C9  IND d   1      -0.170   0.231   0.757  0.00  0.00    -0.096 A 
ATOM     10  HN1 IND d   1       0.906   1.717  -1.703  0.00  0.00     0.298 HD
ENDROOT
TORSDOF 0
ENDMDL
