MODEL 1
REMARK minimizedAffinity -1.58392942
REMARK minimizedRMSD -1
REMARK  0 active torsions:
REMARK  status: ('A' for Active; 'I' for Inactive)
ROOT
ATOM      1  N1  IND d   1       1.273   0.944  -1.481  0.00  0.00    -0.196 N 
ATOM      2  C2  IND d   1       0.923   2.247  -1.703  0.00  0.00     0.054 A 
ATOM      3  C3  IND d   1       0.068   2.674  -0.747  0.00  0.00    -0.031 A 
ATOM      4  C4  IND d   1      -0.812   1.436   1.332  0.00  0.00     0.051 A 
ATOM      5  C5  IND d   1      -0.801   0.214   1.942  0.00  0.00    -0.031 A 
ATOM      6  C6  IND d   1      -0.082  -0.849   1.434  0.00  0.00     0.015 A 
ATOM      7  C7  IND d   1       0.665  -0.724   0.297  0.00  0.00    -0.016 A 
ATOM      8  C8  IND d   1       0.652   0.514  -0.329  0.00  0.00    -0.047 A 
ATOM      9  C9  IND d   1      -0.110   1.584   0.159  0.00  0.00    -0.096 A 
ATOM     10  HN1 IND d   1       1.793   0.473  -1.978  0.00  0.00     0.298 HD
ENDROOT
TORSDOF 0
ENDMDL
