MODEL 1
REMARK minimizedAffinity -4.36636686
REMARK minimizedRMSD -1
REMARK  0 active torsions:
REMARK  status: ('A' for Active; 'I' for Inactive)
ROOT
ATOM      1  C   UNL d   1      -1.082   1.650   2.440  0.00  0.00     0.078 C 
ATOM      2  C1  UNL d   1      -0.673   0.882   1.218  0.00  0.00    -0.077 A 
ATOM      3  C2  UNL d   1       0.655   0.480   1.030  0.00  0.00    -0.001 A 
ATOM      4  C3  UNL d   1       1.022  -0.226  -0.117  0.00  0.00     0.003 A 
ATOM      5  C4  UNL d   1       0.068  -0.535  -1.084  0.00  0.00    -0.005 A 
ATOM      6  C5  UNL d   1      -1.255  -0.137  -0.906  0.00  0.00     0.003 A 
ATOM      7  C6  UNL d   1      -1.625   0.569   0.240  0.00  0.00    -0.001 A 
ENDROOT
TORSDOF 0
ENDMDL
