MODEL 1
REMARK minimizedAffinity -4.7883997
REMARK minimizedRMSD -1
REMARK  0 active torsions:
REMARK  status: ('A' for Active; 'I' for Inactive)
ROOT
ATOM      1  C   UNL d   1      -1.005   0.182  -0.396  0.00  0.00     0.078 C 
ATOM      2  C1  UNL d   1      -0.242   0.079   0.891  0.00  0.00    -0.077 A 
ATOM      3  C2  UNL d   1      -0.805   0.506   2.099  0.00  0.00    -0.001 A 
ATOM      4  C3  UNL d   1      -0.079   0.412   3.288  0.00  0.00     0.003 A 
ATOM      5  C4  UNL d   1       1.214  -0.106   3.279  0.00  0.00    -0.005 A 
ATOM      6  C5  UNL d   1       1.783  -0.532   2.081  0.00  0.00     0.003 A 
ATOM      7  C6  UNL d   1       1.059  -0.439   0.891  0.00  0.00    -0.001 A 
ENDROOT
TORSDOF 0
ENDMDL
