MODEL 1
REMARK minimizedAffinity -1.65646124
REMARK minimizedRMSD -1
REMARK  0 active torsions:
REMARK  status: ('A' for Active; 'I' for Inactive)
ROOT
ATOM      1  C   UNL d   1       2.352  -0.591   2.933  0.00  0.00     0.078 C 
ATOM      2  C1  UNL d   1       1.075  -0.230   2.236  0.00  0.00    -0.077 A 
ATOM      3  C2  UNL d   1      -0.085   0.066   2.963  0.00  0.00    -0.001 A 
ATOM      4  C3  UNL d   1      -1.270   0.391   2.300  0.00  0.00     0.003 A 
ATOM      5  C4  UNL d   1      -1.306   0.423   0.907  0.00  0.00    -0.005 A 
ATOM      6  C5  UNL d   1      -0.158   0.129   0.176  0.00  0.00     0.003 A 
ATOM      7  C6  UNL d   1       1.027  -0.197   0.836  0.00  0.00    -0.001 A 
ENDROOT
TORSDOF 0
ENDMDL
