MODEL 1
REMARK minimizedAffinity -2.50577307
REMARK minimizedRMSD -1
REMARK  0 active torsions:
REMARK  status: ('A' for Active; 'I' for Inactive)
ROOT
ATOM      1  C   UNL d   1       0.484  -1.389  -0.565  0.00  0.00     0.078 C 
ATOM      2  C1  UNL d   1       0.647  -0.721  -1.897  0.00  0.00    -0.077 A 
ATOM      3  C2  UNL d   1       1.716   0.150  -2.141  0.00  0.00    -0.001 A 
ATOM      4  C3  UNL d   1       1.850   0.773  -3.383  0.00  0.00     0.003 A 
ATOM      5  C4  UNL d   1       0.918   0.533  -4.390  0.00  0.00    -0.005 A 
ATOM      6  C5  UNL d   1      -0.151  -0.330  -4.156  0.00  0.00     0.003 A 
ATOM      7  C6  UNL d   1      -0.286  -0.954  -2.915  0.00  0.00    -0.001 A 
ENDROOT
TORSDOF 0
ENDMDL
