MODEL 1
REMARK minimizedAffinity -1.9694556
REMARK minimizedRMSD -1
REMARK  0 active torsions:
REMARK  status: ('A' for Active; 'I' for Inactive)
ROOT
ATOM      1  C   UNL d   1       0.369  -0.395  -0.747  0.00  0.00     0.078 C 
ATOM      2  C1  UNL d   1       0.177  -0.287   0.736  0.00  0.00    -0.077 A 
ATOM      3  C2  UNL d   1      -1.060   0.085   1.277  0.00  0.00    -0.001 A 
ATOM      4  C3  UNL d   1      -1.222   0.190   2.659  0.00  0.00     0.003 A 
ATOM      5  C4  UNL d   1      -0.151  -0.072   3.512  0.00  0.00    -0.005 A 
ATOM      6  C5  UNL d   1       1.084  -0.440   2.982  0.00  0.00     0.003 A 
ATOM      7  C6  UNL d   1       1.248  -0.546   1.600  0.00  0.00    -0.001 A 
ENDROOT
TORSDOF 0
ENDMDL
