MODEL 1
REMARK minimizedAffinity -5.84032679
REMARK minimizedRMSD -1
REMARK  0 active torsions:
REMARK  status: ('A' for Active; 'I' for Inactive)
ROOT
ATOM      1  C   UNL d   1       2.312  -0.849   2.357  0.00  0.00     0.078 C 
ATOM      2  C1  UNL d   1       0.993  -0.215   2.028  0.00  0.00    -0.077 A 
ATOM      3  C2  UNL d   1       0.573  -0.075   0.700  0.00  0.00    -0.001 A 
ATOM      4  C3  UNL d   1      -0.653   0.526   0.407  0.00  0.00     0.003 A 
ATOM      5  C4  UNL d   1      -1.467   0.992   1.437  0.00  0.00    -0.005 A 
ATOM      6  C5  UNL d   1      -1.056   0.858   2.762  0.00  0.00     0.003 A 
ATOM      7  C6  UNL d   1       0.169   0.258   3.057  0.00  0.00    -0.001 A 
ENDROOT
TORSDOF 0
ENDMDL
