MODEL 1
REMARK minimizedAffinity -5.2477684
REMARK minimizedRMSD -1
REMARK  0 active torsions:
REMARK  status: ('A' for Active; 'I' for Inactive)
ROOT
ATOM      1  C   UNL d   1      -0.244   1.229   3.561  0.00  0.00     0.078 C 
ATOM      2  C1  UNL d   1      -0.509   0.662   2.198  0.00  0.00    -0.077 A 
ATOM      3  C2  UNL d   1      -1.818   0.471   1.739  0.00  0.00    -0.001 A 
ATOM      4  C3  UNL d   1      -2.051  -0.067   0.472  0.00  0.00     0.003 A 
ATOM      5  C4  UNL d   1      -0.979  -0.420  -0.346  0.00  0.00    -0.005 A 
ATOM      6  C5  UNL d   1       0.327  -0.236   0.104  0.00  0.00     0.003 A 
ATOM      7  C6  UNL d   1       0.561   0.302   1.370  0.00  0.00    -0.001 A 
ENDROOT
TORSDOF 0
ENDMDL
