MODEL 1
REMARK minimizedAffinity -3.5118947
REMARK minimizedRMSD -1
REMARK  0 active torsions:
REMARK  status: ('A' for Active; 'I' for Inactive)
ROOT
ATOM      1  C   UNL d   1       0.029   0.990  -1.240  0.00  0.00     0.078 C 
ATOM      2  C1  UNL d   1      -0.304   0.675   0.188  0.00  0.00    -0.077 A 
ATOM      3  C2  UNL d   1      -1.603   0.311   0.562  0.00  0.00    -0.001 A 
ATOM      4  C3  UNL d   1      -1.900   0.030   1.897  0.00  0.00     0.003 A 
ATOM      5  C4  UNL d   1      -0.903   0.111   2.868  0.00  0.00    -0.005 A 
ATOM      6  C5  UNL d   1       0.392   0.474   2.505  0.00  0.00     0.003 A 
ATOM      7  C6  UNL d   1       0.691   0.756   1.171  0.00  0.00    -0.001 A 
ENDROOT
TORSDOF 0
ENDMDL
