MODEL 1
REMARK minimizedAffinity -4.94801617
REMARK minimizedRMSD -1
REMARK  0 active torsions:
REMARK  status: ('A' for Active; 'I' for Inactive)
ROOT
ATOM      1  C   UNL d   1      -0.519   1.508   2.650  0.00  0.00     0.078 C 
ATOM      2  C1  UNL d   1      -0.097   0.492   1.632  0.00  0.00    -0.077 A 
ATOM      3  C2  UNL d   1      -0.999   0.013   0.674  0.00  0.00    -0.001 A 
ATOM      4  C3  UNL d   1      -0.595  -0.940  -0.262  0.00  0.00     0.003 A 
ATOM      5  C4  UNL d   1       0.712  -1.424  -0.249  0.00  0.00    -0.005 A 
ATOM      6  C5  UNL d   1       1.616  -0.955   0.702  0.00  0.00     0.003 A 
ATOM      7  C6  UNL d   1       1.214  -0.002   1.638  0.00  0.00    -0.001 A 
ENDROOT
TORSDOF 0
ENDMDL
