MODEL 1
REMARK minimizedAffinity -4.515172
REMARK minimizedRMSD -1
REMARK  0 active torsions:
REMARK  status: ('A' for Active; 'I' for Inactive)
ROOT
ATOM      1  C   UNL d   1       0.409  -1.147  -1.241  0.00  0.00     0.078 C 
ATOM      2  C1  UNL d   1       0.255  -0.962   0.239  0.00  0.00    -0.077 A 
ATOM      3  C2  UNL d   1       1.315  -1.231   1.114  0.00  0.00    -0.001 A 
ATOM      4  C3  UNL d   1       1.153  -1.064   2.491  0.00  0.00     0.003 A 
ATOM      5  C4  UNL d   1      -0.067  -0.629   3.005  0.00  0.00    -0.005 A 
ATOM      6  C5  UNL d   1      -1.128  -0.362   2.142  0.00  0.00     0.003 A 
ATOM      7  C6  UNL d   1      -0.968  -0.528   0.765  0.00  0.00    -0.001 A 
ENDROOT
TORSDOF 0
ENDMDL
