MODEL 1
REMARK minimizedAffinity -4.45335007
REMARK minimizedRMSD -1
REMARK  3 active torsions:
REMARK  status: ('A' for Active; 'I' for Inactive)
REMARK    1  A    between atoms: C3'_2  and  C2'_3 
REMARK    2  A    between atoms: C2'_3  and  C1'_4 
REMARK    3  A    between atoms: C1'_4  and  C1_5 
ROOT
ATOM      1  C1  N4B d   1      -0.165  -0.242  -0.248  0.00  0.00    -0.075 A 
ATOM      2  C2  N4B d   1      -1.452  -0.389   0.312  0.00  0.00     0.002 A 
ATOM      3  C3  N4B d   1      -1.711   0.089   1.574  0.00  0.00     0.002 A 
ATOM      4  C4  N4B d   1      -0.696   0.697   2.297  0.00  0.00    -0.004 A 
ATOM      5  C5  N4B d   1       0.538   0.858   1.739  0.00  0.00     0.002 A 
ATOM      6  C6  N4B d   1       0.811   0.386   0.470  0.00  0.00     0.002 A 
ENDROOT
BRANCH   1   7
ATOM      7  C1' N4B d   1       0.189  -0.825  -1.590  0.00  0.00     0.057 C 
BRANCH   7   8
ATOM      8  C2' N4B d   1       0.867   0.247  -2.438  0.00  0.00     0.009 C 
BRANCH   8   9
ATOM      9  C3' N4B d   1       0.947  -0.153  -3.901  0.00  0.00     0.004 C 
ATOM     10  C4' N4B d   1       0.493   0.935  -4.827  0.00  0.00     0.003 C 
ENDBRANCH   8   9
ENDBRANCH   7   8
ENDBRANCH   1   7
TORSDOF 3
ENDMDL
