MODEL 1
REMARK minimizedAffinity -6.01658058
REMARK minimizedRMSD -1
REMARK  3 active torsions:
REMARK  status: ('A' for Active; 'I' for Inactive)
REMARK    1  A    between atoms: C3'_2  and  C2'_3 
REMARK    2  A    between atoms: C2'_3  and  C1'_4 
REMARK    3  A    between atoms: C1'_4  and  C1_5 
ROOT
ATOM      1  C1  N4B d   1       0.200   0.106   0.150  0.00  0.00    -0.075 A 
ATOM      2  C2  N4B d   1       0.712   0.587   1.375  0.00  0.00     0.002 A 
ATOM      3  C3  N4B d   1      -0.104   1.281   2.234  0.00  0.00     0.002 A 
ATOM      4  C4  N4B d   1      -1.424   1.521   1.883  0.00  0.00    -0.004 A 
ATOM      5  C5  N4B d   1      -1.918   1.031   0.709  0.00  0.00     0.002 A 
ATOM      6  C6  N4B d   1      -1.110   0.328  -0.162  0.00  0.00     0.002 A 
ENDROOT
BRANCH   1   7
ATOM      7  C1' N4B d   1       1.076  -0.584  -0.860  0.00  0.00     0.057 C 
BRANCH   7   8
ATOM      8  C2' N4B d   1       1.592   0.446  -1.861  0.00  0.00     0.009 C 
BRANCH   8   9
ATOM      9  C3' N4B d   1       1.273   0.055  -3.294  0.00  0.00     0.004 C 
ATOM     10  C4' N4B d   1      -0.044   0.598  -3.764  0.00  0.00     0.003 C 
ENDBRANCH   8   9
ENDBRANCH   7   8
ENDBRANCH   1   7
TORSDOF 3
ENDMDL
