MODEL 1
REMARK minimizedAffinity 0.624132037
REMARK minimizedRMSD -1
REMARK  1 active torsions:
REMARK  status: ('A' for Active; 'I' for Inactive)
REMARK    1  A    between atoms: C3_4  and  O_7 
ROOT
ATOM      1  C   UNL d   1       3.664  -0.176  -1.923  0.00  0.00    -0.033 A 
ATOM      2  C1  UNL d   1       2.905   0.945  -1.580  0.00  0.00     0.039 A 
ATOM      3  C2  UNL d   1       1.794   0.809  -0.745  0.00  0.00    -0.080 A 
ATOM      4  C3  UNL d   1       1.454  -0.450  -0.260  0.00  0.00     0.150 A 
ATOM      5  C4  UNL d   1       2.207  -1.570  -0.595  0.00  0.00    -0.007 A 
ATOM      6  C5  UNL d   1       3.316  -1.433  -1.429  0.00  0.00     0.039 A 
ENDROOT
BRANCH   4   7
ATOM      7  O   UNL d   1       0.375  -0.633   0.553  0.00  0.00    -0.526 OA
ATOM      8  H5  UNL d   1      -0.067   0.224   0.676  0.00  0.00     0.418 HD
ENDBRANCH   4   7
TORSDOF 1
ENDMDL
