MODEL 1
REMARK minimizedAffinity -1.397452
REMARK minimizedRMSD -1
REMARK  1 active torsions:
REMARK  status: ('A' for Active; 'I' for Inactive)
REMARK    1  A    between atoms: C3_4  and  O_7 
ROOT
ATOM      1  C   UNL d   1       1.348  -0.411  -0.004  0.00  0.00    -0.033 A 
ATOM      2  C1  UNL d   1       1.947  -1.652  -0.230  0.00  0.00     0.039 A 
ATOM      3  C2  UNL d   1       3.164  -1.728  -0.910  0.00  0.00    -0.080 A 
ATOM      4  C3  UNL d   1       3.771  -0.558  -1.358  0.00  0.00     0.150 A 
ATOM      5  C4  UNL d   1       3.182   0.682  -1.133  0.00  0.00    -0.007 A 
ATOM      6  C5  UNL d   1       1.966   0.756  -0.454  0.00  0.00     0.039 A 
ENDROOT
BRANCH   4   7
ATOM      7  O   UNL d   1       4.957  -0.583  -2.030  0.00  0.00    -0.526 OA
ATOM      8  H5  UNL d   1       5.230  -1.509  -2.137  0.00  0.00     0.418 HD
ENDBRANCH   4   7
TORSDOF 1
ENDMDL
