MODEL 1
REMARK minimizedAffinity -1.25787354
REMARK minimizedRMSD -1
REMARK  1 active torsions:
REMARK  status: ('A' for Active; 'I' for Inactive)
REMARK    1  A    between atoms: C3_4  and  O_7 
ROOT
ATOM      1  C   UNL d   1       2.006  -0.285  -0.239  0.00  0.00    -0.033 A 
ATOM      2  C1  UNL d   1       1.923   0.717   0.731  0.00  0.00     0.039 A 
ATOM      3  C2  UNL d   1       0.954   0.641   1.734  0.00  0.00    -0.080 A 
ATOM      4  C3  UNL d   1       0.077  -0.440   1.757  0.00  0.00     0.150 A 
ATOM      5  C4  UNL d   1       0.157  -1.443   0.796  0.00  0.00    -0.007 A 
ATOM      6  C5  UNL d   1       1.124  -1.365  -0.205  0.00  0.00     0.039 A 
ENDROOT
BRANCH   4   7
ATOM      7  O   UNL d   1      -0.888  -0.555   2.713  0.00  0.00    -0.526 OA
ATOM      8  H5  UNL d   1      -0.842   0.224   3.291  0.00  0.00     0.418 HD
ENDBRANCH   4   7
TORSDOF 1
ENDMDL
