MODEL 1
REMARK minimizedAffinity -2.13262296
REMARK minimizedRMSD -1
REMARK  1 active torsions:
REMARK  status: ('A' for Active; 'I' for Inactive)
REMARK    1  A    between atoms: C3_4  and  O_7 
ROOT
ATOM      1  C   UNL d   1       3.221  -0.351  -1.629  0.00  0.00    -0.033 A 
ATOM      2  C1  UNL d   1       3.091  -1.568  -0.957  0.00  0.00     0.039 A 
ATOM      3  C2  UNL d   1       2.108  -1.726   0.021  0.00  0.00    -0.080 A 
ATOM      4  C3  UNL d   1       1.261  -0.661   0.317  0.00  0.00     0.150 A 
ATOM      5  C4  UNL d   1       1.383   0.553  -0.351  0.00  0.00    -0.007 A 
ATOM      6  C5  UNL d   1       2.366   0.709  -1.327  0.00  0.00     0.039 A 
ENDROOT
BRANCH   4   7
ATOM      7  O   UNL d   1       0.290  -0.766   1.268  0.00  0.00    -0.526 OA
ATOM      8  H5  UNL d   1       0.343  -1.651   1.666  0.00  0.00     0.418 HD
ENDBRANCH   4   7
TORSDOF 1
ENDMDL
