MODEL 1
REMARK minimizedAffinity -0.913711071
REMARK minimizedRMSD -1
REMARK  1 active torsions:
REMARK  status: ('A' for Active; 'I' for Inactive)
REMARK    1  A    between atoms: C3_4  and  O_7 
ROOT
ATOM      1  C   UNL d   1       0.724   0.208   0.992  0.00  0.00    -0.033 A 
ATOM      2  C1  UNL d   1       1.715   1.067   0.513  0.00  0.00     0.039 A 
ATOM      3  C2  UNL d   1       2.732   0.575  -0.307  0.00  0.00    -0.080 A 
ATOM      4  C3  UNL d   1       2.746  -0.777  -0.641  0.00  0.00     0.150 A 
ATOM      5  C4  UNL d   1       1.760  -1.638  -0.171  0.00  0.00    -0.007 A 
ATOM      6  C5  UNL d   1       0.746  -1.144   0.649  0.00  0.00     0.039 A 
ENDROOT
BRANCH   4   7
ATOM      7  O   UNL d   1       3.721  -1.305  -1.434  0.00  0.00    -0.526 OA
ATOM      8  H5  UNL d   1       4.350  -0.599  -1.660  0.00  0.00     0.418 HD
ENDBRANCH   4   7
TORSDOF 1
ENDMDL
