MODEL 1
REMARK minimizedAffinity -1.59894359
REMARK minimizedRMSD -1
REMARK  1 active torsions:
REMARK  status: ('A' for Active; 'I' for Inactive)
REMARK    1  A    between atoms: C3_4  and  O_7 
ROOT
ATOM      1  C   UNL d   1       1.229  -0.367  -0.436  0.00  0.00    -0.033 A 
ATOM      2  C1  UNL d   1       1.782   0.885  -0.710  0.00  0.00     0.039 A 
ATOM      3  C2  UNL d   1       2.982   0.981  -1.418  0.00  0.00    -0.080 A 
ATOM      4  C3  UNL d   1       3.617  -0.182  -1.845  0.00  0.00     0.150 A 
ATOM      5  C4  UNL d   1       3.070  -1.433  -1.579  0.00  0.00    -0.007 A 
ATOM      6  C5  UNL d   1       1.872  -1.526  -0.871  0.00  0.00     0.039 A 
ENDROOT
BRANCH   4   7
ATOM      7  O   UNL d   1       4.792  -0.139  -2.535  0.00  0.00    -0.526 OA
ATOM      8  H5  UNL d   1       5.065   0.790  -2.621  0.00  0.00     0.418 HD
ENDBRANCH   4   7
TORSDOF 1
ENDMDL
