MODEL 1
REMARK minimizedAffinity -2.08734822
REMARK minimizedRMSD -1
REMARK  1 active torsions:
REMARK  status: ('A' for Active; 'I' for Inactive)
REMARK    1  A    between atoms: C3_4  and  O_7 
ROOT
ATOM      1  C   UNL d   1       0.583   0.479   0.476  0.00  0.00    -0.033 A 
ATOM      2  C1  UNL d   1       0.933  -0.559   1.342  0.00  0.00     0.039 A 
ATOM      3  C2  UNL d   1       1.925  -1.470   0.978  0.00  0.00    -0.080 A 
ATOM      4  C3  UNL d   1       2.561  -1.333  -0.253  0.00  0.00     0.150 A 
ATOM      5  C4  UNL d   1       2.220  -0.299  -1.119  0.00  0.00    -0.007 A 
ATOM      6  C5  UNL d   1       1.228   0.610  -0.754  0.00  0.00     0.039 A 
ENDROOT
BRANCH   4   7
ATOM      7  O   UNL d   1       3.532  -2.201  -0.655  0.00  0.00    -0.526 OA
ATOM      8  H5  UNL d   1       3.642  -2.879   0.032  0.00  0.00     0.418 HD
ENDBRANCH   4   7
TORSDOF 1
ENDMDL
