MODEL 1
REMARK minimizedAffinity -3.29023385
REMARK minimizedRMSD -1
REMARK  1 active torsions:
REMARK  status: ('A' for Active; 'I' for Inactive)
REMARK    1  A    between atoms: C3_4  and  O_7 
ROOT
ATOM      1  C   UNL d   1       1.242  -0.348   0.703  0.00  0.00    -0.033 A 
ATOM      2  C1  UNL d   1       1.650  -1.552   0.127  0.00  0.00     0.039 A 
ATOM      3  C2  UNL d   1       2.581  -1.550  -0.914  0.00  0.00    -0.080 A 
ATOM      4  C3  UNL d   1       3.095  -0.339  -1.368  0.00  0.00     0.150 A 
ATOM      5  C4  UNL d   1       2.696   0.865  -0.796  0.00  0.00    -0.007 A 
ATOM      6  C5  UNL d   1       1.766   0.861   0.242  0.00  0.00     0.039 A 
ENDROOT
BRANCH   4   7
ATOM      7  O   UNL d   1       4.002  -0.286  -2.385  0.00  0.00    -0.526 OA
ATOM      8  H5  UNL d   1       4.163  -1.191  -2.701  0.00  0.00     0.418 HD
ENDBRANCH   4   7
TORSDOF 1
ENDMDL
