MODEL 1
REMARK minimizedAffinity 0.184692249
REMARK minimizedRMSD -1
REMARK  1 active torsions:
REMARK  status: ('A' for Active; 'I' for Inactive)
REMARK    1  A    between atoms: C3_4  and  O_7 
ROOT
ATOM      1  C   UNL d   1       0.177  -1.746   1.850  0.00  0.00    -0.033 A 
ATOM      2  C1  UNL d   1       1.367  -1.835   1.125  0.00  0.00     0.039 A 
ATOM      3  C2  UNL d   1       1.880  -0.707   0.481  0.00  0.00    -0.080 A 
ATOM      4  C3  UNL d   1       1.196   0.502   0.572  0.00  0.00     0.150 A 
ATOM      5  C4  UNL d   1       0.012   0.599   1.296  0.00  0.00    -0.007 A 
ATOM      6  C5  UNL d   1      -0.500  -0.529   1.937  0.00  0.00     0.039 A 
ENDROOT
BRANCH   4   7
ATOM      7  O   UNL d   1       1.655   1.629  -0.043  0.00  0.00    -0.526 OA
ATOM      8  H5  UNL d   1       2.466   1.405  -0.530  0.00  0.00     0.418 HD
ENDBRANCH   4   7
TORSDOF 1
ENDMDL
