MODEL 1
REMARK minimizedAffinity -1.15031874
REMARK minimizedRMSD -1
REMARK  1 active torsions:
REMARK  status: ('A' for Active; 'I' for Inactive)
REMARK    1  A    between atoms: C3_4  and  O_7 
ROOT
ATOM      1  C   UNL d   1       0.542  -0.021   1.047  0.00  0.00    -0.033 A 
ATOM      2  C1  UNL d   1       0.772  -1.392   1.175  0.00  0.00     0.039 A 
ATOM      3  C2  UNL d   1       1.863  -1.981   0.533  0.00  0.00    -0.080 A 
ATOM      4  C3  UNL d   1       2.714  -1.189  -0.233  0.00  0.00     0.150 A 
ATOM      5  C4  UNL d   1       2.493   0.178  -0.362  0.00  0.00    -0.007 A 
ATOM      6  C5  UNL d   1       1.403   0.765   0.280  0.00  0.00     0.039 A 
ENDROOT
BRANCH   4   7
ATOM      7  O   UNL d   1       3.789  -1.720  -0.883  0.00  0.00    -0.526 OA
ATOM      8  H5  UNL d   1       3.800  -2.679  -0.726  0.00  0.00     0.418 HD
ENDBRANCH   4   7
TORSDOF 1
ENDMDL
