MODEL 1
REMARK minimizedAffinity -1.55515528
REMARK minimizedRMSD -1
REMARK  1 active torsions:
REMARK  status: ('A' for Active; 'I' for Inactive)
REMARK    1  A    between atoms: C3_4  and  O_7 
ROOT
ATOM      1  C   UNL d   1       2.604  -1.018  -0.065  0.00  0.00    -0.033 A 
ATOM      2  C1  UNL d   1       2.228   0.250   0.383  0.00  0.00     0.039 A 
ATOM      3  C2  UNL d   1       1.038   0.417   1.094  0.00  0.00    -0.080 A 
ATOM      4  C3  UNL d   1       0.235  -0.690   1.352  0.00  0.00     0.150 A 
ATOM      5  C4  UNL d   1       0.605  -1.957   0.912  0.00  0.00    -0.007 A 
ATOM      6  C5  UNL d   1       1.793  -2.122   0.201  0.00  0.00     0.039 A 
ENDROOT
BRANCH   4   7
ATOM      7  O   UNL d   1      -0.938  -0.576   2.038  0.00  0.00    -0.526 OA
ATOM      8  H5  UNL d   1      -1.078   0.361   2.253  0.00  0.00     0.418 HD
ENDBRANCH   4   7
TORSDOF 1
ENDMDL
