MODEL 1
REMARK minimizedAffinity 0.910485387
REMARK minimizedRMSD -1
REMARK  1 active torsions:
REMARK  status: ('A' for Active; 'I' for Inactive)
REMARK    1  A    between atoms: C3_4  and  O_7 
ROOT
ATOM      1  C   UNL d   1       2.280  -0.343   0.276  0.00  0.00    -0.033 A 
ATOM      2  C1  UNL d   1       1.815   0.635   1.158  0.00  0.00     0.039 A 
ATOM      3  C2  UNL d   1       0.600   0.458   1.821  0.00  0.00    -0.080 A 
ATOM      4  C3  UNL d   1      -0.140  -0.699   1.595  0.00  0.00     0.150 A 
ATOM      5  C4  UNL d   1       0.318  -1.679   0.720  0.00  0.00    -0.007 A 
ATOM      6  C5  UNL d   1       1.532  -1.500   0.058  0.00  0.00     0.039 A 
ENDROOT
BRANCH   4   7
ATOM      7  O   UNL d   1      -1.335  -0.914   2.215  0.00  0.00    -0.526 OA
ATOM      8  H5  UNL d   1      -1.538  -0.141   2.768  0.00  0.00     0.418 HD
ENDBRANCH   4   7
TORSDOF 1
ENDMDL
