MODEL 1
REMARK minimizedAffinity 0.268850744
REMARK minimizedRMSD -1
REMARK  1 active torsions:
REMARK  status: ('A' for Active; 'I' for Inactive)
REMARK    1  A    between atoms: C3_4  and  O_7 
ROOT
ATOM      1  C   UNL d   1       2.423  -1.815  -0.738  0.00  0.00    -0.033 A 
ATOM      2  C1  UNL d   1       3.400  -1.071  -1.402  0.00  0.00     0.039 A 
ATOM      3  C2  UNL d   1       3.347   0.324  -1.390  0.00  0.00    -0.080 A 
ATOM      4  C3  UNL d   1       2.313   0.963  -0.711  0.00  0.00     0.150 A 
ATOM      5  C4  UNL d   1       1.339   0.228  -0.043  0.00  0.00    -0.007 A 
ATOM      6  C5  UNL d   1       1.393  -1.165  -0.057  0.00  0.00     0.039 A 
ENDROOT
BRANCH   4   7
ATOM      7  O   UNL d   1       2.217   2.322  -0.675  0.00  0.00    -0.526 OA
ATOM      8  H5  UNL d   1       2.942   2.696  -1.203  0.00  0.00     0.418 HD
ENDBRANCH   4   7
TORSDOF 1
ENDMDL
