MODEL 1
REMARK minimizedAffinity -4.35204744
REMARK minimizedRMSD -1
REMARK  1 active torsions:
REMARK  status: ('A' for Active; 'I' for Inactive)
REMARK    1  A    between atoms: C3_4  and  O_7 
ROOT
ATOM      1  C   UNL d   1       1.371  -0.240   0.036  0.00  0.00    -0.033 A 
ATOM      2  C1  UNL d   1       2.075  -1.398  -0.302  0.00  0.00     0.039 A 
ATOM      3  C2  UNL d   1       3.136  -1.333  -1.206  0.00  0.00    -0.080 A 
ATOM      4  C3  UNL d   1       3.485  -0.106  -1.764  0.00  0.00     0.150 A 
ATOM      5  C4  UNL d   1       2.791   1.052  -1.429  0.00  0.00    -0.007 A 
ATOM      6  C5  UNL d   1       1.730   0.985  -0.526  0.00  0.00     0.039 A 
ENDROOT
BRANCH   4   7
ATOM      7  O   UNL d   1       4.510   0.007  -2.655  0.00  0.00    -0.526 OA
ATOM      8  H5  UNL d   1       4.879  -0.879  -2.814  0.00  0.00     0.418 HD
ENDBRANCH   4   7
TORSDOF 1
ENDMDL
