MODEL 1
REMARK minimizedAffinity 12.1651468
REMARK minimizedRMSD -1
REMARK  1 active torsions:
REMARK  status: ('A' for Active; 'I' for Inactive)
REMARK    1  A    between atoms: C1_2  and  C2_3 
ROOT
ATOM      1  C2  UNL d   1       0.910   3.752  -0.309  0.00  0.00    -0.073 A 
ATOM      2  C3  UNL d   1       0.760   2.721  -1.243  0.00  0.00    -0.002 A 
ATOM      3  C4  UNL d   1      -0.290   1.809  -1.124  0.00  0.00     0.004 A 
ATOM      4  C5  UNL d   1      -1.203   1.922  -0.076  0.00  0.00    -0.004 A 
ATOM      5  C6  UNL d   1      -1.077   2.953   0.861  0.00  0.00    -0.075 A 
ATOM      6  C7  UNL d   1      -2.050   3.088   1.995  0.00  0.00     0.076 C 
ATOM      7  C8  UNL d   1      -0.019   3.864   0.736  0.00  0.00     0.001 A 
ENDROOT
BRANCH   1   8
ATOM      8  C1  UNL d   1       2.038   4.743  -0.437  0.00  0.00     0.053 C 
ATOM      9  C   UNL d   1       1.611   6.000  -1.179  0.00  0.00     0.018 C 
ENDBRANCH   1   8
TORSDOF 1
ENDMDL
