MODEL 1
REMARK minimizedAffinity 2.99543881
REMARK minimizedRMSD -1
REMARK  1 active torsions:
REMARK  status: ('A' for Active; 'I' for Inactive)
REMARK    1  A    between atoms: C1_2  and  C2_3 
ROOT
ATOM      1  C2  UNL d   1      -0.244   1.984  -1.459  0.00  0.00    -0.073 A 
ATOM      2  C3  UNL d   1      -0.541   3.322  -1.742  0.00  0.00    -0.002 A 
ATOM      3  C4  UNL d   1      -0.818   4.217  -0.708  0.00  0.00     0.004 A 
ATOM      4  C5  UNL d   1      -0.793   3.787   0.618  0.00  0.00    -0.004 A 
ATOM      5  C6  UNL d   1      -0.487   2.457   0.923  0.00  0.00    -0.075 A 
ATOM      6  C7  UNL d   1      -0.459   1.977   2.344  0.00  0.00     0.076 C 
ATOM      7  C8  UNL d   1      -0.213   1.563  -0.121  0.00  0.00     0.001 A 
ENDROOT
BRANCH   1   8
ATOM      8  C1  UNL d   1       0.061   1.015  -2.571  0.00  0.00     0.053 C 
ATOM      9  C   UNL d   1      -0.875  -0.183  -2.557  0.00  0.00     0.018 C 
ENDBRANCH   1   8
TORSDOF 1
ENDMDL
