MODEL 1
REMARK minimizedAffinity 4.69605207
REMARK minimizedRMSD -1
REMARK  1 active torsions:
REMARK  status: ('A' for Active; 'I' for Inactive)
REMARK    1  A    between atoms: C1_2  and  C2_3 
ROOT
ATOM      1  C2  UNL d   1      -0.378   0.084   3.662  0.00  0.00    -0.073 A 
ATOM      2  C3  UNL d   1      -1.233   1.184   3.531  0.00  0.00    -0.002 A 
ATOM      3  C4  UNL d   1      -1.104   2.051   2.445  0.00  0.00     0.004 A 
ATOM      4  C5  UNL d   1      -0.125   1.824   1.478  0.00  0.00    -0.004 A 
ATOM      5  C6  UNL d   1       0.731   0.724   1.586  0.00  0.00    -0.075 A 
ATOM      6  C7  UNL d   1       1.791   0.467   0.555  0.00  0.00     0.076 C 
ATOM      7  C8  UNL d   1       0.597  -0.141   2.680  0.00  0.00     0.001 A 
ENDROOT
BRANCH   1   8
ATOM      8  C1  UNL d   1      -0.518  -0.859   4.829  0.00  0.00     0.053 C 
ATOM      9  C   UNL d   1       0.536  -1.954   4.807  0.00  0.00     0.018 C 
ENDBRANCH   1   8
TORSDOF 1
ENDMDL
