MODEL 1
REMARK minimizedAffinity 10.3292837
REMARK minimizedRMSD -1
REMARK  0 active torsions:
REMARK  status: ('A' for Active; 'I' for Inactive)
ROOT
ATOM      1  O1  BZF d   1       3.315  -1.498   4.095  0.00  0.00    -0.204 OA
ATOM      2  C2  BZF d   1       4.475  -2.160   3.741  0.00  0.00     0.174 A 
ATOM      3  C3  BZF d   1       4.338  -2.754   2.538  0.00  0.00    -0.012 A 
ATOM      4  C3A BZF d   1       3.042  -2.367   2.072  0.00  0.00    -0.107 A 
ATOM      5  C4  BZF d   1       2.337  -2.627   0.931  0.00  0.00     0.055 A 
ATOM      6  C5  BZF d   1       1.067  -2.158   0.818  0.00  0.00    -0.016 A 
ATOM      7  C6  BZF d   1       0.469  -1.432   1.827  0.00  0.00     0.022 A 
ATOM      8  C7  BZF d   1       1.129  -1.144   2.975  0.00  0.00     0.029 A 
ATOM      9  C7A BZF d   1       2.425  -1.588   3.078  0.00  0.00     0.058 A 
ENDROOT
TORSDOF 0
ENDMDL
