MODEL 1
REMARK minimizedAffinity 3.86385036
REMARK minimizedRMSD -1
REMARK  0 active torsions:
REMARK  status: ('A' for Active; 'I' for Inactive)
ROOT
ATOM      1  O1  BZF d   1       0.010   4.990  -3.929  0.00  0.00    -0.204 OA
ATOM      2  C2  BZF d   1       0.472   5.126  -5.224  0.00  0.00     0.174 A 
ATOM      3  C3  BZF d   1       0.025   4.118  -6.000  0.00  0.00    -0.012 A 
ATOM      4  C3A BZF d   1      -0.842   3.351  -5.158  0.00  0.00    -0.107 A 
ATOM      5  C4  BZF d   1      -1.599   2.232  -5.361  0.00  0.00     0.055 A 
ATOM      6  C5  BZF d   1      -2.274   1.693  -4.312  0.00  0.00    -0.016 A 
ATOM      7  C6  BZF d   1      -2.210   2.242  -3.048  0.00  0.00     0.022 A 
ATOM      8  C7  BZF d   1      -1.476   3.354  -2.799  0.00  0.00     0.029 A 
ATOM      9  C7A BZF d   1      -0.819   3.921  -3.864  0.00  0.00     0.058 A 
ENDROOT
TORSDOF 0
ENDMDL
