MODEL 1
REMARK minimizedAffinity 2.02631998
REMARK minimizedRMSD -1
REMARK  0 active torsions:
REMARK  status: ('A' for Active; 'I' for Inactive)
ROOT
ATOM      1  O1  BZF d   1       4.466  -4.772   0.617  0.00  0.00    -0.204 OA
ATOM      2  C2  BZF d   1       3.881  -5.999   0.370  0.00  0.00     0.174 A 
ATOM      3  C3  BZF d   1       2.550  -5.946   0.584  0.00  0.00    -0.012 A 
ATOM      4  C3A BZF d   1       2.274  -4.578   0.900  0.00  0.00    -0.107 A 
ATOM      5  C4  BZF d   1       1.129  -3.895   1.196  0.00  0.00     0.055 A 
ATOM      6  C5  BZF d   1       1.211  -2.580   1.529  0.00  0.00    -0.016 A 
ATOM      7  C6  BZF d   1       2.421  -1.919   1.581  0.00  0.00     0.022 A 
ATOM      8  C7  BZF d   1       3.583  -2.552   1.290  0.00  0.00     0.029 A 
ATOM      9  C7A BZF d   1       3.500  -3.873   0.921  0.00  0.00     0.058 A 
ENDROOT
TORSDOF 0
ENDMDL
