MODEL 1
REMARK minimizedAffinity 13.3565445
REMARK minimizedRMSD -1
REMARK  0 active torsions:
REMARK  status: ('A' for Active; 'I' for Inactive)
ROOT
ATOM      1  O1  BZF d   1      -2.668   2.755  -2.920  0.00  0.00    -0.204 OA
ATOM      2  C2  BZF d   1      -1.404   2.971  -3.435  0.00  0.00     0.174 A 
ATOM      3  C3  BZF d   1      -0.561   1.986  -3.064  0.00  0.00    -0.012 A 
ATOM      4  C3A BZF d   1      -1.369   1.051  -2.343  0.00  0.00    -0.107 A 
ATOM      5  C4  BZF d   1      -1.107  -0.144  -1.736  0.00  0.00     0.055 A 
ATOM      6  C5  BZF d   1      -2.102  -0.771  -1.055  0.00  0.00    -0.016 A 
ATOM      7  C6  BZF d   1      -3.367  -0.230  -0.957  0.00  0.00     0.022 A 
ATOM      8  C7  BZF d   1      -3.676   0.950  -1.547  0.00  0.00     0.029 A 
ATOM      9  C7A BZF d   1      -2.682   1.570  -2.263  0.00  0.00     0.058 A 
ENDROOT
TORSDOF 0
ENDMDL
