MODEL 1
REMARK minimizedAffinity 6.69793415
REMARK minimizedRMSD -1
REMARK  0 active torsions:
REMARK  status: ('A' for Active; 'I' for Inactive)
ROOT
ATOM      1  O1  BZF d   1       0.743   5.233  -4.123  0.00  0.00    -0.204 OA
ATOM      2  C2  BZF d   1       1.597   5.297  -5.207  0.00  0.00     0.174 A 
ATOM      3  C3  BZF d   1       1.446   4.217  -6.000  0.00  0.00    -0.012 A 
ATOM      4  C3A BZF d   1       0.369   3.473  -5.421  0.00  0.00    -0.107 A 
ATOM      5  C4  BZF d   1      -0.258   2.309  -5.764  0.00  0.00     0.055 A 
ATOM      6  C5  BZF d   1      -1.226   1.816  -4.947  0.00  0.00    -0.016 A 
ATOM      7  C6  BZF d   1      -1.586   2.456  -3.780  0.00  0.00     0.022 A 
ATOM      8  C7  BZF d   1      -0.996   3.615  -3.401  0.00  0.00     0.029 A 
ATOM      9  C7A BZF d   1      -0.041   4.134  -4.241  0.00  0.00     0.058 A 
ENDROOT
TORSDOF 0
ENDMDL
