MODEL 1
REMARK minimizedAffinity 4.5055089
REMARK minimizedRMSD -1
REMARK  0 active torsions:
REMARK  status: ('A' for Active; 'I' for Inactive)
ROOT
ATOM      1  O1  BZF d   1       2.837  -2.048   1.887  0.00  0.00    -0.204 OA
ATOM      2  C2  BZF d   1       3.855  -2.892   1.486  0.00  0.00     0.174 A 
ATOM      3  C3  BZF d   1       3.626  -3.362   0.243  0.00  0.00    -0.012 A 
ATOM      4  C3A BZF d   1       2.433  -2.704  -0.194  0.00  0.00    -0.107 A 
ATOM      5  C4  BZF d   1       1.709  -2.743  -1.351  0.00  0.00     0.055 A 
ATOM      6  C5  BZF d   1       0.553  -2.034  -1.431  0.00  0.00    -0.016 A 
ATOM      7  C6  BZF d   1       0.089  -1.280  -0.373  0.00  0.00     0.022 A 
ATOM      8  C7  BZF d   1       0.775  -1.206   0.793  0.00  0.00     0.029 A 
ATOM      9  C7A BZF d   1       1.961  -1.895   0.865  0.00  0.00     0.058 A 
ENDROOT
TORSDOF 0
ENDMDL
