MODEL 1
REMARK minimizedAffinity 3.69273496
REMARK minimizedRMSD -1
REMARK  1 active torsions:
REMARK  status: ('A' for Active; 'I' for Inactive)
REMARK    1  A    between atoms: C1_2  and  C2_3 
ROOT
ATOM      1  C2  UNL d   1       4.765   1.829  -0.423  0.00  0.00    -0.077 A 
ATOM      2  C3  UNL d   1       5.381   1.508   0.795  0.00  0.00     0.002 A 
ATOM      3  C4  UNL d   1       5.997   2.502   1.558  0.00  0.00     0.002 A 
ATOM      4  C5  UNL d   1       5.998   3.822   1.115  0.00  0.00    -0.004 A 
ATOM      5  C6  UNL d   1       5.390   4.152  -0.095  0.00  0.00     0.002 A 
ATOM      6  C7  UNL d   1       4.776   3.160  -0.861  0.00  0.00     0.002 A 
ENDROOT
BRANCH   1   7
ATOM      7  C1  UNL d   1       4.058   0.768  -1.224  0.00  0.00     0.055 C 
ATOM      8  C   UNL d   1       3.010   0.048  -0.387  0.00  0.00     0.019 C 
ENDBRANCH   1   7
TORSDOF 1
ENDMDL
