MODEL 1
REMARK minimizedAffinity 13.9367065
REMARK minimizedRMSD -1
REMARK  1 active torsions:
REMARK  status: ('A' for Active; 'I' for Inactive)
REMARK    1  A    between atoms: C1_2  and  C2_3 
ROOT
ATOM      1  C2  UNL d   1       3.741  -0.399  -1.437  0.00  0.00    -0.077 A 
ATOM      2  C3  UNL d   1       3.550  -0.924  -0.151  0.00  0.00     0.002 A 
ATOM      3  C4  UNL d   1       3.013  -2.202   0.017  0.00  0.00     0.002 A 
ATOM      4  C5  UNL d   1       2.668  -2.966  -1.096  0.00  0.00    -0.004 A 
ATOM      5  C6  UNL d   1       2.853  -2.452  -2.378  0.00  0.00     0.002 A 
ATOM      6  C7  UNL d   1       3.388  -1.175  -2.549  0.00  0.00     0.002 A 
ENDROOT
BRANCH   1   7
ATOM      7  C1  UNL d   1       4.366   0.960  -1.622  0.00  0.00     0.055 C 
ATOM      8  C   UNL d   1       5.513   0.911  -2.620  0.00  0.00     0.019 C 
ENDBRANCH   1   7
TORSDOF 1
ENDMDL
