MODEL 1
REMARK minimizedAffinity 1.4784261
REMARK minimizedRMSD -1
REMARK  0 active torsions:
REMARK  status: ('A' for Active; 'I' for Inactive)
ROOT
ATOM      1  C   UNL d   1       2.471  -2.115   2.885  0.00  0.00     0.023 A 
ATOM      2  C1  UNL d   1       3.035  -3.389   2.957  0.00  0.00     0.003 A 
ATOM      3  C2  UNL d   1       2.486  -4.350   3.809  0.00  0.00     0.048 A 
ATOM      4  C3  UNL d   1       1.373  -4.030   4.586  0.00  0.00     0.023 A 
ATOM      5  C4  UNL d   1       0.805  -2.756   4.516  0.00  0.00     0.048 A 
ATOM      6  C5  UNL d   1       1.358  -1.799   3.663  0.00  0.00     0.003 A 
ATOM      7  I   UNL d   1       0.554  -5.457   5.855  0.00  0.00    -0.146 I 
ENDROOT
TORSDOF 0
ENDMDL
