MODEL 1
REMARK minimizedAffinity 1.9752413
REMARK minimizedRMSD -1
REMARK  0 active torsions:
REMARK  status: ('A' for Active; 'I' for Inactive)
ROOT
ATOM      1  C   UNL d   1       1.836  -3.968   3.484  0.00  0.00     0.023 A 
ATOM      2  C1  UNL d   1       2.793  -3.581   2.545  0.00  0.00     0.003 A 
ATOM      3  C2  UNL d   1       2.833  -2.261   2.092  0.00  0.00     0.048 A 
ATOM      4  C3  UNL d   1       1.915  -1.333   2.582  0.00  0.00     0.023 A 
ATOM      5  C4  UNL d   1       0.956  -1.716   3.521  0.00  0.00     0.048 A 
ATOM      6  C5  UNL d   1       0.919  -3.037   3.971  0.00  0.00     0.003 A 
ATOM      7  I   UNL d   1       1.974   0.633   1.909  0.00  0.00    -0.146 I 
ENDROOT
TORSDOF 0
ENDMDL
