MODEL 1
REMARK minimizedAffinity 6.78740549
REMARK minimizedRMSD -1
REMARK  0 active torsions:
REMARK  status: ('A' for Active; 'I' for Inactive)
ROOT
ATOM      1  C   UNL d   1       1.137  -2.986   3.651  0.00  0.00     0.023 A 
ATOM      2  C1  UNL d   1       1.803  -2.165   2.741  0.00  0.00     0.003 A 
ATOM      3  C2  UNL d   1       3.198  -2.160   2.694  0.00  0.00     0.048 A 
ATOM      4  C3  UNL d   1       3.922  -2.979   3.560  0.00  0.00     0.023 A 
ATOM      5  C4  UNL d   1       3.261  -3.802   4.472  0.00  0.00     0.048 A 
ATOM      6  C5  UNL d   1       1.865  -3.804   4.516  0.00  0.00     0.003 A 
ATOM      7  I   UNL d   1       5.999  -2.973   3.492  0.00  0.00    -0.146 I 
ENDROOT
TORSDOF 0
ENDMDL
