MODEL 1
REMARK minimizedAffinity 6.42973661
REMARK minimizedRMSD -1
REMARK  0 active torsions:
REMARK  status: ('A' for Active; 'I' for Inactive)
ROOT
ATOM      1  C   UNL d   1       2.269  -2.438   1.879  0.00  0.00     0.023 A 
ATOM      2  C1  UNL d   1       2.459  -3.819   1.886  0.00  0.00     0.003 A 
ATOM      3  C2  UNL d   1       1.930  -4.594   2.920  0.00  0.00     0.048 A 
ATOM      4  C3  UNL d   1       1.210  -3.980   3.945  0.00  0.00     0.023 A 
ATOM      5  C4  UNL d   1       1.016  -2.597   3.942  0.00  0.00     0.048 A 
ATOM      6  C5  UNL d   1       1.549  -1.827   2.906  0.00  0.00     0.003 A 
ATOM      7  I   UNL d   1       0.420  -5.130   5.485  0.00  0.00    -0.146 I 
ENDROOT
TORSDOF 0
ENDMDL
