MODEL 1
REMARK minimizedAffinity 2.62188411
REMARK minimizedRMSD -1
REMARK  0 active torsions:
REMARK  status: ('A' for Active; 'I' for Inactive)
ROOT
ATOM      1  C   UNL d   1       1.863  -3.635   4.509  0.00  0.00     0.023 A 
ATOM      2  C1  UNL d   1       2.129  -3.892   3.164  0.00  0.00     0.003 A 
ATOM      3  C2  UNL d   1       2.397  -2.836   2.290  0.00  0.00     0.048 A 
ATOM      4  C3  UNL d   1       2.399  -1.526   2.769  0.00  0.00     0.023 A 
ATOM      5  C4  UNL d   1       2.134  -1.265   4.114  0.00  0.00     0.048 A 
ATOM      6  C5  UNL d   1       1.866  -2.323   4.984  0.00  0.00     0.003 A 
ATOM      7  I   UNL d   1       2.798   0.047   1.470  0.00  0.00    -0.146 I 
ENDROOT
TORSDOF 0
ENDMDL
