MODEL 1
REMARK minimizedAffinity 4.97615957
REMARK minimizedRMSD -1
REMARK  0 active torsions:
REMARK  status: ('A' for Active; 'I' for Inactive)
ROOT
ATOM      1  C   UNL d   1       2.391  -4.401   4.674  0.00  0.00     0.023 A 
ATOM      2  C1  UNL d   1       3.136  -3.282   5.050  0.00  0.00     0.003 A 
ATOM      3  C2  UNL d   1       3.073  -2.112   4.290  0.00  0.00     0.048 A 
ATOM      4  C3  UNL d   1       2.263  -2.067   3.156  0.00  0.00     0.023 A 
ATOM      5  C4  UNL d   1       1.516  -3.183   2.776  0.00  0.00     0.048 A 
ATOM      6  C5  UNL d   1       1.582  -4.351   3.538  0.00  0.00     0.003 A 
ATOM      7  I   UNL d   1       2.167  -0.327   2.024  0.00  0.00    -0.146 I 
ENDROOT
TORSDOF 0
ENDMDL
