MODEL 1
REMARK minimizedAffinity 7.28773737
REMARK minimizedRMSD -1
REMARK  0 active torsions:
REMARK  status: ('A' for Active; 'I' for Inactive)
ROOT
ATOM      1  C   UNL d   1       1.220  -0.054   2.976  0.00  0.00     0.023 A 
ATOM      2  C1  UNL d   1       0.831  -1.119   3.789  0.00  0.00     0.003 A 
ATOM      3  C2  UNL d   1       1.254  -2.416   3.493  0.00  0.00     0.048 A 
ATOM      4  C3  UNL d   1       2.067  -2.641   2.383  0.00  0.00     0.023 A 
ATOM      5  C4  UNL d   1       2.460  -1.579   1.567  0.00  0.00     0.048 A 
ATOM      6  C5  UNL d   1       2.033  -0.284   1.867  0.00  0.00     0.003 A 
ATOM      7  I   UNL d   1       2.699  -4.571   1.940  0.00  0.00    -0.146 I 
ENDROOT
TORSDOF 0
ENDMDL
