MODEL 1
REMARK minimizedAffinity 2.88452172
REMARK minimizedRMSD -1
REMARK  0 active torsions:
REMARK  status: ('A' for Active; 'I' for Inactive)
ROOT
ATOM      1  C   UNL d   1       2.787  -5.901  -2.177  0.00  0.00     0.023 A 
ATOM      2  C1  UNL d   1       2.280  -5.970  -3.474  0.00  0.00     0.003 A 
ATOM      3  C2  UNL d   1       3.152  -5.998  -4.565  0.00  0.00     0.048 A 
ATOM      4  C3  UNL d   1       4.529  -5.958  -4.351  0.00  0.00     0.023 A 
ATOM      5  C4  UNL d   1       5.041  -5.891  -3.054  0.00  0.00     0.048 A 
ATOM      6  C5  UNL d   1       4.166  -5.862  -1.966  0.00  0.00     0.003 A 
ATOM      7  I   UNL d   1       5.828  -6.000  -5.972  0.00  0.00    -0.146 I 
ENDROOT
TORSDOF 0
ENDMDL
