MODEL 1
REMARK minimizedAffinity -1.73661101
REMARK minimizedRMSD -1
REMARK  0 active torsions:
REMARK  status: ('A' for Active; 'I' for Inactive)
ROOT
ATOM      1  C   UNL d   1      -1.318   0.661   1.170  0.00  0.00     0.020 A 
ATOM      2  C1  UNL d   1      -0.977   1.785   1.920  0.00  0.00     0.020 A 
ATOM      3  C2  UNL d   1      -1.566   1.996   3.169  0.00  0.00     0.034 A 
ATOM      4  C3  UNL d   1      -2.498   1.081   3.671  0.00  0.00     0.017 A 
ATOM      5  C4  UNL d   1      -2.840  -0.047   2.917  0.00  0.00     0.017 A 
ATOM      6  C5  UNL d   1      -2.248  -0.253   1.667  0.00  0.00     0.034 A 
ATOM      7 Cl   UNL d   1      -3.983  -1.220   3.470  0.00  0.00    -0.070 Cl
ATOM      8 Cl1  UNL d   1      -3.187   1.405   5.222  0.00  0.00    -0.070 Cl
ENDROOT
TORSDOF 0
ENDMDL
