MODEL 1
REMARK minimizedAffinity -0.336050689
REMARK minimizedRMSD -1
REMARK  0 active torsions:
REMARK  status: ('A' for Active; 'I' for Inactive)
ROOT
ATOM      1  C   UNL d   1       2.337  -1.516  -1.219  0.00  0.00     0.020 A 
ATOM      2  C1  UNL d   1       1.388  -2.054  -0.351  0.00  0.00     0.020 A 
ATOM      3  C2  UNL d   1       0.275  -1.298   0.022  0.00  0.00     0.034 A 
ATOM      4  C3  UNL d   1       0.107   0.000  -0.475  0.00  0.00     0.017 A 
ATOM      5  C4  UNL d   1       1.060   0.539  -1.346  0.00  0.00     0.017 A 
ATOM      6  C5  UNL d   1       2.173  -0.222  -1.716  0.00  0.00     0.034 A 
ATOM      7 Cl   UNL d   1       0.923   2.133  -2.000  0.00  0.00    -0.070 Cl
ATOM      8 Cl1  UNL d   1      -1.293   0.878   0.028  0.00  0.00    -0.070 Cl
ENDROOT
TORSDOF 0
ENDMDL
