MODEL 1
REMARK minimizedAffinity -1.69010293
REMARK minimizedRMSD -1
REMARK  0 active torsions:
REMARK  status: ('A' for Active; 'I' for Inactive)
ROOT
ATOM      1  C   UNL d   1       1.262   0.611  -1.693  0.00  0.00     0.020 A 
ATOM      2  C1  UNL d   1       1.997  -0.573  -1.737  0.00  0.00     0.020 A 
ATOM      3  C2  UNL d   1       1.721  -1.600  -0.832  0.00  0.00     0.034 A 
ATOM      4  C3  UNL d   1       0.708  -1.445   0.121  0.00  0.00     0.017 A 
ATOM      5  C4  UNL d   1      -0.030  -0.256   0.164  0.00  0.00     0.017 A 
ATOM      6  C5  UNL d   1       0.251   0.769  -0.744  0.00  0.00     0.034 A 
ATOM      7 Cl   UNL d   1      -1.295   0.008   1.311  0.00  0.00    -0.070 Cl
ATOM      8 Cl1  UNL d   1       0.420  -2.757   1.209  0.00  0.00    -0.070 Cl
ENDROOT
TORSDOF 0
ENDMDL
