MODEL 1
REMARK minimizedAffinity -3.04085493
REMARK minimizedRMSD -1
REMARK  0 active torsions:
REMARK  status: ('A' for Active; 'I' for Inactive)
ROOT
ATOM      1  C   UNL d   1       1.541  -1.514   0.103  0.00  0.00     0.020 A 
ATOM      2  C1  UNL d   1       1.868  -0.893  -1.103  0.00  0.00     0.020 A 
ATOM      3  C2  UNL d   1       1.053   0.121  -1.609  0.00  0.00     0.034 A 
ATOM      4  C3  UNL d   1      -0.093   0.518  -0.911  0.00  0.00     0.017 A 
ATOM      5  C4  UNL d   1      -0.421  -0.105   0.299  0.00  0.00     0.017 A 
ATOM      6  C5  UNL d   1       0.399  -1.120   0.802  0.00  0.00     0.034 A 
ATOM      7 Cl   UNL d   1      -1.818   0.330   1.218  0.00  0.00    -0.070 Cl
ATOM      8 Cl1  UNL d   1      -1.055   1.779  -1.596  0.00  0.00    -0.070 Cl
ENDROOT
TORSDOF 0
ENDMDL
