MODEL 1
REMARK minimizedAffinity -4.37835646
REMARK minimizedRMSD -1
REMARK  0 active torsions:
REMARK  status: ('A' for Active; 'I' for Inactive)
ROOT
ATOM      1  C   UNL d   1       0.934  -2.395   0.210  0.00  0.00     0.020 A 
ATOM      2  C1  UNL d   1       1.945  -1.831  -0.567  0.00  0.00     0.020 A 
ATOM      3  C2  UNL d   1       1.834  -0.510  -1.007  0.00  0.00     0.034 A 
ATOM      4  C3  UNL d   1       0.708   0.251  -0.671  0.00  0.00     0.017 A 
ATOM      5  C4  UNL d   1      -0.306  -0.316   0.109  0.00  0.00     0.017 A 
ATOM      6  C5  UNL d   1      -0.189  -1.638   0.547  0.00  0.00     0.034 A 
ATOM      7 Cl   UNL d   1      -1.724   0.561   0.565  0.00  0.00    -0.070 Cl
ATOM      8 Cl1  UNL d   1       0.637   1.878  -1.249  0.00  0.00    -0.070 Cl
ENDROOT
TORSDOF 0
ENDMDL
