MODEL 1
REMARK minimizedAffinity -4.74785614
REMARK minimizedRMSD -1
REMARK  0 active torsions:
REMARK  status: ('A' for Active; 'I' for Inactive)
ROOT
ATOM      1  C   UNL d   1      -0.727  -1.709   0.105  0.00  0.00     0.020 A 
ATOM      2  C1  UNL d   1      -1.465  -0.527   0.135  0.00  0.00     0.020 A 
ATOM      3  C2  UNL d   1      -0.880   0.672  -0.278  0.00  0.00     0.034 A 
ATOM      4  C3  UNL d   1       0.446   0.692  -0.723  0.00  0.00     0.017 A 
ATOM      5  C4  UNL d   1       1.187  -0.496  -0.753  0.00  0.00     0.017 A 
ATOM      6  C5  UNL d   1       0.597  -1.693  -0.339  0.00  0.00     0.034 A 
ATOM      7 Cl   UNL d   1       2.829  -0.550  -1.290  0.00  0.00    -0.070 Cl
ATOM      8 Cl1  UNL d   1       1.105   2.210  -1.219  0.00  0.00    -0.070 Cl
ENDROOT
TORSDOF 0
ENDMDL
