MODEL 1
REMARK minimizedAffinity -4.32601929
REMARK minimizedRMSD -1
REMARK  0 active torsions:
REMARK  status: ('A' for Active; 'I' for Inactive)
ROOT
ATOM      1  C   UNL d   1       1.915  -0.257  -1.500  0.00  0.00     0.020 A 
ATOM      2  C1  UNL d   1       1.511   0.979  -0.996  0.00  0.00     0.020 A 
ATOM      3  C2  UNL d   1       0.408   1.057  -0.143  0.00  0.00     0.034 A 
ATOM      4  C3  UNL d   1      -0.294  -0.101   0.209  0.00  0.00     0.017 A 
ATOM      5  C4  UNL d   1       0.113  -1.341  -0.297  0.00  0.00     0.017 A 
ATOM      6  C5  UNL d   1       1.218  -1.414  -1.151  0.00  0.00     0.034 A 
ATOM      7 Cl   UNL d   1      -0.703  -2.814   0.092  0.00  0.00    -0.070 Cl
ATOM      8 Cl1  UNL d   1      -1.648   0.070   1.269  0.00  0.00    -0.070 Cl
ENDROOT
TORSDOF 0
ENDMDL
