MODEL 1
REMARK minimizedAffinity -3.10208011
REMARK minimizedRMSD -1
REMARK  0 active torsions:
REMARK  status: ('A' for Active; 'I' for Inactive)
ROOT
ATOM      1  C   UNL d   1      -3.644  -0.956   3.405  0.00  0.00     0.020 A 
ATOM      2  C1  UNL d   1      -3.694   0.052   4.367  0.00  0.00     0.020 A 
ATOM      3  C2  UNL d   1      -3.132   1.302   4.099  0.00  0.00     0.034 A 
ATOM      4  C3  UNL d   1      -2.517   1.547   2.865  0.00  0.00     0.017 A 
ATOM      5  C4  UNL d   1      -2.468   0.535   1.900  0.00  0.00     0.017 A 
ATOM      6  C5  UNL d   1      -3.032  -0.715   2.174  0.00  0.00     0.034 A 
ATOM      7 Cl   UNL d   1      -1.726   0.762   0.356  0.00  0.00    -0.070 Cl
ATOM      8 Cl1  UNL d   1      -1.843   3.116   2.602  0.00  0.00    -0.070 Cl
ENDROOT
TORSDOF 0
ENDMDL
