MODEL 1
REMARK minimizedAffinity -4.46992159
REMARK minimizedRMSD -1
REMARK  0 active torsions:
REMARK  status: ('A' for Active; 'I' for Inactive)
ROOT
ATOM      1  C   UNL d   1       2.284  -0.508  -1.189  0.00  0.00     0.020 A 
ATOM      2  C1  UNL d   1       1.994   0.792  -0.776  0.00  0.00     0.020 A 
ATOM      3  C2  UNL d   1       0.829   1.052  -0.052  0.00  0.00     0.034 A 
ATOM      4  C3  UNL d   1      -0.052   0.010   0.261  0.00  0.00     0.017 A 
ATOM      5  C4  UNL d   1       0.239  -1.294  -0.154  0.00  0.00     0.017 A 
ATOM      6  C5  UNL d   1       1.408  -1.549  -0.878  0.00  0.00     0.034 A 
ATOM      7 Cl   UNL d   1      -0.799  -2.631   0.195  0.00  0.00    -0.070 Cl
ATOM      8 Cl1  UNL d   1      -1.474   0.404   1.159  0.00  0.00    -0.070 Cl
ENDROOT
TORSDOF 0
ENDMDL
