MODEL 1
REMARK minimizedAffinity -2.56753135
REMARK minimizedRMSD -1
REMARK  0 active torsions:
REMARK  status: ('A' for Active; 'I' for Inactive)
ROOT
ATOM      1  C   UNL d   1       0.390   0.672   0.099  0.00  0.00     0.020 A 
ATOM      2  C1  UNL d   1      -0.025  -0.659   0.090  0.00  0.00     0.020 A 
ATOM      3  C2  UNL d   1      -1.090  -1.063   0.898  0.00  0.00     0.034 A 
ATOM      4  C3  UNL d   1      -1.743  -0.136   1.719  0.00  0.00     0.017 A 
ATOM      5  C4  UNL d   1      -1.325   1.200   1.727  0.00  0.00     0.017 A 
ATOM      6  C5  UNL d   1      -0.258   1.599   0.916  0.00  0.00     0.034 A 
ATOM      7 Cl   UNL d   1      -2.080   2.401   2.713  0.00  0.00    -0.070 Cl
ATOM      8 Cl1  UNL d   1      -3.052  -0.706   2.692  0.00  0.00    -0.070 Cl
ENDROOT
TORSDOF 0
ENDMDL
