MODEL 1
REMARK minimizedAffinity -1.42367947
REMARK minimizedRMSD -1
REMARK  0 active torsions:
REMARK  status: ('A' for Active; 'I' for Inactive)
ROOT
ATOM      1  C   UNL d   1      -1.075  -0.332   0.806  0.00  0.00     0.020 A 
ATOM      2  C1  UNL d   1      -0.395  -1.546   0.724  0.00  0.00     0.020 A 
ATOM      3  C2  UNL d   1       0.755  -1.651  -0.061  0.00  0.00     0.034 A 
ATOM      4  C3  UNL d   1       1.229  -0.540  -0.768  0.00  0.00     0.017 A 
ATOM      5  C4  UNL d   1       0.546   0.679  -0.685  0.00  0.00     0.017 A 
ATOM      6  C5  UNL d   1      -0.606   0.778   0.102  0.00  0.00     0.034 A 
ATOM      7 Cl   UNL d   1       1.069   2.094  -1.528  0.00  0.00    -0.070 Cl
ATOM      8 Cl1  UNL d   1       2.657  -0.742  -1.719  0.00  0.00    -0.070 Cl
ENDROOT
TORSDOF 0
ENDMDL
