MODEL 1
REMARK minimizedAffinity -1.53918755
REMARK minimizedRMSD -1
REMARK  0 active torsions:
REMARK  status: ('A' for Active; 'I' for Inactive)
ROOT
ATOM      1  C   UNL d   1      -2.093   1.708   4.292  0.00  0.00     0.020 A 
ATOM      2  C1  UNL d   1      -1.131   2.132   3.376  0.00  0.00     0.020 A 
ATOM      3  C2  UNL d   1      -1.007   1.486   2.144  0.00  0.00     0.034 A 
ATOM      4  C3  UNL d   1      -1.846   0.411   1.825  0.00  0.00     0.017 A 
ATOM      5  C4  UNL d   1      -2.811  -0.013   2.745  0.00  0.00     0.017 A 
ATOM      6  C5  UNL d   1      -2.931   0.638   3.977  0.00  0.00     0.034 A 
ATOM      7 Cl   UNL d   1      -3.882  -1.331   2.423  0.00  0.00    -0.070 Cl
ATOM      8 Cl1  UNL d   1      -1.636  -0.341   0.284  0.00  0.00    -0.070 Cl
ENDROOT
TORSDOF 0
ENDMDL
