MODEL 1
REMARK minimizedAffinity 10.1769457
REMARK minimizedRMSD -1
REMARK  0 active torsions:
REMARK  status: ('A' for Active; 'I' for Inactive)
ROOT
ATOM      1  C   UNL d   1       0.797   0.561  -0.932  0.00  0.00     0.020 A 
ATOM      2  C1  UNL d   1       0.770   1.568   0.031  0.00  0.00     0.020 A 
ATOM      3  C2  UNL d   1      -0.342   1.707   0.865  0.00  0.00     0.034 A 
ATOM      4  C3  UNL d   1      -1.431   0.838   0.736  0.00  0.00     0.017 A 
ATOM      5  C4  UNL d   1      -1.403  -0.173  -0.232  0.00  0.00     0.017 A 
ATOM      6  C5  UNL d   1      -0.287  -0.308  -1.063  0.00  0.00     0.034 A 
ATOM      7 Cl   UNL d   1      -2.709  -1.284  -0.450  0.00  0.00    -0.070 Cl
ATOM      8 Cl1  UNL d   1      -2.773   1.068   1.800  0.00  0.00    -0.070 Cl
ENDROOT
TORSDOF 0
ENDMDL
