MODEL 1
REMARK minimizedAffinity -3.02200007
REMARK minimizedRMSD -1
REMARK  0 active torsions:
REMARK  status: ('A' for Active; 'I' for Inactive)
ROOT
ATOM      1  C   UNL d   1       2.777  -0.886  -1.566  0.00  0.00     0.020 A 
ATOM      2  C1  UNL d   1       2.415   0.444  -1.359  0.00  0.00     0.020 A 
ATOM      3  C2  UNL d   1       1.262   0.749  -0.632  0.00  0.00     0.034 A 
ATOM      4  C3  UNL d   1       0.468  -0.278  -0.108  0.00  0.00     0.017 A 
ATOM      5  C4  UNL d   1       0.833  -1.613  -0.316  0.00  0.00     0.017 A 
ATOM      6  C5  UNL d   1       1.988  -1.912  -1.045  0.00  0.00     0.034 A 
ATOM      7 Cl   UNL d   1      -0.097  -2.934   0.299  0.00  0.00    -0.070 Cl
ATOM      8 Cl1  UNL d   1      -0.943   0.172   0.782  0.00  0.00    -0.070 Cl
ENDROOT
TORSDOF 0
ENDMDL
