MODEL 1
REMARK minimizedAffinity -1.27159297
REMARK minimizedRMSD -1
REMARK  0 active torsions:
REMARK  status: ('A' for Active; 'I' for Inactive)
ROOT
ATOM      1  C   UNL d   1       0.764  -1.137   0.284  0.00  0.00     0.020 A 
ATOM      2  C1  UNL d   1      -0.118  -0.065   0.412  0.00  0.00     0.020 A 
ATOM      3  C2  UNL d   1       0.055   1.079  -0.370  0.00  0.00     0.034 A 
ATOM      4  C3  UNL d   1       1.113   1.154  -1.283  0.00  0.00     0.017 A 
ATOM      5  C4  UNL d   1       1.998   0.077  -1.411  0.00  0.00     0.017 A 
ATOM      6  C5  UNL d   1       1.820  -1.066  -0.625  0.00  0.00     0.034 A 
ATOM      7 Cl   UNL d   1       3.327   0.096  -2.516  0.00  0.00    -0.070 Cl
ATOM      8 Cl1  UNL d   1       1.267   2.599  -2.218  0.00  0.00    -0.070 Cl
ENDROOT
TORSDOF 0
ENDMDL
