MODEL 1
REMARK minimizedAffinity -4.99832773
REMARK minimizedRMSD -1
REMARK  0 active torsions:
REMARK  status: ('A' for Active; 'I' for Inactive)
ROOT
ATOM      1  C   UNL d   1       1.402   1.848  -2.389  0.00  0.00     0.020 A 
ATOM      2  C1  UNL d   1       2.341   0.852  -2.653  0.00  0.00     0.020 A 
ATOM      3  C2  UNL d   1       2.299  -0.352  -1.947  0.00  0.00     0.034 A 
ATOM      4  C3  UNL d   1       1.317  -0.562  -0.972  0.00  0.00     0.017 A 
ATOM      5  C4  UNL d   1       0.375   0.439  -0.707  0.00  0.00     0.017 A 
ATOM      6  C5  UNL d   1       0.422   1.642  -1.418  0.00  0.00     0.034 A 
ATOM      7 Cl   UNL d   1      -0.866   0.253   0.481  0.00  0.00    -0.070 Cl
ATOM      8 Cl1  UNL d   1       1.324  -2.075  -0.137  0.00  0.00    -0.070 Cl
ENDROOT
TORSDOF 0
ENDMDL
