MODEL 1
REMARK minimizedAffinity 4.5669241
REMARK minimizedRMSD -1
REMARK  1 active torsions:
REMARK  status: ('A' for Active; 'I' for Inactive)
REMARK    1  A    between atoms: N_2  and  C1_3 
ROOT
ATOM      1  C1  UNL d   1       2.485   3.681   4.380  0.00  0.00     0.143 A 
ATOM      2  C2  UNL d   1       1.720   4.849   4.451  0.00  0.00    -0.057 A 
ATOM      3  C3  UNL d   1       2.201   5.995   5.095  0.00  0.00     0.033 A 
ATOM      4  C4  UNL d   1       3.450   5.983   5.707  0.00  0.00    -0.042 A 
ATOM      5  C5  UNL d   1       4.218   4.825   5.672  0.00  0.00     0.033 A 
ATOM      6  C6  UNL d   1       3.734   3.686   5.021  0.00  0.00    -0.057 A 
ENDROOT
BRANCH   1   7
ATOM      7  N   UNL d   1       2.022   2.478   3.840  0.00  0.00    -0.732 N 
ATOM      8  C   UNL d   1       2.336   2.114   2.475  0.00  0.00     0.284 C 
ATOM      9  H3  UNL d   1       2.082   1.707   4.501  0.00  0.00     0.395 HD
ENDBRANCH   1   7
TORSDOF 1
ENDMDL
