MODEL 1
REMARK minimizedAffinity -0.95845747
REMARK minimizedRMSD -1
REMARK  1 active torsions:
REMARK  status: ('A' for Active; 'I' for Inactive)
REMARK    1  A    between atoms: N_2  and  C1_3 
ROOT
ATOM      1  C1  UNL d   1       2.278   5.234   4.969  0.00  0.00     0.143 A 
ATOM      2  C2  UNL d   1       1.107   5.999   4.954  0.00  0.00    -0.057 A 
ATOM      3  C3  UNL d   1      -0.001   5.615   4.190  0.00  0.00     0.033 A 
ATOM      4  C4  UNL d   1       0.052   4.469   3.403  0.00  0.00    -0.042 A 
ATOM      5  C5  UNL d   1       1.215   3.707   3.383  0.00  0.00     0.033 A 
ATOM      6  C6  UNL d   1       2.316   4.092   4.153  0.00  0.00    -0.057 A 
ENDROOT
BRANCH   1   7
ATOM      7  N   UNL d   1       3.448   5.615   5.631  0.00  0.00    -0.732 N 
ATOM      8  C   UNL d   1       4.626   5.999   4.883  0.00  0.00     0.284 C 
ATOM      9  H3  UNL d   1       3.263   6.200   6.443  0.00  0.00     0.395 HD
ENDBRANCH   1   7
TORSDOF 1
ENDMDL
