MODEL 1
REMARK minimizedAffinity -1.25653195
REMARK minimizedRMSD -1
REMARK  1 active torsions:
REMARK  status: ('A' for Active; 'I' for Inactive)
REMARK    1  A    between atoms: N_2  and  C1_3 
ROOT
ATOM      1  C1  UNL d   1       2.647   4.852   4.860  0.00  0.00     0.143 A 
ATOM      2  C2  UNL d   1       1.813   5.957   5.062  0.00  0.00    -0.057 A 
ATOM      3  C3  UNL d   1       0.522   6.000   4.521  0.00  0.00     0.033 A 
ATOM      4  C4  UNL d   1       0.052   4.948   3.743  0.00  0.00    -0.042 A 
ATOM      5  C5  UNL d   1       0.873   3.850   3.508  0.00  0.00     0.033 A 
ATOM      6  C6  UNL d   1       2.158   3.810   4.056  0.00  0.00    -0.057 A 
ENDROOT
BRANCH   1   7
ATOM      7  N   UNL d   1       3.975   4.792   5.288  0.00  0.00    -0.732 N 
ATOM      8  C   UNL d   1       4.693   5.999   5.636  0.00  0.00     0.284 C 
ATOM      9  H3  UNL d   1       4.146   4.011   5.918  0.00  0.00     0.395 HD
ENDBRANCH   1   7
TORSDOF 1
ENDMDL
