MODEL 1
REMARK minimizedAffinity -2.64619398
REMARK minimizedRMSD -1
REMARK  1 active torsions:
REMARK  status: ('A' for Active; 'I' for Inactive)
REMARK    1  A    between atoms: N_2  and  C1_3 
ROOT
ATOM      1  C1  UNL d   1       2.274   3.985   3.734  0.00  0.00     0.143 A 
ATOM      2  C2  UNL d   1       1.124   4.510   3.135  0.00  0.00    -0.057 A 
ATOM      3  C3  UNL d   1       0.377   5.518   3.756  0.00  0.00     0.033 A 
ATOM      4  C4  UNL d   1       0.752   6.000   5.006  0.00  0.00    -0.042 A 
ATOM      5  C5  UNL d   1       1.877   5.475   5.632  0.00  0.00     0.033 A 
ATOM      6  C6  UNL d   1       2.623   4.473   5.003  0.00  0.00    -0.057 A 
ENDROOT
BRANCH   1   7
ATOM      7  N   UNL d   1       3.003   2.913   3.213  0.00  0.00    -0.732 N 
ATOM      8  C   UNL d   1       3.589   2.994   1.892  0.00  0.00     0.284 C 
ATOM      9  H3  UNL d   1       3.604   2.477   3.908  0.00  0.00     0.395 HD
ENDBRANCH   1   7
TORSDOF 1
ENDMDL
