MODEL 1
REMARK minimizedAffinity -2.07306314
REMARK minimizedRMSD -1
REMARK  1 active torsions:
REMARK  status: ('A' for Active; 'I' for Inactive)
REMARK    1  A    between atoms: N_2  and  C1_3 
ROOT
ATOM      1  C1  UNL d   1       3.496   3.281  -5.994  0.00  0.00     0.143 A 
ATOM      2  C2  UNL d   1       2.143   3.637  -5.968  0.00  0.00    -0.057 A 
ATOM      3  C3  UNL d   1       1.745   4.979  -5.985  0.00  0.00     0.033 A 
ATOM      4  C4  UNL d   1       2.696   5.993  -5.999  0.00  0.00    -0.042 A 
ATOM      5  C5  UNL d   1       4.047   5.663  -6.000  0.00  0.00     0.033 A 
ATOM      6  C6  UNL d   1       4.438   4.321  -5.989  0.00  0.00    -0.057 A 
ENDROOT
BRANCH   1   7
ATOM      7  N   UNL d   1       3.957   1.967  -5.879  0.00  0.00    -0.732 N 
ATOM      8  C   UNL d   1       5.367   1.668  -6.000  0.00  0.00     0.284 C 
ATOM      9  H3  UNL d   1       3.484   1.453  -5.139  0.00  0.00     0.395 HD
ENDBRANCH   1   7
TORSDOF 1
ENDMDL
