MODEL 1
REMARK minimizedAffinity -1.59034193
REMARK minimizedRMSD -1
REMARK  1 active torsions:
REMARK  status: ('A' for Active; 'I' for Inactive)
REMARK    1  A    between atoms: N_2  and  C1_3 
ROOT
ATOM      1  C1  UNL d   1       1.979   4.013   3.650  0.00  0.00     0.143 A 
ATOM      2  C2  UNL d   1       0.606   3.993   3.382  0.00  0.00    -0.057 A 
ATOM      3  C3  UNL d   1      -0.250   4.971   3.902  0.00  0.00     0.033 A 
ATOM      4  C4  UNL d   1       0.250   5.973   4.726  0.00  0.00    -0.042 A 
ATOM      5  C5  UNL d   1       1.607   5.999   5.027  0.00  0.00     0.033 A 
ATOM      6  C6  UNL d   1       2.458   5.023   4.499  0.00  0.00    -0.057 A 
ENDROOT
BRANCH   1   7
ATOM      7  N   UNL d   1       2.866   3.013   3.243  0.00  0.00    -0.732 N 
ATOM      8  C   UNL d   1       2.979   2.651   1.847  0.00  0.00     0.284 C 
ATOM      9  H3  UNL d   1       3.756   3.060   3.734  0.00  0.00     0.395 HD
ENDBRANCH   1   7
TORSDOF 1
ENDMDL
