MODEL 1
REMARK minimizedAffinity 4.93892288
REMARK minimizedRMSD -1
REMARK  1 active torsions:
REMARK  status: ('A' for Active; 'I' for Inactive)
REMARK    1  A    between atoms: C1_2  and  C2_3 
ROOT
ATOM      1  C2  UNL d   1      -2.818   4.245  -3.739  0.00  0.00    -0.077 A 
ATOM      2  C3  UNL d   1      -3.077   4.836  -4.983  0.00  0.00     0.002 A 
ATOM      3  C4  UNL d   1      -4.320   5.417  -5.245  0.00  0.00     0.002 A 
ATOM      4  C5  UNL d   1      -5.311   5.415  -4.266  0.00  0.00    -0.004 A 
ATOM      5  C6  UNL d   1      -5.064   4.828  -3.026  0.00  0.00     0.002 A 
ATOM      6  C7  UNL d   1      -3.823   4.246  -2.763  0.00  0.00     0.002 A 
ENDROOT
BRANCH   1   7
ATOM      7  C1  UNL d   1      -1.462   3.663  -3.437  0.00  0.00     0.055 C 
ATOM      8  C   UNL d   1      -1.507   2.759  -2.213  0.00  0.00     0.019 C 
ENDBRANCH   1   7
TORSDOF 1
ENDMDL
