MODEL 1
REMARK minimizedAffinity 0.483270079
REMARK minimizedRMSD -1
REMARK  1 active torsions:
REMARK  status: ('A' for Active; 'I' for Inactive)
REMARK    1  A    between atoms: C1_2  and  C2_3 
ROOT
ATOM      1  C2  UNL d   1      -0.077   0.082   2.844  0.00  0.00    -0.077 A 
ATOM      2  C3  UNL d   1      -0.364   1.251   3.563  0.00  0.00     0.002 A 
ATOM      3  C4  UNL d   1      -0.250   2.502   2.953  0.00  0.00     0.002 A 
ATOM      4  C5  UNL d   1       0.148   2.595   1.621  0.00  0.00    -0.004 A 
ATOM      5  C6  UNL d   1       0.438   1.438   0.898  0.00  0.00     0.002 A 
ATOM      6  C7  UNL d   1       0.325   0.187   1.507  0.00  0.00     0.002 A 
ENDROOT
BRANCH   1   7
ATOM      7  C1  UNL d   1      -0.248  -1.270   3.486  0.00  0.00     0.055 C 
ATOM      8  C   UNL d   1       0.614  -1.403   4.733  0.00  0.00     0.019 C 
ENDBRANCH   1   7
TORSDOF 1
ENDMDL
