MODEL 1
REMARK minimizedAffinity 11.7445774
REMARK minimizedRMSD -1
REMARK  1 active torsions:
REMARK  status: ('A' for Active; 'I' for Inactive)
REMARK    1  A    between atoms: C1_2  and  C2_3 
ROOT
ATOM      1  C2  UNL d   1       3.836  -3.446   4.336  0.00  0.00    -0.077 A 
ATOM      2  C3  UNL d   1       2.584  -3.767   3.794  0.00  0.00     0.002 A 
ATOM      3  C4  UNL d   1       1.639  -2.767   3.557  0.00  0.00     0.002 A 
ATOM      4  C5  UNL d   1       1.939  -1.439   3.854  0.00  0.00    -0.004 A 
ATOM      5  C6  UNL d   1       3.181  -1.110   4.395  0.00  0.00     0.002 A 
ATOM      6  C7  UNL d   1       4.126  -2.108   4.634  0.00  0.00     0.002 A 
ENDROOT
BRANCH   1   7
ATOM      7  C1  UNL d   1       4.874  -4.517   4.546  0.00  0.00     0.055 C 
ATOM      8  C   UNL d   1       5.343  -4.557   5.993  0.00  0.00     0.019 C 
ENDBRANCH   1   7
TORSDOF 1
ENDMDL
