MODEL 1
REMARK minimizedAffinity -3.71376538
REMARK minimizedRMSD -1
REMARK  0 active torsions:
REMARK  status: ('A' for Active; 'I' for Inactive)
ROOT
ATOM      1  C2' OXE d   1      -2.215  -0.131   1.609  0.00  0.00     0.078 C 
ATOM      2  C1' OXE d   1      -0.285  -2.055   2.283  0.00  0.00     0.078 C 
ATOM      3  C1  OXE d   1       0.104  -0.986   1.293  0.00  0.00    -0.078 A 
ATOM      4  C2  OXE d   1      -0.861  -0.076   0.934  0.00  0.00    -0.078 A 
ATOM      5  C3  OXE d   1      -0.539   0.964   0.066  0.00  0.00     0.003 A 
ATOM      6  C4  OXE d   1       0.712   1.002  -0.561  0.00  0.00    -0.002 A 
ATOM      7  C5  OXE d   1       1.697   0.062  -0.239  0.00  0.00    -0.002 A 
ATOM      8  C6  OXE d   1       1.423  -0.911   0.716  0.00  0.00     0.003 A 
ENDROOT
TORSDOF 0
ENDMDL
