MODEL 1
REMARK minimizedAffinity 1.27585983
REMARK minimizedRMSD -1
REMARK  0 active torsions:
REMARK  status: ('A' for Active; 'I' for Inactive)
ROOT
ATOM      1  C2' OXE d   1       1.009   0.271   0.260  0.00  0.00     0.078 C 
ATOM      2  C1' OXE d   1      -0.435  -1.999   1.061  0.00  0.00     0.078 C 
ATOM      3  C1  OXE d   1      -0.965  -1.203  -0.106  0.00  0.00    -0.078 A 
ATOM      4  C2  OXE d   1      -0.278  -0.068  -0.461  0.00  0.00    -0.078 A 
ATOM      5  C3  OXE d   1      -0.694   0.673  -1.564  0.00  0.00     0.003 A 
ATOM      6  C4  OXE d   1      -1.891   0.359  -2.218  0.00  0.00    -0.002 A 
ATOM      7  C5  OXE d   1      -2.627  -0.771  -1.847  0.00  0.00    -0.002 A 
ATOM      8  C6  OXE d   1      -2.157  -1.585  -0.823  0.00  0.00     0.003 A 
ENDROOT
TORSDOF 0
ENDMDL
