MODEL 1
REMARK minimizedAffinity -3.23332071
REMARK minimizedRMSD -1
REMARK  0 active torsions:
REMARK  status: ('A' for Active; 'I' for Inactive)
ROOT
ATOM      1  C2' OXE d   1      -0.255   0.453   0.073  0.00  0.00     0.078 C 
ATOM      2  C1' OXE d   1       0.442  -1.594   1.863  0.00  0.00     0.078 C 
ATOM      3  C1  OXE d   1      -0.811  -1.773   1.043  0.00  0.00    -0.078 A 
ATOM      4  C2  OXE d   1      -1.170  -0.745   0.204  0.00  0.00    -0.078 A 
ATOM      5  C3  OXE d   1      -2.287  -0.882  -0.616  0.00  0.00     0.003 A 
ATOM      6  C4  OXE d   1      -3.133  -1.989  -0.481  0.00  0.00    -0.002 A 
ATOM      7  C5  OXE d   1      -2.808  -3.029   0.396  0.00  0.00    -0.002 A 
ATOM      8  C6  OXE d   1      -1.631  -2.956   1.133  0.00  0.00     0.003 A 
ENDROOT
TORSDOF 0
ENDMDL
