MODEL 1
REMARK minimizedAffinity -2.66519642
REMARK minimizedRMSD -1
REMARK  0 active torsions:
REMARK  status: ('A' for Active; 'I' for Inactive)
ROOT
ATOM      1  C2' OXE d   1      -1.142   1.533  -2.868  0.00  0.00     0.078 C 
ATOM      2  C1' OXE d   1      -2.056  -0.585  -1.268  0.00  0.00     0.078 C 
ATOM      3  C1  OXE d   1      -0.868   0.206  -0.778  0.00  0.00    -0.078 A 
ATOM      4  C2  OXE d   1      -0.399   1.210  -1.589  0.00  0.00    -0.078 A 
ATOM      5  C3  OXE d   1       0.659   2.006  -1.159  0.00  0.00     0.003 A 
ATOM      6  C4  OXE d   1       1.347   1.695   0.020  0.00  0.00    -0.002 A 
ATOM      7  C5  OXE d   1       0.910   0.650   0.842  0.00  0.00    -0.002 A 
ATOM      8  C6  OXE d   1      -0.220  -0.075   0.479  0.00  0.00     0.003 A 
ENDROOT
TORSDOF 0
ENDMDL
