MODEL 1
REMARK minimizedAffinity -2.87189555
REMARK minimizedRMSD -1
REMARK  0 active torsions:
REMARK  status: ('A' for Active; 'I' for Inactive)
ROOT
ATOM      1  C2' OXE d   1       0.956   0.323   0.324  0.00  0.00     0.078 C 
ATOM      2  C1' OXE d   1       1.789   1.836   2.536  0.00  0.00     0.078 C 
ATOM      3  C1  OXE d   1       2.090   2.377   1.160  0.00  0.00    -0.078 A 
ATOM      4  C2  OXE d   1       1.720   1.607   0.084  0.00  0.00    -0.078 A 
ATOM      5  C3  OXE d   1       1.925   2.084  -1.208  0.00  0.00     0.003 A 
ATOM      6  C4  OXE d   1       2.642   3.268  -1.421  0.00  0.00    -0.002 A 
ATOM      7  C5  OXE d   1       3.063   4.047  -0.338  0.00  0.00    -0.002 A 
ATOM      8  C6  OXE d   1       2.758   3.638   0.956  0.00  0.00     0.003 A 
ENDROOT
TORSDOF 0
ENDMDL
