MODEL 1
REMARK minimizedAffinity -2.81130409
REMARK minimizedRMSD -1
REMARK  0 active torsions:
REMARK  status: ('A' for Active; 'I' for Inactive)
ROOT
ATOM      1  C2' OXE d   1      -0.777  -2.085   1.526  0.00  0.00     0.078 C 
ATOM      2  C1' OXE d   1      -1.925  -0.909  -0.750  0.00  0.00     0.078 C 
ATOM      3  C1  OXE d   1      -0.551  -0.445  -0.335  0.00  0.00    -0.078 A 
ATOM      4  C2  OXE d   1      -0.016  -0.992   0.806  0.00  0.00    -0.078 A 
ATOM      5  C3  OXE d   1       1.270  -0.639   1.203  0.00  0.00     0.003 A 
ATOM      6  C4  OXE d   1       1.963   0.379   0.537  0.00  0.00    -0.002 A 
ATOM      7  C5  OXE d   1       1.420   0.978  -0.605  0.00  0.00    -0.002 A 
ATOM      8  C6  OXE d   1       0.185   0.548  -1.078  0.00  0.00     0.003 A 
ENDROOT
TORSDOF 0
ENDMDL
