MODEL 1
REMARK minimizedAffinity 0.40410164
REMARK minimizedRMSD -1
REMARK  0 active torsions:
REMARK  status: ('A' for Active; 'I' for Inactive)
ROOT
ATOM      1  C2' OXE d   1      -0.475  -0.216   0.982  0.00  0.00     0.078 C 
ATOM      2  C1' OXE d   1       0.462   0.057  -1.650  0.00  0.00     0.078 C 
ATOM      3  C1  OXE d   1       1.214   0.775  -0.558  0.00  0.00    -0.078 A 
ATOM      4  C2  OXE d   1       0.722   0.673   0.721  0.00  0.00    -0.078 A 
ATOM      5  C3  OXE d   1       1.409   1.271   1.774  0.00  0.00     0.003 A 
ATOM      6  C4  OXE d   1       2.509   2.100   1.522  0.00  0.00    -0.002 A 
ATOM      7  C5  OXE d   1       3.003   2.249   0.222  0.00  0.00    -0.002 A 
ATOM      8  C6  OXE d   1       2.395   1.561  -0.821  0.00  0.00     0.003 A 
ENDROOT
TORSDOF 0
ENDMDL
