MODEL 1
REMARK minimizedAffinity -3.31699181
REMARK minimizedRMSD -1
REMARK  0 active torsions:
REMARK  status: ('A' for Active; 'I' for Inactive)
ROOT
ATOM      1  C2' OXE d   1      -1.274   0.355  -2.039  0.00  0.00     0.078 C 
ATOM      2  C1' OXE d   1      -2.931  -1.223  -0.413  0.00  0.00     0.078 C 
ATOM      3  C1  OXE d   1      -1.461  -1.167  -0.076  0.00  0.00    -0.078 A 
ATOM      4  C2  OXE d   1      -0.651  -0.430  -0.905  0.00  0.00    -0.078 A 
ATOM      5  C3  OXE d   1       0.703  -0.300  -0.608  0.00  0.00     0.003 A 
ATOM      6  C4  OXE d   1       1.273  -1.037   0.437  0.00  0.00    -0.002 A 
ATOM      7  C5  OXE d   1       0.472  -1.826   1.269  0.00  0.00    -0.002 A 
ATOM      8  C6  OXE d   1      -0.901  -1.868   1.053  0.00  0.00     0.003 A 
ENDROOT
TORSDOF 0
ENDMDL
