MODEL 1
REMARK minimizedAffinity -2.94515896
REMARK minimizedRMSD -1
REMARK  0 active torsions:
REMARK  status: ('A' for Active; 'I' for Inactive)
ROOT
ATOM      1  C2' OXE d   1       0.996   0.341   0.074  0.00  0.00     0.078 C 
ATOM      2  C1' OXE d   1      -0.467  -1.816   1.118  0.00  0.00     0.078 C 
ATOM      3  C1  OXE d   1      -0.907  -1.243  -0.207  0.00  0.00    -0.078 A 
ATOM      4  C2  OXE d   1      -0.214  -0.158  -0.687  0.00  0.00    -0.078 A 
ATOM      5  C3  OXE d   1      -0.543   0.375  -1.930  0.00  0.00     0.003 A 
ATOM      6  C4  OXE d   1      -1.669  -0.085  -2.623  0.00  0.00    -0.002 A 
ATOM      7  C5  OXE d   1      -2.413  -1.164  -2.132  0.00  0.00    -0.002 A 
ATOM      8  C6  OXE d   1      -2.020  -1.780  -0.949  0.00  0.00     0.003 A 
ENDROOT
TORSDOF 0
ENDMDL
