MODEL 1
REMARK minimizedAffinity -4.2675848
REMARK minimizedRMSD -1
REMARK  0 active torsions:
REMARK  status: ('A' for Active; 'I' for Inactive)
ROOT
ATOM      1  C2' OXE d   1       1.480  -0.155   0.850  0.00  0.00     0.078 C 
ATOM      2  C1' OXE d   1      -0.690  -1.818   1.486  0.00  0.00     0.078 C 
ATOM      3  C1  OXE d   1      -0.811  -0.939   0.266  0.00  0.00    -0.078 A 
ATOM      4  C2  OXE d   1       0.237  -0.094  -0.011  0.00  0.00    -0.078 A 
ATOM      5  C3  OXE d   1       0.200   0.698  -1.155  0.00  0.00     0.003 A 
ATOM      6  C4  OXE d   1      -0.957   0.755  -1.941  0.00  0.00    -0.002 A 
ATOM      7  C5  OXE d   1      -2.052  -0.068  -1.654  0.00  0.00    -0.002 A 
ATOM      8  C6  OXE d   1      -1.978  -0.950  -0.581  0.00  0.00     0.003 A 
ENDROOT
TORSDOF 0
ENDMDL
