MODEL 1
REMARK minimizedAffinity -3.1414094
REMARK minimizedRMSD -1
REMARK  0 active torsions:
REMARK  status: ('A' for Active; 'I' for Inactive)
ROOT
ATOM      1  C2' OXE d   1       0.995   0.466   0.197  0.00  0.00     0.078 C 
ATOM      2  C1' OXE d   1      -0.400  -1.779   1.140  0.00  0.00     0.078 C 
ATOM      3  C1  OXE d   1      -1.024  -0.982   0.022  0.00  0.00    -0.078 A 
ATOM      4  C2  OXE d   1      -0.357   0.142  -0.401  0.00  0.00    -0.078 A 
ATOM      5  C3  OXE d   1      -0.861   0.883  -1.466  0.00  0.00     0.003 A 
ATOM      6  C4  OXE d   1      -2.117   0.582  -2.007  0.00  0.00    -0.002 A 
ATOM      7  C5  OXE d   1      -2.832  -0.535  -1.563  0.00  0.00    -0.002 A 
ATOM      8  C6  OXE d   1      -2.281  -1.351  -0.581  0.00  0.00     0.003 A 
ENDROOT
TORSDOF 0
ENDMDL
