MODEL 1
REMARK minimizedAffinity -2.47114038
REMARK minimizedRMSD -1
REMARK  0 active torsions:
REMARK  status: ('A' for Active; 'I' for Inactive)
ROOT
ATOM      1  C2' OXE d   1      -1.989  -0.235  -2.884  0.00  0.00     0.078 C 
ATOM      2  C1' OXE d   1      -3.201  -0.372  -0.356  0.00  0.00     0.078 C 
ATOM      3  C1  OXE d   1      -1.701  -0.227  -0.410  0.00  0.00    -0.078 A 
ATOM      4  C2  OXE d   1      -1.112  -0.207  -1.651  0.00  0.00    -0.078 A 
ATOM      5  C3  OXE d   1       0.263  -0.020  -1.759  0.00  0.00     0.003 A 
ATOM      6  C4  OXE d   1       1.068  -0.006  -0.614  0.00  0.00    -0.002 A 
ATOM      7  C5  OXE d   1       0.493  -0.064   0.660  0.00  0.00    -0.002 A 
ATOM      8  C6  OXE d   1      -0.891  -0.132   0.779  0.00  0.00     0.003 A 
ENDROOT
TORSDOF 0
ENDMDL
