MODEL 1
REMARK minimizedAffinity -2.15675879
REMARK minimizedRMSD -1
REMARK  0 active torsions:
REMARK  status: ('A' for Active; 'I' for Inactive)
ROOT
ATOM      1  C2' OXE d   1       3.603   1.192   0.254  0.00  0.00     0.078 C 
ATOM      2  C1' OXE d   1       2.130   3.175   1.586  0.00  0.00     0.078 C 
ATOM      3  C1  OXE d   1       1.363   2.095   0.863  0.00  0.00    -0.078 A 
ATOM      4  C2  OXE d   1       2.092   1.156   0.175  0.00  0.00    -0.078 A 
ATOM      5  C3  OXE d   1       1.437   0.106  -0.463  0.00  0.00     0.003 A 
ATOM      6  C4  OXE d   1       0.039   0.086  -0.539  0.00  0.00    -0.002 A 
ATOM      7  C5  OXE d   1      -0.722   1.056   0.122  0.00  0.00    -0.002 A 
ATOM      8  C6  OXE d   1      -0.078   2.041   0.861  0.00  0.00     0.003 A 
ENDROOT
TORSDOF 0
ENDMDL
