MODEL 1
REMARK minimizedAffinity -5.22814035
REMARK minimizedRMSD -1
REMARK  0 active torsions:
REMARK  status: ('A' for Active; 'I' for Inactive)
ROOT
ATOM      1  C2' OXE d   1      -1.020   0.384  -1.913  0.00  0.00     0.078 C 
ATOM      2  C1' OXE d   1       0.827   0.048   0.175  0.00  0.00     0.078 C 
ATOM      3  C1  OXE d   1      -0.335  -0.910   0.103  0.00  0.00    -0.078 A 
ATOM      4  C2  OXE d   1      -1.259  -0.710  -0.894  0.00  0.00    -0.078 A 
ATOM      5  C3  OXE d   1      -2.321  -1.598  -1.039  0.00  0.00     0.003 A 
ATOM      6  C4  OXE d   1      -2.541  -2.601  -0.087  0.00  0.00    -0.002 A 
ATOM      7  C5  OXE d   1      -1.634  -2.797   0.960  0.00  0.00    -0.002 A 
ATOM      8  C6  OXE d   1      -0.506  -1.989   1.044  0.00  0.00     0.003 A 
ENDROOT
TORSDOF 0
ENDMDL
