MODEL 1
REMARK minimizedAffinity -1.79565406
REMARK minimizedRMSD -1
REMARK  0 active torsions:
REMARK  status: ('A' for Active; 'I' for Inactive)
ROOT
ATOM      1  C2' OXE d   1      -0.424  -1.976   1.472  0.00  0.00     0.078 C 
ATOM      2  C1' OXE d   1      -2.646  -2.902   0.028  0.00  0.00     0.078 C 
ATOM      3  C1  OXE d   1      -1.955  -1.656  -0.467  0.00  0.00    -0.078 A 
ATOM      4  C2  OXE d   1      -0.897  -1.184   0.272  0.00  0.00    -0.078 A 
ATOM      5  C3  OXE d   1      -0.190  -0.069  -0.170  0.00  0.00     0.003 A 
ATOM      6  C4  OXE d   1      -0.640   0.663  -1.275  0.00  0.00    -0.002 A 
ATOM      7  C5  OXE d   1      -1.740   0.222  -2.019  0.00  0.00    -0.002 A 
ATOM      8  C6  OXE d   1      -2.381  -0.957  -1.654  0.00  0.00     0.003 A 
ENDROOT
TORSDOF 0
ENDMDL
