MODEL 1
REMARK minimizedAffinity -3.01748323
REMARK minimizedRMSD -1
REMARK  0 active torsions:
REMARK  status: ('A' for Active; 'I' for Inactive)
ROOT
ATOM      1  C2' OXE d   1       0.420   0.068  -1.156  0.00  0.00     0.078 C 
ATOM      2  C1' OXE d   1       1.295  -0.989   1.294  0.00  0.00     0.078 C 
ATOM      3  C1  OXE d   1       1.475   0.491   1.061  0.00  0.00    -0.078 A 
ATOM      4  C2  OXE d   1       1.087   0.991  -0.158  0.00  0.00    -0.078 A 
ATOM      5  C3  OXE d   1       1.180   2.358  -0.404  0.00  0.00     0.003 A 
ATOM      6  C4  OXE d   1       1.807   3.203   0.519  0.00  0.00    -0.002 A 
ATOM      7  C5  OXE d   1       2.245   2.707   1.752  0.00  0.00    -0.002 A 
ATOM      8  C6  OXE d   1       2.049   1.364   2.055  0.00  0.00     0.003 A 
ENDROOT
TORSDOF 0
ENDMDL
