MODEL 1
REMARK minimizedAffinity -3.91159487
REMARK minimizedRMSD -1
REMARK  0 active torsions:
REMARK  status: ('A' for Active; 'I' for Inactive)
ROOT
ATOM      1  C2' OXE d   1       0.175  -1.186   1.367  0.00  0.00     0.078 C 
ATOM      2  C1' OXE d   1       1.135   0.027  -0.975  0.00  0.00     0.078 C 
ATOM      3  C1  OXE d   1       1.310   0.772   0.325  0.00  0.00    -0.078 A 
ATOM      4  C2  OXE d   1       0.795   0.192   1.459  0.00  0.00    -0.078 A 
ATOM      5  C3  OXE d   1       0.977   0.811   2.693  0.00  0.00     0.003 A 
ATOM      6  C4  OXE d   1       1.543   2.089   2.768  0.00  0.00    -0.002 A 
ATOM      7  C5  OXE d   1       2.037   2.715   1.619  0.00  0.00    -0.002 A 
ATOM      8  C6  OXE d   1       1.967   2.053   0.398  0.00  0.00     0.003 A 
ENDROOT
TORSDOF 0
ENDMDL
