MODEL 1
REMARK minimizedAffinity -4.71968365
REMARK minimizedRMSD -1
REMARK  1 active torsions:
REMARK  status: ('A' for Active; 'I' for Inactive)
REMARK    1  A    between atoms: C1_2  and  C2_3 
ROOT
ATOM      1  C2  UNL d   1       0.851  -0.214  -1.256  0.00  0.00    -0.081 A 
ATOM      2  C3  UNL d   1       0.712   0.044  -2.625  0.00  0.00     0.006 A 
ATOM      3  C4  UNL d   1      -0.380  -0.463  -3.334  0.00  0.00     0.002 A 
ATOM      4  C5  UNL d   1      -1.354  -1.229  -2.684  0.00  0.00    -0.080 A 
ATOM      5  C6  UNL d   1      -2.547  -1.754  -3.427  0.00  0.00     0.076 C 
ATOM      6  C7  UNL d   1      -1.206  -1.501  -1.320  0.00  0.00     0.002 A 
ATOM      7  C8  UNL d   1      -0.114  -0.996  -0.611  0.00  0.00     0.006 A 
ENDROOT
BRANCH   1   8
ATOM      8  C1  UNL d   1       1.994   0.385  -0.476  0.00  0.00     0.054 C 
ATOM      9  C   UNL d   1       1.492   1.363   0.577  0.00  0.00     0.018 C 
ENDBRANCH   1   8
TORSDOF 1
ENDMDL
