MODEL 1
REMARK minimizedAffinity -5.00601244
REMARK minimizedRMSD -1
REMARK  1 active torsions:
REMARK  status: ('A' for Active; 'I' for Inactive)
REMARK    1  A    between atoms: C1_2  and  C2_3 
ROOT
ATOM      1  C2  UNL d   1      -0.720  -0.707  -0.688  0.00  0.00    -0.081 A 
ATOM      2  C3  UNL d   1      -1.355  -0.087   0.396  0.00  0.00     0.006 A 
ATOM      3  C4  UNL d   1      -0.693   0.894   1.138  0.00  0.00     0.002 A 
ATOM      4  C5  UNL d   1       0.610   1.278   0.804  0.00  0.00    -0.080 A 
ATOM      5  C6  UNL d   1       1.321   2.351   1.573  0.00  0.00     0.076 C 
ATOM      6  C7  UNL d   1       1.251   0.647  -0.268  0.00  0.00     0.002 A 
ATOM      7  C8  UNL d   1       0.590  -0.335  -1.010  0.00  0.00     0.006 A 
ENDROOT
BRANCH   1   8
ATOM      8  C1  UNL d   1      -1.454  -1.719  -1.530  0.00  0.00     0.054 C 
ATOM      9  C   UNL d   1      -2.127  -1.060  -2.726  0.00  0.00     0.018 C 
ENDBRANCH   1   8
TORSDOF 1
ENDMDL
