MODEL 1
REMARK minimizedAffinity -3.17982888
REMARK minimizedRMSD -1
REMARK  1 active torsions:
REMARK  status: ('A' for Active; 'I' for Inactive)
REMARK    1  A    between atoms: C1_2  and  C2_3 
ROOT
ATOM      1  C2  UNL d   1      -0.681  -0.751  -0.158  0.00  0.00    -0.081 A 
ATOM      2  C3  UNL d   1      -1.101  -0.338   1.112  0.00  0.00     0.006 A 
ATOM      3  C4  UNL d   1      -0.486   0.746   1.744  0.00  0.00     0.002 A 
ATOM      4  C5  UNL d   1       0.553   1.439   1.113  0.00  0.00    -0.080 A 
ATOM      5  C6  UNL d   1       1.202   2.623   1.767  0.00  0.00     0.076 C 
ATOM      6  C7  UNL d   1       0.985   1.015  -0.149  0.00  0.00     0.002 A 
ATOM      7  C8  UNL d   1       0.370  -0.069  -0.780  0.00  0.00     0.006 A 
ENDROOT
BRANCH   1   8
ATOM      8  C1  UNL d   1      -1.385  -1.878  -0.869  0.00  0.00     0.054 C 
ATOM      9  C   UNL d   1      -1.975  -1.414  -2.193  0.00  0.00     0.018 C 
ENDBRANCH   1   8
TORSDOF 1
ENDMDL
