MODEL 1
REMARK minimizedAffinity -5.18638611
REMARK minimizedRMSD -1
REMARK  1 active torsions:
REMARK  status: ('A' for Active; 'I' for Inactive)
REMARK    1  A    between atoms: C1_2  and  C2_3 
ROOT
ATOM      1  C2  UNL d   1       3.654   1.350   2.246  0.00  0.00    -0.081 A 
ATOM      2  C3  UNL d   1       2.421   1.855   2.676  0.00  0.00     0.006 A 
ATOM      3  C4  UNL d   1       1.379   2.049   1.765  0.00  0.00     0.002 A 
ATOM      4  C5  UNL d   1       1.551   1.736   0.413  0.00  0.00    -0.080 A 
ATOM      5  C6  UNL d   1       0.431   1.911  -0.570  0.00  0.00     0.076 C 
ATOM      6  C7  UNL d   1       2.789   1.248  -0.020  0.00  0.00     0.002 A 
ATOM      7  C8  UNL d   1       3.831   1.054   0.890  0.00  0.00     0.006 A 
ENDROOT
BRANCH   1   8
ATOM      8  C1  UNL d   1       4.758   1.079   3.236  0.00  0.00     0.054 C 
ATOM      9  C   UNL d   1       4.293   0.138   4.339  0.00  0.00     0.018 C 
ENDBRANCH   1   8
TORSDOF 1
ENDMDL
