MODEL 1
REMARK minimizedAffinity -1.6075778
REMARK minimizedRMSD -1
REMARK  1 active torsions:
REMARK  status: ('A' for Active; 'I' for Inactive)
REMARK    1  A    between atoms: C1_2  and  C2_3 
ROOT
ATOM      1  C2  UNL d   1       1.343   0.833   1.019  0.00  0.00    -0.081 A 
ATOM      2  C3  UNL d   1       1.832   0.151  -0.102  0.00  0.00     0.006 A 
ATOM      3  C4  UNL d   1       1.017  -0.745  -0.797  0.00  0.00     0.002 A 
ATOM      4  C5  UNL d   1      -0.302  -0.969  -0.387  0.00  0.00    -0.080 A 
ATOM      5  C6  UNL d   1      -1.197  -1.906  -1.142  0.00  0.00     0.076 C 
ATOM      6  C7  UNL d   1      -0.785  -0.302   0.744  0.00  0.00     0.002 A 
ATOM      7  C8  UNL d   1       0.030   0.594   1.439  0.00  0.00     0.006 A 
ENDROOT
BRANCH   1   8
ATOM      8  C1  UNL d   1       2.199   1.849   1.732  0.00  0.00     0.054 C 
ATOM      9  C   UNL d   1       3.680   1.587   1.497  0.00  0.00     0.018 C 
ENDBRANCH   1   8
TORSDOF 1
ENDMDL
