MODEL 1
REMARK minimizedAffinity -2.45752215
REMARK minimizedRMSD -1
REMARK  1 active torsions:
REMARK  status: ('A' for Active; 'I' for Inactive)
REMARK    1  A    between atoms: C1_2  and  C2_3 
ROOT
ATOM      1  C2  UNL d   1      -0.305  -1.099  -0.430  0.00  0.00    -0.081 A 
ATOM      2  C3  UNL d   1      -0.997  -0.656   0.703  0.00  0.00     0.006 A 
ATOM      3  C4  UNL d   1      -0.602   0.508   1.365  0.00  0.00     0.002 A 
ATOM      4  C5  UNL d   1       0.487   1.254   0.901  0.00  0.00    -0.080 A 
ATOM      5  C6  UNL d   1       0.904   2.522   1.584  0.00  0.00     0.076 C 
ATOM      6  C7  UNL d   1       1.190   0.802  -0.222  0.00  0.00     0.002 A 
ATOM      7  C8  UNL d   1       0.795  -0.362  -0.883  0.00  0.00     0.006 A 
ENDROOT
BRANCH   1   8
ATOM      8  C1  UNL d   1      -0.769  -2.319  -1.184  0.00  0.00     0.054 C 
ATOM      9  C   UNL d   1      -1.848  -1.966  -2.198  0.00  0.00     0.018 C 
ENDBRANCH   1   8
TORSDOF 1
ENDMDL
