MODEL 1
REMARK minimizedAffinity -4.28809929
REMARK minimizedRMSD -1
REMARK  1 active torsions:
REMARK  status: ('A' for Active; 'I' for Inactive)
REMARK    1  A    between atoms: C1_2  and  C2_3 
ROOT
ATOM      1  C2  UNL d   1      -0.185  -0.303  -0.394  0.00  0.00    -0.081 A 
ATOM      2  C3  UNL d   1      -0.678   0.418   0.700  0.00  0.00     0.006 A 
ATOM      3  C4  UNL d   1       0.057   1.475   1.240  0.00  0.00     0.002 A 
ATOM      4  C5  UNL d   1       1.293   1.834   0.692  0.00  0.00    -0.080 A 
ATOM      5  C6  UNL d   1       2.078   2.987   1.243  0.00  0.00     0.076 C 
ATOM      6  C7  UNL d   1       1.794   1.103  -0.390  0.00  0.00     0.002 A 
ATOM      7  C8  UNL d   1       1.060   0.045  -0.931  0.00  0.00     0.006 A 
ENDROOT
BRANCH   1   8
ATOM      8  C1  UNL d   1      -1.004  -1.403  -1.021  0.00  0.00     0.054 C 
ATOM      9  C   UNL d   1      -1.371  -1.068  -2.459  0.00  0.00     0.018 C 
ENDBRANCH   1   8
TORSDOF 1
ENDMDL
