MODEL 1
REMARK minimizedAffinity -5.31111956
REMARK minimizedRMSD -1
REMARK  1 active torsions:
REMARK  status: ('A' for Active; 'I' for Inactive)
REMARK    1  A    between atoms: C1_2  and  C2_3 
ROOT
ATOM      1  C2  UNL d   1      -0.732  -0.686  -0.571  0.00  0.00    -0.081 A 
ATOM      2  C3  UNL d   1      -1.232  -0.290   0.675  0.00  0.00     0.006 A 
ATOM      3  C4  UNL d   1      -0.665   0.790   1.355  0.00  0.00     0.002 A 
ATOM      4  C5  UNL d   1       0.405   1.497   0.797  0.00  0.00    -0.080 A 
ATOM      5  C6  UNL d   1       1.004   2.678   1.503  0.00  0.00     0.076 C 
ATOM      6  C7  UNL d   1       0.917   1.091  -0.440  0.00  0.00     0.002 A 
ATOM      7  C8  UNL d   1       0.351   0.010  -1.120  0.00  0.00     0.006 A 
ENDROOT
BRANCH   1   8
ATOM      8  C1  UNL d   1      -1.382  -1.810  -1.337  0.00  0.00     0.054 C 
ATOM      9  C   UNL d   1      -1.573  -1.444  -2.801  0.00  0.00     0.018 C 
ENDBRANCH   1   8
TORSDOF 1
ENDMDL
