MODEL 1
REMARK minimizedAffinity -1.41395903
REMARK minimizedRMSD -1
REMARK  1 active torsions:
REMARK  status: ('A' for Active; 'I' for Inactive)
REMARK    1  A    between atoms: C1_2  and  C2_3 
ROOT
ATOM      1  C2  UNL d   1      -0.460  -1.111  -0.596  0.00  0.00    -0.081 A 
ATOM      2  C3  UNL d   1      -1.007  -0.535   0.557  0.00  0.00     0.006 A 
ATOM      3  C4  UNL d   1      -0.370   0.541   1.181  0.00  0.00     0.002 A 
ATOM      4  C5  UNL d   1       0.818   1.062   0.659  0.00  0.00    -0.080 A 
ATOM      5  C6  UNL d   1       1.495   2.236   1.303  0.00  0.00     0.076 C 
ATOM      6  C7  UNL d   1       1.374   0.476  -0.483  0.00  0.00     0.002 A 
ATOM      7  C8  UNL d   1       0.738  -0.600  -1.107  0.00  0.00     0.006 A 
ENDROOT
BRANCH   1   8
ATOM      8  C1  UNL d   1      -1.178  -2.229  -1.308  0.00  0.00     0.054 C 
ATOM      9  C   UNL d   1      -2.255  -1.690  -2.239  0.00  0.00     0.018 C 
ENDBRANCH   1   8
TORSDOF 1
ENDMDL
