MODEL 1
REMARK minimizedAffinity 4.66153479
REMARK minimizedRMSD -1
REMARK  1 active torsions:
REMARK  status: ('A' for Active; 'I' for Inactive)
REMARK    1  A    between atoms: C1_2  and  C2_3 
ROOT
ATOM      1  C2  UNL d   1      -1.975  -0.826  -0.811  0.00  0.00    -0.081 A 
ATOM      2  C3  UNL d   1      -0.648  -1.129  -0.484  0.00  0.00     0.006 A 
ATOM      3  C4  UNL d   1       0.022  -0.401   0.502  0.00  0.00     0.002 A 
ATOM      4  C5  UNL d   1      -0.625   0.635   1.183  0.00  0.00    -0.080 A 
ATOM      5  C6  UNL d   1       0.073   1.404   2.266  0.00  0.00     0.076 C 
ATOM      6  C7  UNL d   1      -1.946   0.949   0.844  0.00  0.00     0.002 A 
ATOM      7  C8  UNL d   1      -2.616   0.223  -0.143  0.00  0.00     0.006 A 
ENDROOT
BRANCH   1   8
ATOM      8  C1  UNL d   1      -2.721  -1.650  -1.829  0.00  0.00     0.054 C 
ATOM      9  C   UNL d   1      -2.371  -1.226  -3.249  0.00  0.00     0.018 C 
ENDBRANCH   1   8
TORSDOF 1
ENDMDL
