MODEL 1
REMARK minimizedAffinity -3.86705923
REMARK minimizedRMSD -1
REMARK  0 active torsions:
REMARK  status: ('A' for Active; 'I' for Inactive)
ROOT
ATOM      1  C   UNL d   1      -0.553   3.326   1.511  0.00  0.00     0.023 A 
ATOM      2  C1  UNL d   1      -0.277   2.210   2.301  0.00  0.00     0.003 A 
ATOM      3  C2  UNL d   1      -0.002   0.979   1.701  0.00  0.00     0.048 A 
ATOM      4  C3  UNL d   1      -0.004   0.872   0.311  0.00  0.00     0.023 A 
ATOM      5  C4  UNL d   1      -0.278   1.986  -0.484  0.00  0.00     0.048 A 
ATOM      6  C5  UNL d   1      -0.554   3.215   0.121  0.00  0.00     0.003 A 
ATOM      7  I   UNL d   1       0.405  -0.959  -0.584  0.00  0.00    -0.146 I 
ENDROOT
TORSDOF 0
ENDMDL
