MODEL 1
REMARK minimizedAffinity -4.3035779
REMARK minimizedRMSD -1
REMARK  0 active torsions:
REMARK  status: ('A' for Active; 'I' for Inactive)
ROOT
ATOM      1  C   UNL d   1      -0.952   3.809   0.378  0.00  0.00     0.023 A 
ATOM      2  C1  UNL d   1      -0.658   2.935   1.425  0.00  0.00     0.003 A 
ATOM      3  C2  UNL d   1      -0.305   1.612   1.153  0.00  0.00     0.048 A 
ATOM      4  C3  UNL d   1      -0.246   1.169  -0.168  0.00  0.00     0.023 A 
ATOM      5  C4  UNL d   1      -0.538   2.040  -1.218  0.00  0.00     0.048 A 
ATOM      6  C5  UNL d   1      -0.892   3.362  -0.942  0.00  0.00     0.003 A 
ATOM      7  I   UNL d   1       0.280  -0.800  -0.574  0.00  0.00    -0.146 I 
ENDROOT
TORSDOF 0
ENDMDL
