MODEL 1
REMARK minimizedAffinity -4.43554974
REMARK minimizedRMSD -1
REMARK  0 active torsions:
REMARK  status: ('A' for Active; 'I' for Inactive)
ROOT
ATOM      1  C   UNL d   1      -0.024   1.833   1.827  0.00  0.00     0.023 A 
ATOM      2  C1  UNL d   1       0.448   0.599   2.273  0.00  0.00     0.003 A 
ATOM      3  C2  UNL d   1       0.563  -0.470   1.382  0.00  0.00     0.048 A 
ATOM      4  C3  UNL d   1       0.204  -0.297   0.046  0.00  0.00     0.023 A 
ATOM      5  C4  UNL d   1      -0.268   0.937  -0.406  0.00  0.00     0.048 A 
ATOM      6  C5  UNL d   1      -0.382   2.002   0.489  0.00  0.00     0.003 A 
ATOM      7  I   UNL d   1       0.374  -1.886  -1.283  0.00  0.00    -0.146 I 
ENDROOT
TORSDOF 0
ENDMDL
