MODEL 1
REMARK minimizedAffinity -4.81684351
REMARK minimizedRMSD -1
REMARK  0 active torsions:
REMARK  status: ('A' for Active; 'I' for Inactive)
ROOT
ATOM      1  C   UNL d   1      -0.679   1.885   2.160  0.00  0.00     0.023 A 
ATOM      2  C1  UNL d   1       0.479   1.123   2.318  0.00  0.00     0.003 A 
ATOM      3  C2  UNL d   1       0.861   0.216   1.328  0.00  0.00     0.048 A 
ATOM      4  C3  UNL d   1       0.080   0.076   0.181  0.00  0.00     0.023 A 
ATOM      5  C4  UNL d   1      -1.079   0.836   0.018  0.00  0.00     0.048 A 
ATOM      6  C5  UNL d   1      -1.457   1.741   1.011  0.00  0.00     0.003 A 
ATOM      7  I   UNL d   1       0.646  -1.274  -1.295  0.00  0.00    -0.146 I 
ENDROOT
TORSDOF 0
ENDMDL
