MODEL 1
REMARK minimizedAffinity 4.69543457
REMARK minimizedRMSD -1
REMARK  0 active torsions:
REMARK  status: ('A' for Active; 'I' for Inactive)
ROOT
ATOM      1  C   UNL d   1       0.928   0.686   1.285  0.00  0.00     0.023 A 
ATOM      2  C1  UNL d   1       0.543   1.421   2.407  0.00  0.00     0.003 A 
ATOM      3  C2  UNL d   1       0.610   0.845   3.677  0.00  0.00     0.048 A 
ATOM      4  C3  UNL d   1       1.064  -0.465   3.819  0.00  0.00     0.023 A 
ATOM      5  C4  UNL d   1       1.451  -1.204   2.700  0.00  0.00     0.048 A 
ATOM      6  C5  UNL d   1       1.381  -0.625   1.432  0.00  0.00     0.003 A 
ATOM      7  I   UNL d   1       1.165  -1.325   5.709  0.00  0.00    -0.146 I 
ENDROOT
TORSDOF 0
ENDMDL
