MODEL 1
REMARK minimizedAffinity 9.39525986
REMARK minimizedRMSD -1
REMARK  0 active torsions:
REMARK  status: ('A' for Active; 'I' for Inactive)
ROOT
ATOM      1  C4' PXY d   1       2.981   0.154   0.058  0.00  0.00     0.077 C 
ATOM      2  C1' PXY d   1       0.920  -4.452  -2.762  0.00  0.00     0.077 C 
ATOM      3  C1  PXY d   1       1.461  -3.251  -2.011  0.00  0.00    -0.082 A 
ATOM      4  C2  PXY d   1       1.275  -2.036  -2.501  0.00  0.00     0.003 A 
ATOM      5  C3  PXY d   1       1.785  -0.941  -1.852  0.00  0.00     0.003 A 
ATOM      6  C4  PXY d   1       2.445  -1.087  -0.661  0.00  0.00    -0.082 A 
ATOM      7  C5  PXY d   1       2.629  -2.322  -0.149  0.00  0.00     0.003 A 
ATOM      8  C6  PXY d   1       2.139  -3.424  -0.845  0.00  0.00     0.003 A 
ENDROOT
TORSDOF 0
ENDMDL
