MODEL 1
REMARK minimizedAffinity 3.46659303
REMARK minimizedRMSD -1
REMARK  0 active torsions:
REMARK  status: ('A' for Active; 'I' for Inactive)
ROOT
ATOM      1  C4' PXY d   1      -4.558  -1.741   1.871  0.00  0.00     0.077 C 
ATOM      2  C1' PXY d   1      -0.278   2.030   2.811  0.00  0.00     0.077 C 
ATOM      3  C1  PXY d   1      -1.406   1.043   2.576  0.00  0.00    -0.082 A 
ATOM      4  C2  PXY d   1      -1.244   0.060   1.706  0.00  0.00     0.003 A 
ATOM      5  C3  PXY d   1      -2.264  -0.821   1.458  0.00  0.00     0.003 A 
ATOM      6  C4  PXY d   1      -3.444  -0.728   2.147  0.00  0.00    -0.082 A 
ATOM      7  C5  PXY d   1      -3.613   0.266   3.044  0.00  0.00     0.003 A 
ATOM      8  C6  PXY d   1      -2.579   1.176   3.252  0.00  0.00     0.003 A 
ENDROOT
TORSDOF 0
ENDMDL
