MODEL 1
REMARK minimizedAffinity 8.00608921
REMARK minimizedRMSD -1
REMARK  0 active torsions:
REMARK  status: ('A' for Active; 'I' for Inactive)
ROOT
ATOM      1  C4' PXY d   1       0.589  -3.666  -3.062  0.00  0.00     0.077 C 
ATOM      2  C1' PXY d   1       3.178   0.498  -0.001  0.00  0.00     0.077 C 
ATOM      3  C1  PXY d   1       2.507  -0.603  -0.798  0.00  0.00    -0.082 A 
ATOM      4  C2  PXY d   1       1.904  -0.310  -1.939  0.00  0.00     0.003 A 
ATOM      5  C3  PXY d   1       1.264  -1.288  -2.657  0.00  0.00     0.003 A 
ATOM      6  C4  PXY d   1       1.288  -2.588  -2.229  0.00  0.00    -0.082 A 
ATOM      7  C5  PXY d   1       1.910  -2.897  -1.071  0.00  0.00     0.003 A 
ATOM      8  C6  PXY d   1       2.518  -1.883  -0.337  0.00  0.00     0.003 A 
ENDROOT
TORSDOF 0
ENDMDL
