MODEL 1
REMARK minimizedAffinity 11.843627
REMARK minimizedRMSD -1
REMARK  0 active torsions:
REMARK  status: ('A' for Active; 'I' for Inactive)
ROOT
ATOM      1  C4' PXY d   1       4.559   2.253   1.044  0.00  0.00     0.077 C 
ATOM      2  C1' PXY d   1       2.306  -2.942  -0.116  0.00  0.00     0.077 C 
ATOM      3  C1  PXY d   1       2.890  -1.574   0.179  0.00  0.00    -0.082 A 
ATOM      4  C2  PXY d   1       4.064  -1.480   0.782  0.00  0.00     0.003 A 
ATOM      5  C3  PXY d   1       4.591  -0.251   1.085  0.00  0.00     0.003 A 
ATOM      6  C4  PXY d   1       3.936   0.893   0.718  0.00  0.00    -0.082 A 
ATOM      7  C5  PXY d   1       2.743   0.806   0.093  0.00  0.00     0.003 A 
ATOM      8  C6  PXY d   1       2.205  -0.451  -0.168  0.00  0.00     0.003 A 
ENDROOT
TORSDOF 0
ENDMDL
