MODEL 1
REMARK minimizedAffinity 13.0269213
REMARK minimizedRMSD -1
REMARK  0 active torsions:
REMARK  status: ('A' for Active; 'I' for Inactive)
ROOT
ATOM      1  C4' PXY d   1      -4.972  -2.468  -5.999  0.00  0.00     0.077 C 
ATOM      2  C1' PXY d   1      -0.573  -5.116  -3.344  0.00  0.00     0.077 C 
ATOM      3  C1  PXY d   1      -1.721  -4.424  -4.052  0.00  0.00    -0.082 A 
ATOM      4  C2  PXY d   1      -2.444  -3.526  -3.402  0.00  0.00     0.003 A 
ATOM      5  C3  PXY d   1      -3.506  -2.914  -4.018  0.00  0.00     0.003 A 
ATOM      6  C4  PXY d   1      -3.798  -3.185  -5.327  0.00  0.00    -0.082 A 
ATOM      7  C5  PXY d   1      -3.059  -4.092  -6.000  0.00  0.00     0.003 A 
ATOM      8  C6  PXY d   1      -2.011  -4.733  -5.345  0.00  0.00     0.003 A 
ENDROOT
TORSDOF 0
ENDMDL
