MODEL 1
REMARK minimizedAffinity 10.882618
REMARK minimizedRMSD -1
REMARK  0 active torsions:
REMARK  status: ('A' for Active; 'I' for Inactive)
ROOT
ATOM      1  C4' PXY d   1       1.931  -0.368  -0.412  0.00  0.00     0.077 C 
ATOM      2  C1' PXY d   1       2.446  -5.897  -2.017  0.00  0.00     0.077 C 
ATOM      3  C1  PXY d   1       2.307  -4.444  -1.609  0.00  0.00    -0.082 A 
ATOM      4  C2  PXY d   1       2.959  -3.998  -0.547  0.00  0.00     0.003 A 
ATOM      5  C3  PXY d   1       2.820  -2.695  -0.144  0.00  0.00     0.003 A 
ATOM      6  C4  PXY d   1       2.048  -1.825  -0.867  0.00  0.00    -0.082 A 
ATOM      7  C5  PXY d   1       1.388  -2.270  -1.958  0.00  0.00     0.003 A 
ATOM      8  C6  PXY d   1       1.510  -3.607  -2.326  0.00  0.00     0.003 A 
ENDROOT
TORSDOF 0
ENDMDL
