MODEL 1
REMARK minimizedAffinity 8.11990833
REMARK minimizedRMSD -1
REMARK  0 active torsions:
REMARK  status: ('A' for Active; 'I' for Inactive)
ROOT
ATOM      1  C4' PXY d   1       0.377  -4.624  -3.553  0.00  0.00     0.077 C 
ATOM      2  C1' PXY d   1       3.980  -2.542   0.460  0.00  0.00     0.077 C 
ATOM      3  C1  PXY d   1       3.027  -3.078  -0.590  0.00  0.00    -0.082 A 
ATOM      4  C2  PXY d   1       3.045  -4.366  -0.894  0.00  0.00     0.003 A 
ATOM      5  C3  PXY d   1       2.213  -4.862  -1.864  0.00  0.00     0.003 A 
ATOM      6  C4  PXY d   1       1.315  -4.041  -2.492  0.00  0.00    -0.082 A 
ATOM      7  C5  PXY d   1       1.282  -2.728  -2.180  0.00  0.00     0.003 A 
ATOM      8  C6  PXY d   1       2.164  -2.237  -1.221  0.00  0.00     0.003 A 
ENDROOT
TORSDOF 0
ENDMDL
