MODEL 1
REMARK minimizedAffinity 7.72338533
REMARK minimizedRMSD -1
REMARK  0 active torsions:
REMARK  status: ('A' for Active; 'I' for Inactive)
ROOT
ATOM      1  C4' PXY d   1       0.229   1.197   2.595  0.00  0.00     0.077 C 
ATOM      2  C1' PXY d   1       5.098   2.213  -0.350  0.00  0.00     0.077 C 
ATOM      3  C1  PXY d   1       3.815   1.943   0.411  0.00  0.00    -0.082 A 
ATOM      4  C2  PXY d   1       3.595   2.558   1.561  0.00  0.00     0.003 A 
ATOM      5  C3  PXY d   1       2.455   2.301   2.279  0.00  0.00     0.003 A 
ATOM      6  C4  PXY d   1       1.506   1.446   1.788  0.00  0.00    -0.082 A 
ATOM      7  C5  PXY d   1       1.718   0.822   0.609  0.00  0.00     0.003 A 
ATOM      8  C6  PXY d   1       2.900   1.065  -0.083  0.00  0.00     0.003 A 
ENDROOT
TORSDOF 0
ENDMDL
