MODEL 1
REMARK minimizedAffinity 16.199461
REMARK minimizedRMSD -1
REMARK  0 active torsions:
REMARK  status: ('A' for Active; 'I' for Inactive)
ROOT
ATOM      1  C4' PXY d   1      -5.865   1.956   3.989  0.00  0.00     0.077 C 
ATOM      2  C1' PXY d   1      -0.265   0.661   3.382  0.00  0.00     0.077 C 
ATOM      3  C1  PXY d   1      -1.733   0.997   3.553  0.00  0.00    -0.082 A 
ATOM      4  C2  PXY d   1      -2.526   1.024   2.495  0.00  0.00     0.003 A 
ATOM      5  C3  PXY d   1      -3.849   1.357   2.628  0.00  0.00     0.003 A 
ATOM      6  C4  PXY d   1      -4.378   1.613   3.864  0.00  0.00    -0.082 A 
ATOM      7  C5  PXY d   1      -3.578   1.576   4.951  0.00  0.00     0.003 A 
ATOM      8  C6  PXY d   1      -2.229   1.276   4.789  0.00  0.00     0.003 A 
ENDROOT
TORSDOF 0
ENDMDL
