MODEL 1
REMARK minimizedAffinity 19.5351105
REMARK minimizedRMSD -1
REMARK  0 active torsions:
REMARK  status: ('A' for Active; 'I' for Inactive)
ROOT
ATOM      1  C4' PXY d   1      -3.763   0.997   3.003  0.00  0.00     0.077 C 
ATOM      2  C1' PXY d   1       1.965   1.631   2.548  0.00  0.00     0.077 C 
ATOM      3  C1  PXY d   1       0.462   1.477   2.670  0.00  0.00    -0.082 A 
ATOM      4  C2  PXY d   1      -0.051   0.306   3.011  0.00  0.00     0.003 A 
ATOM      5  C3  PXY d   1      -1.410   0.142   3.094  0.00  0.00     0.003 A 
ATOM      6  C4  PXY d   1      -2.250   1.201   2.878  0.00  0.00    -0.082 A 
ATOM      7  C5  PXY d   1      -1.735   2.401   2.540  0.00  0.00     0.003 A 
ATOM      8  C6  PXY d   1      -0.355   2.537   2.421  0.00  0.00     0.003 A 
ENDROOT
TORSDOF 0
ENDMDL
