MODEL 1
REMARK minimizedAffinity 6.18592405
REMARK minimizedRMSD -1
REMARK  0 active torsions:
REMARK  status: ('A' for Active; 'I' for Inactive)
ROOT
ATOM      1  C4' PXY d   1      -3.450  -4.457  -4.831  0.00  0.00     0.077 C 
ATOM      2  C1' PXY d   1       1.553  -6.000  -2.380  0.00  0.00     0.077 C 
ATOM      3  C1  PXY d   1       0.235  -5.605  -3.017  0.00  0.00    -0.082 A 
ATOM      4  C2  PXY d   1       0.234  -4.884  -4.126  0.00  0.00     0.003 A 
ATOM      5  C3  PXY d   1      -0.948  -4.491  -4.698  0.00  0.00     0.003 A 
ATOM      6  C4  PXY d   1      -2.143  -4.886  -4.158  0.00  0.00    -0.082 A 
ATOM      7  C5  PXY d   1      -2.151  -5.631  -3.033  0.00  0.00     0.003 A 
ATOM      8  C6  PXY d   1      -0.940  -5.985  -2.445  0.00  0.00     0.003 A 
ENDROOT
TORSDOF 0
ENDMDL
