MODEL 1
REMARK minimizedAffinity 15.2463961
REMARK minimizedRMSD -1
REMARK  0 active torsions:
REMARK  status: ('A' for Active; 'I' for Inactive)
ROOT
ATOM      1  C4' PXY d   1       4.232  -5.998   0.645  0.00  0.00     0.077 C 
ATOM      2  C1' PXY d   1       2.298  -0.715  -0.681  0.00  0.00     0.077 C 
ATOM      3  C1  PXY d   1       2.817  -2.098  -0.339  0.00  0.00    -0.082 A 
ATOM      4  C2  PXY d   1       1.960  -3.084  -0.130  0.00  0.00     0.003 A 
ATOM      5  C3  PXY d   1       2.411  -4.333   0.212  0.00  0.00     0.003 A 
ATOM      6  C4  PXY d   1       3.754  -4.588   0.288  0.00  0.00    -0.082 A 
ATOM      7  C5  PXY d   1       4.635  -3.590   0.066  0.00  0.00     0.003 A 
ATOM      8  C6  PXY d   1       4.156  -2.319  -0.239  0.00  0.00     0.003 A 
ENDROOT
TORSDOF 0
ENDMDL
