MODEL 1
REMARK minimizedAffinity 10.6986437
REMARK minimizedRMSD -1
REMARK  0 active torsions:
REMARK  status: ('A' for Active; 'I' for Inactive)
ROOT
ATOM      1  C4' PXY d   1       3.158  -3.449   0.174  0.00  0.00     0.077 C 
ATOM      2  C1' PXY d   1       2.875   2.065   1.887  0.00  0.00     0.077 C 
ATOM      3  C1  PXY d   1       2.962   0.620   1.437  0.00  0.00    -0.082 A 
ATOM      4  C2  PXY d   1       1.903   0.037   0.899  0.00  0.00     0.003 A 
ATOM      5  C3  PXY d   1       1.954  -1.278   0.516  0.00  0.00     0.003 A 
ATOM      6  C4  PXY d   1       3.118  -1.989   0.635  0.00  0.00    -0.082 A 
ATOM      7  C5  PXY d   1       4.207  -1.399   1.173  0.00  0.00     0.003 A 
ATOM      8  C6  PXY d   1       4.121  -0.075   1.594  0.00  0.00     0.003 A 
ENDROOT
TORSDOF 0
ENDMDL
