MODEL 1
REMARK minimizedAffinity 14.0708895
REMARK minimizedRMSD -1
REMARK  0 active torsions:
REMARK  status: ('A' for Active; 'I' for Inactive)
ROOT
ATOM      1  C4' PXY d   1      -0.109  -3.964  -4.600  0.00  0.00     0.077 C 
ATOM      2  C1' PXY d   1       3.503  -4.282  -0.097  0.00  0.00     0.077 C 
ATOM      3  C1  PXY d   1       2.559  -4.210  -1.282  0.00  0.00    -0.082 A 
ATOM      4  C2  PXY d   1       2.160  -3.031  -1.730  0.00  0.00     0.003 A 
ATOM      5  C3  PXY d   1       1.282  -2.949  -2.780  0.00  0.00     0.003 A 
ATOM      6  C4  PXY d   1       0.850  -4.084  -3.412  0.00  0.00    -0.082 A 
ATOM      7  C5  PXY d   1       1.262  -5.290  -2.968  0.00  0.00     0.003 A 
ATOM      8  C6  PXY d   1       2.121  -5.354  -1.875  0.00  0.00     0.003 A 
ENDROOT
TORSDOF 0
ENDMDL
