MODEL 1
REMARK minimizedAffinity 10.987443
REMARK minimizedRMSD -1
REMARK  0 active torsions:
REMARK  status: ('A' for Active; 'I' for Inactive)
ROOT
ATOM      1  C4' PXY d   1      -2.899  -2.382   5.266  0.00  0.00     0.077 C 
ATOM      2  C1' PXY d   1      -4.531   2.962   3.783  0.00  0.00     0.077 C 
ATOM      3  C1  PXY d   1      -4.095   1.565   4.181  0.00  0.00    -0.082 A 
ATOM      4  C2  PXY d   1      -4.195   0.575   3.309  0.00  0.00     0.003 A 
ATOM      5  C3  PXY d   1      -3.836  -0.700   3.663  0.00  0.00     0.003 A 
ATOM      6  C4  PXY d   1      -3.318  -0.954   4.904  0.00  0.00    -0.082 A 
ATOM      7  C5  PXY d   1      -3.203   0.053   5.796  0.00  0.00     0.003 A 
ATOM      8  C6  PXY d   1      -3.612   1.332   5.431  0.00  0.00     0.003 A 
ENDROOT
TORSDOF 0
ENDMDL
