MODEL 1
REMARK minimizedAffinity 13.0021839
REMARK minimizedRMSD -1
REMARK  0 active torsions:
REMARK  status: ('A' for Active; 'I' for Inactive)
ROOT
ATOM      1  C4' PXY d   1      -4.874  -3.015  -6.000  0.00  0.00     0.077 C 
ATOM      2  C1' PXY d   1      -0.370  -5.075  -3.019  0.00  0.00     0.077 C 
ATOM      3  C1  PXY d   1      -1.543  -4.532  -3.811  0.00  0.00    -0.082 A 
ATOM      4  C2  PXY d   1      -2.626  -4.116  -3.174  0.00  0.00     0.003 A 
ATOM      5  C3  PXY d   1      -3.708  -3.652  -3.876  0.00  0.00     0.003 A 
ATOM      6  C4  PXY d   1      -3.662  -3.562  -5.241  0.00  0.00    -0.082 A 
ATOM      7  C5  PXY d   1      -2.557  -3.974  -5.898  0.00  0.00     0.003 A 
ATOM      8  C6  PXY d   1      -1.484  -4.481  -5.169  0.00  0.00     0.003 A 
ENDROOT
TORSDOF 0
ENDMDL
