MODEL 1
REMARK minimizedAffinity 18.8141079
REMARK minimizedRMSD -1
REMARK  0 active torsions:
REMARK  status: ('A' for Active; 'I' for Inactive)
ROOT
ATOM      1  C4' PXY d   1       1.976   1.257   2.566  0.00  0.00     0.077 C 
ATOM      2  C1' PXY d   1      -3.684   0.087   2.467  0.00  0.00     0.077 C 
ATOM      3  C1  PXY d   1      -2.197   0.381   2.496  0.00  0.00    -0.082 A 
ATOM      4  C2  PXY d   1      -1.780   1.618   2.712  0.00  0.00     0.003 A 
ATOM      5  C3  PXY d   1      -0.439   1.907   2.710  0.00  0.00     0.003 A 
ATOM      6  C4  PXY d   1       0.484   0.911   2.538  0.00  0.00    -0.082 A 
ATOM      7  C5  PXY d   1       0.066  -0.355   2.327  0.00  0.00     0.003 A 
ATOM      8  C6  PXY d   1      -1.300  -0.621   2.292  0.00  0.00     0.003 A 
ENDROOT
TORSDOF 0
ENDMDL
