MODEL 1
REMARK minimizedAffinity 15.9959602
REMARK minimizedRMSD -1
REMARK  0 active torsions:
REMARK  status: ('A' for Active; 'I' for Inactive)
ROOT
ATOM      1  C4' PXY d   1       4.404  -6.000   0.021  0.00  0.00     0.077 C 
ATOM      2  C1' PXY d   1       2.012  -0.769  -0.554  0.00  0.00     0.077 C 
ATOM      3  C1  PXY d   1       2.651  -2.136  -0.406  0.00  0.00    -0.082 A 
ATOM      4  C2  PXY d   1       1.907  -3.222  -0.533  0.00  0.00     0.003 A 
ATOM      5  C3  PXY d   1       2.462  -4.466  -0.371  0.00  0.00     0.003 A 
ATOM      6  C4  PXY d   1       3.803  -4.599  -0.129  0.00  0.00    -0.082 A 
ATOM      7  C5  PXY d   1       4.571  -3.496  -0.009  0.00  0.00     0.003 A 
ATOM      8  C6  PXY d   1       3.980  -2.242  -0.136  0.00  0.00     0.003 A 
ENDROOT
TORSDOF 0
ENDMDL
