MODEL 1
REMARK minimizedAffinity 15.6687593
REMARK minimizedRMSD -1
REMARK  0 active torsions:
REMARK  status: ('A' for Active; 'I' for Inactive)
ROOT
ATOM      1  C4' PXY d   1       3.049   0.356   0.092  0.00  0.00     0.077 C 
ATOM      2  C1' PXY d   1       0.542  -4.041  -2.700  0.00  0.00     0.077 C 
ATOM      3  C1  PXY d   1       1.197  -2.894  -1.956  0.00  0.00    -0.082 A 
ATOM      4  C2  PXY d   1       1.285  -1.706  -2.533  0.00  0.00     0.003 A 
ATOM      5  C3  PXY d   1       1.903  -0.666  -1.888  0.00  0.00     0.003 A 
ATOM      6  C4  PXY d   1       2.388  -0.829  -0.618  0.00  0.00    -0.082 A 
ATOM      7  C5  PXY d   1       2.292  -2.035  -0.018  0.00  0.00     0.003 A 
ATOM      8  C6  PXY d   1       1.699  -3.089  -0.707  0.00  0.00     0.003 A 
ENDROOT
TORSDOF 0
ENDMDL
