MODEL 1
REMARK minimizedAffinity 2.917413
REMARK minimizedRMSD -1
REMARK  0 active torsions:
REMARK  status: ('A' for Active; 'I' for Inactive)
ROOT
ATOM      1  C4' PXY d   1       3.366  -6.000  -0.673  0.00  0.00     0.077 C 
ATOM      2  C1' PXY d   1       1.837  -0.706  -2.419  0.00  0.00     0.077 C 
ATOM      3  C1  PXY d   1       2.226  -2.098  -1.963  0.00  0.00    -0.082 A 
ATOM      4  C2  PXY d   1       3.281  -2.260  -1.181  0.00  0.00     0.003 A 
ATOM      5  C3  PXY d   1       3.665  -3.515  -0.785  0.00  0.00     0.003 A 
ATOM      6  C4  PXY d   1       2.931  -4.612  -1.150  0.00  0.00    -0.082 A 
ATOM      7  C5  PXY d   1       1.848  -4.454  -1.940  0.00  0.00     0.003 A 
ATOM      8  C6  PXY d   1       1.498  -3.176  -2.364  0.00  0.00     0.003 A 
ENDROOT
TORSDOF 0
ENDMDL
