MODEL 1
REMARK minimizedAffinity 7.0162282
REMARK minimizedRMSD -1
REMARK  2 active torsions:
REMARK  status: ('A' for Active; 'I' for Inactive)
REMARK    1  A    between atoms: C1_2  and  C2_3 
REMARK    2  A    between atoms: C2_3  and  C3_4 
ROOT
ATOM      1  C3  UNL d   1      -4.928  -4.243   0.348  0.00  0.00    -0.075 A 
ATOM      2  C4  UNL d   1      -3.633  -4.461  -0.143  0.00  0.00     0.002 A 
ATOM      3  C5  UNL d   1      -3.419  -5.331  -1.213  0.00  0.00     0.002 A 
ATOM      4  C6  UNL d   1      -4.492  -6.000  -1.797  0.00  0.00    -0.004 A 
ATOM      5  C7  UNL d   1      -5.781  -5.803  -1.306  0.00  0.00     0.002 A 
ATOM      6  C8  UNL d   1      -5.999  -4.930  -0.239  0.00  0.00     0.002 A 
ENDROOT
BRANCH   1   7
ATOM      7  C2  UNL d   1      -5.171  -3.281   1.486  0.00  0.00     0.056 C 
BRANCH   7   8
ATOM      8  C1  UNL d   1      -5.932  -2.014   1.081  0.00  0.00     0.007 C 
ATOM      9  C   UNL d   1      -5.895  -1.746  -0.418  0.00  0.00     0.009 C 
ENDBRANCH   7   8
ENDBRANCH   1   7
TORSDOF 2
ENDMDL
