MODEL 1
REMARK minimizedAffinity 15.2919102
REMARK minimizedRMSD -1
REMARK  2 active torsions:
REMARK  status: ('A' for Active; 'I' for Inactive)
REMARK    1  A    between atoms: C1_2  and  C2_3 
REMARK    2  A    between atoms: C2_3  and  C3_4 
ROOT
ATOM      1  C3  UNL d   1       3.296   2.876  -2.679  0.00  0.00    -0.075 A 
ATOM      2  C4  UNL d   1       2.374   3.823  -2.209  0.00  0.00     0.002 A 
ATOM      3  C5  UNL d   1       2.295   5.086  -2.796  0.00  0.00     0.002 A 
ATOM      4  C6  UNL d   1       3.142   5.422  -3.849  0.00  0.00    -0.004 A 
ATOM      5  C7  UNL d   1       4.073   4.495  -4.313  0.00  0.00     0.002 A 
ATOM      6  C8  UNL d   1       4.151   3.229  -3.731  0.00  0.00     0.002 A 
ENDROOT
BRANCH   1   7
ATOM      7  C2  UNL d   1       3.366   1.497  -2.068  0.00  0.00     0.056 C 
BRANCH   7   8
ATOM      8  C1  UNL d   1       2.301   0.527  -2.593  0.00  0.00     0.007 C 
ATOM      9  C   UNL d   1       2.718  -0.189  -3.871  0.00  0.00     0.009 C 
ENDBRANCH   7   8
ENDBRANCH   1   7
TORSDOF 2
ENDMDL
