MODEL 1
REMARK minimizedAffinity 11.1407528
REMARK minimizedRMSD -1
REMARK  2 active torsions:
REMARK  status: ('A' for Active; 'I' for Inactive)
REMARK    1  A    between atoms: C1_2  and  C2_3 
REMARK    2  A    between atoms: C2_3  and  C3_4 
ROOT
ATOM      1  C3  UNL d   1      -1.889   0.754   1.827  0.00  0.00    -0.075 A 
ATOM      2  C4  UNL d   1      -0.505   0.633   2.024  0.00  0.00     0.002 A 
ATOM      3  C5  UNL d   1       0.264   1.750   2.350  0.00  0.00     0.002 A 
ATOM      4  C6  UNL d   1      -0.336   3.001   2.474  0.00  0.00    -0.004 A 
ATOM      5  C7  UNL d   1      -1.707   3.136   2.264  0.00  0.00     0.002 A 
ATOM      6  C8  UNL d   1      -2.480   2.019   1.942  0.00  0.00     0.002 A 
ENDROOT
BRANCH   1   7
ATOM      7  C2  UNL d   1      -2.731  -0.456   1.503  0.00  0.00     0.056 C 
BRANCH   7   8
ATOM      8  C1  UNL d   1      -3.520  -0.335   0.195  0.00  0.00     0.007 C 
ATOM      9  C   UNL d   1      -4.461  -1.507  -0.050  0.00  0.00     0.009 C 
ENDBRANCH   7   8
ENDBRANCH   1   7
TORSDOF 2
ENDMDL
