MODEL 1
REMARK minimizedAffinity 14.8850098
REMARK minimizedRMSD -1
REMARK  2 active torsions:
REMARK  status: ('A' for Active; 'I' for Inactive)
REMARK    1  A    between atoms: C1_2  and  C2_3 
REMARK    2  A    between atoms: C2_3  and  C3_4 
ROOT
ATOM      1  C3  UNL d   1      -3.809  -0.256   0.937  0.00  0.00    -0.075 A 
ATOM      2  C4  UNL d   1      -3.735   1.111   0.634  0.00  0.00     0.002 A 
ATOM      3  C5  UNL d   1      -2.691   1.891   1.131  0.00  0.00     0.002 A 
ATOM      4  C6  UNL d   1      -1.715   1.318   1.943  0.00  0.00    -0.004 A 
ATOM      5  C7  UNL d   1      -1.787  -0.035   2.265  0.00  0.00     0.002 A 
ATOM      6  C8  UNL d   1      -2.829  -0.819   1.765  0.00  0.00     0.002 A 
ENDROOT
BRANCH   1   7
ATOM      7  C2  UNL d   1      -4.920  -1.112   0.379  0.00  0.00     0.056 C 
BRANCH   7   8
ATOM      8  C1  UNL d   1      -5.135  -2.427   1.135  0.00  0.00     0.007 C 
ATOM      9  C   UNL d   1      -6.000  -3.424   0.374  0.00  0.00     0.009 C 
ENDBRANCH   7   8
ENDBRANCH   1   7
TORSDOF 2
ENDMDL
