MODEL 1
REMARK minimizedAffinity -5.40867376
REMARK minimizedRMSD -1
REMARK  2 active torsions:
REMARK  status: ('A' for Active; 'I' for Inactive)
REMARK    1  A    between atoms: C1_2  and  C2_3 
REMARK    2  A    between atoms: C2_3  and  C3_4 
ROOT
ATOM      1  C3  UNL d   1      -0.686  -0.514   0.405  0.00  0.00    -0.075 A 
ATOM      2  C4  UNL d   1      -0.932  -0.830   1.750  0.00  0.00     0.002 A 
ATOM      3  C5  UNL d   1      -0.004  -0.496   2.737  0.00  0.00     0.002 A 
ATOM      4  C6  UNL d   1       1.182   0.147   2.393  0.00  0.00    -0.004 A 
ATOM      5  C7  UNL d   1       1.444   0.451   1.058  0.00  0.00     0.002 A 
ATOM      6  C8  UNL d   1       0.516   0.122   0.069  0.00  0.00     0.002 A 
ENDROOT
BRANCH   1   7
ATOM      7  C2  UNL d   1      -1.699  -0.847  -0.664  0.00  0.00     0.056 C 
BRANCH   7   8
ATOM      8  C1  UNL d   1      -1.278  -0.424  -2.075  0.00  0.00     0.007 C 
ATOM      9  C   UNL d   1      -0.718  -1.572  -2.904  0.00  0.00     0.009 C 
ENDBRANCH   7   8
ENDBRANCH   1   7
TORSDOF 2
ENDMDL
