MODEL 1
REMARK minimizedAffinity -3.9090035
REMARK minimizedRMSD -1
REMARK  2 active torsions:
REMARK  status: ('A' for Active; 'I' for Inactive)
REMARK    1  A    between atoms: C1_2  and  C2_3 
REMARK    2  A    between atoms: C2_3  and  C3_4 
ROOT
ATOM      1  C3  UNL d   1       0.352  -0.487  -1.061  0.00  0.00    -0.075 A 
ATOM      2  C4  UNL d   1       0.979   0.192  -0.006  0.00  0.00     0.002 A 
ATOM      3  C5  UNL d   1       0.373   0.264   1.249  0.00  0.00     0.002 A 
ATOM      4  C6  UNL d   1      -0.868  -0.332   1.461  0.00  0.00    -0.004 A 
ATOM      5  C7  UNL d   1      -1.507  -0.994   0.416  0.00  0.00     0.002 A 
ATOM      6  C8  UNL d   1      -0.901  -1.072  -0.839  0.00  0.00     0.002 A 
ENDROOT
BRANCH   1   7
ATOM      7  C2  UNL d   1       1.016  -0.594  -2.413  0.00  0.00     0.056 C 
BRANCH   7   8
ATOM      8  C1  UNL d   1       0.657  -1.868  -3.185  0.00  0.00     0.007 C 
ATOM      9  C   UNL d   1       1.875  -2.604  -3.728  0.00  0.00     0.009 C 
ENDBRANCH   7   8
ENDBRANCH   1   7
TORSDOF 2
ENDMDL
