MODEL 1
REMARK minimizedAffinity -4.78682566
REMARK minimizedRMSD -1
REMARK  2 active torsions:
REMARK  status: ('A' for Active; 'I' for Inactive)
REMARK    1  A    between atoms: C1_2  and  C2_3 
REMARK    2  A    between atoms: C2_3  and  C3_4 
ROOT
ATOM      1  C3  UNL d   1      -1.497  -3.551  -2.868  0.00  0.00    -0.075 A 
ATOM      2  C4  UNL d   1      -0.721  -2.774  -3.740  0.00  0.00     0.002 A 
ATOM      3  C5  UNL d   1      -0.677  -1.386  -3.604  0.00  0.00     0.002 A 
ATOM      4  C6  UNL d   1      -1.414  -0.758  -2.603  0.00  0.00    -0.004 A 
ATOM      5  C7  UNL d   1      -2.202  -1.518  -1.742  0.00  0.00     0.002 A 
ATOM      6  C8  UNL d   1      -2.244  -2.907  -1.873  0.00  0.00     0.002 A 
ENDROOT
BRANCH   1   7
ATOM      7  C2  UNL d   1      -1.526  -5.056  -2.991  0.00  0.00     0.056 C 
BRANCH   7   8
ATOM      8  C1  UNL d   1      -2.878  -5.684  -2.638  0.00  0.00     0.007 C 
ATOM      9  C   UNL d   1      -3.025  -6.000  -1.155  0.00  0.00     0.009 C 
ENDBRANCH   7   8
ENDBRANCH   1   7
TORSDOF 2
ENDMDL
