MODEL 1
REMARK minimizedAffinity 0.757763088
REMARK minimizedRMSD -1
REMARK  2 active torsions:
REMARK  status: ('A' for Active; 'I' for Inactive)
REMARK    1  A    between atoms: C1_2  and  C2_3 
REMARK    2  A    between atoms: C2_3  and  C3_4 
ROOT
ATOM      1  C3  UNL d   1       1.008  -0.204  -1.613  0.00  0.00    -0.075 A 
ATOM      2  C4  UNL d   1       0.621  -1.504  -1.972  0.00  0.00     0.002 A 
ATOM      3  C5  UNL d   1       1.189  -2.131  -3.082  0.00  0.00     0.002 A 
ATOM      4  C6  UNL d   1       2.140  -1.465  -3.851  0.00  0.00    -0.004 A 
ATOM      5  C7  UNL d   1       2.520  -0.167  -3.514  0.00  0.00     0.002 A 
ATOM      6  C8  UNL d   1       1.957   0.461  -2.401  0.00  0.00     0.002 A 
ENDROOT
BRANCH   1   7
ATOM      7  C2  UNL d   1       0.420   0.469  -0.396  0.00  0.00     0.056 C 
BRANCH   7   8
ATOM      8  C1  UNL d   1       1.457   0.865   0.660  0.00  0.00     0.007 C 
ATOM      9  C   UNL d   1       1.079   0.423   2.068  0.00  0.00     0.009 C 
ENDBRANCH   7   8
ENDBRANCH   1   7
TORSDOF 2
ENDMDL
