MODEL 1
REMARK minimizedAffinity -3.98459339
REMARK minimizedRMSD -1
REMARK  2 active torsions:
REMARK  status: ('A' for Active; 'I' for Inactive)
REMARK    1  A    between atoms: C1_2  and  C2_3 
REMARK    2  A    between atoms: C2_3  and  C3_4 
ROOT
ATOM      1  C3  UNL d   1      -1.291  -0.148   0.070  0.00  0.00    -0.075 A 
ATOM      2  C4  UNL d   1       0.093  -0.060   0.279  0.00  0.00     0.002 A 
ATOM      3  C5  UNL d   1       0.617  -0.090   1.572  0.00  0.00     0.002 A 
ATOM      4  C6  UNL d   1      -0.234  -0.197   2.670  0.00  0.00    -0.004 A 
ATOM      5  C7  UNL d   1      -1.611  -0.268   2.474  0.00  0.00     0.002 A 
ATOM      6  C8  UNL d   1      -2.138  -0.243   1.182  0.00  0.00     0.002 A 
ENDROOT
BRANCH   1   7
ATOM      7  C2  UNL d   1      -1.863  -0.146  -1.327  0.00  0.00     0.056 C 
BRANCH   7   8
ATOM      8  C1  UNL d   1      -1.841  -1.517  -2.012  0.00  0.00     0.007 C 
ATOM      9  C   UNL d   1      -0.743  -1.648  -3.059  0.00  0.00     0.009 C 
ENDBRANCH   7   8
ENDBRANCH   1   7
TORSDOF 2
ENDMDL
