MODEL 1
REMARK minimizedAffinity -2.5267694
REMARK minimizedRMSD -1
REMARK  2 active torsions:
REMARK  status: ('A' for Active; 'I' for Inactive)
REMARK    1  A    between atoms: C1_2  and  C2_3 
REMARK    2  A    between atoms: C2_3  and  C3_4 
ROOT
ATOM      1  C3  UNL d   1      -1.180   0.521  -0.156  0.00  0.00    -0.075 A 
ATOM      2  C4  UNL d   1      -0.047   0.661  -0.970  0.00  0.00     0.002 A 
ATOM      3  C5  UNL d   1       1.233   0.611  -0.417  0.00  0.00     0.002 A 
ATOM      4  C6  UNL d   1       1.396   0.431   0.955  0.00  0.00    -0.004 A 
ATOM      5  C7  UNL d   1       0.276   0.308   1.775  0.00  0.00     0.002 A 
ATOM      6  C8  UNL d   1      -1.005   0.353   1.224  0.00  0.00     0.002 A 
ENDROOT
BRANCH   1   7
ATOM      7  C2  UNL d   1      -2.567   0.545  -0.753  0.00  0.00     0.056 C 
BRANCH   7   8
ATOM      8  C1  UNL d   1      -2.921  -0.709  -1.560  0.00  0.00     0.007 C 
ATOM      9  C   UNL d   1      -4.261  -0.604  -2.276  0.00  0.00     0.009 C 
ENDBRANCH   7   8
ENDBRANCH   1   7
TORSDOF 2
ENDMDL
