MODEL 1
REMARK minimizedAffinity -5.64588547
REMARK minimizedRMSD -1
REMARK  2 active torsions:
REMARK  status: ('A' for Active; 'I' for Inactive)
REMARK    1  A    between atoms: C1_2  and  C2_3 
REMARK    2  A    between atoms: C2_3  and  C3_4 
ROOT
ATOM      1  C3  UNL d   1      -1.338   0.186  -0.197  0.00  0.00    -0.075 A 
ATOM      2  C4  UNL d   1      -1.948  -0.185   1.011  0.00  0.00     0.002 A 
ATOM      3  C5  UNL d   1      -1.205  -0.246   2.190  0.00  0.00     0.002 A 
ATOM      4  C6  UNL d   1       0.155   0.054   2.176  0.00  0.00    -0.004 A 
ATOM      5  C7  UNL d   1       0.775   0.408   0.980  0.00  0.00     0.002 A 
ATOM      6  C8  UNL d   1       0.033   0.473  -0.201  0.00  0.00     0.002 A 
ENDROOT
BRANCH   1   7
ATOM      7  C2  UNL d   1      -2.143   0.282  -1.471  0.00  0.00     0.056 C 
BRANCH   7   8
ATOM      8  C1  UNL d   1      -2.653  -1.067  -1.989  0.00  0.00     0.007 C 
ATOM      9  C   UNL d   1      -1.540  -1.979  -2.487  0.00  0.00     0.009 C 
ENDBRANCH   7   8
ENDBRANCH   1   7
TORSDOF 2
ENDMDL
