MODEL 1
REMARK minimizedAffinity -4.00815296
REMARK minimizedRMSD -1
REMARK  2 active torsions:
REMARK  status: ('A' for Active; 'I' for Inactive)
REMARK    1  A    between atoms: C1_2  and  C2_3 
REMARK    2  A    between atoms: C2_3  and  C3_4 
ROOT
ATOM      1  C3  UNL d   1      -2.096  -2.119  -2.155  0.00  0.00    -0.075 A 
ATOM      2  C4  UNL d   1      -0.706  -2.025  -2.317  0.00  0.00     0.002 A 
ATOM      3  C5  UNL d   1      -0.013  -0.907  -1.854  0.00  0.00     0.002 A 
ATOM      4  C6  UNL d   1      -0.700   0.134  -1.233  0.00  0.00    -0.004 A 
ATOM      5  C7  UNL d   1      -2.083   0.060  -1.082  0.00  0.00     0.002 A 
ATOM      6  C8  UNL d   1      -2.778  -1.060  -1.541  0.00  0.00     0.002 A 
ENDROOT
BRANCH   1   7
ATOM      7  C2  UNL d   1      -2.849  -3.340  -2.628  0.00  0.00     0.056 C 
BRANCH   7   8
ATOM      8  C1  UNL d   1      -2.210  -4.668  -2.208  0.00  0.00     0.007 C 
ATOM      9  C   UNL d   1      -3.131  -5.535  -1.360  0.00  0.00     0.009 C 
ENDBRANCH   7   8
ENDBRANCH   1   7
TORSDOF 2
ENDMDL
