MODEL 1
REMARK minimizedAffinity -6.0632906
REMARK minimizedRMSD -1
REMARK  2 active torsions:
REMARK  status: ('A' for Active; 'I' for Inactive)
REMARK    1  A    between atoms: C1_2  and  C2_3 
REMARK    2  A    between atoms: C2_3  and  C3_4 
ROOT
ATOM      1  C3  UNL d   1      -1.455  -0.682   0.889  0.00  0.00    -0.075 A 
ATOM      2  C4  UNL d   1      -0.841   0.042  -0.143  0.00  0.00     0.002 A 
ATOM      3  C5  UNL d   1      -1.584   0.483  -1.238  0.00  0.00     0.002 A 
ATOM      4  C6  UNL d   1      -2.945   0.199  -1.321  0.00  0.00    -0.004 A 
ATOM      5  C7  UNL d   1      -3.562  -0.533  -0.309  0.00  0.00     0.002 A 
ATOM      6  C8  UNL d   1      -2.822  -0.973   0.790  0.00  0.00     0.002 A 
ENDROOT
BRANCH   1   7
ATOM      7  C2  UNL d   1      -0.663  -1.138   2.091  0.00  0.00     0.056 C 
BRANCH   7   8
ATOM      8  C1  UNL d   1       0.285  -0.073   2.653  0.00  0.00     0.007 C 
ATOM      9  C   UNL d   1      -0.422   0.966   3.514  0.00  0.00     0.009 C 
ENDBRANCH   7   8
ENDBRANCH   1   7
TORSDOF 2
ENDMDL
