MODEL 1
REMARK minimizedAffinity -4.97017574
REMARK minimizedRMSD -1
REMARK  1 active torsions:
REMARK  status: ('A' for Active; 'I' for Inactive)
REMARK    1  A    between atoms: C1_2  and  C2_3 
ROOT
ATOM      1  C2  UNL d   1      -0.794   0.032   0.649  0.00  0.00    -0.076 A 
ATOM      2  C3  UNL d   1      -1.593  -0.182   1.786  0.00  0.00     0.004 A 
ATOM      3  C4  UNL d   1      -1.964   0.878   2.611  0.00  0.00    -0.003 A 
ATOM      4  C5  UNL d   1      -1.544   2.169   2.313  0.00  0.00     0.000 A 
ATOM      5  C6  UNL d   1      -0.765   2.402   1.179  0.00  0.00     0.000 A 
ATOM      6  C7  UNL d   1      -0.395   1.347   0.328  0.00  0.00    -0.073 A 
ATOM      7  C8  UNL d   1       0.450   1.655  -0.878  0.00  0.00     0.078 C 
ENDROOT
BRANCH   1   8
ATOM      8  C1  UNL d   1      -0.399  -1.160  -0.194  0.00  0.00     0.053 C 
ATOM      9  C   UNL d   1       1.011  -1.644   0.106  0.00  0.00     0.018 C 
ENDBRANCH   1   8
TORSDOF 1
ENDMDL
