MODEL 1
REMARK minimizedAffinity -5.43933678
REMARK minimizedRMSD -1
REMARK  1 active torsions:
REMARK  status: ('A' for Active; 'I' for Inactive)
REMARK    1  A    between atoms: C1_2  and  C2_3 
ROOT
ATOM      1  C2  UNL d   1      -0.974   0.218   0.474  0.00  0.00    -0.076 A 
ATOM      2  C3  UNL d   1      -1.703  -0.122   1.627  0.00  0.00     0.004 A 
ATOM      3  C4  UNL d   1      -1.929   0.813   2.635  0.00  0.00    -0.003 A 
ATOM      4  C5  UNL d   1      -1.430   2.104   2.507  0.00  0.00     0.000 A 
ATOM      5  C6  UNL d   1      -0.720   2.465   1.363  0.00  0.00     0.000 A 
ATOM      6  C7  UNL d   1      -0.497   1.539   0.329  0.00  0.00    -0.073 A 
ATOM      7  C8  UNL d   1       0.281   1.980  -0.880  0.00  0.00     0.078 C 
ENDROOT
BRANCH   1   8
ATOM      8  C1  UNL d   1      -0.737  -0.846  -0.574  0.00  0.00     0.053 C 
ATOM      9  C   UNL d   1       0.297  -1.872  -0.138  0.00  0.00     0.018 C 
ENDBRANCH   1   8
TORSDOF 1
ENDMDL
