MODEL 1
REMARK minimizedAffinity -2.72354364
REMARK minimizedRMSD -1
REMARK  1 active torsions:
REMARK  status: ('A' for Active; 'I' for Inactive)
REMARK    1  A    between atoms: C1_2  and  C2_3 
ROOT
ATOM      1  C2  UNL d   1      -0.767   0.375   0.627  0.00  0.00    -0.076 A 
ATOM      2  C3  UNL d   1       0.076   1.412   0.191  0.00  0.00     0.004 A 
ATOM      3  C4  UNL d   1       0.074   2.653   0.826  0.00  0.00    -0.003 A 
ATOM      4  C5  UNL d   1      -0.771   2.877   1.907  0.00  0.00     0.000 A 
ATOM      5  C6  UNL d   1      -1.601   1.854   2.365  0.00  0.00     0.000 A 
ATOM      6  C7  UNL d   1      -1.599   0.592   1.747  0.00  0.00    -0.073 A 
ATOM      7  C8  UNL d   1      -2.519  -0.473   2.278  0.00  0.00     0.078 C 
ENDROOT
BRANCH   1   8
ATOM      8  C1  UNL d   1      -0.741  -0.941  -0.117  0.00  0.00     0.053 C 
ATOM      9  C   UNL d   1       0.660  -1.333  -0.560  0.00  0.00     0.018 C 
ENDBRANCH   1   8
TORSDOF 1
ENDMDL
