MODEL 1
REMARK minimizedAffinity -2.05935383
REMARK minimizedRMSD -1
REMARK  1 active torsions:
REMARK  status: ('A' for Active; 'I' for Inactive)
REMARK    1  A    between atoms: C1_2  and  C2_3 
ROOT
ATOM      1  C2  UNL d   1       0.273   0.316  -0.998  0.00  0.00    -0.076 A 
ATOM      2  C3  UNL d   1       1.259  -0.073  -1.920  0.00  0.00     0.004 A 
ATOM      3  C4  UNL d   1       1.907  -1.301  -1.802  0.00  0.00    -0.003 A 
ATOM      4  C5  UNL d   1       1.579  -2.161  -0.760  0.00  0.00     0.000 A 
ATOM      5  C6  UNL d   1       0.590  -1.799   0.154  0.00  0.00     0.000 A 
ATOM      6  C7  UNL d   1      -0.084  -0.571   0.040  0.00  0.00    -0.073 A 
ATOM      7  C8  UNL d   1      -1.138  -0.228   1.057  0.00  0.00     0.078 C 
ENDROOT
BRANCH   1   8
ATOM      8  C1  UNL d   1      -0.376   1.672  -1.161  0.00  0.00     0.053 C 
ATOM      9  C   UNL d   1       0.627   2.761  -1.506  0.00  0.00     0.018 C 
ENDBRANCH   1   8
TORSDOF 1
ENDMDL
