MODEL 1
REMARK minimizedAffinity -5.65660715
REMARK minimizedRMSD -1
REMARK  1 active torsions:
REMARK  status: ('A' for Active; 'I' for Inactive)
REMARK    1  A    between atoms: C1_2  and  C2_3 
ROOT
ATOM      1  C2  UNL d   1       0.203   0.772  -0.684  0.00  0.00    -0.076 A 
ATOM      2  C3  UNL d   1       1.198   0.331  -1.573  0.00  0.00     0.004 A 
ATOM      3  C4  UNL d   1       1.641  -0.990  -1.556  0.00  0.00    -0.003 A 
ATOM      4  C5  UNL d   1       1.095  -1.892  -0.649  0.00  0.00     0.000 A 
ATOM      5  C6  UNL d   1       0.095  -1.476   0.228  0.00  0.00     0.000 A 
ATOM      6  C7  UNL d   1      -0.375  -0.152   0.213  0.00  0.00    -0.073 A 
ATOM      7  C8  UNL d   1      -1.452   0.244   1.186  0.00  0.00     0.078 C 
ENDROOT
BRANCH   1   8
ATOM      8  C1  UNL d   1      -0.218   2.224  -0.731  0.00  0.00     0.053 C 
ATOM      9  C   UNL d   1       0.417   2.978  -1.888  0.00  0.00     0.018 C 
ENDBRANCH   1   8
TORSDOF 1
ENDMDL
