MODEL 1
REMARK minimizedAffinity -0.931790411
REMARK minimizedRMSD -1
REMARK  1 active torsions:
REMARK  status: ('A' for Active; 'I' for Inactive)
REMARK    1  A    between atoms: C1_2  and  C2_3 
ROOT
ATOM      1  C2  UNL d   1       5.257   0.890   4.776  0.00  0.00    -0.076 A 
ATOM      2  C3  UNL d   1       5.848   1.587   5.845  0.00  0.00     0.004 A 
ATOM      3  C4  UNL d   1       6.000   2.972   5.801  0.00  0.00    -0.003 A 
ATOM      4  C5  UNL d   1       5.563   3.682   4.688  0.00  0.00     0.000 A 
ATOM      5  C6  UNL d   1       4.960   3.009   3.626  0.00  0.00     0.000 A 
ATOM      6  C7  UNL d   1       4.784   1.615   3.662  0.00  0.00    -0.073 A 
ATOM      7  C8  UNL d   1       4.132   0.939   2.486  0.00  0.00     0.078 C 
ENDROOT
BRANCH   1   8
ATOM      8  C1  UNL d   1       5.144  -0.615   4.868  0.00  0.00     0.053 C 
ATOM      9  C   UNL d   1       6.000  -1.197   5.982  0.00  0.00     0.018 C 
ENDBRANCH   1   8
TORSDOF 1
ENDMDL
