MODEL 1
REMARK minimizedAffinity -4.94361401
REMARK minimizedRMSD -1
REMARK  1 active torsions:
REMARK  status: ('A' for Active; 'I' for Inactive)
REMARK    1  A    between atoms: C1_2  and  C2_3 
ROOT
ATOM      1  C2  UNL d   1      -0.968   0.078   0.750  0.00  0.00    -0.076 A 
ATOM      2  C3  UNL d   1      -1.720  -0.129   1.919  0.00  0.00     0.004 A 
ATOM      3  C4  UNL d   1      -2.017   0.928   2.778  0.00  0.00    -0.003 A 
ATOM      4  C5  UNL d   1      -1.569   2.210   2.480  0.00  0.00     0.000 A 
ATOM      5  C6  UNL d   1      -0.837   2.437   1.315  0.00  0.00     0.000 A 
ATOM      6  C7  UNL d   1      -0.542   1.385   0.430  0.00  0.00    -0.073 A 
ATOM      7  C8  UNL d   1       0.256   1.686  -0.808  0.00  0.00     0.078 C 
ENDROOT
BRANCH   1   8
ATOM      8  C1  UNL d   1      -0.653  -1.111  -0.129  0.00  0.00     0.053 C 
ATOM      9  C   UNL d   1      -0.214  -2.327   0.672  0.00  0.00     0.018 C 
ENDBRANCH   1   8
TORSDOF 1
ENDMDL
