MODEL 1
REMARK minimizedAffinity -0.879070818
REMARK minimizedRMSD -1
REMARK  1 active torsions:
REMARK  status: ('A' for Active; 'I' for Inactive)
REMARK    1  A    between atoms: C1_2  and  C2_3 
ROOT
ATOM      1  C2  UNL d   1       0.485   0.929  -0.222  0.00  0.00    -0.076 A 
ATOM      2  C3  UNL d   1      -0.776   0.312  -0.304  0.00  0.00     0.004 A 
ATOM      3  C4  UNL d   1      -0.891  -1.074  -0.395  0.00  0.00    -0.003 A 
ATOM      4  C5  UNL d   1       0.252  -1.866  -0.404  0.00  0.00     0.000 A 
ATOM      5  C6  UNL d   1       1.510  -1.271  -0.306  0.00  0.00     0.000 A 
ATOM      6  C7  UNL d   1       1.643   0.124  -0.197  0.00  0.00    -0.073 A 
ATOM      7  C8  UNL d   1       3.024   0.712  -0.100  0.00  0.00     0.078 C 
ENDROOT
BRANCH   1   8
ATOM      8  C1  UNL d   1       0.549   2.438  -0.153  0.00  0.00     0.053 C 
ATOM      9  C   UNL d   1       0.018   3.102  -1.414  0.00  0.00     0.018 C 
ENDBRANCH   1   8
TORSDOF 1
ENDMDL
