MODEL 1
REMARK minimizedAffinity -4.20173073
REMARK minimizedRMSD -1
REMARK  1 active torsions:
REMARK  status: ('A' for Active; 'I' for Inactive)
REMARK    1  A    between atoms: C1_2  and  C2_3 
ROOT
ATOM      1  C2  UNL d   1       0.439   0.491  -0.344  0.00  0.00    -0.076 A 
ATOM      2  C3  UNL d   1      -0.814  -0.145  -0.323  0.00  0.00     0.004 A 
ATOM      3  C4  UNL d   1      -0.921  -1.525  -0.491  0.00  0.00    -0.003 A 
ATOM      4  C5  UNL d   1       0.224  -2.290  -0.682  0.00  0.00     0.000 A 
ATOM      5  C6  UNL d   1       1.477  -1.678  -0.688  0.00  0.00     0.000 A 
ATOM      6  C7  UNL d   1       1.603  -0.290  -0.504  0.00  0.00    -0.073 A 
ATOM      7  C8  UNL d   1       2.979   0.318  -0.525  0.00  0.00     0.078 C 
ENDROOT
BRANCH   1   8
ATOM      8  C1  UNL d   1       0.491   1.994  -0.183  0.00  0.00     0.053 C 
ATOM      9  C   UNL d   1      -0.240   2.725  -1.298  0.00  0.00     0.018 C 
ENDBRANCH   1   8
TORSDOF 1
ENDMDL
