MODEL 1
REMARK minimizedAffinity -5.83400583
REMARK minimizedRMSD -1
REMARK  1 active torsions:
REMARK  status: ('A' for Active; 'I' for Inactive)
REMARK    1  A    between atoms: C1_2  and  C2_3 
ROOT
ATOM      1  C2  UNL d   1       0.897   0.917  -0.122  0.00  0.00    -0.076 A 
ATOM      2  C3  UNL d   1       2.297   0.801  -0.180  0.00  0.00     0.004 A 
ATOM      3  C4  UNL d   1       2.902  -0.387  -0.588  0.00  0.00    -0.003 A 
ATOM      4  C5  UNL d   1       2.118  -1.477  -0.947  0.00  0.00     0.000 A 
ATOM      5  C6  UNL d   1       0.727  -1.374  -0.912  0.00  0.00     0.000 A 
ATOM      6  C7  UNL d   1       0.101  -0.179  -0.519  0.00  0.00    -0.073 A 
ATOM      7  C8  UNL d   1      -1.402  -0.126  -0.494  0.00  0.00     0.078 C 
ENDROOT
BRANCH   1   8
ATOM      8  C1  UNL d   1       0.298   2.220   0.355  0.00  0.00     0.053 C 
ATOM      9  C   UNL d   1      -0.048   2.196   1.835  0.00  0.00     0.018 C 
ENDBRANCH   1   8
TORSDOF 1
ENDMDL
