MODEL 1
REMARK minimizedAffinity -4.12930584
REMARK minimizedRMSD -1
REMARK  1 active torsions:
REMARK  status: ('A' for Active; 'I' for Inactive)
REMARK    1  A    between atoms: C1_2  and  C2_3 
ROOT
ATOM      1  C2  UNL d   1      -0.967   0.630   0.541  0.00  0.00    -0.076 A 
ATOM      2  C3  UNL d   1      -1.588   0.423   1.785  0.00  0.00     0.004 A 
ATOM      3  C4  UNL d   1      -1.753   1.473   2.688  0.00  0.00    -0.003 A 
ATOM      4  C5  UNL d   1      -1.301   2.746   2.360  0.00  0.00     0.000 A 
ATOM      5  C6  UNL d   1      -0.699   2.973   1.122  0.00  0.00     0.000 A 
ATOM      6  C7  UNL d   1      -0.540   1.929   0.195  0.00  0.00    -0.073 A 
ATOM      7  C8  UNL d   1       0.122   2.229  -1.122  0.00  0.00     0.078 C 
ENDROOT
BRANCH   1   8
ATOM      8  C1  UNL d   1      -0.791  -0.552  -0.386  0.00  0.00     0.053 C 
ATOM      9  C   UNL d   1       0.537  -1.262  -0.178  0.00  0.00     0.018 C 
ENDBRANCH   1   8
TORSDOF 1
ENDMDL
