MODEL 1
REMARK minimizedAffinity 3.11012316
REMARK minimizedRMSD -1
REMARK  0 active torsions:
REMARK  status: ('A' for Active; 'I' for Inactive)
ROOT
ATOM      1  C   UNL d   1      -1.702   5.942  -2.400  0.00  0.00     0.172 C 
ATOM      2  N   UNL d   1      -3.133   5.776  -2.505  0.00  0.00    -0.070 N 
ATOM      3  C1  UNL d   1      -3.966   5.373  -1.495  0.00  0.00    -0.004 A 
ATOM      4  C2  UNL d   1      -5.250   5.341  -1.994  0.00  0.00    -0.047 A 
ATOM      5  C3  UNL d   1      -5.187   5.737  -3.352  0.00  0.00    -0.047 A 
ATOM      6  C4  UNL d   1      -3.864   6.000  -3.641  0.00  0.00    -0.004 A 
ENDROOT
TORSDOF 0
ENDMDL
