MODEL 1
REMARK minimizedAffinity 4.98545933
REMARK minimizedRMSD -1
REMARK  0 active torsions:
REMARK  status: ('A' for Active; 'I' for Inactive)
ROOT
ATOM      1  C   UNL d   1      -4.888  -0.845   3.423  0.00  0.00     0.172 C 
ATOM      2  N   UNL d   1      -5.171  -1.995   4.249  0.00  0.00    -0.070 N 
ATOM      3  C1  UNL d   1      -5.982  -3.044   3.907  0.00  0.00    -0.004 A 
ATOM      4  C2  UNL d   1      -5.991  -3.932   4.961  0.00  0.00    -0.047 A 
ATOM      5  C3  UNL d   1      -5.157  -3.398   5.972  0.00  0.00    -0.047 A 
ATOM      6  C4  UNL d   1      -4.663  -2.198   5.505  0.00  0.00    -0.004 A 
ENDROOT
TORSDOF 0
ENDMDL
