MODEL 1
REMARK minimizedAffinity 8.78568459
REMARK minimizedRMSD -1
REMARK  0 active torsions:
REMARK  status: ('A' for Active; 'I' for Inactive)
ROOT
ATOM      1  C   UNL d   1       0.645  -5.347  -5.635  0.00  0.00     0.172 C 
ATOM      2  N   UNL d   1      -0.722  -5.533  -5.210  0.00  0.00    -0.070 N 
ATOM      3  C1  UNL d   1      -1.123  -5.950  -3.969  0.00  0.00    -0.004 A 
ATOM      4  C2  UNL d   1      -2.500  -6.000  -3.965  0.00  0.00    -0.047 A 
ATOM      5  C3  UNL d   1      -2.943  -5.601  -5.248  0.00  0.00    -0.047 A 
ATOM      6  C4  UNL d   1      -1.821  -5.318  -6.000  0.00  0.00    -0.004 A 
ENDROOT
TORSDOF 0
ENDMDL
