MODEL 1
REMARK minimizedAffinity 4.21353531
REMARK minimizedRMSD -1
REMARK  0 active torsions:
REMARK  status: ('A' for Active; 'I' for Inactive)
ROOT
ATOM      1  C   UNL d   1      -1.036   0.684   0.099  0.00  0.00     0.172 C 
ATOM      2  N   UNL d   1      -0.026   0.507   1.116  0.00  0.00    -0.070 N 
ATOM      3  C1  UNL d   1       0.768  -0.598   1.269  0.00  0.00    -0.004 A 
ATOM      4  C2  UNL d   1       1.596  -0.376   2.349  0.00  0.00    -0.047 A 
ATOM      5  C3  UNL d   1       1.287   0.905   2.863  0.00  0.00    -0.047 A 
ATOM      6  C4  UNL d   1       0.279   1.430   2.081  0.00  0.00    -0.004 A 
ENDROOT
TORSDOF 0
ENDMDL
