MODEL 1
REMARK minimizedAffinity -1.44603837
REMARK minimizedRMSD -1
REMARK  0 active torsions:
REMARK  status: ('A' for Active; 'I' for Inactive)
ROOT
ATOM      1  C   UNL d   1      -5.660   1.921  -6.000  0.00  0.00     0.172 C 
ATOM      2  N   UNL d   1      -5.759   3.214  -5.365  0.00  0.00    -0.070 N 
ATOM      3  C1  UNL d   1      -5.666   4.424  -5.999  0.00  0.00    -0.004 A 
ATOM      4  C2  UNL d   1      -5.813   5.411  -5.049  0.00  0.00    -0.047 A 
ATOM      5  C3  UNL d   1      -6.000   4.772  -3.800  0.00  0.00    -0.047 A 
ATOM      6  C4  UNL d   1      -5.962   3.412  -4.025  0.00  0.00    -0.004 A 
ENDROOT
TORSDOF 0
ENDMDL
