MODEL 1
REMARK minimizedAffinity 3.53166914
REMARK minimizedRMSD -1
REMARK  0 active torsions:
REMARK  status: ('A' for Active; 'I' for Inactive)
ROOT
ATOM      1  C   UNL d   1       1.585  -1.006  -0.079  0.00  0.00     0.172 C 
ATOM      2  N   UNL d   1       0.673  -0.031   0.471  0.00  0.00    -0.070 N 
ATOM      3  C1  UNL d   1      -0.211   0.730  -0.246  0.00  0.00    -0.004 A 
ATOM      4  C2  UNL d   1      -0.895   1.532   0.642  0.00  0.00    -0.047 A 
ATOM      5  C3  UNL d   1      -0.404   1.244   1.938  0.00  0.00    -0.047 A 
ATOM      6  C4  UNL d   1       0.566   0.273   1.803  0.00  0.00    -0.004 A 
ENDROOT
TORSDOF 0
ENDMDL
