MODEL 1
REMARK minimizedAffinity -1.75141037
REMARK minimizedRMSD -1
REMARK  0 active torsions:
REMARK  status: ('A' for Active; 'I' for Inactive)
ROOT
ATOM      1  C   UNL d   1      -4.228  -0.311  -5.601  0.00  0.00     0.172 C 
ATOM      2  N   UNL d   1      -4.943   0.871  -5.182  0.00  0.00    -0.070 N 
ATOM      3  C1  UNL d   1      -5.315   1.910  -5.993  0.00  0.00    -0.004 A 
ATOM      4  C2  UNL d   1      -5.974   2.837  -5.216  0.00  0.00    -0.047 A 
ATOM      5  C3  UNL d   1      -6.000   2.339  -3.892  0.00  0.00    -0.047 A 
ATOM      6  C4  UNL d   1      -5.354   1.121  -3.899  0.00  0.00    -0.004 A 
ENDROOT
TORSDOF 0
ENDMDL
