MODEL 1
REMARK minimizedAffinity -0.157241449
REMARK minimizedRMSD -1
REMARK  2 active torsions:
REMARK  status: ('A' for Active; 'I' for Inactive)
REMARK    1  A    between atoms: C1_2  and  C2_3 
REMARK    2  A    between atoms: C2_3  and  C3_4 
ROOT
ATOM      1  C3  UNL d   1      -0.766   3.316  -0.136  0.00  0.00    -0.075 A 
ATOM      2  C4  UNL d   1      -0.190   2.426   0.782  0.00  0.00     0.002 A 
ATOM      3  C5  UNL d   1      -0.843   2.118   1.976  0.00  0.00     0.002 A 
ATOM      4  C6  UNL d   1      -2.072   2.704   2.272  0.00  0.00    -0.004 A 
ATOM      5  C7  UNL d   1      -2.646   3.602   1.375  0.00  0.00     0.002 A 
ATOM      6  C8  UNL d   1      -1.997   3.908   0.177  0.00  0.00     0.002 A 
ENDROOT
BRANCH   1   7
ATOM      7  C2  UNL d   1      -0.079   3.629  -1.443  0.00  0.00     0.056 C 
BRANCH   7   8
ATOM      8  C1  UNL d   1      -0.348   2.605  -2.551  0.00  0.00     0.007 C 
ATOM      9  C   UNL d   1      -0.056   1.172  -2.126  0.00  0.00     0.009 C 
ENDBRANCH   7   8
ENDBRANCH   1   7
TORSDOF 2
ENDMDL
