MODEL 1
REMARK minimizedAffinity 4.89165115
REMARK minimizedRMSD -1
REMARK  2 active torsions:
REMARK  status: ('A' for Active; 'I' for Inactive)
REMARK    1  A    between atoms: C1_2  and  C2_3 
REMARK    2  A    between atoms: C2_3  and  C3_4 
ROOT
ATOM      1  C3  UNL d   1      -0.114   1.413   1.368  0.00  0.00    -0.075 A 
ATOM      2  C4  UNL d   1       0.774   0.339   1.524  0.00  0.00     0.002 A 
ATOM      3  C5  UNL d   1       0.707  -0.477   2.654  0.00  0.00     0.002 A 
ATOM      4  C6  UNL d   1      -0.239  -0.224   3.645  0.00  0.00    -0.004 A 
ATOM      5  C7  UNL d   1      -1.115   0.850   3.508  0.00  0.00     0.002 A 
ATOM      6  C8  UNL d   1      -1.053   1.666   2.377  0.00  0.00     0.002 A 
ENDROOT
BRANCH   1   7
ATOM      7  C2  UNL d   1      -0.066   2.282   0.134  0.00  0.00     0.056 C 
BRANCH   7   8
ATOM      8  C1  UNL d   1      -0.893   1.745  -1.039  0.00  0.00     0.007 C 
ATOM      9  C   UNL d   1      -0.046   1.079  -2.116  0.00  0.00     0.009 C 
ENDBRANCH   7   8
ENDBRANCH   1   7
TORSDOF 2
ENDMDL
