MODEL 1
REMARK minimizedAffinity 4.26412249
REMARK minimizedRMSD -1
REMARK  2 active torsions:
REMARK  status: ('A' for Active; 'I' for Inactive)
REMARK    1  A    between atoms: C1_2  and  C2_3 
REMARK    2  A    between atoms: C2_3  and  C3_4 
ROOT
ATOM      1  C3  UNL d   1      -2.089   0.012  -1.895  0.00  0.00    -0.075 A 
ATOM      2  C4  UNL d   1      -1.413   1.022  -1.195  0.00  0.00     0.002 A 
ATOM      3  C5  UNL d   1      -0.472   1.824  -1.842  0.00  0.00     0.002 A 
ATOM      4  C6  UNL d   1      -0.188   1.620  -3.190  0.00  0.00    -0.004 A 
ATOM      5  C7  UNL d   1      -0.841   0.608  -3.891  0.00  0.00     0.002 A 
ATOM      6  C8  UNL d   1      -1.787  -0.192  -3.248  0.00  0.00     0.002 A 
ENDROOT
BRANCH   1   7
ATOM      7  C2  UNL d   1      -3.130  -0.840  -1.208  0.00  0.00     0.056 C 
BRANCH   7   8
ATOM      8  C1  UNL d   1      -4.238  -0.036  -0.519  0.00  0.00     0.007 C 
ATOM      9  C   UNL d   1      -4.215  -0.161   0.998  0.00  0.00     0.009 C 
ENDBRANCH   7   8
ENDBRANCH   1   7
TORSDOF 2
ENDMDL
