MODEL 1
REMARK minimizedAffinity 12.1211281
REMARK minimizedRMSD -1
REMARK  2 active torsions:
REMARK  status: ('A' for Active; 'I' for Inactive)
REMARK    1  A    between atoms: C1_2  and  C2_3 
REMARK    2  A    between atoms: C2_3  and  C3_4 
ROOT
ATOM      1  C3  UNL d   1      -2.733   2.933  -3.307  0.00  0.00    -0.075 A 
ATOM      2  C4  UNL d   1      -4.126   2.824  -3.187  0.00  0.00     0.002 A 
ATOM      3  C5  UNL d   1      -4.870   2.159  -4.162  0.00  0.00     0.002 A 
ATOM      4  C6  UNL d   1      -4.235   1.604  -5.270  0.00  0.00    -0.004 A 
ATOM      5  C7  UNL d   1      -2.854   1.721  -5.408  0.00  0.00     0.002 A 
ATOM      6  C8  UNL d   1      -2.105   2.382  -4.433  0.00  0.00     0.002 A 
ENDROOT
BRANCH   1   7
ATOM      7  C2  UNL d   1      -1.918   3.627  -2.242  0.00  0.00     0.056 C 
BRANCH   7   8
ATOM      8  C1  UNL d   1      -1.247   2.671  -1.249  0.00  0.00     0.007 C 
ATOM      9  C   UNL d   1      -0.153   3.335  -0.423  0.00  0.00     0.009 C 
ENDBRANCH   7   8
ENDBRANCH   1   7
TORSDOF 2
ENDMDL
