MODEL 1
REMARK minimizedAffinity 9.4477911
REMARK minimizedRMSD -1
REMARK  2 active torsions:
REMARK  status: ('A' for Active; 'I' for Inactive)
REMARK    1  A    between atoms: C1_2  and  C2_3 
REMARK    2  A    between atoms: C2_3  and  C3_4 
ROOT
ATOM      1  C3  UNL d   1      -0.314   1.646  -1.435  0.00  0.00    -0.075 A 
ATOM      2  C4  UNL d   1      -0.168   1.801  -2.821  0.00  0.00     0.002 A 
ATOM      3  C5  UNL d   1      -0.827   0.943  -3.702  0.00  0.00     0.002 A 
ATOM      4  C6  UNL d   1      -1.629  -0.085  -3.211  0.00  0.00    -0.004 A 
ATOM      5  C7  UNL d   1      -1.767  -0.258  -1.835  0.00  0.00     0.002 A 
ATOM      6  C8  UNL d   1      -1.113   0.602  -0.951  0.00  0.00     0.002 A 
ENDROOT
BRANCH   1   7
ATOM      7  C2  UNL d   1       0.372   2.590  -0.476  0.00  0.00     0.056 C 
BRANCH   7   8
ATOM      8  C1  UNL d   1       0.041   2.332   0.998  0.00  0.00     0.007 C 
ATOM      9  C   UNL d   1       1.262   2.384   1.906  0.00  0.00     0.009 C 
ENDBRANCH   7   8
ENDBRANCH   1   7
TORSDOF 2
ENDMDL
