MODEL 1
REMARK minimizedAffinity 3.36396575
REMARK minimizedRMSD -1
REMARK  2 active torsions:
REMARK  status: ('A' for Active; 'I' for Inactive)
REMARK    1  A    between atoms: C1_2  and  C2_3 
REMARK    2  A    between atoms: C2_3  and  C3_4 
ROOT
ATOM      1  C3  UNL d   1       1.522  -0.257  -0.307  0.00  0.00    -0.075 A 
ATOM      2  C4  UNL d   1       1.788   0.337   0.935  0.00  0.00     0.002 A 
ATOM      3  C5  UNL d   1       0.943   1.324   1.444  0.00  0.00     0.002 A 
ATOM      4  C6  UNL d   1      -0.170   1.736   0.714  0.00  0.00    -0.004 A 
ATOM      5  C7  UNL d   1      -0.434   1.165  -0.528  0.00  0.00     0.002 A 
ATOM      6  C8  UNL d   1       0.406   0.174  -1.038  0.00  0.00     0.002 A 
ENDROOT
BRANCH   1   7
ATOM      7  C2  UNL d   1       2.415  -1.347  -0.850  0.00  0.00     0.056 C 
BRANCH   7   8
ATOM      8  C1  UNL d   1       3.865  -0.908  -1.078  0.00  0.00     0.007 C 
ATOM      9  C   UNL d   1       4.655  -1.876  -1.949  0.00  0.00     0.009 C 
ENDBRANCH   7   8
ENDBRANCH   1   7
TORSDOF 2
ENDMDL
