MODEL 1
REMARK minimizedAffinity -5.42272949
REMARK minimizedRMSD -1
REMARK  2 active torsions:
REMARK  status: ('A' for Active; 'I' for Inactive)
REMARK    1  A    between atoms: C2'_3  and  C1'_4 
REMARK    2  A    between atoms: C1'_4  and  C1_5 
ROOT
ATOM      1  C1  I4B d   1       0.826   0.140  -1.274  0.00  0.00    -0.075 A 
ATOM      2  C2  I4B d   1       1.172   1.287  -1.946  0.00  0.00     0.003 A 
ATOM      3  C3  I4B d   1       1.482   1.238  -3.326  0.00  0.00     0.002 A 
ATOM      4  C4  I4B d   1       1.482   0.023  -3.980  0.00  0.00    -0.004 A 
ATOM      5  C5  I4B d   1       1.109  -1.135  -3.303  0.00  0.00     0.002 A 
ATOM      6  C6  I4B d   1       0.767  -1.074  -1.945  0.00  0.00     0.003 A 
ENDROOT
BRANCH   1   7
ATOM      7  C1' I4B d   1       0.537   0.223   0.191  0.00  0.00     0.060 C 
BRANCH   7   8
ATOM      8  C2' I4B d   1      -0.779   0.953   0.367  0.00  0.00    -0.013 C 
ATOM      9  C4' I4B d   1      -1.948   0.051   0.068  0.00  0.00     0.013 C 
ATOM     10  C3' I4B d   1      -0.839   1.468   1.774  0.00  0.00     0.013 C 
ENDBRANCH   7   8
ENDBRANCH   1   7
TORSDOF 2
ENDMDL
