MODEL 1
REMARK minimizedAffinity -5.45925236
REMARK minimizedRMSD -1
REMARK  2 active torsions:
REMARK  status: ('A' for Active; 'I' for Inactive)
REMARK    1  A    between atoms: C2'_3  and  C1'_4 
REMARK    2  A    between atoms: C1'_4  and  C1_5 
ROOT
ATOM      1  C1  I4B d   1       0.378  -0.254  -0.407  0.00  0.00    -0.075 A 
ATOM      2  C2  I4B d   1      -0.989  -0.137  -0.444  0.00  0.00     0.003 A 
ATOM      3  C3  I4B d   1      -1.684   0.456   0.638  0.00  0.00     0.002 A 
ATOM      4  C4  I4B d   1      -0.981   0.870   1.751  0.00  0.00    -0.004 A 
ATOM      5  C5  I4B d   1       0.407   0.772   1.777  0.00  0.00     0.002 A 
ATOM      6  C6  I4B d   1       1.093   0.218   0.687  0.00  0.00     0.003 A 
ENDROOT
BRANCH   1   7
ATOM      7  C1' I4B d   1       1.077  -0.915  -1.553  0.00  0.00     0.060 C 
BRANCH   7   8
ATOM      8  C2' I4B d   1       0.754  -0.133  -2.810  0.00  0.00    -0.013 C 
ATOM      9  C4' I4B d   1       1.966   0.600  -3.322  0.00  0.00     0.013 C 
ATOM     10  C3' I4B d   1       0.232  -1.097  -3.833  0.00  0.00     0.013 C 
ENDBRANCH   7   8
ENDBRANCH   1   7
TORSDOF 2
ENDMDL
