MODEL 1
REMARK minimizedAffinity 2.18888211
REMARK minimizedRMSD -1
REMARK  2 active torsions:
REMARK  status: ('A' for Active; 'I' for Inactive)
REMARK    1  A    between atoms: C2'_3  and  C1'_4 
REMARK    2  A    between atoms: C1'_4  and  C1_5 
ROOT
ATOM      1  C1  I4B d   1       0.053   0.550   1.013  0.00  0.00    -0.075 A 
ATOM      2  C2  I4B d   1      -0.800  -0.013   0.097  0.00  0.00     0.003 A 
ATOM      3  C3  I4B d   1      -0.411  -1.169  -0.623  0.00  0.00     0.002 A 
ATOM      4  C4  I4B d   1       0.850  -1.696  -0.433  0.00  0.00    -0.004 A 
ATOM      5  C5  I4B d   1       1.705  -1.138   0.513  0.00  0.00     0.002 A 
ATOM      6  C6  I4B d   1       1.300  -0.015   1.250  0.00  0.00     0.003 A 
ENDROOT
BRANCH   1   7
ATOM      7  C1' I4B d   1      -0.376   1.790   1.731  0.00  0.00     0.060 C 
BRANCH   7   8
ATOM      8  C2' I4B d   1      -1.219   1.372   2.919  0.00  0.00    -0.013 C 
ATOM      9  C4' I4B d   1      -1.731  -0.035   2.757  0.00  0.00     0.013 C 
ATOM     10  C3' I4B d   1      -0.377   1.504   4.153  0.00  0.00     0.013 C 
ENDBRANCH   7   8
ENDBRANCH   1   7
TORSDOF 2
ENDMDL
