MODEL 1
REMARK minimizedAffinity -2.9738946
REMARK minimizedRMSD -1
REMARK  2 active torsions:
REMARK  status: ('A' for Active; 'I' for Inactive)
REMARK    1  A    between atoms: C2'_3  and  C1'_4 
REMARK    2  A    between atoms: C1'_4  and  C1_5 
ROOT
ATOM      1  C1  I4B d   1      -0.170  -0.093   0.934  0.00  0.00    -0.075 A 
ATOM      2  C2  I4B d   1       1.133   0.304   1.106  0.00  0.00     0.003 A 
ATOM      3  C3  I4B d   1       1.483   1.155   2.182  0.00  0.00     0.002 A 
ATOM      4  C4  I4B d   1       0.497   1.622   3.027  0.00  0.00    -0.004 A 
ATOM      5  C5  I4B d   1      -0.819   1.200   2.865  0.00  0.00     0.002 A 
ATOM      6  C6  I4B d   1      -1.153   0.327   1.820  0.00  0.00     0.003 A 
ENDROOT
BRANCH   1   7
ATOM      7  C1' I4B d   1      -0.509  -0.966  -0.232  0.00  0.00     0.060 C 
BRANCH   7   8
ATOM      8  C2' I4B d   1      -1.643  -0.308  -0.992  0.00  0.00    -0.013 C 
ATOM      9  C4' I4B d   1      -2.973  -0.605  -0.351  0.00  0.00     0.013 C 
ATOM     10  C3' I4B d   1      -1.379   1.167  -1.033  0.00  0.00     0.013 C 
ENDBRANCH   7   8
ENDBRANCH   1   7
TORSDOF 2
ENDMDL
