MODEL 1
REMARK minimizedAffinity -4.28797245
REMARK minimizedRMSD -1
REMARK  2 active torsions:
REMARK  status: ('A' for Active; 'I' for Inactive)
REMARK    1  A    between atoms: C2'_3  and  C1'_4 
REMARK    2  A    between atoms: C1'_4  and  C1_5 
ROOT
ATOM      1  C1  I4B d   1       0.438  -0.264   0.092  0.00  0.00    -0.075 A 
ATOM      2  C2  I4B d   1      -0.892   0.030  -0.079  0.00  0.00     0.003 A 
ATOM      3  C3  I4B d   1      -1.665   0.496   1.012  0.00  0.00     0.002 A 
ATOM      4  C4  I4B d   1      -1.084   0.604   2.260  0.00  0.00    -0.004 A 
ATOM      5  C5  I4B d   1       0.269   0.326   2.426  0.00  0.00     0.002 A 
ATOM      6  C6  I4B d   1       1.039  -0.098   1.333  0.00  0.00     0.003 A 
ENDROOT
BRANCH   1   7
ATOM      7  C1' I4B d   1       1.216  -0.785  -1.074  0.00  0.00     0.060 C 
BRANCH   7   8
ATOM      8  C2' I4B d   1       1.012   0.167  -2.234  0.00  0.00    -0.013 C 
ATOM      9  C4' I4B d   1       2.315   0.788  -2.666  0.00  0.00     0.013 C 
ATOM     10  C3' I4B d   1       0.380  -0.600  -3.357  0.00  0.00     0.013 C 
ENDBRANCH   7   8
ENDBRANCH   1   7
TORSDOF 2
ENDMDL
