MODEL 1
REMARK minimizedAffinity -3.90871835
REMARK minimizedRMSD -1
REMARK  2 active torsions:
REMARK  status: ('A' for Active; 'I' for Inactive)
REMARK    1  A    between atoms: C2'_3  and  C1'_4 
REMARK    2  A    between atoms: C1'_4  and  C1_5 
ROOT
ATOM      1  C1  I4B d   1       0.028  -0.303  -0.155  0.00  0.00    -0.075 A 
ATOM      2  C2  I4B d   1      -1.330  -0.199  -0.329  0.00  0.00     0.003 A 
ATOM      3  C3  I4B d   1      -2.134   0.387   0.678  0.00  0.00     0.002 A 
ATOM      4  C4  I4B d   1      -1.550   0.806   1.856  0.00  0.00    -0.004 A 
ATOM      5  C5  I4B d   1      -0.171   0.720   2.021  0.00  0.00     0.002 A 
ATOM      6  C6  I4B d   1       0.625   0.174   1.004  0.00  0.00     0.003 A 
ENDROOT
BRANCH   1   7
ATOM      7  C1' I4B d   1       0.843  -0.957  -1.226  0.00  0.00     0.060 C 
BRANCH   7   8
ATOM      8  C2' I4B d   1       0.730  -0.114  -2.479  0.00  0.00    -0.013 C 
ATOM      9  C4' I4B d   1       2.046   0.535  -2.820  0.00  0.00     0.013 C 
ATOM     10  C3' I4B d   1       0.260  -1.000  -3.593  0.00  0.00     0.013 C 
ENDBRANCH   7   8
ENDBRANCH   1   7
TORSDOF 2
ENDMDL
