MODEL 1
REMARK minimizedAffinity -4.22310114
REMARK minimizedRMSD -1
REMARK  2 active torsions:
REMARK  status: ('A' for Active; 'I' for Inactive)
REMARK    1  A    between atoms: C2'_3  and  C1'_4 
REMARK    2  A    between atoms: C1'_4  and  C1_5 
ROOT
ATOM      1  C1  I4B d   1       0.089  -0.192  -0.331  0.00  0.00    -0.075 A 
ATOM      2  C2  I4B d   1       0.774   0.266   0.766  0.00  0.00     0.003 A 
ATOM      3  C3  I4B d   1       0.078   0.865   1.844  0.00  0.00     0.002 A 
ATOM      4  C4  I4B d   1      -1.290   1.031   1.760  0.00  0.00    -0.004 A 
ATOM      5  C5  I4B d   1      -1.986   0.546   0.657  0.00  0.00     0.002 A 
ATOM      6  C6  I4B d   1      -1.295  -0.080  -0.390  0.00  0.00     0.003 A 
ENDROOT
BRANCH   1   7
ATOM      7  C1' I4B d   1       0.859  -0.789  -1.465  0.00  0.00     0.060 C 
BRANCH   7   8
ATOM      8  C2' I4B d   1       0.648   0.084  -2.685  0.00  0.00    -0.013 C 
ATOM      9  C4' I4B d   1       1.895   0.858  -3.024  0.00  0.00     0.013 C 
ATOM     10  C3' I4B d   1       0.234  -0.801  -3.822  0.00  0.00     0.013 C 
ENDBRANCH   7   8
ENDBRANCH   1   7
TORSDOF 2
ENDMDL
