MODEL 1
REMARK minimizedAffinity -2.18394065
REMARK minimizedRMSD -1
REMARK  2 active torsions:
REMARK  status: ('A' for Active; 'I' for Inactive)
REMARK    1  A    between atoms: C2'_3  and  C1'_4 
REMARK    2  A    between atoms: C1'_4  and  C1_5 
ROOT
ATOM      1  C1  I4B d   1       0.208  -0.491  -1.303  0.00  0.00    -0.075 A 
ATOM      2  C2  I4B d   1       1.033  -0.215  -0.241  0.00  0.00     0.003 A 
ATOM      3  C3  I4B d   1       0.502  -0.126   1.069  0.00  0.00     0.002 A 
ATOM      4  C4  I4B d   1      -0.857  -0.269   1.263  0.00  0.00    -0.004 A 
ATOM      5  C5  I4B d   1      -1.688  -0.571   0.188  0.00  0.00     0.002 A 
ATOM      6  C6  I4B d   1      -1.151  -0.696  -1.101  0.00  0.00     0.003 A 
ENDROOT
BRANCH   1   7
ATOM      7  C1' I4B d   1       0.797  -0.545  -2.677  0.00  0.00     0.060 C 
BRANCH   7   8
ATOM      8  C2' I4B d   1       1.503   0.770  -2.934  0.00  0.00    -0.013 C 
ATOM      9  C4' I4B d   1       2.954   0.553  -3.273  0.00  0.00     0.013 C 
ATOM     10  C3' I4B d   1       0.786   1.470  -4.050  0.00  0.00     0.013 C 
ENDBRANCH   7   8
ENDBRANCH   1   7
TORSDOF 2
ENDMDL
