MODEL 1
REMARK minimizedAffinity -4.3169198
REMARK minimizedRMSD -1
REMARK  2 active torsions:
REMARK  status: ('A' for Active; 'I' for Inactive)
REMARK    1  A    between atoms: C2'_3  and  C1'_4 
REMARK    2  A    between atoms: C1'_4  and  C1_5 
ROOT
ATOM      1  C1  I4B d   1       0.247  -0.165  -0.231  0.00  0.00    -0.075 A 
ATOM      2  C2  I4B d   1      -1.094  -0.058   0.041  0.00  0.00     0.003 A 
ATOM      3  C3  I4B d   1      -1.530   0.474   1.278  0.00  0.00     0.002 A 
ATOM      4  C4  I4B d   1      -0.598   0.838   2.228  0.00  0.00    -0.004 A 
ATOM      5  C5  I4B d   1       0.761   0.750   1.942  0.00  0.00     0.002 A 
ATOM      6  C6  I4B d   1       1.187   0.257   0.700  0.00  0.00     0.003 A 
ENDROOT
BRANCH   1   7
ATOM      7  C1' I4B d   1       0.673  -0.762  -1.535  0.00  0.00     0.060 C 
BRANCH   7   8
ATOM      8  C2' I4B d   1       0.709   0.347  -2.566  0.00  0.00    -0.013 C 
ATOM      9  C4' I4B d   1       2.116   0.613  -3.033  0.00  0.00     0.013 C 
ATOM     10  C3' I4B d   1      -0.174  -0.055  -3.710  0.00  0.00     0.013 C 
ENDBRANCH   7   8
ENDBRANCH   1   7
TORSDOF 2
ENDMDL
