MODEL 1
REMARK minimizedAffinity -1.48372889
REMARK minimizedRMSD -1
REMARK  2 active torsions:
REMARK  status: ('A' for Active; 'I' for Inactive)
REMARK    1  A    between atoms: C2'_3  and  C1'_4 
REMARK    2  A    between atoms: C1'_4  and  C1_5 
ROOT
ATOM      1  C1  I4B d   1      -0.095  -0.412  -0.883  0.00  0.00    -0.075 A 
ATOM      2  C2  I4B d   1       0.710  -0.325   0.225  0.00  0.00     0.003 A 
ATOM      3  C3  I4B d   1       0.146  -0.057   1.496  0.00  0.00     0.002 A 
ATOM      4  C4  I4B d   1      -1.211   0.166   1.604  0.00  0.00    -0.004 A 
ATOM      5  C5  I4B d   1      -2.029   0.055   0.483  0.00  0.00     0.002 A 
ATOM      6  C6  I4B d   1      -1.469  -0.248  -0.767  0.00  0.00     0.003 A 
ENDROOT
BRANCH   1   7
ATOM      7  C1' I4B d   1       0.537  -0.664  -2.215  0.00  0.00     0.060 C 
BRANCH   7   8
ATOM      8  C2' I4B d   1       0.878   0.678  -2.832  0.00  0.00    -0.013 C 
ATOM      9  C4' I4B d   1       2.358   0.947  -2.768  0.00  0.00     0.013 C 
ATOM     10  C3' I4B d   1       0.389   0.673  -4.249  0.00  0.00     0.013 C 
ENDBRANCH   7   8
ENDBRANCH   1   7
TORSDOF 2
ENDMDL
