MODEL 1
REMARK minimizedAffinity 8.40383339
REMARK minimizedRMSD -1
REMARK  2 active torsions:
REMARK  status: ('A' for Active; 'I' for Inactive)
REMARK    1  A    between atoms: C1_2  and  C2_3 
REMARK    2  A    between atoms: C2_3  and  C3_4 
ROOT
ATOM      1  C3  UNL d   1      -4.994   3.790  -1.724  0.00  0.00    -0.075 A 
ATOM      2  C4  UNL d   1      -5.495   4.956  -1.126  0.00  0.00     0.002 A 
ATOM      3  C5  UNL d   1      -5.999   5.993  -1.911  0.00  0.00     0.002 A 
ATOM      4  C6  UNL d   1      -6.000   5.884  -3.299  0.00  0.00    -0.004 A 
ATOM      5  C7  UNL d   1      -5.489   4.738  -3.904  0.00  0.00     0.002 A 
ATOM      6  C8  UNL d   1      -4.988   3.696  -3.122  0.00  0.00     0.002 A 
ENDROOT
BRANCH   1   7
ATOM      7  C2  UNL d   1      -4.473   2.652  -0.879  0.00  0.00     0.056 C 
BRANCH   7   8
ATOM      8  C1  UNL d   1      -2.981   2.363  -1.073  0.00  0.00     0.007 C 
ATOM      9  C   UNL d   1      -2.693   1.474  -2.275  0.00  0.00     0.009 C 
ENDBRANCH   7   8
ENDBRANCH   1   7
TORSDOF 2
ENDMDL
