MODEL 1
REMARK minimizedAffinity 4.62497568
REMARK minimizedRMSD -1
REMARK  2 active torsions:
REMARK  status: ('A' for Active; 'I' for Inactive)
REMARK    1  A    between atoms: C1_2  and  C2_3 
REMARK    2  A    between atoms: C2_3  and  C3_4 
ROOT
ATOM      1  C3  UNL d   1      -4.514  -3.324  -5.038  0.00  0.00    -0.075 A 
ATOM      2  C4  UNL d   1      -3.845  -4.212  -5.893  0.00  0.00     0.002 A 
ATOM      3  C5  UNL d   1      -4.259  -5.540  -6.000  0.00  0.00     0.002 A 
ATOM      4  C6  UNL d   1      -5.338  -5.999  -5.248  0.00  0.00    -0.004 A 
ATOM      5  C7  UNL d   1      -5.999  -5.131  -4.383  0.00  0.00     0.002 A 
ATOM      6  C8  UNL d   1      -5.590  -3.800  -4.277  0.00  0.00     0.002 A 
ENDROOT
BRANCH   1   7
ATOM      7  C2  UNL d   1      -4.090  -1.878  -4.939  0.00  0.00     0.056 C 
BRANCH   7   8
ATOM      8  C1  UNL d   1      -4.197  -1.292  -3.528  0.00  0.00     0.007 C 
ATOM      9  C   UNL d   1      -3.597   0.103  -3.411  0.00  0.00     0.009 C 
ENDBRANCH   7   8
ENDBRANCH   1   7
TORSDOF 2
ENDMDL
