MODEL 1
REMARK minimizedAffinity 13.1470175
REMARK minimizedRMSD -1
REMARK  2 active torsions:
REMARK  status: ('A' for Active; 'I' for Inactive)
REMARK    1  A    between atoms: C1_2  and  C2_3 
REMARK    2  A    between atoms: C2_3  and  C3_4 
ROOT
ATOM      1  C3  UNL d   1       4.233   5.509  -3.359  0.00  0.00    -0.075 A 
ATOM      2  C4  UNL d   1       3.287   5.759  -4.364  0.00  0.00     0.002 A 
ATOM      3  C5  UNL d   1       3.695   5.997  -5.677  0.00  0.00     0.002 A 
ATOM      4  C6  UNL d   1       5.051   6.000  -5.998  0.00  0.00    -0.004 A 
ATOM      5  C7  UNL d   1       5.999   5.769  -5.005  0.00  0.00     0.002 A 
ATOM      6  C8  UNL d   1       5.594   5.526  -3.691  0.00  0.00     0.002 A 
ENDROOT
BRANCH   1   7
ATOM      7  C2  UNL d   1       3.796   5.221  -1.942  0.00  0.00     0.056 C 
BRANCH   7   8
ATOM      8  C1  UNL d   1       2.725   4.131  -1.829  0.00  0.00     0.007 C 
ATOM      9  C   UNL d   1       1.430   4.626  -1.199  0.00  0.00     0.009 C 
ENDBRANCH   7   8
ENDBRANCH   1   7
TORSDOF 2
ENDMDL
