MODEL 1
REMARK minimizedAffinity 2.7901206
REMARK minimizedRMSD -1
REMARK  2 active torsions:
REMARK  status: ('A' for Active; 'I' for Inactive)
REMARK    1  A    between atoms: C1_2  and  C2_3 
REMARK    2  A    between atoms: C2_3  and  C3_4 
ROOT
ATOM      1  C3  UNL d   1       1.830   0.084   2.788  0.00  0.00    -0.075 A 
ATOM      2  C4  UNL d   1       1.489  -1.041   2.022  0.00  0.00     0.002 A 
ATOM      3  C5  UNL d   1       0.826  -2.120   2.606  0.00  0.00     0.002 A 
ATOM      4  C6  UNL d   1       0.504  -2.094   3.962  0.00  0.00    -0.004 A 
ATOM      5  C7  UNL d   1       0.853  -0.989   4.735  0.00  0.00     0.002 A 
ATOM      6  C8  UNL d   1       1.513   0.095   4.152  0.00  0.00     0.002 A 
ENDROOT
BRANCH   1   7
ATOM      7  C2  UNL d   1       2.521   1.268   2.155  0.00  0.00     0.056 C 
BRANCH   7   8
ATOM      8  C1  UNL d   1       2.924   1.048   0.693  0.00  0.00     0.007 C 
ATOM      9  C   UNL d   1       2.852   2.316  -0.147  0.00  0.00     0.009 C 
ENDBRANCH   7   8
ENDBRANCH   1   7
TORSDOF 2
ENDMDL
