MODEL 1
REMARK minimizedAffinity 11.0306807
REMARK minimizedRMSD -1
REMARK  2 active torsions:
REMARK  status: ('A' for Active; 'I' for Inactive)
REMARK    1  A    between atoms: C1_2  and  C2_3 
REMARK    2  A    between atoms: C2_3  and  C3_4 
ROOT
ATOM      1  C3  UNL d   1      -4.476   0.248  -2.640  0.00  0.00    -0.075 A 
ATOM      2  C4  UNL d   1      -3.369   0.490  -1.814  0.00  0.00     0.002 A 
ATOM      3  C5  UNL d   1      -2.967   1.796  -1.532  0.00  0.00     0.002 A 
ATOM      4  C6  UNL d   1      -3.660   2.874  -2.079  0.00  0.00    -0.004 A 
ATOM      5  C7  UNL d   1      -4.752   2.645  -2.914  0.00  0.00     0.002 A 
ATOM      6  C8  UNL d   1      -5.158   1.339  -3.194  0.00  0.00     0.002 A 
ENDROOT
BRANCH   1   7
ATOM      7  C2  UNL d   1      -4.934  -1.163  -2.925  0.00  0.00     0.056 C 
BRANCH   7   8
ATOM      8  C1  UNL d   1      -3.866  -2.044  -3.582  0.00  0.00     0.007 C 
ATOM      9  C   UNL d   1      -4.402  -2.871  -4.744  0.00  0.00     0.009 C 
ENDBRANCH   7   8
ENDBRANCH   1   7
TORSDOF 2
ENDMDL
