MODEL 1
REMARK minimizedAffinity 11.997447
REMARK minimizedRMSD -1
REMARK  0 active torsions:
REMARK  status: ('A' for Active; 'I' for Inactive)
ROOT
ATOM      1  C1  DEN d   1       4.726   4.056  -3.018  0.00  0.00     0.130 A 
ATOM      2  C2  DEN d   1       3.519   3.374  -3.478  0.00  0.00    -0.031 A 
ATOM      3  C3  DEN d   1       3.012   2.543  -2.368  0.00  0.00     0.027 A 
ATOM      4  C4  DEN d   1       3.971   2.251   0.009  0.00  0.00     0.027 A 
ATOM      5  C5  DEN d   1       4.988   2.618   0.862  0.00  0.00    -0.003 A 
ATOM      6  C6  DEN d   1       6.000   3.456   0.474  0.00  0.00     0.001 A 
ATOM      7  C7  DEN d   1       5.992   3.992  -0.787  0.00  0.00     0.017 A 
ATOM      8  C8  DEN d   1       4.973   3.620  -1.655  0.00  0.00    -0.094 A 
ATOM      9  C9  DEN d   1       3.953   2.782  -1.240  0.00  0.00    -0.072 A 
ENDROOT
TORSDOF 0
ENDMDL
