MODEL 1
REMARK minimizedAffinity 10.1173115
REMARK minimizedRMSD -1
REMARK  0 active torsions:
REMARK  status: ('A' for Active; 'I' for Inactive)
ROOT
ATOM      1  C1  DEN d   1      -2.451   1.119   3.842  0.00  0.00     0.130 A 
ATOM      2  C2  DEN d   1      -2.317   1.463   5.255  0.00  0.00    -0.031 A 
ATOM      3  C3  DEN d   1      -3.382   0.760   5.999  0.00  0.00     0.027 A 
ATOM      4  C4  DEN d   1      -5.212  -0.822   5.105  0.00  0.00     0.027 A 
ATOM      5  C5  DEN d   1      -5.735  -1.408   3.973  0.00  0.00    -0.003 A 
ATOM      6  C6  DEN d   1      -5.226  -1.168   2.725  0.00  0.00     0.001 A 
ATOM      7  C7  DEN d   1      -4.132  -0.355   2.583  0.00  0.00     0.017 A 
ATOM      8  C8  DEN d   1      -3.604   0.245   3.719  0.00  0.00    -0.094 A 
ATOM      9  C9  DEN d   1      -4.126  -0.020   4.973  0.00  0.00    -0.072 A 
ENDROOT
TORSDOF 0
ENDMDL
