MODEL 1
REMARK minimizedAffinity 17.4207172
REMARK minimizedRMSD -1
REMARK  0 active torsions:
REMARK  status: ('A' for Active; 'I' for Inactive)
ROOT
ATOM      1  C1  DEN d   1       4.553   3.002  -3.114  0.00  0.00     0.130 A 
ATOM      2  C2  DEN d   1       5.270   4.219  -2.743  0.00  0.00    -0.031 A 
ATOM      3  C3  DEN d   1       4.271   5.246  -2.387  0.00  0.00     0.027 A 
ATOM      4  C4  DEN d   1       1.697   5.071  -2.370  0.00  0.00     0.027 A 
ATOM      5  C5  DEN d   1       0.627   4.240  -2.620  0.00  0.00    -0.003 A 
ATOM      6  C6  DEN d   1       0.788   2.960  -3.080  0.00  0.00     0.001 A 
ATOM      7  C7  DEN d   1       2.050   2.458  -3.262  0.00  0.00     0.017 A 
ATOM      8  C8  DEN d   1       3.133   3.292  -3.020  0.00  0.00    -0.094 A 
ATOM      9  C9  DEN d   1       2.950   4.579  -2.544  0.00  0.00    -0.072 A 
ENDROOT
TORSDOF 0
ENDMDL
