MODEL 1
REMARK minimizedAffinity 0.698513806
REMARK minimizedRMSD -1
REMARK  0 active torsions:
REMARK  status: ('A' for Active; 'I' for Inactive)
ROOT
ATOM      1  C1  DEN d   1      -2.116   1.121   4.785  0.00  0.00     0.130 A 
ATOM      2  C2  DEN d   1      -3.022   1.389   5.899  0.00  0.00    -0.031 A 
ATOM      3  C3  DEN d   1      -4.280   0.656   5.651  0.00  0.00     0.027 A 
ATOM      4  C4  DEN d   1      -4.908  -0.863   3.664  0.00  0.00     0.027 A 
ATOM      5  C5  DEN d   1      -4.469  -1.384   2.467  0.00  0.00    -0.003 A 
ATOM      6  C6  DEN d   1      -3.239  -1.082   1.946  0.00  0.00     0.001 A 
ATOM      7  C7  DEN d   1      -2.386  -0.271   2.647  0.00  0.00     0.017 A 
ATOM      8  C8  DEN d   1      -2.824   0.264   3.851  0.00  0.00    -0.094 A 
ATOM      9  C9  DEN d   1      -4.066  -0.063   4.367  0.00  0.00    -0.072 A 
ENDROOT
TORSDOF 0
ENDMDL
