MODEL 1
REMARK minimizedAffinity 12.8942385
REMARK minimizedRMSD -1
REMARK  0 active torsions:
REMARK  status: ('A' for Active; 'I' for Inactive)
ROOT
ATOM      1  C1  DEN d   1       4.684  -3.279  -1.205  0.00  0.00     0.130 A 
ATOM      2  C2  DEN d   1       4.285  -4.633  -0.833  0.00  0.00    -0.031 A 
ATOM      3  C3  DEN d   1       3.364  -4.539   0.317  0.00  0.00     0.027 A 
ATOM      4  C4  DEN d   1       2.518  -2.437   1.550  0.00  0.00     0.027 A 
ATOM      5  C5  DEN d   1       2.589  -1.063   1.604  0.00  0.00    -0.003 A 
ATOM      6  C6  DEN d   1       3.384  -0.339   0.755  0.00  0.00     0.001 A 
ATOM      7  C7  DEN d   1       4.105  -0.983  -0.215  0.00  0.00     0.017 A 
ATOM      8  C8  DEN d   1       4.043  -2.369  -0.271  0.00  0.00    -0.094 A 
ATOM      9  C9  DEN d   1       3.225  -3.082   0.588  0.00  0.00    -0.072 A 
ENDROOT
TORSDOF 0
ENDMDL
