MODEL 1
REMARK minimizedAffinity 7.95515966
REMARK minimizedRMSD -1
REMARK  0 active torsions:
REMARK  status: ('A' for Active; 'I' for Inactive)
ROOT
ATOM      1  C1  DEN d   1      -5.983  -1.435  -1.897  0.00  0.00     0.130 A 
ATOM      2  C2  DEN d   1      -5.958   0.024  -1.953  0.00  0.00    -0.031 A 
ATOM      3  C3  DEN d   1      -5.953   0.427  -3.374  0.00  0.00     0.027 A 
ATOM      4  C4  DEN d   1      -5.985  -1.060  -5.482  0.00  0.00     0.027 A 
ATOM      5  C5  DEN d   1      -5.997  -2.359  -5.939  0.00  0.00    -0.003 A 
ATOM      6  C6  DEN d   1      -5.970  -3.433  -5.089  0.00  0.00     0.001 A 
ATOM      7  C7  DEN d   1      -5.977  -3.226  -3.734  0.00  0.00     0.017 A 
ATOM      8  C8  DEN d   1      -5.958  -1.919  -3.266  0.00  0.00    -0.094 A 
ATOM      9  C9  DEN d   1      -5.997  -0.847  -4.141  0.00  0.00    -0.072 A 
ENDROOT
TORSDOF 0
ENDMDL
