MODEL 1
REMARK minimizedAffinity 1.12632048
REMARK minimizedRMSD -1
REMARK  0 active torsions:
REMARK  status: ('A' for Active; 'I' for Inactive)
ROOT
ATOM      1  C1  DEN d   1      -1.828  -5.309  -5.568  0.00  0.00     0.130 A 
ATOM      2  C2  DEN d   1      -2.448  -4.523  -4.505  0.00  0.00    -0.031 A 
ATOM      3  C3  DEN d   1      -1.383  -4.079  -3.584  0.00  0.00     0.027 A 
ATOM      4  C4  DEN d   1       1.155  -4.528  -3.702  0.00  0.00     0.027 A 
ATOM      5  C5  DEN d   1       2.152  -5.156  -4.415  0.00  0.00    -0.003 A 
ATOM      6  C6  DEN d   1       1.890  -5.901  -5.534  0.00  0.00     0.001 A 
ATOM      7  C7  DEN d   1       0.605  -6.000  -5.999  0.00  0.00     0.017 A 
ATOM      8  C8  DEN d   1      -0.406  -5.376  -5.281  0.00  0.00    -0.094 A 
ATOM      9  C9  DEN d   1      -0.120  -4.617  -4.159  0.00  0.00    -0.072 A 
ENDROOT
TORSDOF 0
ENDMDL
