MODEL 1
REMARK minimizedAffinity 12.0358486
REMARK minimizedRMSD -1
REMARK  0 active torsions:
REMARK  status: ('A' for Active; 'I' for Inactive)
ROOT
ATOM      1  C1  DEN d   1       5.995  -2.473  -1.204  0.00  0.00     0.130 A 
ATOM      2  C2  DEN d   1       4.909  -1.533  -1.469  0.00  0.00    -0.031 A 
ATOM      3  C3  DEN d   1       3.631  -2.231  -1.225  0.00  0.00     0.027 A 
ATOM      4  C4  DEN d   1       3.230  -4.661  -0.459  0.00  0.00     0.027 A 
ATOM      5  C5  DEN d   1       3.843  -5.846  -0.118  0.00  0.00    -0.003 A 
ATOM      6  C6  DEN d   1       5.204  -5.999  -0.148  0.00  0.00     0.001 A 
ATOM      7  C7  DEN d   1       5.999  -4.936  -0.483  0.00  0.00     0.017 A 
ATOM      8  C8  DEN d   1       5.388  -3.739  -0.835  0.00  0.00    -0.094 A 
ATOM      9  C9  DEN d   1       4.011  -3.601  -0.787  0.00  0.00    -0.072 A 
ENDROOT
TORSDOF 0
ENDMDL
