MODEL 1
REMARK minimizedAffinity 16.3403778
REMARK minimizedRMSD -1
REMARK  0 active torsions:
REMARK  status: ('A' for Active; 'I' for Inactive)
ROOT
ATOM      1  C1  DEN d   1      -5.926  -4.949   2.336  0.00  0.00     0.130 A 
ATOM      2  C2  DEN d   1      -5.294  -3.800   1.695  0.00  0.00    -0.031 A 
ATOM      3  C3  DEN d   1      -4.310  -3.234   2.641  0.00  0.00     0.027 A 
ATOM      4  C4  DEN d   1      -3.706  -4.024   5.020  0.00  0.00     0.027 A 
ATOM      5  C5  DEN d   1      -3.985  -4.952   6.000  0.00  0.00    -0.003 A 
ATOM      6  C6  DEN d   1      -4.947  -5.914   5.841  0.00  0.00     0.001 A 
ATOM      7  C7  DEN d   1      -5.634  -5.999   4.659  0.00  0.00     0.017 A 
ATOM      8  C8  DEN d   1      -5.363  -5.064   3.669  0.00  0.00    -0.094 A 
ATOM      9  C9  DEN d   1      -4.378  -4.106   3.844  0.00  0.00    -0.072 A 
ENDROOT
TORSDOF 0
ENDMDL
