MODEL 1
REMARK minimizedAffinity 25.3412285
REMARK minimizedRMSD -1
REMARK  0 active torsions:
REMARK  status: ('A' for Active; 'I' for Inactive)
ROOT
ATOM      1  C1  DEN d   1       0.899  -1.096   2.804  0.00  0.00     0.130 A 
ATOM      2  C2  DEN d   1       1.085  -2.387   2.148  0.00  0.00    -0.031 A 
ATOM      3  C3  DEN d   1      -0.176  -2.737   1.464  0.00  0.00     0.027 A 
ATOM      4  C4  DEN d   1      -2.386  -1.411   1.355  0.00  0.00     0.027 A 
ATOM      5  C5  DEN d   1      -3.028  -0.264   1.767  0.00  0.00    -0.003 A 
ATOM      6  C6  DEN d   1      -2.423   0.661   2.575  0.00  0.00     0.001 A 
ATOM      7  C7  DEN d   1      -1.122   0.479   2.960  0.00  0.00     0.017 A 
ATOM      8  C8  DEN d   1      -0.469  -0.678   2.555  0.00  0.00    -0.094 A 
ATOM      9  C9  DEN d   1      -1.094  -1.596   1.728  0.00  0.00    -0.072 A 
ENDROOT
TORSDOF 0
ENDMDL
