MODEL 1
REMARK minimizedAffinity 26.0642147
REMARK minimizedRMSD -1
REMARK  0 active torsions:
REMARK  status: ('A' for Active; 'I' for Inactive)
ROOT
ATOM      1  C1  DEN d   1       3.355  -2.259  -1.075  0.00  0.00     0.130 A 
ATOM      2  C2  DEN d   1       4.507  -1.396  -0.828  0.00  0.00    -0.031 A 
ATOM      3  C3  DEN d   1       5.675  -2.259  -0.561  0.00  0.00     0.027 A 
ATOM      4  C4  DEN d   1       5.813  -4.834  -0.509  0.00  0.00     0.027 A 
ATOM      5  C5  DEN d   1       5.091  -6.000  -0.646  0.00  0.00    -0.003 A 
ATOM      6  C6  DEN d   1       3.745  -6.000  -0.900  0.00  0.00     0.001 A 
ATOM      7  C7  DEN d   1       3.086  -4.811  -1.069  0.00  0.00     0.017 A 
ATOM      8  C8  DEN d   1       3.805  -3.632  -0.925  0.00  0.00    -0.094 A 
ATOM      9  C9  DEN d   1       5.168  -3.652  -0.681  0.00  0.00    -0.072 A 
ENDROOT
TORSDOF 0
ENDMDL
