MODEL 1
REMARK minimizedAffinity 7.37071943
REMARK minimizedRMSD -1
REMARK  0 active torsions:
REMARK  status: ('A' for Active; 'I' for Inactive)
ROOT
ATOM      1  C1  DEN d   1       2.679  -1.197   1.834  0.00  0.00     0.130 A 
ATOM      2  C2  DEN d   1       1.531  -1.770   2.531  0.00  0.00    -0.031 A 
ATOM      3  C3  DEN d   1       1.232  -3.079   1.918  0.00  0.00     0.027 A 
ATOM      4  C4  DEN d   1       2.431  -4.272  -0.030  0.00  0.00     0.027 A 
ATOM      5  C5  DEN d   1       3.453  -4.172  -0.948  0.00  0.00    -0.003 A 
ATOM      6  C6  DEN d   1       4.260  -3.068  -1.025  0.00  0.00     0.001 A 
ATOM      7  C7  DEN d   1       4.088  -2.038  -0.139  0.00  0.00     0.017 A 
ATOM      8  C8  DEN d   1       3.055  -2.128   0.785  0.00  0.00    -0.094 A 
ATOM      9  C9  DEN d   1       2.258  -3.257   0.855  0.00  0.00    -0.072 A 
ENDROOT
TORSDOF 0
ENDMDL
