MODEL 1
REMARK minimizedAffinity 11.8514948
REMARK minimizedRMSD -1
REMARK  0 active torsions:
REMARK  status: ('A' for Active; 'I' for Inactive)
ROOT
ATOM      1  C1  DEN d   1       1.520  -4.540  -0.716  0.00  0.00     0.130 A 
ATOM      2  C2  DEN d   1       0.737  -4.240   0.480  0.00  0.00    -0.031 A 
ATOM      3  C3  DEN d   1      -0.680  -4.120   0.080  0.00  0.00     0.027 A 
ATOM      4  C4  DEN d   1      -1.732  -4.376  -2.261  0.00  0.00     0.027 A 
ATOM      5  C5  DEN d   1      -1.466  -4.620  -3.591  0.00  0.00    -0.003 A 
ATOM      6  C6  DEN d   1      -0.194  -4.819  -4.057  0.00  0.00     0.001 A 
ATOM      7  C7  DEN d   1       0.858  -4.822  -3.179  0.00  0.00     0.017 A 
ATOM      8  C8  DEN d   1       0.599  -4.570  -1.838  0.00  0.00    -0.094 A 
ATOM      9  C9  DEN d   1      -0.696  -4.383  -1.385  0.00  0.00    -0.072 A 
ENDROOT
TORSDOF 0
ENDMDL
