MODEL 1
REMARK minimizedAffinity 10.8317699
REMARK minimizedRMSD -1
REMARK  0 active torsions:
REMARK  status: ('A' for Active; 'I' for Inactive)
ROOT
ATOM      1  C1  DEN d   1       1.124  -0.705   1.621  0.00  0.00     0.130 A 
ATOM      2  C2  DEN d   1       1.672  -2.041   1.405  0.00  0.00    -0.031 A 
ATOM      3  C3  DEN d   1       0.542  -2.985   1.294  0.00  0.00     0.027 A 
ATOM      4  C4  DEN d   1      -1.989  -2.509   1.429  0.00  0.00     0.027 A 
ATOM      5  C5  DEN d   1      -2.939  -1.529   1.614  0.00  0.00    -0.003 A 
ATOM      6  C6  DEN d   1      -2.603  -0.221   1.845  0.00  0.00     0.001 A 
ATOM      7  C7  DEN d   1      -1.284   0.149   1.854  0.00  0.00     0.017 A 
ATOM      8  C8  DEN d   1      -0.321  -0.835   1.676  0.00  0.00    -0.094 A 
ATOM      9  C9  DEN d   1      -0.681  -2.149   1.431  0.00  0.00    -0.072 A 
ENDROOT
TORSDOF 0
ENDMDL
