MODEL 1
REMARK minimizedAffinity 18.1968975
REMARK minimizedRMSD -1
REMARK  0 active torsions:
REMARK  status: ('A' for Active; 'I' for Inactive)
ROOT
ATOM      1  O1  BZF d   1      -3.975   4.514   2.253  0.00  0.00    -0.204 OA
ATOM      2  C2  BZF d   1      -5.010   3.716   1.805  0.00  0.00     0.174 A 
ATOM      3  C3  BZF d   1      -5.934   3.542   2.772  0.00  0.00    -0.012 A 
ATOM      4  C3A BZF d   1      -5.492   4.353   3.865  0.00  0.00    -0.107 A 
ATOM      5  C4  BZF d   1      -5.997   4.611   5.107  0.00  0.00     0.055 A 
ATOM      6  C5  BZF d   1      -5.284   5.391   5.961  0.00  0.00    -0.016 A 
ATOM      7  C6  BZF d   1      -4.062   5.924   5.609  0.00  0.00     0.022 A 
ATOM      8  C7  BZF d   1      -3.522   5.701   4.386  0.00  0.00     0.029 A 
ATOM      9  C7A BZF d   1      -4.256   4.940   3.508  0.00  0.00     0.058 A 
ENDROOT
TORSDOF 0
ENDMDL
