MODEL 1
REMARK minimizedAffinity 13.0105829
REMARK minimizedRMSD -1
REMARK  0 active torsions:
REMARK  status: ('A' for Active; 'I' for Inactive)
ROOT
ATOM      1  O1  BZF d   1      -4.862   2.285   3.895  0.00  0.00    -0.204 OA
ATOM      2  C2  BZF d   1      -5.278   1.534   4.978  0.00  0.00     0.174 A 
ATOM      3  C3  BZF d   1      -5.704   2.332   5.978  0.00  0.00    -0.012 A 
ATOM      4  C3A BZF d   1      -5.632   3.662   5.455  0.00  0.00    -0.107 A 
ATOM      5  C4  BZF d   1      -5.937   4.890   5.969  0.00  0.00     0.055 A 
ATOM      6  C5  BZF d   1      -5.681   5.999   5.225  0.00  0.00    -0.016 A 
ATOM      7  C6  BZF d   1      -5.117   5.916   3.969  0.00  0.00     0.022 A 
ATOM      8  C7  BZF d   1      -4.803   4.720   3.416  0.00  0.00     0.029 A 
ATOM      9  C7A BZF d   1      -5.090   3.596   4.151  0.00  0.00     0.058 A 
ENDROOT
TORSDOF 0
ENDMDL
