MODEL 1
REMARK minimizedAffinity 6.46445513
REMARK minimizedRMSD -1
REMARK  0 active torsions:
REMARK  status: ('A' for Active; 'I' for Inactive)
ROOT
ATOM      1  O1  BZF d   1       4.536  -1.865   1.827  0.00  0.00    -0.204 OA
ATOM      2  C2  BZF d   1       5.784  -1.362   2.140  0.00  0.00     0.174 A 
ATOM      3  C3  BZF d   1       5.961  -0.144   1.589  0.00  0.00    -0.012 A 
ATOM      4  C3A BZF d   1       4.713   0.171   0.963  0.00  0.00    -0.107 A 
ATOM      5  C4  BZF d   1       4.261   1.252   0.262  0.00  0.00     0.055 A 
ATOM      6  C5  BZF d   1       3.014   1.214  -0.278  0.00  0.00    -0.016 A 
ATOM      7  C6  BZF d   1       2.197   0.111  -0.142  0.00  0.00     0.022 A 
ATOM      8  C7  BZF d   1       2.600  -0.983   0.548  0.00  0.00     0.029 A 
ATOM      9  C7A BZF d   1       3.847  -0.935   1.123  0.00  0.00     0.058 A 
ENDROOT
TORSDOF 0
ENDMDL
