MODEL 1
REMARK minimizedAffinity 11.9379005
REMARK minimizedRMSD -1
REMARK  0 active torsions:
REMARK  status: ('A' for Active; 'I' for Inactive)
ROOT
ATOM      1  O1  BZF d   1       2.700   0.150   1.038  0.00  0.00    -0.204 OA
ATOM      2  C2  BZF d   1       1.472   0.186   0.405  0.00  0.00     0.174 A 
ATOM      3  C3  BZF d   1       1.579   0.751  -0.815  0.00  0.00    -0.012 A 
ATOM      4  C3A BZF d   1       2.975   1.006  -0.991  0.00  0.00    -0.107 A 
ATOM      5  C4  BZF d   1       3.711   1.542  -2.009  0.00  0.00     0.055 A 
ATOM      6  C5  BZF d   1       5.047   1.720  -1.836  0.00  0.00    -0.016 A 
ATOM      7  C6  BZF d   1       5.679   1.378  -0.658  0.00  0.00     0.022 A 
ATOM      8  C7  BZF d   1       4.992   0.838   0.378  0.00  0.00     0.029 A 
ATOM      9  C7A BZF d   1       3.647   0.626   0.194  0.00  0.00     0.058 A 
ENDROOT
TORSDOF 0
ENDMDL
