MODEL 1
REMARK minimizedAffinity 11.845273
REMARK minimizedRMSD -1
REMARK  0 active torsions:
REMARK  status: ('A' for Active; 'I' for Inactive)
ROOT
ATOM      1  O1  BZF d   1      -5.611   2.955   1.508  0.00  0.00    -0.204 OA
ATOM      2  C2  BZF d   1      -4.512   2.681   0.718  0.00  0.00     0.174 A 
ATOM      3  C3  BZF d   1      -3.454   3.428   1.095  0.00  0.00    -0.012 A 
ATOM      4  C3A BZF d   1      -3.895   4.151   2.248  0.00  0.00    -0.107 A 
ATOM      5  C4  BZF d   1      -3.291   5.047   3.082  0.00  0.00     0.055 A 
ATOM      6  C5  BZF d   1      -4.021   5.626   4.071  0.00  0.00    -0.016 A 
ATOM      7  C6  BZF d   1      -5.358   5.335   4.251  0.00  0.00     0.022 A 
ATOM      8  C7  BZF d   1      -6.000   4.449   3.452  0.00  0.00     0.029 A 
ATOM      9  C7A BZF d   1      -5.256   3.838   2.472  0.00  0.00     0.058 A 
ENDROOT
TORSDOF 0
ENDMDL
