MODEL 1
REMARK minimizedAffinity 14.9409704
REMARK minimizedRMSD -1
REMARK  0 active torsions:
REMARK  status: ('A' for Active; 'I' for Inactive)
ROOT
ATOM      1  O1  BZF d   1      -5.736   0.728  -2.135  0.00  0.00    -0.204 OA
ATOM      2  C2  BZF d   1      -5.129   0.196  -1.015  0.00  0.00     0.174 A 
ATOM      3  C3  BZF d   1      -4.532   1.163  -0.289  0.00  0.00    -0.012 A 
ATOM      4  C3A BZF d   1      -4.861   2.388  -0.951  0.00  0.00    -0.107 A 
ATOM      5  C4  BZF d   1      -4.573   3.699  -0.699  0.00  0.00     0.055 A 
ATOM      6  C5  BZF d   1      -4.984   4.647  -1.581  0.00  0.00    -0.016 A 
ATOM      7  C6  BZF d   1      -5.680   4.320  -2.726  0.00  0.00     0.022 A 
ATOM      8  C7  BZF d   1      -5.994   3.034  -3.017  0.00  0.00     0.029 A 
ATOM      9  C7A BZF d   1      -5.609   2.077  -2.110  0.00  0.00     0.058 A 
ENDROOT
TORSDOF 0
ENDMDL
