MODEL 1
REMARK minimizedAffinity 10.0649137
REMARK minimizedRMSD -1
REMARK  1 active torsions:
REMARK  status: ('A' for Active; 'I' for Inactive)
REMARK    1  A    between atoms: C1_2  and  C2_3 
ROOT
ATOM      1  C2  UNL d   1       0.354  -3.737   0.449  0.00  0.00    -0.081 A 
ATOM      2  C3  UNL d   1       0.473  -2.342   0.435  0.00  0.00     0.006 A 
ATOM      3  C4  UNL d   1      -0.611  -1.543   0.065  0.00  0.00     0.002 A 
ATOM      4  C5  UNL d   1      -1.834  -2.124  -0.290  0.00  0.00    -0.080 A 
ATOM      5  C6  UNL d   1      -3.014  -1.276  -0.660  0.00  0.00     0.076 C 
ATOM      6  C7  UNL d   1      -1.947  -3.518  -0.293  0.00  0.00     0.002 A 
ATOM      7  C8  UNL d   1      -0.863  -4.318   0.077  0.00  0.00     0.006 A 
ENDROOT
BRANCH   1   8
ATOM      8  C1  UNL d   1       1.501  -4.599   0.910  0.00  0.00     0.054 C 
ATOM      9  C   UNL d   1       1.029  -5.998   1.278  0.00  0.00     0.018 C 
ENDBRANCH   1   8
TORSDOF 1
ENDMDL
