MODEL 1
REMARK minimizedAffinity 11.6675577
REMARK minimizedRMSD -1
REMARK  1 active torsions:
REMARK  status: ('A' for Active; 'I' for Inactive)
REMARK    1  A    between atoms: C1_2  and  C2_3 
ROOT
ATOM      1  C2  UNL d   1       5.974   2.275  -1.695  0.00  0.00    -0.081 A 
ATOM      2  C3  UNL d   1       5.965   2.621  -3.052  0.00  0.00     0.006 A 
ATOM      3  C4  UNL d   1       5.953   1.629  -4.036  0.00  0.00     0.002 A 
ATOM      4  C5  UNL d   1       5.943   0.276  -3.680  0.00  0.00    -0.080 A 
ATOM      5  C6  UNL d   1       5.900  -0.798  -4.726  0.00  0.00     0.076 C 
ATOM      6  C7  UNL d   1       5.970  -0.070  -2.324  0.00  0.00     0.002 A 
ATOM      7  C8  UNL d   1       5.982   0.921  -1.341  0.00  0.00     0.006 A 
ENDROOT
BRANCH   1   8
ATOM      8  C1  UNL d   1       5.922   3.342  -0.632  0.00  0.00     0.054 C 
ATOM      9  C   UNL d   1       5.613   4.706  -1.232  0.00  0.00     0.018 C 
ENDBRANCH   1   8
TORSDOF 1
ENDMDL
