MODEL 1
REMARK minimizedAffinity 14.7029495
REMARK minimizedRMSD -1
REMARK  1 active torsions:
REMARK  status: ('A' for Active; 'I' for Inactive)
REMARK    1  A    between atoms: C1_2  and  C2_3 
ROOT
ATOM      1  C2  UNL d   1       1.268  -3.069   1.018  0.00  0.00    -0.081 A 
ATOM      2  C3  UNL d   1      -0.007  -2.605   0.669  0.00  0.00     0.006 A 
ATOM      3  C4  UNL d   1      -1.111  -3.459   0.728  0.00  0.00     0.002 A 
ATOM      4  C5  UNL d   1      -0.961  -4.786   1.143  0.00  0.00    -0.080 A 
ATOM      5  C6  UNL d   1      -2.144  -5.704   1.239  0.00  0.00     0.076 C 
ATOM      6  C7  UNL d   1       0.315  -5.254   1.474  0.00  0.00     0.002 A 
ATOM      7  C8  UNL d   1       1.419  -4.402   1.415  0.00  0.00     0.006 A 
ENDROOT
BRANCH   1   8
ATOM      8  C1  UNL d   1       2.450  -2.134   1.018  0.00  0.00     0.054 C 
ATOM      9  C   UNL d   1       3.300  -2.317   2.267  0.00  0.00     0.018 C 
ENDBRANCH   1   8
TORSDOF 1
ENDMDL
