MODEL 1
REMARK minimizedAffinity -2.74435377
REMARK minimizedRMSD -1
REMARK  1 active torsions:
REMARK  status: ('A' for Active; 'I' for Inactive)
REMARK    1  A    between atoms: C1_2  and  C2_3 
ROOT
ATOM      1  C2  UNL d   1       0.911   0.796  -2.031  0.00  0.00    -0.081 A 
ATOM      2  C3  UNL d   1       1.093   0.985  -3.407  0.00  0.00     0.006 A 
ATOM      3  C4  UNL d   1       1.830   2.073  -3.881  0.00  0.00     0.002 A 
ATOM      4  C5  UNL d   1       2.404   2.984  -2.988  0.00  0.00    -0.080 A 
ATOM      5  C6  UNL d   1       3.223   4.139  -3.482  0.00  0.00     0.076 C 
ATOM      6  C7  UNL d   1       2.208   2.805  -1.614  0.00  0.00     0.002 A 
ATOM      7  C8  UNL d   1       1.470   1.718  -1.140  0.00  0.00     0.006 A 
ENDROOT
BRANCH   1   8
ATOM      8  C1  UNL d   1       0.171  -0.412  -1.515  0.00  0.00     0.054 C 
ATOM      9  C   UNL d   1       1.017  -1.196  -0.522  0.00  0.00     0.018 C 
ENDBRANCH   1   8
TORSDOF 1
ENDMDL
