MODEL 1
REMARK minimizedAffinity 8.29305172
REMARK minimizedRMSD -1
REMARK  1 active torsions:
REMARK  status: ('A' for Active; 'I' for Inactive)
REMARK    1  A    between atoms: C1_2  and  C2_3 
ROOT
ATOM      1  C2  UNL d   1       5.921   0.948  -3.170  0.00  0.00    -0.081 A 
ATOM      2  C3  UNL d   1       5.997  -0.374  -2.717  0.00  0.00     0.006 A 
ATOM      3  C4  UNL d   1       5.992  -1.435  -3.625  0.00  0.00     0.002 A 
ATOM      4  C5  UNL d   1       5.920  -1.192  -5.001  0.00  0.00    -0.080 A 
ATOM      5  C6  UNL d   1       5.945  -2.320  -5.988  0.00  0.00     0.076 C 
ATOM      6  C7  UNL d   1       5.826   0.129  -5.453  0.00  0.00     0.002 A 
ATOM      7  C8  UNL d   1       5.830   1.190  -4.545  0.00  0.00     0.006 A 
ENDROOT
BRANCH   1   8
ATOM      8  C1  UNL d   1       5.990   2.097  -2.196  0.00  0.00     0.054 C 
ATOM      9  C   UNL d   1       4.619   2.719  -1.976  0.00  0.00     0.018 C 
ENDBRANCH   1   8
TORSDOF 1
ENDMDL
