MODEL 1
REMARK minimizedAffinity 10.6787252
REMARK minimizedRMSD -1
REMARK  1 active torsions:
REMARK  status: ('A' for Active; 'I' for Inactive)
REMARK    1  A    between atoms: C1_2  and  C2_3 
ROOT
ATOM      1  C2  UNL d   1       1.104  -1.843   0.379  0.00  0.00    -0.081 A 
ATOM      2  C3  UNL d   1      -0.083  -2.584   0.444  0.00  0.00     0.006 A 
ATOM      3  C4  UNL d   1      -0.056  -3.933   0.807  0.00  0.00     0.002 A 
ATOM      4  C5  UNL d   1       1.155  -4.561   1.118  0.00  0.00    -0.080 A 
ATOM      5  C6  UNL d   1       1.194  -6.000   1.539  0.00  0.00     0.076 C 
ATOM      6  C7  UNL d   1       2.342  -3.825   1.037  0.00  0.00     0.002 A 
ATOM      7  C8  UNL d   1       2.316  -2.477   0.674  0.00  0.00     0.006 A 
ENDROOT
BRANCH   1   8
ATOM      8  C1  UNL d   1       1.072  -0.372   0.051  0.00  0.00     0.054 C 
ATOM      9  C   UNL d   1       1.840   0.441   1.083  0.00  0.00     0.018 C 
ENDBRANCH   1   8
TORSDOF 1
ENDMDL
