MODEL 1
REMARK minimizedAffinity -1.70444024
REMARK minimizedRMSD -1
REMARK  1 active torsions:
REMARK  status: ('A' for Active; 'I' for Inactive)
REMARK    1  A    between atoms: C1_2  and  C2_3 
ROOT
ATOM      1  C2  UNL d   1       6.000  -1.021  -5.008  0.00  0.00    -0.081 A 
ATOM      2  C3  UNL d   1       5.998  -1.270  -3.630  0.00  0.00     0.006 A 
ATOM      3  C4  UNL d   1       5.937  -0.212  -2.720  0.00  0.00     0.002 A 
ATOM      4  C5  UNL d   1       5.869   1.110  -3.171  0.00  0.00    -0.080 A 
ATOM      5  C6  UNL d   1       5.773   2.253  -2.205  0.00  0.00     0.076 C 
ATOM      6  C7  UNL d   1       5.889   1.360  -4.547  0.00  0.00     0.002 A 
ATOM      7  C8  UNL d   1       5.951   0.303  -5.458  0.00  0.00     0.006 A 
ENDROOT
BRANCH   1   8
ATOM      8  C1  UNL d   1       6.000  -2.162  -5.993  0.00  0.00     0.054 C 
ATOM      9  C   UNL d   1       4.668  -2.898  -5.987  0.00  0.00     0.018 C 
ENDBRANCH   1   8
TORSDOF 1
ENDMDL
