MODEL 1
REMARK minimizedAffinity 2.23503017
REMARK minimizedRMSD -1
REMARK  1 active torsions:
REMARK  status: ('A' for Active; 'I' for Inactive)
REMARK    1  A    between atoms: C1_2  and  C2_3 
ROOT
ATOM      1  C2  UNL d   1       1.042   1.514  -0.963  0.00  0.00    -0.081 A 
ATOM      2  C3  UNL d   1       0.952   0.211  -0.458  0.00  0.00     0.006 A 
ATOM      3  C4  UNL d   1       0.962  -0.886  -1.323  0.00  0.00     0.002 A 
ATOM      4  C5  UNL d   1       1.072  -0.699  -2.705  0.00  0.00    -0.080 A 
ATOM      5  C6  UNL d   1       1.115  -1.869  -3.642  0.00  0.00     0.076 C 
ATOM      6  C7  UNL d   1       1.144   0.604  -3.211  0.00  0.00     0.002 A 
ATOM      7  C8  UNL d   1       1.133   1.701  -2.347  0.00  0.00     0.006 A 
ENDROOT
BRANCH   1   8
ATOM      8  C1  UNL d   1       1.095   2.696  -0.029  0.00  0.00     0.054 C 
ATOM      9  C   UNL d   1       2.061   2.449   1.121  0.00  0.00     0.018 C 
ENDBRANCH   1   8
TORSDOF 1
ENDMDL
