MODEL 1
REMARK minimizedAffinity 5.07898426
REMARK minimizedRMSD -1
REMARK  1 active torsions:
REMARK  status: ('A' for Active; 'I' for Inactive)
REMARK    1  A    between atoms: C1_2  and  C2_3 
ROOT
ATOM      1  C2  UNL d   1       0.738   1.077  -1.481  0.00  0.00    -0.081 A 
ATOM      2  C3  UNL d   1       1.111   0.950  -2.825  0.00  0.00     0.006 A 
ATOM      3  C4  UNL d   1       1.440  -0.300  -3.353  0.00  0.00     0.002 A 
ATOM      4  C5  UNL d   1       1.396  -1.444  -2.550  0.00  0.00    -0.080 A 
ATOM      5  C6  UNL d   1       1.718  -2.797  -3.112  0.00  0.00     0.076 C 
ATOM      6  C7  UNL d   1       1.040  -1.315  -1.203  0.00  0.00     0.002 A 
ATOM      7  C8  UNL d   1       0.711  -0.065  -0.674  0.00  0.00     0.006 A 
ENDROOT
BRANCH   1   8
ATOM      8  C1  UNL d   1       0.319   2.414  -0.925  0.00  0.00     0.054 C 
ATOM      9  C   UNL d   1       1.210   2.834   0.236  0.00  0.00     0.018 C 
ENDBRANCH   1   8
TORSDOF 1
ENDMDL
