MODEL 1
REMARK minimizedAffinity 13.3457136
REMARK minimizedRMSD -1
REMARK  1 active torsions:
REMARK  status: ('A' for Active; 'I' for Inactive)
REMARK    1  A    between atoms: C1_2  and  C2_3 
ROOT
ATOM      1  C2  UNL d   1       0.274  -0.067  -1.024  0.00  0.00    -0.081 A 
ATOM      2  C3  UNL d   1       0.024   1.301  -1.186  0.00  0.00     0.006 A 
ATOM      3  C4  UNL d   1       0.447   1.967  -2.339  0.00  0.00     0.002 A 
ATOM      4  C5  UNL d   1       1.120   1.275  -3.351  0.00  0.00    -0.080 A 
ATOM      5  C6  UNL d   1       1.554   1.971  -4.607  0.00  0.00     0.076 C 
ATOM      6  C7  UNL d   1       1.386  -0.088  -3.182  0.00  0.00     0.002 A 
ATOM      7  C8  UNL d   1       0.963  -0.754  -2.029  0.00  0.00     0.006 A 
ENDROOT
BRANCH   1   8
ATOM      8  C1  UNL d   1      -0.239  -0.801   0.188  0.00  0.00     0.054 C 
ATOM      9  C   UNL d   1      -1.637  -1.353  -0.049  0.00  0.00     0.018 C 
ENDBRANCH   1   8
TORSDOF 1
ENDMDL
