MODEL 1
REMARK minimizedAffinity 7.6064229
REMARK minimizedRMSD -1
REMARK  1 active torsions:
REMARK  status: ('A' for Active; 'I' for Inactive)
REMARK    1  A    between atoms: C1_2  and  C2_3 
ROOT
ATOM      1  C2  UNL d   1       4.492   1.775  -5.613  0.00  0.00    -0.081 A 
ATOM      2  C3  UNL d   1       4.748   3.096  -5.999  0.00  0.00     0.006 A 
ATOM      3  C4  UNL d   1       3.723   4.045  -6.000  0.00  0.00     0.002 A 
ATOM      4  C5  UNL d   1       2.428   3.691  -5.607  0.00  0.00    -0.080 A 
ATOM      5  C6  UNL d   1       1.325   4.707  -5.575  0.00  0.00     0.076 C 
ATOM      6  C7  UNL d   1       2.168   2.366  -5.239  0.00  0.00     0.002 A 
ATOM      7  C8  UNL d   1       3.192   1.417  -5.239  0.00  0.00     0.006 A 
ENDROOT
BRANCH   1   8
ATOM      8  C1  UNL d   1       5.609   0.765  -5.550  0.00  0.00     0.054 C 
ATOM      9  C   UNL d   1       6.000   0.462  -4.110  0.00  0.00     0.018 C 
ENDBRANCH   1   8
TORSDOF 1
ENDMDL
