MODEL 1
REMARK minimizedAffinity 1.33599758
REMARK minimizedRMSD -1
REMARK  1 active torsions:
REMARK  status: ('A' for Active; 'I' for Inactive)
REMARK    1  A    between atoms: C1_2  and  C2_3 
ROOT
ATOM      1  C2  UNL d   1       1.093   1.277  -0.682  0.00  0.00    -0.081 A 
ATOM      2  C3  UNL d   1       1.159  -0.049  -0.237  0.00  0.00     0.006 A 
ATOM      3  C4  UNL d   1       1.166  -1.104  -1.153  0.00  0.00     0.002 A 
ATOM      4  C5  UNL d   1       1.116  -0.850  -2.528  0.00  0.00    -0.080 A 
ATOM      5  C6  UNL d   1       1.153  -1.972  -3.523  0.00  0.00     0.076 C 
ATOM      6  C7  UNL d   1       1.033   0.474  -2.972  0.00  0.00     0.002 A 
ATOM      7  C8  UNL d   1       1.025   1.529  -2.057  0.00  0.00     0.006 A 
ENDROOT
BRANCH   1   8
ATOM      8  C1  UNL d   1       1.151   2.419   0.300  0.00  0.00     0.054 C 
ATOM      9  C   UNL d   1       1.974   2.052   1.527  0.00  0.00     0.018 C 
ENDBRANCH   1   8
TORSDOF 1
ENDMDL
