MODEL 1
REMARK minimizedAffinity 9.09559441
REMARK minimizedRMSD -1
REMARK  1 active torsions:
REMARK  status: ('A' for Active; 'I' for Inactive)
REMARK    1  A    between atoms: C1_2  and  C2_3 
ROOT
ATOM      1  C2  UNL d   1      -5.331  -2.821   4.084  0.00  0.00    -0.081 A 
ATOM      2  C3  UNL d   1      -4.145  -2.813   4.830  0.00  0.00     0.006 A 
ATOM      3  C4  UNL d   1      -3.564  -1.605   5.223  0.00  0.00     0.002 A 
ATOM      4  C5  UNL d   1      -4.163  -0.386   4.885  0.00  0.00    -0.080 A 
ATOM      5  C6  UNL d   1      -3.566   0.917   5.327  0.00  0.00     0.076 C 
ATOM      6  C7  UNL d   1      -5.337  -0.394   4.125  0.00  0.00     0.002 A 
ATOM      7  C8  UNL d   1      -5.918  -1.601   3.731  0.00  0.00     0.006 A 
ENDROOT
BRANCH   1   8
ATOM      8  C1  UNL d   1      -5.994  -4.123   3.714  0.00  0.00     0.054 C 
ATOM      9  C   UNL d   1      -5.176  -5.315   4.188  0.00  0.00     0.018 C 
ENDBRANCH   1   8
TORSDOF 1
ENDMDL
