MODEL 1
REMARK minimizedAffinity 3.58595729
REMARK minimizedRMSD -1
REMARK  1 active torsions:
REMARK  status: ('A' for Active; 'I' for Inactive)
REMARK    1  A    between atoms: C1_2  and  C2_3 
ROOT
ATOM      1  C2  UNL d   1       0.735  -1.072  -0.315  0.00  0.00    -0.081 A 
ATOM      2  C3  UNL d   1       0.402   0.282  -0.432  0.00  0.00     0.006 A 
ATOM      3  C4  UNL d   1       0.504   0.933  -1.664  0.00  0.00     0.002 A 
ATOM      4  C5  UNL d   1       0.934   0.238  -2.800  0.00  0.00    -0.080 A 
ATOM      5  C6  UNL d   1       1.019   0.917  -4.135  0.00  0.00     0.076 C 
ATOM      6  C7  UNL d   1       1.284  -1.111  -2.680  0.00  0.00     0.002 A 
ATOM      7  C8  UNL d   1       1.182  -1.762  -1.448  0.00  0.00     0.006 A 
ENDROOT
BRANCH   1   8
ATOM      8  C1  UNL d   1       0.564  -1.793   0.998  0.00  0.00     0.054 C 
ATOM      9  C   UNL d   1      -0.739  -2.578   1.033  0.00  0.00     0.018 C 
ENDBRANCH   1   8
TORSDOF 1
ENDMDL
