MODEL 1
REMARK minimizedAffinity 3.1603899
REMARK minimizedRMSD -1
REMARK  1 active torsions:
REMARK  status: ('A' for Active; 'I' for Inactive)
REMARK    1  A    between atoms: C1_2  and  C2_3 
ROOT
ATOM      1  C2  UNL d   1       0.996   1.345  -1.636  0.00  0.00    -0.081 A 
ATOM      2  C3  UNL d   1       1.281   1.011  -2.966  0.00  0.00     0.006 A 
ATOM      3  C4  UNL d   1       1.439  -0.325  -3.342  0.00  0.00     0.002 A 
ATOM      4  C5  UNL d   1       1.307  -1.349  -2.398  0.00  0.00    -0.080 A 
ATOM      5  C6  UNL d   1       1.443  -2.788  -2.795  0.00  0.00     0.076 C 
ATOM      6  C7  UNL d   1       1.039  -1.014  -1.066  0.00  0.00     0.002 A 
ATOM      7  C8  UNL d   1       0.882   0.322  -0.689  0.00  0.00     0.006 A 
ENDROOT
BRANCH   1   8
ATOM      8  C1  UNL d   1       0.761   2.780  -1.240  0.00  0.00     0.054 C 
ATOM      9  C   UNL d   1       1.172   3.030   0.205  0.00  0.00     0.018 C 
ENDBRANCH   1   8
TORSDOF 1
ENDMDL
