MODEL 1
REMARK minimizedAffinity -2.09144759
REMARK minimizedRMSD -1
REMARK  1 active torsions:
REMARK  status: ('A' for Active; 'I' for Inactive)
REMARK    1  A    between atoms: C1_2  and  C2_3 
ROOT
ATOM      1  C2  UNL d   1       1.065   1.115  -1.177  0.00  0.00    -0.081 A 
ATOM      2  C3  UNL d   1       1.087  -0.052  -0.404  0.00  0.00     0.006 A 
ATOM      3  C4  UNL d   1       1.185  -1.305  -1.015  0.00  0.00     0.002 A 
ATOM      4  C5  UNL d   1       1.271  -1.410  -2.407  0.00  0.00    -0.080 A 
ATOM      5  C6  UNL d   1       1.407  -2.747  -3.074  0.00  0.00     0.076 C 
ATOM      6  C7  UNL d   1       1.231  -0.245  -3.181  0.00  0.00     0.002 A 
ATOM      7  C8  UNL d   1       1.133   1.007  -2.571  0.00  0.00     0.006 A 
ENDROOT
BRANCH   1   8
ATOM      8  C1  UNL d   1       1.025   2.470  -0.518  0.00  0.00     0.054 C 
ATOM      9  C   UNL d   1       1.767   2.462   0.810  0.00  0.00     0.018 C 
ENDBRANCH   1   8
TORSDOF 1
ENDMDL
