MODEL 1
REMARK minimizedAffinity 13.4999332
REMARK minimizedRMSD -1
REMARK  2 active torsions:
REMARK  status: ('A' for Active; 'I' for Inactive)
REMARK    1  A    between atoms: C2'_3  and  C1'_4 
REMARK    2  A    between atoms: C1'_4  and  C1_5 
ROOT
ATOM      1  C1  I4B d   1      -4.559   6.000   3.578  0.00  0.00    -0.075 A 
ATOM      2  C2  I4B d   1      -5.146   5.985   4.819  0.00  0.00     0.003 A 
ATOM      3  C3  I4B d   1      -4.345   5.954   5.986  0.00  0.00     0.002 A 
ATOM      4  C4  I4B d   1      -2.972   5.889   5.866  0.00  0.00    -0.004 A 
ATOM      5  C5  I4B d   1      -2.378   5.927   4.608  0.00  0.00     0.002 A 
ATOM      6  C6  I4B d   1      -3.176   5.995   3.457  0.00  0.00     0.003 A 
ENDROOT
BRANCH   1   7
ATOM      7  C1' I4B d   1      -5.436   5.999   2.366  0.00  0.00     0.060 C 
BRANCH   7   8
ATOM      8  C2' I4B d   1      -4.891   4.971   1.396  0.00  0.00    -0.013 C 
ATOM      9  C4' I4B d   1      -3.400   5.113   1.232  0.00  0.00     0.013 C 
ATOM     10  C3' I4B d   1      -5.251   3.610   1.913  0.00  0.00     0.013 C 
ENDBRANCH   7   8
ENDBRANCH   1   7
TORSDOF 2
ENDMDL
