MODEL 1
REMARK minimizedAffinity 4.81402969
REMARK minimizedRMSD -1
REMARK  2 active torsions:
REMARK  status: ('A' for Active; 'I' for Inactive)
REMARK    1  A    between atoms: C2'_3  and  C1'_4 
REMARK    2  A    between atoms: C1'_4  and  C1_5 
ROOT
ATOM      1  C1  I4B d   1      -2.842   5.716   4.263  0.00  0.00    -0.075 A 
ATOM      2  C2  I4B d   1      -2.410   5.586   5.559  0.00  0.00     0.003 A 
ATOM      3  C3  I4B d   1      -1.030   5.676   5.864  0.00  0.00     0.002 A 
ATOM      4  C4  I4B d   1      -0.118   5.845   4.842  0.00  0.00    -0.004 A 
ATOM      5  C5  I4B d   1      -0.560   6.000   3.531  0.00  0.00     0.002 A 
ATOM      6  C6  I4B d   1      -1.931   5.947   3.240  0.00  0.00     0.003 A 
ENDROOT
BRANCH   1   7
ATOM      7  C1' I4B d   1      -4.303   5.583   3.973  0.00  0.00     0.060 C 
BRANCH   7   8
ATOM      8  C2' I4B d   1      -4.521   5.911   2.510  0.00  0.00    -0.013 C 
ATOM      9  C4' I4B d   1      -3.851   4.899   1.619  0.00  0.00     0.013 C 
ATOM     10  C3' I4B d   1      -5.999   5.959   2.261  0.00  0.00     0.013 C 
ENDBRANCH   7   8
ENDBRANCH   1   7
TORSDOF 2
ENDMDL
