MODEL 1
REMARK minimizedAffinity -3.28170848
REMARK minimizedRMSD -1
REMARK  2 active torsions:
REMARK  status: ('A' for Active; 'I' for Inactive)
REMARK    1  A    between atoms: C2'_3  and  C1'_4 
REMARK    2  A    between atoms: C1'_4  and  C1_5 
ROOT
ATOM      1  C1  I4B d   1       4.510  -2.934   5.672  0.00  0.00    -0.075 A 
ATOM      2  C2  I4B d   1       3.503  -3.756   5.232  0.00  0.00     0.003 A 
ATOM      3  C3  I4B d   1       3.731  -5.146   5.085  0.00  0.00     0.002 A 
ATOM      4  C4  I4B d   1       4.986  -5.660   5.339  0.00  0.00    -0.004 A 
ATOM      5  C5  I4B d   1       5.999  -4.828   5.807  0.00  0.00     0.002 A 
ATOM      6  C6  I4B d   1       5.757  -3.459   5.987  0.00  0.00     0.003 A 
ENDROOT
BRANCH   1   7
ATOM      7  C1' I4B d   1       4.245  -1.466   5.785  0.00  0.00     0.060 C 
BRANCH   7   8
ATOM      8  C2' I4B d   1       5.343  -0.735   5.041  0.00  0.00    -0.013 C 
ATOM      9  C4' I4B d   1       4.799  -0.015   3.835  0.00  0.00     0.013 C 
ATOM     10  C3' I4B d   1       5.992   0.222   5.996  0.00  0.00     0.013 C 
ENDBRANCH   7   8
ENDBRANCH   1   7
TORSDOF 2
ENDMDL
