MODEL 1
REMARK minimizedAffinity 9.75579548
REMARK minimizedRMSD -1
REMARK  2 active torsions:
REMARK  status: ('A' for Active; 'I' for Inactive)
REMARK    1  A    between atoms: C2'_3  and  C1'_4 
REMARK    2  A    between atoms: C1'_4  and  C1_5 
ROOT
ATOM      1  C1  I4B d   1      -3.467   4.135   3.025  0.00  0.00    -0.075 A 
ATOM      2  C2  I4B d   1      -4.750   4.581   2.830  0.00  0.00     0.003 A 
ATOM      3  C3  I4B d   1      -5.310   5.547   3.700  0.00  0.00     0.002 A 
ATOM      4  C4  I4B d   1      -4.574   6.000   4.777  0.00  0.00    -0.004 A 
ATOM      5  C5  I4B d   1      -3.265   5.564   4.960  0.00  0.00     0.002 A 
ATOM      6  C6  I4B d   1      -2.703   4.635   4.072  0.00  0.00     0.003 A 
ENDROOT
BRANCH   1   7
ATOM      7  C1' I4B d   1      -2.919   3.090   2.106  0.00  0.00     0.060 C 
BRANCH   7   8
ATOM      8  C2' I4B d   1      -2.555   1.879   2.940  0.00  0.00    -0.013 C 
ATOM      9  C4' I4B d   1      -3.783   1.101   3.337  0.00  0.00     0.013 C 
ATOM     10  C3' I4B d   1      -1.613   1.031   2.139  0.00  0.00     0.013 C 
ENDBRANCH   7   8
ENDBRANCH   1   7
TORSDOF 2
ENDMDL
