MODEL 1
REMARK minimizedAffinity -1.49538469
REMARK minimizedRMSD -1
REMARK  2 active torsions:
REMARK  status: ('A' for Active; 'I' for Inactive)
REMARK    1  A    between atoms: C2'_3  and  C1'_4 
REMARK    2  A    between atoms: C1'_4  and  C1_5 
ROOT
ATOM      1  C1  I4B d   1       1.905  -0.771  -3.331  0.00  0.00    -0.075 A 
ATOM      2  C2  I4B d   1       1.148  -1.471  -4.236  0.00  0.00     0.003 A 
ATOM      3  C3  I4B d   1       0.697  -2.777  -3.930  0.00  0.00     0.002 A 
ATOM      4  C4  I4B d   1       1.067  -3.361  -2.736  0.00  0.00    -0.004 A 
ATOM      5  C5  I4B d   1       1.816  -2.642  -1.809  0.00  0.00     0.002 A 
ATOM      6  C6  I4B d   1       2.228  -1.334  -2.103  0.00  0.00     0.003 A 
ENDROOT
BRANCH   1   7
ATOM      7  C1' I4B d   1       2.392   0.594  -3.700  0.00  0.00     0.060 C 
BRANCH   7   8
ATOM      8  C2' I4B d   1       1.266   1.576  -3.446  0.00  0.00    -0.013 C 
ATOM      9  C4' I4B d   1       0.914   1.635  -1.983  0.00  0.00     0.013 C 
ATOM     10  C3' I4B d   1       1.700   2.919  -3.954  0.00  0.00     0.013 C 
ENDBRANCH   7   8
ENDBRANCH   1   7
TORSDOF 2
ENDMDL
