MODEL 1
REMARK minimizedAffinity 10.0788279
REMARK minimizedRMSD -1
REMARK  2 active torsions:
REMARK  status: ('A' for Active; 'I' for Inactive)
REMARK    1  A    between atoms: C2'_3  and  C1'_4 
REMARK    2  A    between atoms: C1'_4  and  C1_5 
ROOT
ATOM      1  C1  I4B d   1      -3.107   5.855   3.494  0.00  0.00    -0.075 A 
ATOM      2  C2  I4B d   1      -1.738   5.874   3.590  0.00  0.00     0.003 A 
ATOM      3  C3  I4B d   1      -1.113   5.885   4.860  0.00  0.00     0.002 A 
ATOM      4  C4  I4B d   1      -1.889   5.928   6.000  0.00  0.00    -0.004 A 
ATOM      5  C5  I4B d   1      -3.277   5.886   5.901  0.00  0.00     0.002 A 
ATOM      6  C6  I4B d   1      -3.890   5.836   4.641  0.00  0.00     0.003 A 
ENDROOT
BRANCH   1   7
ATOM      7  C1' I4B d   1      -3.735   5.876   2.137  0.00  0.00     0.060 C 
BRANCH   7   8
ATOM      8  C2' I4B d   1      -5.064   5.154   2.226  0.00  0.00    -0.013 C 
ATOM      9  C4' I4B d   1      -4.869   3.677   2.446  0.00  0.00     0.013 C 
ATOM     10  C3' I4B d   1      -5.851   5.769   3.344  0.00  0.00     0.013 C 
ENDBRANCH   7   8
ENDBRANCH   1   7
TORSDOF 2
ENDMDL
