MODEL 1
REMARK minimizedAffinity 8.04372597
REMARK minimizedRMSD -1
REMARK  2 active torsions:
REMARK  status: ('A' for Active; 'I' for Inactive)
REMARK    1  A    between atoms: C2'_3  and  C1'_4 
REMARK    2  A    between atoms: C1'_4  and  C1_5 
ROOT
ATOM      1  C1  I4B d   1       2.602   2.153  -3.577  0.00  0.00    -0.075 A 
ATOM      2  C2  I4B d   1       2.043   2.739  -4.685  0.00  0.00     0.003 A 
ATOM      3  C3  I4B d   1       2.726   2.719  -5.925  0.00  0.00     0.002 A 
ATOM      4  C4  I4B d   1       3.981   2.150  -5.999  0.00  0.00    -0.004 A 
ATOM      5  C5  I4B d   1       4.537   1.535  -4.881  0.00  0.00     0.002 A 
ATOM      6  C6  I4B d   1       3.838   1.525  -3.665  0.00  0.00     0.003 A 
ENDROOT
BRANCH   1   7
ATOM      7  C1' I4B d   1       1.867   2.221  -2.276  0.00  0.00     0.060 C 
BRANCH   7   8
ATOM      8  C2' I4B d   1       2.557   3.250  -1.404  0.00  0.00    -0.013 C 
ATOM      9  C4' I4B d   1       1.841   4.574  -1.453  0.00  0.00     0.013 C 
ATOM     10  C3' I4B d   1       2.607   2.713  -0.005  0.00  0.00     0.013 C 
ENDBRANCH   7   8
ENDBRANCH   1   7
TORSDOF 2
ENDMDL
