MODEL 1
REMARK minimizedAffinity 2.84362245
REMARK minimizedRMSD -1
REMARK  2 active torsions:
REMARK  status: ('A' for Active; 'I' for Inactive)
REMARK    1  A    between atoms: C2'_3  and  C1'_4 
REMARK    2  A    between atoms: C1'_4  and  C1_5 
ROOT
ATOM      1  C1  I4B d   1       2.578   2.097  -3.841  0.00  0.00    -0.075 A 
ATOM      2  C2  I4B d   1       2.329   3.055  -4.792  0.00  0.00     0.003 A 
ATOM      3  C3  I4B d   1       3.197   3.201  -5.901  0.00  0.00     0.002 A 
ATOM      4  C4  I4B d   1       4.323   2.408  -5.992  0.00  0.00    -0.004 A 
ATOM      5  C5  I4B d   1       4.561   1.422  -5.038  0.00  0.00     0.002 A 
ATOM      6  C6  I4B d   1       3.677   1.257  -3.962  0.00  0.00     0.003 A 
ENDROOT
BRANCH   1   7
ATOM      7  C1' I4B d   1       1.658   1.992  -2.666  0.00  0.00     0.060 C 
BRANCH   7   8
ATOM      8  C2' I4B d   1       1.348   0.526  -2.445  0.00  0.00    -0.013 C 
ATOM      9  C4' I4B d   1       1.165  -0.195  -3.755  0.00  0.00     0.013 C 
ATOM     10  C3' I4B d   1       2.471  -0.071  -1.651  0.00  0.00     0.013 C 
ENDBRANCH   7   8
ENDBRANCH   1   7
TORSDOF 2
ENDMDL
