MODEL 1
REMARK minimizedAffinity 6.65958023
REMARK minimizedRMSD -1
REMARK  2 active torsions:
REMARK  status: ('A' for Active; 'I' for Inactive)
REMARK    1  A    between atoms: C2'_3  and  C1'_4 
REMARK    2  A    between atoms: C1'_4  and  C1_5 
ROOT
ATOM      1  C1  I4B d   1       1.781   1.697  -3.091  0.00  0.00    -0.075 A 
ATOM      2  C2  I4B d   1       2.908   1.246  -3.733  0.00  0.00     0.003 A 
ATOM      3  C3  I4B d   1       3.698   2.139  -4.497  0.00  0.00     0.002 A 
ATOM      4  C4  I4B d   1       3.301   3.453  -4.632  0.00  0.00    -0.004 A 
ATOM      5  C5  I4B d   1       2.171   3.913  -3.961  0.00  0.00     0.002 A 
ATOM      6  C6  I4B d   1       1.413   3.033  -3.176  0.00  0.00     0.003 A 
ENDROOT
BRANCH   1   7
ATOM      7  C1' I4B d   1       0.951   0.719  -2.320  0.00  0.00     0.060 C 
BRANCH   7   8
ATOM      8  C2' I4B d   1       1.796  -0.512  -2.066  0.00  0.00    -0.013 C 
ATOM      9  C4' I4B d   1       2.622  -0.358  -0.816  0.00  0.00     0.013 C 
ATOM     10  C3' I4B d   1       0.876  -1.692  -1.965  0.00  0.00     0.013 C 
ENDBRANCH   7   8
ENDBRANCH   1   7
TORSDOF 2
ENDMDL
