MODEL 1
REMARK minimizedAffinity 5.59128094
REMARK minimizedRMSD -1
REMARK  2 active torsions:
REMARK  status: ('A' for Active; 'I' for Inactive)
REMARK    1  A    between atoms: C2'_3  and  C1'_4 
REMARK    2  A    between atoms: C1'_4  and  C1_5 
ROOT
ATOM      1  C1  I4B d   1      -3.365   5.997   3.532  0.00  0.00    -0.075 A 
ATOM      2  C2  I4B d   1      -4.052   5.997   4.720  0.00  0.00     0.003 A 
ATOM      3  C3  I4B d   1      -3.351   5.966   5.949  0.00  0.00     0.002 A 
ATOM      4  C4  I4B d   1      -1.974   5.884   5.944  0.00  0.00    -0.004 A 
ATOM      5  C5  I4B d   1      -1.277   5.908   4.739  0.00  0.00     0.002 A 
ATOM      6  C6  I4B d   1      -1.976   5.977   3.525  0.00  0.00     0.003 A 
ENDROOT
BRANCH   1   7
ATOM      7  C1' I4B d   1      -4.138   5.998   2.251  0.00  0.00     0.060 C 
BRANCH   7   8
ATOM      8  C2' I4B d   1      -5.498   5.391   2.527  0.00  0.00    -0.013 C 
ATOM      9  C4' I4B d   1      -5.427   3.887   2.565  0.00  0.00     0.013 C 
ATOM     10  C3' I4B d   1      -5.996   5.943   3.830  0.00  0.00     0.013 C 
ENDBRANCH   7   8
ENDBRANCH   1   7
TORSDOF 2
ENDMDL
