MODEL 1
REMARK minimizedAffinity 1.07416868
REMARK minimizedRMSD -1
REMARK  2 active torsions:
REMARK  status: ('A' for Active; 'I' for Inactive)
REMARK    1  A    between atoms: C2'_3  and  C1'_4 
REMARK    2  A    between atoms: C1'_4  and  C1_5 
ROOT
ATOM      1  C1  I4B d   1       4.383  -2.627   5.303  0.00  0.00    -0.075 A 
ATOM      2  C2  I4B d   1       4.035  -2.233   4.035  0.00  0.00     0.003 A 
ATOM      3  C3  I4B d   1       4.684  -1.131   3.428  0.00  0.00     0.002 A 
ATOM      4  C4  I4B d   1       5.632  -0.424   4.139  0.00  0.00    -0.004 A 
ATOM      5  C5  I4B d   1       6.000  -0.839   5.416  0.00  0.00     0.002 A 
ATOM      6  C6  I4B d   1       5.380  -1.955   5.997  0.00  0.00     0.003 A 
ENDROOT
BRANCH   1   7
ATOM      7  C1' I4B d   1       3.654  -3.775   5.927  0.00  0.00     0.060 C 
BRANCH   7   8
ATOM      8  C2' I4B d   1       4.608  -4.949   5.999  0.00  0.00    -0.013 C 
ATOM      9  C4' I4B d   1       4.261  -5.998   4.975  0.00  0.00     0.013 C 
ATOM     10  C3' I4B d   1       5.999  -4.429   5.792  0.00  0.00     0.013 C 
ENDBRANCH   7   8
ENDBRANCH   1   7
TORSDOF 2
ENDMDL
