MODEL 1
REMARK minimizedAffinity 7.12219381
REMARK minimizedRMSD -1
REMARK  2 active torsions:
REMARK  status: ('A' for Active; 'I' for Inactive)
REMARK    1  A    between atoms: C2'_3  and  C1'_4 
REMARK    2  A    between atoms: C1'_4  and  C1_5 
ROOT
ATOM      1  C1  I4B d   1       5.243   0.369   3.727  0.00  0.00    -0.075 A 
ATOM      2  C2  I4B d   1       5.589   0.890   4.949  0.00  0.00     0.003 A 
ATOM      3  C3  I4B d   1       5.999   0.034   5.999  0.00  0.00     0.002 A 
ATOM      4  C4  I4B d   1       6.000  -1.332   5.802  0.00  0.00    -0.004 A 
ATOM      5  C5  I4B d   1       5.671  -1.857   4.555  0.00  0.00     0.002 A 
ATOM      6  C6  I4B d   1       5.302  -1.001   3.508  0.00  0.00     0.003 A 
ENDROOT
BRANCH   1   7
ATOM      7  C1' I4B d   1       4.784   1.300   2.651  0.00  0.00     0.060 C 
BRANCH   7   8
ATOM      8  C2' I4B d   1       4.289   2.570   3.312  0.00  0.00    -0.013 C 
ATOM      9  C4' I4B d   1       5.184   3.738   2.989  0.00  0.00     0.013 C 
ATOM     10  C3' I4B d   1       2.885   2.818   2.845  0.00  0.00     0.013 C 
ENDBRANCH   7   8
ENDBRANCH   1   7
TORSDOF 2
ENDMDL
