MODEL 1
REMARK minimizedAffinity 0.569764018
REMARK minimizedRMSD -1
REMARK  2 active torsions:
REMARK  status: ('A' for Active; 'I' for Inactive)
REMARK    1  A    between atoms: C2'_3  and  C1'_4 
REMARK    2  A    between atoms: C1'_4  and  C1_5 
ROOT
ATOM      1  C1  I4B d   1       1.542   0.686  -1.585  0.00  0.00    -0.075 A 
ATOM      2  C2  I4B d   1       1.890   0.484  -2.897  0.00  0.00     0.003 A 
ATOM      3  C3  I4B d   1       2.103   1.589  -3.756  0.00  0.00     0.002 A 
ATOM      4  C4  I4B d   1       1.910   2.869  -3.277  0.00  0.00    -0.004 A 
ATOM      5  C5  I4B d   1       1.580   3.072  -1.941  0.00  0.00     0.002 A 
ATOM      6  C6  I4B d   1       1.407   1.974  -1.085  0.00  0.00     0.003 A 
ENDROOT
BRANCH   1   7
ATOM      7  C1' I4B d   1       1.292  -0.505  -0.714  0.00  0.00     0.060 C 
BRANCH   7   8
ATOM      8  C2' I4B d   1       2.094  -1.665  -1.268  0.00  0.00    -0.013 C 
ATOM      9  C4' I4B d   1       3.425  -1.789  -0.573  0.00  0.00     0.013 C 
ATOM     10  C3' I4B d   1       1.279  -2.912  -1.103  0.00  0.00     0.013 C 
ENDBRANCH   7   8
ENDBRANCH   1   7
TORSDOF 2
ENDMDL
