MODEL 1
REMARK minimizedAffinity 2.80768728
REMARK minimizedRMSD -1
REMARK  2 active torsions:
REMARK  status: ('A' for Active; 'I' for Inactive)
REMARK    1  A    between atoms: C2'_3  and  C1'_4 
REMARK    2  A    between atoms: C1'_4  and  C1_5 
ROOT
ATOM      1  C1  I4B d   1       1.532   1.107  -2.652  0.00  0.00    -0.075 A 
ATOM      2  C2  I4B d   1       1.493   2.442  -2.334  0.00  0.00     0.003 A 
ATOM      3  C3  I4B d   1       1.606   3.421  -3.351  0.00  0.00     0.002 A 
ATOM      4  C4  I4B d   1       1.805   3.023  -4.657  0.00  0.00    -0.004 A 
ATOM      5  C5  I4B d   1       1.821   1.670  -4.981  0.00  0.00     0.002 A 
ATOM      6  C6  I4B d   1       1.671   0.705  -3.974  0.00  0.00     0.003 A 
ENDROOT
BRANCH   1   7
ATOM      7  C1' I4B d   1       1.443   0.101  -1.549  0.00  0.00     0.060 C 
BRANCH   7   8
ATOM      8  C2' I4B d   1       2.398  -1.030  -1.871  0.00  0.00    -0.013 C 
ATOM      9  C4' I4B d   1       3.487  -1.137  -0.835  0.00  0.00     0.013 C 
ATOM     10  C3' I4B d   1       1.603  -2.299  -1.953  0.00  0.00     0.013 C 
ENDBRANCH   7   8
ENDBRANCH   1   7
TORSDOF 2
ENDMDL
