MODEL 1
REMARK minimizedAffinity 6.34837341
REMARK minimizedRMSD -1
REMARK  2 active torsions:
REMARK  status: ('A' for Active; 'I' for Inactive)
REMARK    1  A    between atoms: C2'_3  and  C1'_4 
REMARK    2  A    between atoms: C1'_4  and  C1_5 
ROOT
ATOM      1  C1  I4B d   1       1.511   0.380  -2.634  0.00  0.00    -0.075 A 
ATOM      2  C2  I4B d   1       1.186   1.201  -1.583  0.00  0.00     0.003 A 
ATOM      3  C3  I4B d   1       1.238   2.608  -1.735  0.00  0.00     0.002 A 
ATOM      4  C4  I4B d   1       1.667   3.147  -2.931  0.00  0.00    -0.004 A 
ATOM      5  C5  I4B d   1       1.975   2.313  -4.002  0.00  0.00     0.002 A 
ATOM      6  C6  I4B d   1       1.885   0.921  -3.857  0.00  0.00     0.003 A 
ENDROOT
BRANCH   1   7
ATOM      7  C1' I4B d   1       1.477  -1.101  -2.428  0.00  0.00     0.060 C 
BRANCH   7   8
ATOM      8  C2' I4B d   1       1.663  -1.372  -0.949  0.00  0.00    -0.013 C 
ATOM      9  C4' I4B d   1       0.422  -1.972  -0.344  0.00  0.00     0.013 C 
ATOM     10  C3' I4B d   1       2.840  -2.287  -0.790  0.00  0.00     0.013 C 
ENDBRANCH   7   8
ENDBRANCH   1   7
TORSDOF 2
ENDMDL
