MODEL 1
REMARK minimizedAffinity 4.0769062
REMARK minimizedRMSD -1
REMARK  1 active torsions:
REMARK  status: ('A' for Active; 'I' for Inactive)
REMARK    1  A    between atoms: N_2  and  C1_3 
ROOT
ATOM      1  C1  UNL d   1       5.247   3.773   3.038  0.00  0.00     0.143 A 
ATOM      2  C2  UNL d   1       5.490   5.150   3.030  0.00  0.00    -0.057 A 
ATOM      3  C3  UNL d   1       4.823   6.000   2.139  0.00  0.00     0.033 A 
ATOM      4  C4  UNL d   1       3.919   5.480   1.218  0.00  0.00    -0.042 A 
ATOM      5  C5  UNL d   1       3.681   4.111   1.192  0.00  0.00     0.033 A 
ATOM      6  C6  UNL d   1       4.345   3.269   2.088  0.00  0.00    -0.057 A 
ENDROOT
BRANCH   1   7
ATOM      7  N   UNL d   1       5.951   2.864   3.832  0.00  0.00    -0.732 N 
ATOM      8  C   UNL d   1       5.550   1.474   3.894  0.00  0.00     0.284 C 
ATOM      9  H3  UNL d   1       6.958   3.004   3.783  0.00  0.00     0.395 HD
ENDBRANCH   1   7
TORSDOF 1
ENDMDL
