MODEL 1
REMARK minimizedAffinity 18.1620197
REMARK minimizedRMSD -1
REMARK  1 active torsions:
REMARK  status: ('A' for Active; 'I' for Inactive)
REMARK    1  A    between atoms: N_2  and  C1_3 
ROOT
ATOM      1  C1  UNL d   1      -1.067  -1.399  -3.609  0.00  0.00     0.143 A 
ATOM      2  C2  UNL d   1      -1.083  -2.758  -3.942  0.00  0.00    -0.057 A 
ATOM      3  C3  UNL d   1      -1.462  -3.729  -3.007  0.00  0.00     0.033 A 
ATOM      4  C4  UNL d   1      -1.805  -3.359  -1.711  0.00  0.00    -0.042 A 
ATOM      5  C5  UNL d   1      -1.771  -2.017  -1.351  0.00  0.00     0.033 A 
ATOM      6  C6  UNL d   1      -1.398  -1.051  -2.290  0.00  0.00    -0.057 A 
ENDROOT
BRANCH   1   7
ATOM      7  N   UNL d   1      -0.605  -0.395  -4.464  0.00  0.00    -0.732 N 
ATOM      8  C   UNL d   1       0.158  -0.728  -5.648  0.00  0.00     0.284 C 
ATOM      9  H3  UNL d   1      -1.293   0.341  -4.606  0.00  0.00     0.395 HD
ENDBRANCH   1   7
TORSDOF 1
ENDMDL
