MODEL 1
REMARK minimizedAffinity 16.8022575
REMARK minimizedRMSD -1
REMARK  1 active torsions:
REMARK  status: ('A' for Active; 'I' for Inactive)
REMARK    1  A    between atoms: N_2  and  C1_3 
ROOT
ATOM      1  C1  UNL d   1       5.247   1.806  -5.671  0.00  0.00     0.143 A 
ATOM      2  C2  UNL d   1       3.875   1.831  -5.400  0.00  0.00    -0.057 A 
ATOM      3  C3  UNL d   1       3.157   0.650  -5.178  0.00  0.00     0.033 A 
ATOM      4  C4  UNL d   1       3.795  -0.584  -5.251  0.00  0.00    -0.042 A 
ATOM      5  C5  UNL d   1       5.154  -0.634  -5.544  0.00  0.00     0.033 A 
ATOM      6  C6  UNL d   1       5.867   0.549  -5.758  0.00  0.00    -0.057 A 
ENDROOT
BRANCH   1   7
ATOM      7  N   UNL d   1       5.997   2.938  -5.999  0.00  0.00    -0.732 N 
ATOM      8  C   UNL d   1       5.387   4.251  -5.999  0.00  0.00     0.284 C 
ATOM      9  H3  UNL d   1       6.932   2.914  -5.598  0.00  0.00     0.395 HD
ENDBRANCH   1   7
TORSDOF 1
ENDMDL
