MODEL 1
REMARK minimizedAffinity -2.22413039
REMARK minimizedRMSD -1
REMARK  2 active torsions:
REMARK  status: ('A' for Active; 'I' for Inactive)
REMARK    1  A    between atoms: C2'_3  and  C1'_4 
REMARK    2  A    between atoms: C1'_4  and  C1_5 
ROOT
ATOM      1  C1  I4B d   1      -0.019  -0.080   0.542  0.00  0.00    -0.075 A 
ATOM      2  C2  I4B d   1       0.003   1.190   0.023  0.00  0.00     0.003 A 
ATOM      3  C3  I4B d   1       0.784   1.479  -1.123  0.00  0.00     0.002 A 
ATOM      4  C4  I4B d   1       1.561   0.485  -1.683  0.00  0.00    -0.004 A 
ATOM      5  C5  I4B d   1       1.519  -0.808  -1.170  0.00  0.00     0.002 A 
ATOM      6  C6  I4B d   1       0.715  -1.096  -0.058  0.00  0.00     0.003 A 
ENDROOT
BRANCH   1   7
ATOM      7  C1' I4B d   1      -0.829  -0.342   1.772  0.00  0.00     0.060 C 
BRANCH   7   8
ATOM      8  C2' I4B d   1      -2.125   0.433   1.651  0.00  0.00    -0.013 C 
ATOM      9  C4' I4B d   1      -3.318  -0.475   1.796  0.00  0.00     0.013 C 
ATOM     10  C3' I4B d   1      -2.127   1.501   2.704  0.00  0.00     0.013 C 
ENDBRANCH   7   8
ENDBRANCH   1   7
TORSDOF 2
ENDMDL
