MODEL 1
REMARK minimizedAffinity -4.6945529
REMARK minimizedRMSD -1
REMARK  2 active torsions:
REMARK  status: ('A' for Active; 'I' for Inactive)
REMARK    1  A    between atoms: C2'_3  and  C1'_4 
REMARK    2  A    between atoms: C1'_4  and  C1_5 
ROOT
ATOM      1  C1  I4B d   1       0.160  -0.025  -1.069  0.00  0.00    -0.075 A 
ATOM      2  C2  I4B d   1       0.377  -1.369  -1.245  0.00  0.00     0.003 A 
ATOM      3  C3  I4B d   1       1.569  -1.824  -1.859  0.00  0.00     0.002 A 
ATOM      4  C4  I4B d   1       2.487  -0.905  -2.325  0.00  0.00    -0.004 A 
ATOM      5  C5  I4B d   1       2.275   0.456  -2.126  0.00  0.00     0.002 A 
ATOM      6  C6  I4B d   1       1.110   0.899  -1.483  0.00  0.00     0.003 A 
ENDROOT
BRANCH   1   7
ATOM      7  C1' I4B d   1      -1.125   0.422  -0.447  0.00  0.00     0.060 C 
BRANCH   7   8
ATOM      8  C2' I4B d   1      -1.301  -0.334   0.855  0.00  0.00    -0.013 C 
ATOM      9  C4' I4B d   1      -0.137  -0.102   1.782  0.00  0.00     0.013 C 
ATOM     10  C3' I4B d   1      -2.588   0.113   1.480  0.00  0.00     0.013 C 
ENDBRANCH   7   8
ENDBRANCH   1   7
TORSDOF 2
ENDMDL
