MODEL 1
REMARK minimizedAffinity -2.98934722
REMARK minimizedRMSD -1
REMARK  2 active torsions:
REMARK  status: ('A' for Active; 'I' for Inactive)
REMARK    1  A    between atoms: C2'_3  and  C1'_4 
REMARK    2  A    between atoms: C1'_4  and  C1_5 
ROOT
ATOM      1  C1  I4B d   1      -0.939  -0.159   0.892  0.00  0.00    -0.075 A 
ATOM      2  C2  I4B d   1      -0.868   0.673   1.982  0.00  0.00     0.003 A 
ATOM      3  C3  I4B d   1      -2.036   0.984   2.719  0.00  0.00     0.002 A 
ATOM      4  C4  I4B d   1      -3.254   0.485   2.304  0.00  0.00    -0.004 A 
ATOM      5  C5  I4B d   1      -3.321  -0.376   1.212  0.00  0.00     0.002 A 
ATOM      6  C6  I4B d   1      -2.155  -0.711   0.509  0.00  0.00     0.003 A 
ENDROOT
BRANCH   1   7
ATOM      7  C1' I4B d   1       0.309  -0.440   0.118  0.00  0.00     0.060 C 
BRANCH   7   8
ATOM      8  C2' I4B d   1       0.865   0.883  -0.368  0.00  0.00    -0.013 C 
ATOM      9  C4' I4B d   1       2.114   0.683  -1.186  0.00  0.00     0.013 C 
ATOM     10  C3' I4B d   1      -0.202   1.568  -1.168  0.00  0.00     0.013 C 
ENDBRANCH   7   8
ENDBRANCH   1   7
TORSDOF 2
ENDMDL
