MODEL 1
REMARK minimizedAffinity -2.54707766
REMARK minimizedRMSD -1
REMARK  2 active torsions:
REMARK  status: ('A' for Active; 'I' for Inactive)
REMARK    1  A    between atoms: C2'_3  and  C1'_4 
REMARK    2  A    between atoms: C1'_4  and  C1_5 
ROOT
ATOM      1  C1  I4B d   1       0.841  -0.649  -0.835  0.00  0.00    -0.075 A 
ATOM      2  C2  I4B d   1       0.973  -1.999  -0.625  0.00  0.00     0.003 A 
ATOM      3  C3  I4B d   1       2.025  -2.717  -1.242  0.00  0.00     0.002 A 
ATOM      4  C4  I4B d   1       2.887  -2.060  -2.097  0.00  0.00    -0.004 A 
ATOM      5  C5  I4B d   1       2.766  -0.688  -2.291  0.00  0.00     0.002 A 
ATOM      6  C6  I4B d   1       1.744   0.025  -1.647  0.00  0.00     0.003 A 
ENDROOT
BRANCH   1   7
ATOM      7  C1' I4B d   1      -0.301   0.073  -0.193  0.00  0.00     0.060 C 
BRANCH   7   8
ATOM      8  C2' I4B d   1       0.117   0.450   1.213  0.00  0.00    -0.013 C 
ATOM      9  C4' I4B d   1       1.083   1.605   1.203  0.00  0.00     0.013 C 
ATOM     10  C3' I4B d   1      -1.121   0.787   1.989  0.00  0.00     0.013 C 
ENDBRANCH   7   8
ENDBRANCH   1   7
TORSDOF 2
ENDMDL
