MODEL 1
REMARK minimizedAffinity -2.87062907
REMARK minimizedRMSD -1
REMARK  2 active torsions:
REMARK  status: ('A' for Active; 'I' for Inactive)
REMARK    1  A    between atoms: C2'_3  and  C1'_4 
REMARK    2  A    between atoms: C1'_4  and  C1_5 
ROOT
ATOM      1  C1  I4B d   1      -1.193   0.595   1.108  0.00  0.00    -0.075 A 
ATOM      2  C2  I4B d   1      -1.604   0.695   2.415  0.00  0.00     0.003 A 
ATOM      3  C3  I4B d   1      -2.973   0.886   2.719  0.00  0.00     0.002 A 
ATOM      4  C4  I4B d   1      -3.885   1.023   1.692  0.00  0.00    -0.004 A 
ATOM      5  C5  I4B d   1      -3.471   0.900   0.369  0.00  0.00     0.002 A 
ATOM      6  C6  I4B d   1      -2.118   0.672   0.075  0.00  0.00     0.003 A 
ENDROOT
BRANCH   1   7
ATOM      7  C1' I4B d   1       0.265   0.426   0.822  0.00  0.00     0.060 C 
BRANCH   7   8
ATOM      8  C2' I4B d   1       0.443   0.379  -0.682  0.00  0.00    -0.013 C 
ATOM      9  C4' I4B d   1       1.105   1.631  -1.192  0.00  0.00     0.013 C 
ATOM     10  C3' I4B d   1       1.254  -0.837  -1.015  0.00  0.00     0.013 C 
ENDBRANCH   7   8
ENDBRANCH   1   7
TORSDOF 2
ENDMDL
