MODEL 1
REMARK minimizedAffinity -3.4279778
REMARK minimizedRMSD -1
REMARK  2 active torsions:
REMARK  status: ('A' for Active; 'I' for Inactive)
REMARK    1  A    between atoms: C2'_3  and  C1'_4 
REMARK    2  A    between atoms: C1'_4  and  C1_5 
ROOT
ATOM      1  C1  I4B d   1       0.587  -0.249   0.116  0.00  0.00    -0.075 A 
ATOM      2  C2  I4B d   1       0.996   1.020  -0.209  0.00  0.00     0.003 A 
ATOM      3  C3  I4B d   1       1.950   1.220  -1.237  0.00  0.00     0.002 A 
ATOM      4  C4  I4B d   1       2.502   0.127  -1.873  0.00  0.00    -0.004 A 
ATOM      5  C5  I4B d   1       2.069  -1.157  -1.558  0.00  0.00     0.002 A 
ATOM      6  C6  I4B d   1       1.096  -1.346  -0.565  0.00  0.00     0.003 A 
ENDROOT
BRANCH   1   7
ATOM      7  C1' I4B d   1      -0.397  -0.425   1.229  0.00  0.00     0.060 C 
BRANCH   7   8
ATOM      8  C2' I4B d   1      -1.633   0.385   0.892  0.00  0.00    -0.013 C 
ATOM      9  C4' I4B d   1      -2.206  -0.024  -0.439  0.00  0.00     0.013 C 
ATOM     10  C3' I4B d   1      -2.630   0.188   1.995  0.00  0.00     0.013 C 
ENDBRANCH   7   8
ENDBRANCH   1   7
TORSDOF 2
ENDMDL
