MODEL 1
REMARK minimizedAffinity -2.80045629
REMARK minimizedRMSD -1
REMARK  2 active torsions:
REMARK  status: ('A' for Active; 'I' for Inactive)
REMARK    1  A    between atoms: C2'_3  and  C1'_4 
REMARK    2  A    between atoms: C1'_4  and  C1_5 
ROOT
ATOM      1  C1  I4B d   1      -1.252   0.116   0.694  0.00  0.00    -0.075 A 
ATOM      2  C2  I4B d   1      -1.201   0.705   1.932  0.00  0.00     0.003 A 
ATOM      3  C3  I4B d   1      -2.386   0.883   2.686  0.00  0.00     0.002 A 
ATOM      4  C4  I4B d   1      -3.598   0.506   2.146  0.00  0.00    -0.004 A 
ATOM      5  C5  I4B d   1      -3.645  -0.112   0.900  0.00  0.00     0.002 A 
ATOM      6  C6  I4B d   1      -2.464  -0.320   0.174  0.00  0.00     0.003 A 
ENDROOT
BRANCH   1   7
ATOM      7  C1' I4B d   1       0.015  -0.026  -0.089  0.00  0.00     0.060 C 
BRANCH   7   8
ATOM      8  C2' I4B d   1       0.516   1.364  -0.423  0.00  0.00    -0.013 C 
ATOM      9  C4' I4B d   1       1.711   1.308  -1.338  0.00  0.00     0.013 C 
ATOM     10  C3' I4B d   1      -0.613   2.125  -1.052  0.00  0.00     0.013 C 
ENDBRANCH   7   8
ENDBRANCH   1   7
TORSDOF 2
ENDMDL
