MODEL 1
REMARK minimizedAffinity -0.34398976
REMARK minimizedRMSD -1
REMARK  2 active torsions:
REMARK  status: ('A' for Active; 'I' for Inactive)
REMARK    1  A    between atoms: C2'_3  and  C1'_4 
REMARK    2  A    between atoms: C1'_4  and  C1_5 
ROOT
ATOM      1  C1  I4B d   1      -0.274  -0.349   0.546  0.00  0.00    -0.075 A 
ATOM      2  C2  I4B d   1      -0.145   0.974   0.206  0.00  0.00     0.003 A 
ATOM      3  C3  I4B d   1       0.768   1.366  -0.803  0.00  0.00     0.002 A 
ATOM      4  C4  I4B d   1       1.565   0.414  -1.405  0.00  0.00    -0.004 A 
ATOM      5  C5  I4B d   1       1.417  -0.930  -1.075  0.00  0.00     0.002 A 
ATOM      6  C6  I4B d   1       0.484  -1.316  -0.102  0.00  0.00     0.003 A 
ENDROOT
BRANCH   1   7
ATOM      7  C1' I4B d   1      -1.224  -0.724   1.638  0.00  0.00     0.060 C 
BRANCH   7   8
ATOM      8  C2' I4B d   1      -2.483   0.102   1.466  0.00  0.00    -0.013 C 
ATOM      9  C4' I4B d   1      -3.716  -0.758   1.548  0.00  0.00     0.013 C 
ATOM     10  C3' I4B d   1      -2.490   1.162   2.527  0.00  0.00     0.013 C 
ENDBRANCH   7   8
ENDBRANCH   1   7
TORSDOF 2
ENDMDL
