MODEL 1
REMARK minimizedAffinity -2.44853067
REMARK minimizedRMSD -1
REMARK  2 active torsions:
REMARK  status: ('A' for Active; 'I' for Inactive)
REMARK    1  A    between atoms: C2'_3  and  C1'_4 
REMARK    2  A    between atoms: C1'_4  and  C1_5 
ROOT
ATOM      1  C1  I4B d   1      -1.286   0.065   0.299  0.00  0.00    -0.075 A 
ATOM      2  C2  I4B d   1      -1.263   0.829  -0.841  0.00  0.00     0.003 A 
ATOM      3  C3  I4B d   1      -0.030   1.157  -1.455  0.00  0.00     0.002 A 
ATOM      4  C4  I4B d   1       1.151   0.745  -0.871  0.00  0.00    -0.004 A 
ATOM      5  C5  I4B d   1       1.125  -0.049   0.272  0.00  0.00     0.002 A 
ATOM      6  C6  I4B d   1      -0.101  -0.402   0.854  0.00  0.00     0.003 A 
ENDROOT
BRANCH   1   7
ATOM      7  C1' I4B d   1      -2.604  -0.235   0.940  0.00  0.00     0.060 C 
BRANCH   7   8
ATOM      8  C2' I4B d   1      -3.041   0.997   1.706  0.00  0.00    -0.013 C 
ATOM      9  C4' I4B d   1      -4.541   1.133   1.710  0.00  0.00     0.013 C 
ATOM     10  C3' I4B d   1      -2.504   0.889   3.102  0.00  0.00     0.013 C 
ENDBRANCH   7   8
ENDBRANCH   1   7
TORSDOF 2
ENDMDL
