MODEL 1
REMARK minimizedAffinity -2.86599731
REMARK minimizedRMSD -1
REMARK  2 active torsions:
REMARK  status: ('A' for Active; 'I' for Inactive)
REMARK    1  A    between atoms: C2'_3  and  C1'_4 
REMARK    2  A    between atoms: C1'_4  and  C1_5 
ROOT
ATOM      1  C1  I4B d   1      -0.048   0.482   0.424  0.00  0.00    -0.075 A 
ATOM      2  C2  I4B d   1      -0.716   1.299  -0.454  0.00  0.00     0.003 A 
ATOM      3  C3  I4B d   1      -0.002   2.019  -1.442  0.00  0.00     0.002 A 
ATOM      4  C4  I4B d   1       1.375   1.932  -1.484  0.00  0.00    -0.004 A 
ATOM      5  C5  I4B d   1       2.048   1.086  -0.607  0.00  0.00     0.002 A 
ATOM      6  C6  I4B d   1       1.331   0.346   0.345  0.00  0.00     0.003 A 
ENDROOT
BRANCH   1   7
ATOM      7  C1' I4B d   1      -0.831  -0.239   1.476  0.00  0.00     0.060 C 
BRANCH   7   8
ATOM      8  C2' I4B d   1      -2.159   0.472   1.638  0.00  0.00    -0.013 C 
ATOM      9  C4' I4B d   1      -3.306  -0.504   1.621  0.00  0.00     0.013 C 
ATOM     10  C3' I4B d   1      -2.120   1.238   2.926  0.00  0.00     0.013 C 
ENDBRANCH   7   8
ENDBRANCH   1   7
TORSDOF 2
ENDMDL
