MODEL 1
REMARK minimizedAffinity -0.558000386
REMARK minimizedRMSD -1
REMARK  0 active torsions:
REMARK  status: ('A' for Active; 'I' for Inactive)
ROOT
ATOM      1  N1  IND d   1      -1.100   0.854   0.484  0.00  0.00    -0.196 N 
ATOM      2  C2  IND d   1      -1.469   1.305  -0.753  0.00  0.00     0.054 A 
ATOM      3  C3  IND d   1      -0.646   0.803  -1.701  0.00  0.00    -0.031 A 
ATOM      4  C4  IND d   1       1.307  -0.857  -1.459  0.00  0.00     0.051 A 
ATOM      5  C5  IND d   1       2.045  -1.522  -0.521  0.00  0.00    -0.031 A 
ATOM      6  C6  IND d   1       1.765  -1.430   0.827  0.00  0.00     0.015 A 
ATOM      7  C7  IND d   1       0.725  -0.674   1.289  0.00  0.00    -0.016 A 
ATOM      8  C8  IND d   1      -0.023   0.009   0.340  0.00  0.00    -0.047 A 
ATOM      9  C9  IND d   1       0.283  -0.047  -1.026  0.00  0.00    -0.096 A 
ATOM     10  HN1 IND d   1      -1.478   1.064   1.228  0.00  0.00     0.298 HD
ENDROOT
TORSDOF 0
ENDMDL
