MODEL 1
REMARK minimizedAffinity 0.895446062
REMARK minimizedRMSD -1
REMARK  0 active torsions:
REMARK  status: ('A' for Active; 'I' for Inactive)
ROOT
ATOM      1  N1  IND d   1      -1.139   0.991   0.484  0.00  0.00    -0.196 N 
ATOM      2  C2  IND d   1      -1.347   1.484  -0.773  0.00  0.00     0.054 A 
ATOM      3  C3  IND d   1      -0.401   1.023  -1.622  0.00  0.00    -0.031 A 
ATOM      4  C4  IND d   1       1.522  -0.632  -1.184  0.00  0.00     0.051 A 
ATOM      5  C5  IND d   1       2.138  -1.326  -0.181  0.00  0.00    -0.031 A 
ATOM      6  C6  IND d   1       1.682  -1.285   1.121  0.00  0.00     0.015 A 
ATOM      7  C7  IND d   1       0.582  -0.554   1.468  0.00  0.00    -0.016 A 
ATOM      8  C8  IND d   1      -0.042   0.158   0.453  0.00  0.00    -0.047 A 
ATOM      9  C9  IND d   1       0.441   0.155  -0.862  0.00  0.00    -0.096 A 
ATOM     10  HN1 IND d   1      -1.614   1.170   1.179  0.00  0.00     0.298 HD
ENDROOT
TORSDOF 0
ENDMDL
