MODEL 1
REMARK minimizedAffinity -3.27988553
REMARK minimizedRMSD -1
REMARK  0 active torsions:
REMARK  status: ('A' for Active; 'I' for Inactive)
ROOT
ATOM      1  N1  IND d   1      -1.380   0.717   1.460  0.00  0.00    -0.196 N 
ATOM      2  C2  IND d   1      -1.614   1.590   0.434  0.00  0.00     0.054 A 
ATOM      3  C3  IND d   1      -0.661   1.467  -0.516  0.00  0.00    -0.031 A 
ATOM      4  C4  IND d   1       1.320  -0.172  -0.642  0.00  0.00     0.051 A 
ATOM      5  C5  IND d   1       1.967  -1.137   0.077  0.00  0.00    -0.031 A 
ATOM      6  C6  IND d   1       1.522  -1.544   1.318  0.00  0.00     0.015 A 
ATOM      7  C7  IND d   1       0.400  -1.006   1.884  0.00  0.00    -0.016 A 
ATOM      8  C8  IND d   1      -0.256  -0.021   1.159  0.00  0.00    -0.047 A 
ATOM      9  C9  IND d   1       0.216   0.426  -0.082  0.00  0.00    -0.096 A 
ATOM     10  HN1 IND d   1      -1.854   0.641   2.173  0.00  0.00     0.298 HD
ENDROOT
TORSDOF 0
ENDMDL
