MODEL 1
REMARK minimizedAffinity -1.46758842
REMARK minimizedRMSD -1
REMARK  0 active torsions:
REMARK  status: ('A' for Active; 'I' for Inactive)
ROOT
ATOM      1  N1  IND d   1      -0.916   1.352  -3.254  0.00  0.00    -0.196 N 
ATOM      2  C2  IND d   1      -1.888   2.308  -3.343  0.00  0.00     0.054 A 
ATOM      3  C3  IND d   1      -2.385   2.589  -2.118  0.00  0.00    -0.031 A 
ATOM      4  C4  IND d   1      -1.678   1.675   0.183  0.00  0.00     0.051 A 
ATOM      5  C5  IND d   1      -0.857   0.753   0.770  0.00  0.00    -0.031 A 
ATOM      6  C6  IND d   1       0.006  -0.029   0.031  0.00  0.00     0.015 A 
ATOM      7  C7  IND d   1       0.089   0.088  -1.328  0.00  0.00    -0.016 A 
ATOM      8  C8  IND d   1      -0.749   1.018  -1.928  0.00  0.00    -0.047 A 
ATOM      9  C9  IND d   1      -1.657   1.785  -1.188  0.00  0.00    -0.096 A 
ATOM     10  HN1 IND d   1      -0.481   1.015  -3.915  0.00  0.00     0.298 HD
ENDROOT
TORSDOF 0
ENDMDL
