MODEL 1
REMARK minimizedAffinity 1.64859807
REMARK minimizedRMSD -1
REMARK  0 active torsions:
REMARK  status: ('A' for Active; 'I' for Inactive)
ROOT
ATOM      1  N1  IND d   1       0.459  -1.578   1.598  0.00  0.00    -0.196 N 
ATOM      2  C2  IND d   1       1.771  -1.957   1.525  0.00  0.00     0.054 A 
ATOM      3  C3  IND d   1       2.425  -1.212   0.607  0.00  0.00    -0.031 A 
ATOM      4  C4  IND d   1       1.566   0.752  -0.819  0.00  0.00     0.051 A 
ATOM      5  C5  IND d   1       0.428   1.442  -1.127  0.00  0.00    -0.031 A 
ATOM      6  C6  IND d   1      -0.782   1.157  -0.529  0.00  0.00     0.015 A 
ATOM      7  C7  IND d   1      -0.897   0.174   0.413  0.00  0.00    -0.016 A 
ATOM      8  C8  IND d   1       0.255  -0.534   0.723  0.00  0.00    -0.047 A 
ATOM      9  C9  IND d   1       1.477  -0.277   0.088  0.00  0.00    -0.096 A 
ATOM     10  HN1 IND d   1      -0.138  -1.932   2.105  0.00  0.00     0.298 HD
ENDROOT
TORSDOF 0
ENDMDL
