MODEL 1
REMARK minimizedAffinity 0.181735694
REMARK minimizedRMSD -1
REMARK  0 active torsions:
REMARK  status: ('A' for Active; 'I' for Inactive)
ROOT
ATOM      1  N1  IND d   1      -1.055   0.284   0.593  0.00  0.00    -0.196 N 
ATOM      2  C2  IND d   1      -0.486   0.681  -0.584  0.00  0.00     0.054 A 
ATOM      3  C3  IND d   1       0.775   0.203  -0.682  0.00  0.00    -0.031 A 
ATOM      4  C4  IND d   1       2.070  -1.337   0.924  0.00  0.00     0.051 A 
ATOM      5  C5  IND d   1       1.979  -1.935   2.150  0.00  0.00    -0.031 A 
ATOM      6  C6  IND d   1       0.849  -1.825   2.933  0.00  0.00     0.015 A 
ATOM      7  C7  IND d   1      -0.242  -1.118   2.514  0.00  0.00    -0.016 A 
ATOM      8  C8  IND d   1      -0.151  -0.503   1.274  0.00  0.00    -0.047 A 
ATOM      9  C9  IND d   1       1.009  -0.576   0.492  0.00  0.00    -0.096 A 
ATOM     10  HN1 IND d   1      -1.845   0.490   0.864  0.00  0.00     0.298 HD
ENDROOT
TORSDOF 0
ENDMDL
