MODEL 1
REMARK minimizedAffinity -3.34208131
REMARK minimizedRMSD -1
REMARK  0 active torsions:
REMARK  status: ('A' for Active; 'I' for Inactive)
ROOT
ATOM      1  N1  IND d   1      -1.105   0.464   0.424  0.00  0.00    -0.196 N 
ATOM      2  C2  IND d   1      -0.480   0.761  -0.755  0.00  0.00     0.054 A 
ATOM      3  C3  IND d   1       0.745   0.190  -0.794  0.00  0.00    -0.031 A 
ATOM      4  C4  IND d   1       1.884  -1.357   0.919  0.00  0.00     0.051 A 
ATOM      5  C5  IND d   1       1.721  -1.886   2.169  0.00  0.00    -0.031 A 
ATOM      6  C6  IND d   1       0.582  -1.656   2.915  0.00  0.00     0.015 A 
ATOM      7  C7  IND d   1      -0.444  -0.895   2.432  0.00  0.00    -0.016 A 
ATOM      8  C8  IND d   1      -0.278  -0.350   1.166  0.00  0.00    -0.047 A 
ATOM      9  C9  IND d   1       0.893  -0.545   0.422  0.00  0.00    -0.096 A 
ATOM     10  HN1 IND d   1      -1.884   0.739   0.662  0.00  0.00     0.298 HD
ENDROOT
TORSDOF 0
ENDMDL
