MODEL 1
REMARK minimizedAffinity -4.32912683
REMARK minimizedRMSD -1
REMARK  0 active torsions:
REMARK  status: ('A' for Active; 'I' for Inactive)
ROOT
ATOM      1  N1  IND d   1      -1.889   1.798  -1.574  0.00  0.00    -0.196 N 
ATOM      2  C2  IND d   1      -2.303   1.291  -2.774  0.00  0.00     0.054 A 
ATOM      3  C3  IND d   1      -1.544   0.228  -3.123  0.00  0.00    -0.031 A 
ATOM      4  C4  IND d   1       0.364  -0.914  -1.827  0.00  0.00     0.051 A 
ATOM      5  C5  IND d   1       1.126  -0.790  -0.699  0.00  0.00    -0.031 A 
ATOM      6  C6  IND d   1       0.916   0.223   0.215  0.00  0.00     0.015 A 
ATOM      7  C7  IND d   1      -0.076   1.146   0.039  0.00  0.00    -0.016 A 
ATOM      8  C8  IND d   1      -0.847   1.027  -1.109  0.00  0.00    -0.047 A 
ATOM      9  C9  IND d   1      -0.611   0.026  -2.060  0.00  0.00    -0.096 A 
ATOM     10  HN1 IND d   1      -2.223   2.484  -1.177  0.00  0.00     0.298 HD
ENDROOT
TORSDOF 0
ENDMDL
