MODEL 1
REMARK minimizedAffinity -1.63240683
REMARK minimizedRMSD -1
REMARK  0 active torsions:
REMARK  status: ('A' for Active; 'I' for Inactive)
ROOT
ATOM      1  N1  IND d   1       0.027  -0.597  -1.168  0.00  0.00    -0.196 N 
ATOM      2  C2  IND d   1       0.585  -0.221   0.022  0.00  0.00     0.054 A 
ATOM      3  C3  IND d   1       0.117   0.990   0.399  0.00  0.00    -0.031 A 
ATOM      4  C4  IND d   1      -1.646   2.487  -0.732  0.00  0.00     0.051 A 
ATOM      5  C5  IND d   1      -2.413   2.584  -1.859  0.00  0.00    -0.031 A 
ATOM      6  C6  IND d   1      -2.408   1.605  -2.831  0.00  0.00     0.015 A 
ATOM      7  C7  IND d   1      -1.641   0.482  -2.707  0.00  0.00    -0.016 A 
ATOM      8  C8  IND d   1      -0.855   0.383  -1.567  0.00  0.00    -0.047 A 
ATOM      9  C9  IND d   1      -0.824   1.393  -0.597  0.00  0.00    -0.096 A 
ATOM     10  HN1 IND d   1       0.198  -1.324  -1.595  0.00  0.00     0.298 HD
ENDROOT
TORSDOF 0
ENDMDL
