MODEL 1
REMARK minimizedAffinity -3.66515636
REMARK minimizedRMSD -1
REMARK  0 active torsions:
REMARK  status: ('A' for Active; 'I' for Inactive)
ROOT
ATOM      1  N1  IND d   1      -0.933  -0.739   2.717  0.00  0.00    -0.196 N 
ATOM      2  C2  IND d   1      -0.334  -1.607   3.587  0.00  0.00     0.054 A 
ATOM      3  C3  IND d   1       0.877  -1.982   3.117  0.00  0.00    -0.031 A 
ATOM      4  C4  IND d   1       2.118  -1.218   0.995  0.00  0.00     0.051 A 
ATOM      5  C5  IND d   1       1.959  -0.461  -0.132  0.00  0.00    -0.031 A 
ATOM      6  C6  IND d   1       0.806   0.258  -0.371  0.00  0.00     0.015 A 
ATOM      7  C7  IND d   1      -0.232   0.257   0.519  0.00  0.00    -0.016 A 
ATOM      8  C8  IND d   1      -0.077  -0.516   1.661  0.00  0.00    -0.047 A 
ATOM      9  C9  IND d   1       1.074  -1.282   1.888  0.00  0.00    -0.096 A 
ATOM     10  HN1 IND d   1      -1.713  -0.391   2.813  0.00  0.00     0.298 HD
ENDROOT
TORSDOF 0
ENDMDL
