MODEL 1
REMARK minimizedAffinity -2.8661449
REMARK minimizedRMSD -1
REMARK  0 active torsions:
REMARK  status: ('A' for Active; 'I' for Inactive)
ROOT
ATOM      1  N1  IND d   1      -0.830   0.027   1.302  0.00  0.00    -0.196 N 
ATOM      2  C2  IND d   1      -1.644   0.746   0.472  0.00  0.00     0.054 A 
ATOM      3  C3  IND d   1      -1.128   0.784  -0.776  0.00  0.00    -0.031 A 
ATOM      4  C4  IND d   1       0.988  -0.349  -1.707  0.00  0.00     0.051 A 
ATOM      5  C5  IND d   1       2.075  -1.082  -1.321  0.00  0.00    -0.031 A 
ATOM      6  C6  IND d   1       2.252  -1.493  -0.016  0.00  0.00     0.015 A 
ATOM      7  C7  IND d   1       1.338  -1.195   0.954  0.00  0.00    -0.016 A 
ATOM      8  C8  IND d   1       0.236  -0.445   0.568  0.00  0.00    -0.047 A 
ATOM      9  C9  IND d   1       0.073   0.011  -0.746  0.00  0.00    -0.096 A 
ATOM     10  HN1 IND d   1      -0.961  -0.108   2.141  0.00  0.00     0.298 HD
ENDROOT
TORSDOF 0
ENDMDL
