MODEL 1
REMARK minimizedAffinity -4.37730694
REMARK minimizedRMSD -1
REMARK  0 active torsions:
REMARK  status: ('A' for Active; 'I' for Inactive)
ROOT
ATOM      1  N1  IND d   1      -0.989  -0.727   2.626  0.00  0.00    -0.196 N 
ATOM      2  C2  IND d   1      -0.414  -1.617   3.490  0.00  0.00     0.054 A 
ATOM      3  C3  IND d   1       0.803  -1.992   3.038  0.00  0.00    -0.031 A 
ATOM      4  C4  IND d   1       2.091  -1.195   0.956  0.00  0.00     0.051 A 
ATOM      5  C5  IND d   1       1.961  -0.416  -0.159  0.00  0.00    -0.031 A 
ATOM      6  C6  IND d   1       0.818   0.317  -0.406  0.00  0.00     0.015 A 
ATOM      7  C7  IND d   1      -0.237   0.306   0.462  0.00  0.00    -0.016 A 
ATOM      8  C8  IND d   1      -0.110  -0.490   1.592  0.00  0.00    -0.047 A 
ATOM      9  C9  IND d   1       1.030  -1.269   1.827  0.00  0.00    -0.096 A 
ATOM     10  HN1 IND d   1      -1.769  -0.375   2.714  0.00  0.00     0.298 HD
ENDROOT
TORSDOF 0
ENDMDL
