MODEL 1
REMARK minimizedAffinity -0.433808535
REMARK minimizedRMSD -1
REMARK  0 active torsions:
REMARK  status: ('A' for Active; 'I' for Inactive)
ROOT
ATOM      1  N1  IND d   1      -1.351  -0.637   2.361  0.00  0.00    -0.196 N 
ATOM      2  C2  IND d   1      -0.639  -1.332   3.299  0.00  0.00     0.054 A 
ATOM      3  C3  IND d   1       0.626  -1.540   2.871  0.00  0.00    -0.031 A 
ATOM      4  C4  IND d   1       1.773  -0.740   0.709  0.00  0.00     0.051 A 
ATOM      5  C5  IND d   1       1.519  -0.102  -0.472  0.00  0.00    -0.031 A 
ATOM      6  C6  IND d   1       0.271   0.402  -0.775  0.00  0.00     0.015 A 
ATOM      7  C7  IND d   1      -0.772   0.297   0.102  0.00  0.00    -0.016 A 
ATOM      8  C8  IND d   1      -0.519  -0.356   1.300  0.00  0.00    -0.047 A 
ATOM      9  C9  IND d   1       0.735  -0.907   1.595  0.00  0.00    -0.096 A 
ATOM     10  HN1 IND d   1      -2.179  -0.414   2.424  0.00  0.00     0.298 HD
ENDROOT
TORSDOF 0
ENDMDL
