MODEL 1
REMARK minimizedAffinity -1.99624228
REMARK minimizedRMSD -1
REMARK  0 active torsions:
REMARK  status: ('A' for Active; 'I' for Inactive)
ROOT
ATOM      1  N1  IND d   1      -0.544  -0.975   3.060  0.00  0.00    -0.196 N 
ATOM      2  C2  IND d   1       0.427  -1.757   3.621  0.00  0.00     0.054 A 
ATOM      3  C3  IND d   1       1.465  -1.903   2.766  0.00  0.00    -0.031 A 
ATOM      4  C4  IND d   1       1.827  -0.863   0.439  0.00  0.00     0.051 A 
ATOM      5  C5  IND d   1       1.201  -0.106  -0.511  0.00  0.00    -0.031 A 
ATOM      6  C6  IND d   1      -0.062   0.413  -0.315  0.00  0.00     0.015 A 
ATOM      7  C7  IND d   1      -0.746   0.203   0.849  0.00  0.00    -0.016 A 
ATOM      8  C8  IND d   1      -0.117  -0.571   1.814  0.00  0.00    -0.047 A 
ATOM      9  C9  IND d   1       1.148  -1.136   1.603  0.00  0.00    -0.096 A 
ATOM     10  HN1 IND d   1      -1.295  -0.769   3.425  0.00  0.00     0.298 HD
ENDROOT
TORSDOF 0
ENDMDL
