MODEL 1
REMARK minimizedAffinity 15.5062799
REMARK minimizedRMSD -1
REMARK  0 active torsions:
REMARK  status: ('A' for Active; 'I' for Inactive)
ROOT
ATOM      1  N1  IND d   1      -2.360   2.094  -3.287  0.00  0.00    -0.196 N 
ATOM      2  C2  IND d   1      -1.202   2.800  -3.453  0.00  0.00     0.054 A 
ATOM      3  C3  IND d   1      -0.530   2.884  -2.282  0.00  0.00    -0.031 A 
ATOM      4  C4  IND d   1      -1.097   1.850   0.006  0.00  0.00     0.051 A 
ATOM      5  C5  IND d   1      -2.072   1.150   0.660  0.00  0.00    -0.031 A 
ATOM      6  C6  IND d   1      -3.214   0.717   0.018  0.00  0.00     0.015 A 
ATOM      7  C7  IND d   1      -3.420   0.960  -1.310  0.00  0.00    -0.016 A 
ATOM      8  C8  IND d   1      -2.436   1.677  -1.976  0.00  0.00    -0.047 A 
ATOM      9  C9  IND d   1      -1.294   2.155  -1.320  0.00  0.00    -0.096 A 
ATOM     10  HN1 IND d   1      -2.944   1.936  -3.898  0.00  0.00     0.298 HD
ENDROOT
TORSDOF 0
ENDMDL
