MODEL 1
REMARK minimizedAffinity 5.46280289
REMARK minimizedRMSD -1
REMARK  1 active torsions:
REMARK  status: ('A' for Active; 'I' for Inactive)
REMARK    1  A    between atoms: C1_2  and  C2_3 
ROOT
ATOM      1  C2  UNL d   1       4.397  -4.201   3.345  0.00  0.00    -0.073 A 
ATOM      2  C3  UNL d   1       5.212  -4.602   2.280  0.00  0.00    -0.002 A 
ATOM      3  C4  UNL d   1       4.816  -4.367   0.963  0.00  0.00     0.004 A 
ATOM      4  C5  UNL d   1       3.607  -3.724   0.697  0.00  0.00    -0.004 A 
ATOM      5  C6  UNL d   1       2.785  -3.306   1.748  0.00  0.00    -0.075 A 
ATOM      6  C7  UNL d   1       1.480  -2.616   1.478  0.00  0.00     0.076 C 
ATOM      7  C8  UNL d   1       3.188  -3.548   3.068  0.00  0.00     0.001 A 
ENDROOT
BRANCH   1   8
ATOM      8  C1  UNL d   1       4.823  -4.447   4.769  0.00  0.00     0.053 C 
ATOM      9  C   UNL d   1       5.096  -3.150   5.514  0.00  0.00     0.018 C 
ENDBRANCH   1   8
TORSDOF 1
ENDMDL
