MODEL 1
REMARK minimizedAffinity 14.1469412
REMARK minimizedRMSD -1
REMARK  1 active torsions:
REMARK  status: ('A' for Active; 'I' for Inactive)
REMARK    1  A    between atoms: C1_2  and  C2_3 
ROOT
ATOM      1  C2  UNL d   1       2.052  -0.364   0.214  0.00  0.00    -0.073 A 
ATOM      2  C3  UNL d   1       2.461  -1.691   0.041  0.00  0.00    -0.002 A 
ATOM      3  C4  UNL d   1       2.074  -2.673   0.954  0.00  0.00     0.004 A 
ATOM      4  C5  UNL d   1       1.270  -2.339   2.044  0.00  0.00    -0.004 A 
ATOM      5  C6  UNL d   1       0.842  -1.021   2.228  0.00  0.00    -0.075 A 
ATOM      6  C7  UNL d   1      -0.021  -0.646   3.397  0.00  0.00     0.076 C 
ATOM      7  C8  UNL d   1       1.236  -0.040   1.308  0.00  0.00     0.001 A 
ENDROOT
BRANCH   1   8
ATOM      8  C1  UNL d   1       2.461   0.698  -0.774  0.00  0.00     0.053 C 
ATOM      9  C   UNL d   1       1.569   0.707  -2.004  0.00  0.00     0.018 C 
ENDBRANCH   1   8
TORSDOF 1
ENDMDL
