MODEL 1
REMARK minimizedAffinity 0.562642038
REMARK minimizedRMSD -1
REMARK  1 active torsions:
REMARK  status: ('A' for Active; 'I' for Inactive)
REMARK    1  A    between atoms: C1_2  and  C2_3 
ROOT
ATOM      1  C2  UNL d   1       4.030  -0.508  -0.591  0.00  0.00    -0.073 A 
ATOM      2  C3  UNL d   1       5.411  -0.700  -0.468  0.00  0.00    -0.002 A 
ATOM      3  C4  UNL d   1       5.911  -1.863   0.120  0.00  0.00     0.004 A 
ATOM      4  C5  UNL d   1       5.038  -2.846   0.584  0.00  0.00    -0.004 A 
ATOM      5  C6  UNL d   1       3.655  -2.678   0.458  0.00  0.00    -0.075 A 
ATOM      6  C7  UNL d   1       2.702  -3.726   0.954  0.00  0.00     0.076 C 
ATOM      7  C8  UNL d   1       3.161  -1.507  -0.131  0.00  0.00     0.001 A 
ENDROOT
BRANCH   1   8
ATOM      8  C1  UNL d   1       3.486   0.743  -1.231  0.00  0.00     0.053 C 
ATOM      9  C   UNL d   1       2.174   0.488  -1.955  0.00  0.00     0.018 C 
ENDBRANCH   1   8
TORSDOF 1
ENDMDL
