MODEL 1
REMARK minimizedAffinity 3.06086493
REMARK minimizedRMSD -1
REMARK  1 active torsions:
REMARK  status: ('A' for Active; 'I' for Inactive)
REMARK    1  A    between atoms: C1_2  and  C2_3 
ROOT
ATOM      1  C2  UNL d   1       2.928  -1.516  -0.306  0.00  0.00    -0.073 A 
ATOM      2  C3  UNL d   1       4.047  -0.720  -0.039  0.00  0.00    -0.002 A 
ATOM      3  C4  UNL d   1       4.141   0.567  -0.571  0.00  0.00     0.004 A 
ATOM      4  C5  UNL d   1       3.115   1.072  -1.370  0.00  0.00    -0.004 A 
ATOM      5  C6  UNL d   1       1.983   0.297  -1.639  0.00  0.00    -0.075 A 
ATOM      6  C7  UNL d   1       0.872   0.825  -2.498  0.00  0.00     0.076 C 
ATOM      7  C8  UNL d   1       1.897  -0.995  -1.102  0.00  0.00     0.001 A 
ENDROOT
BRANCH   1   8
ATOM      8  C1  UNL d   1       2.819  -2.903   0.272  0.00  0.00     0.053 C 
ATOM      9  C   UNL d   1       1.643  -3.032   1.227  0.00  0.00     0.018 C 
ENDBRANCH   1   8
TORSDOF 1
ENDMDL
