MODEL 1
REMARK minimizedAffinity -1.20186496
REMARK minimizedRMSD -1
REMARK  1 active torsions:
REMARK  status: ('A' for Active; 'I' for Inactive)
REMARK    1  A    between atoms: C1_2  and  C2_3 
ROOT
ATOM      1  C2  UNL d   1       3.796  -3.590   3.257  0.00  0.00    -0.073 A 
ATOM      2  C3  UNL d   1       4.171  -4.409   2.186  0.00  0.00    -0.002 A 
ATOM      3  C4  UNL d   1       3.501  -4.323   0.965  0.00  0.00     0.004 A 
ATOM      4  C5  UNL d   1       2.457  -3.414   0.800  0.00  0.00    -0.004 A 
ATOM      5  C6  UNL d   1       2.075  -2.578   1.855  0.00  0.00    -0.075 A 
ATOM      6  C7  UNL d   1       0.952  -1.596   1.694  0.00  0.00     0.076 C 
ATOM      7  C8  UNL d   1       2.751  -2.673   3.079  0.00  0.00     0.001 A 
ENDROOT
BRANCH   1   8
ATOM      8  C1  UNL d   1       4.521  -3.675   4.576  0.00  0.00     0.053 C 
ATOM      9  C   UNL d   1       4.667  -2.313   5.235  0.00  0.00     0.018 C 
ENDBRANCH   1   8
TORSDOF 1
ENDMDL
