MODEL 1
REMARK minimizedAffinity 0.52668339
REMARK minimizedRMSD -1
REMARK  1 active torsions:
REMARK  status: ('A' for Active; 'I' for Inactive)
REMARK    1  A    between atoms: C1_2  and  C2_3 
ROOT
ATOM      1  C2  UNL d   1       0.253  -1.130   1.851  0.00  0.00    -0.073 A 
ATOM      2  C3  UNL d   1       1.431  -1.798   1.499  0.00  0.00    -0.002 A 
ATOM      3  C4  UNL d   1       1.691  -3.077   1.992  0.00  0.00     0.004 A 
ATOM      4  C5  UNL d   1       0.773  -3.703   2.836  0.00  0.00    -0.004 A 
ATOM      5  C6  UNL d   1      -0.415  -3.057   3.190  0.00  0.00    -0.075 A 
ATOM      6  C7  UNL d   1      -1.411  -3.716   4.098  0.00  0.00     0.076 C 
ATOM      7  C8  UNL d   1      -0.667  -1.771   2.692  0.00  0.00     0.001 A 
ENDROOT
BRANCH   1   8
ATOM      8  C1  UNL d   1      -0.034   0.249   1.315  0.00  0.00     0.053 C 
ATOM      9  C   UNL d   1      -1.446   0.364   0.763  0.00  0.00     0.018 C 
ENDBRANCH   1   8
TORSDOF 1
ENDMDL
