MODEL 1
REMARK minimizedAffinity 9.44114685
REMARK minimizedRMSD -1
REMARK  1 active torsions:
REMARK  status: ('A' for Active; 'I' for Inactive)
REMARK    1  A    between atoms: C1_2  and  C2_3 
ROOT
ATOM      1  C2  UNL d   1       2.138   1.865  -5.741  0.00  0.00    -0.081 A 
ATOM      2  C3  UNL d   1       3.479   1.475  -5.845  0.00  0.00     0.006 A 
ATOM      3  C4  UNL d   1       4.490   2.435  -5.941  0.00  0.00     0.002 A 
ATOM      4  C5  UNL d   1       4.178   3.799  -5.927  0.00  0.00    -0.080 A 
ATOM      5  C6  UNL d   1       5.256   4.839  -6.000  0.00  0.00     0.076 C 
ATOM      6  C7  UNL d   1       2.837   4.188  -5.841  0.00  0.00     0.002 A 
ATOM      7  C8  UNL d   1       1.826   3.229  -5.745  0.00  0.00     0.006 A 
ENDROOT
BRANCH   1   8
ATOM      8  C1  UNL d   1       1.052   0.834  -5.571  0.00  0.00     0.054 C 
ATOM      9  C   UNL d   1      -0.321   1.486  -5.484  0.00  0.00     0.018 C 
ENDBRANCH   1   8
TORSDOF 1
ENDMDL
