MODEL 1
REMARK minimizedAffinity -0.147694424
REMARK minimizedRMSD -1
REMARK  1 active torsions:
REMARK  status: ('A' for Active; 'I' for Inactive)
REMARK    1  A    between atoms: C1_2  and  C2_3 
ROOT
ATOM      1  C2  UNL d   1       2.132   3.453  -5.853  0.00  0.00    -0.081 A 
ATOM      2  C3  UNL d   1       2.026   4.845  -5.957  0.00  0.00     0.006 A 
ATOM      3  C4  UNL d   1       3.172   5.643  -5.991  0.00  0.00     0.002 A 
ATOM      4  C5  UNL d   1       4.443   5.061  -5.931  0.00  0.00    -0.080 A 
ATOM      5  C6  UNL d   1       5.682   5.904  -5.998  0.00  0.00     0.076 C 
ATOM      6  C7  UNL d   1       4.549   3.672  -5.810  0.00  0.00     0.002 A 
ATOM      7  C8  UNL d   1       3.404   2.874  -5.774  0.00  0.00     0.006 A 
ENDROOT
BRANCH   1   8
ATOM      8  C1  UNL d   1       0.900   2.586  -5.880  0.00  0.00     0.054 C 
ATOM      9  C   UNL d   1       1.262   1.113  -6.000  0.00  0.00     0.018 C 
ENDBRANCH   1   8
TORSDOF 1
ENDMDL
