MODEL 1
REMARK minimizedAffinity -3.19809628
REMARK minimizedRMSD -1
REMARK  1 active torsions:
REMARK  status: ('A' for Active; 'I' for Inactive)
REMARK    1  A    between atoms: C1_2  and  C2_3 
ROOT
ATOM      1  C2  UNL d   1       4.756   3.586  -5.566  0.00  0.00    -0.081 A 
ATOM      2  C3  UNL d   1       4.791   4.980  -5.434  0.00  0.00     0.006 A 
ATOM      3  C4  UNL d   1       3.625   5.734  -5.580  0.00  0.00     0.002 A 
ATOM      4  C5  UNL d   1       2.403   5.108  -5.851  0.00  0.00    -0.080 A 
ATOM      5  C6  UNL d   1       1.139   5.904  -5.979  0.00  0.00     0.076 C 
ATOM      6  C7  UNL d   1       2.371   3.718  -6.000  0.00  0.00     0.002 A 
ATOM      7  C8  UNL d   1       3.537   2.963  -5.855  0.00  0.00     0.006 A 
ENDROOT
BRANCH   1   8
ATOM      8  C1  UNL d   1       6.000   2.764  -5.346  0.00  0.00     0.054 C 
ATOM      9  C   UNL d   1       5.863   1.871  -4.121  0.00  0.00     0.018 C 
ENDBRANCH   1   8
TORSDOF 1
ENDMDL
