MODEL 1
REMARK minimizedAffinity 0.0709672868
REMARK minimizedRMSD -1
REMARK  1 active torsions:
REMARK  status: ('A' for Active; 'I' for Inactive)
REMARK    1  A    between atoms: C1_2  and  C2_3 
ROOT
ATOM      1  C2  UNL d   1       4.163  -4.072   2.985  0.00  0.00    -0.081 A 
ATOM      2  C3  UNL d   1       4.879  -4.850   2.067  0.00  0.00     0.006 A 
ATOM      3  C4  UNL d   1       4.645  -4.722   0.696  0.00  0.00     0.002 A 
ATOM      4  C5  UNL d   1       3.697  -3.811   0.219  0.00  0.00    -0.080 A 
ATOM      5  C6  UNL d   1       3.457  -3.643  -1.252  0.00  0.00     0.076 C 
ATOM      6  C7  UNL d   1       2.968  -3.046   1.137  0.00  0.00     0.002 A 
ATOM      7  C8  UNL d   1       3.202  -3.174   2.508  0.00  0.00     0.006 A 
ENDROOT
BRANCH   1   8
ATOM      8  C1  UNL d   1       4.459  -4.160   4.460  0.00  0.00     0.054 C 
ATOM      9  C   UNL d   1       4.781  -2.792   5.043  0.00  0.00     0.018 C 
ENDBRANCH   1   8
TORSDOF 1
ENDMDL
