MODEL 1
REMARK minimizedAffinity 7.38029432
REMARK minimizedRMSD -1
REMARK  1 active torsions:
REMARK  status: ('A' for Active; 'I' for Inactive)
REMARK    1  A    between atoms: C1_2  and  C2_3 
ROOT
ATOM      1  C2  UNL d   1       3.461  -2.776   2.677  0.00  0.00    -0.081 A 
ATOM      2  C3  UNL d   1       3.633  -1.904   3.760  0.00  0.00     0.006 A 
ATOM      3  C4  UNL d   1       4.437  -2.269   4.842  0.00  0.00     0.002 A 
ATOM      4  C5  UNL d   1       5.089  -3.507   4.857  0.00  0.00    -0.080 A 
ATOM      5  C6  UNL d   1       5.979  -3.898   5.998  0.00  0.00     0.076 C 
ATOM      6  C7  UNL d   1       4.903  -4.385   3.783  0.00  0.00     0.002 A 
ATOM      7  C8  UNL d   1       4.099  -4.021   2.701  0.00  0.00     0.006 A 
ENDROOT
BRANCH   1   8
ATOM      8  C1  UNL d   1       2.647  -2.359   1.479  0.00  0.00     0.054 C 
ATOM      9  C   UNL d   1       1.269  -1.863   1.893  0.00  0.00     0.018 C 
ENDBRANCH   1   8
TORSDOF 1
ENDMDL
