MODEL 1
REMARK minimizedAffinity -1.67704391
REMARK minimizedRMSD -1
REMARK  1 active torsions:
REMARK  status: ('A' for Active; 'I' for Inactive)
REMARK    1  A    between atoms: C1_2  and  C2_3 
ROOT
ATOM      1  C2  UNL d   1       4.403  -3.968   3.337  0.00  0.00    -0.081 A 
ATOM      2  C3  UNL d   1       4.652  -4.874   2.299  0.00  0.00     0.006 A 
ATOM      3  C4  UNL d   1       4.335  -4.543   0.979  0.00  0.00     0.002 A 
ATOM      4  C5  UNL d   1       3.772  -3.300   0.675  0.00  0.00    -0.080 A 
ATOM      5  C6  UNL d   1       3.455  -2.920  -0.741  0.00  0.00     0.076 C 
ATOM      6  C7  UNL d   1       3.507  -2.401   1.714  0.00  0.00     0.002 A 
ATOM      7  C8  UNL d   1       3.823  -2.731   3.034  0.00  0.00     0.006 A 
ENDROOT
BRANCH   1   8
ATOM      8  C1  UNL d   1       4.803  -4.296   4.753  0.00  0.00     0.054 C 
ATOM      9  C   UNL d   1       5.290  -3.057   5.491  0.00  0.00     0.018 C 
ENDBRANCH   1   8
TORSDOF 1
ENDMDL
