MODEL 1
REMARK minimizedAffinity -4.50170279
REMARK minimizedRMSD -1
REMARK  2 active torsions:
REMARK  status: ('A' for Active; 'I' for Inactive)
REMARK    1  A    between atoms: C2'_3  and  C1'_4 
REMARK    2  A    between atoms: C1'_4  and  C1_5 
ROOT
ATOM      1  C1  I4B d   1      -2.216   0.642   0.090  0.00  0.00    -0.075 A 
ATOM      2  C2  I4B d   1      -3.145  -0.137  -0.554  0.00  0.00     0.003 A 
ATOM      3  C3  I4B d   1      -4.457  -0.258  -0.035  0.00  0.00     0.002 A 
ATOM      4  C4  I4B d   1      -4.780   0.372   1.149  0.00  0.00    -0.004 A 
ATOM      5  C5  I4B d   1      -3.844   1.180   1.789  0.00  0.00     0.002 A 
ATOM      6  C6  I4B d   1      -2.558   1.326   1.250  0.00  0.00     0.003 A 
ENDROOT
BRANCH   1   7
ATOM      7  C1' I4B d   1      -0.830   0.721  -0.468  0.00  0.00     0.060 C 
BRANCH   7   8
ATOM      8  C2' I4B d   1       0.058  -0.185   0.360  0.00  0.00    -0.013 C 
ATOM      9  C4' I4B d   1       0.319  -1.488  -0.350  0.00  0.00     0.013 C 
ATOM     10  C3' I4B d   1       1.337   0.547   0.636  0.00  0.00     0.013 C 
ENDBRANCH   7   8
ENDBRANCH   1   7
TORSDOF 2
ENDMDL
