MODEL 1
REMARK minimizedAffinity -3.47678375
REMARK minimizedRMSD -1
REMARK  2 active torsions:
REMARK  status: ('A' for Active; 'I' for Inactive)
REMARK    1  A    between atoms: C2'_3  and  C1'_4 
REMARK    2  A    between atoms: C1'_4  and  C1_5 
ROOT
ATOM      1  C1  I4B d   1      -0.270   0.320   0.162  0.00  0.00    -0.075 A 
ATOM      2  C2  I4B d   1      -0.986  -0.363   1.113  0.00  0.00     0.003 A 
ATOM      3  C3  I4B d   1      -2.400  -0.301   1.121  0.00  0.00     0.002 A 
ATOM      4  C4  I4B d   1      -3.051   0.490   0.197  0.00  0.00    -0.004 A 
ATOM      5  C5  I4B d   1      -2.325   1.162  -0.782  0.00  0.00     0.002 A 
ATOM      6  C6  I4B d   1      -0.926   1.067  -0.807  0.00  0.00     0.003 A 
ENDROOT
BRANCH   1   7
ATOM      7  C1' I4B d   1       1.224   0.259   0.203  0.00  0.00     0.060 C 
BRANCH   7   8
ATOM      8  C2' I4B d   1       1.627  -1.184   0.425  0.00  0.00    -0.013 C 
ATOM      9  C4' I4B d   1       1.914  -1.878  -0.881  0.00  0.00     0.013 C 
ATOM     10  C3' I4B d   1       2.830  -1.197   1.320  0.00  0.00     0.013 C 
ENDBRANCH   7   8
ENDBRANCH   1   7
TORSDOF 2
ENDMDL
