MODEL 1
REMARK minimizedAffinity -5.16646719
REMARK minimizedRMSD -1
REMARK  2 active torsions:
REMARK  status: ('A' for Active; 'I' for Inactive)
REMARK    1  A    between atoms: C2'_3  and  C1'_4 
REMARK    2  A    between atoms: C1'_4  and  C1_5 
ROOT
ATOM      1  C1  I4B d   1      -1.835   0.533   0.252  0.00  0.00    -0.075 A 
ATOM      2  C2  I4B d   1      -2.698  -0.507   0.014  0.00  0.00     0.003 A 
ATOM      3  C3  I4B d   1      -3.952  -0.559   0.670  0.00  0.00     0.002 A 
ATOM      4  C4  I4B d   1      -4.278   0.418   1.589  0.00  0.00    -0.004 A 
ATOM      5  C5  I4B d   1      -3.412   1.484   1.812  0.00  0.00     0.002 A 
ATOM      6  C6  I4B d   1      -2.188   1.549   1.131  0.00  0.00     0.003 A 
ENDROOT
BRANCH   1   7
ATOM      7  C1' I4B d   1      -0.506   0.539  -0.433  0.00  0.00     0.060 C 
BRANCH   7   8
ATOM      8  C2' I4B d   1       0.520  -0.017   0.533  0.00  0.00    -0.013 C 
ATOM      9  C4' I4B d   1       0.971  -1.393   0.118  0.00  0.00     0.013 C 
ATOM     10  C3' I4B d   1       1.674   0.939   0.584  0.00  0.00     0.013 C 
ENDBRANCH   7   8
ENDBRANCH   1   7
TORSDOF 2
ENDMDL
