MODEL 1
REMARK minimizedAffinity -5.54666662
REMARK minimizedRMSD -1
REMARK  2 active torsions:
REMARK  status: ('A' for Active; 'I' for Inactive)
REMARK    1  A    between atoms: C2'_3  and  C1'_4 
REMARK    2  A    between atoms: C1'_4  and  C1_5 
ROOT
ATOM      1  C1  I4B d   1      -2.671   0.394   0.031  0.00  0.00    -0.075 A 
ATOM      2  C2  I4B d   1      -3.640  -0.568  -0.112  0.00  0.00     0.003 A 
ATOM      3  C3  I4B d   1      -4.745  -0.603   0.773  0.00  0.00     0.002 A 
ATOM      4  C4  I4B d   1      -4.815   0.304   1.810  0.00  0.00    -0.004 A 
ATOM      5  C5  I4B d   1      -3.843   1.293   1.939  0.00  0.00     0.002 A 
ATOM      6  C6  I4B d   1      -2.771   1.346   1.037  0.00  0.00     0.003 A 
ENDROOT
BRANCH   1   7
ATOM      7  C1' I4B d   1      -1.501   0.381  -0.901  0.00  0.00     0.060 C 
BRANCH   7   8
ATOM      8  C2' I4B d   1      -0.248   0.170  -0.074  0.00  0.00    -0.013 C 
ATOM      9  C4' I4B d   1       0.434  -1.122  -0.440  0.00  0.00     0.013 C 
ATOM     10  C3' I4B d   1       0.658   1.343  -0.298  0.00  0.00     0.013 C 
ENDBRANCH   7   8
ENDBRANCH   1   7
TORSDOF 2
ENDMDL
