MODEL 1
REMARK minimizedAffinity 1.56153762
REMARK minimizedRMSD -1
REMARK  2 active torsions:
REMARK  status: ('A' for Active; 'I' for Inactive)
REMARK    1  A    between atoms: C2'_3  and  C1'_4 
REMARK    2  A    between atoms: C1'_4  and  C1_5 
ROOT
ATOM      1  C1  I4B d   1       0.186  -1.421  -2.766  0.00  0.00    -0.075 A 
ATOM      2  C2  I4B d   1      -0.566  -1.805  -3.848  0.00  0.00     0.003 A 
ATOM      3  C3  I4B d   1      -1.100  -3.115  -3.916  0.00  0.00     0.002 A 
ATOM      4  C4  I4B d   1      -0.818  -4.017  -2.910  0.00  0.00    -0.004 A 
ATOM      5  C5  I4B d   1      -0.074  -3.618  -1.803  0.00  0.00     0.002 A 
ATOM      6  C6  I4B d   1       0.420  -2.309  -1.724  0.00  0.00     0.003 A 
ENDROOT
BRANCH   1   7
ATOM      7  C1' I4B d   1       0.762  -0.041  -2.743  0.00  0.00     0.060 C 
BRANCH   7   8
ATOM      8  C2' I4B d   1       1.082   0.307  -1.303  0.00  0.00    -0.013 C 
ATOM      9  C4' I4B d   1       2.457  -0.172  -0.919  0.00  0.00     0.013 C 
ATOM     10  C3' I4B d   1       0.963   1.794  -1.149  0.00  0.00     0.013 C 
ENDBRANCH   7   8
ENDBRANCH   1   7
TORSDOF 2
ENDMDL
