MODEL 1
REMARK minimizedAffinity -0.462422311
REMARK minimizedRMSD -1
REMARK  2 active torsions:
REMARK  status: ('A' for Active; 'I' for Inactive)
REMARK    1  A    between atoms: C2'_3  and  C1'_4 
REMARK    2  A    between atoms: C1'_4  and  C1_5 
ROOT
ATOM      1  C1  I4B d   1      -0.298  -2.325  -4.224  0.00  0.00    -0.075 A 
ATOM      2  C2  I4B d   1      -1.432  -2.461  -4.986  0.00  0.00     0.003 A 
ATOM      3  C3  I4B d   1      -2.034  -1.323  -5.576  0.00  0.00     0.002 A 
ATOM      4  C4  I4B d   1      -1.503  -0.072  -5.338  0.00  0.00    -0.004 A 
ATOM      5  C5  I4B d   1      -0.341   0.061  -4.584  0.00  0.00     0.002 A 
ATOM      6  C6  I4B d   1       0.273  -1.073  -4.034  0.00  0.00     0.003 A 
ENDROOT
BRANCH   1   7
ATOM      7  C1' I4B d   1       0.293  -3.543  -3.588  0.00  0.00     0.060 C 
BRANCH   7   8
ATOM      8  C2' I4B d   1      -0.614  -3.963  -2.450  0.00  0.00    -0.013 C 
ATOM      9  C4' I4B d   1      -1.742  -4.831  -2.943  0.00  0.00     0.013 C 
ATOM     10  C3' I4B d   1       0.221  -4.684  -1.434  0.00  0.00     0.013 C 
ENDBRANCH   7   8
ENDBRANCH   1   7
TORSDOF 2
ENDMDL
