MODEL 1
REMARK minimizedAffinity 4.43810987
REMARK minimizedRMSD -1
REMARK  2 active torsions:
REMARK  status: ('A' for Active; 'I' for Inactive)
REMARK    1  A    between atoms: C2'_3  and  C1'_4 
REMARK    2  A    between atoms: C1'_4  and  C1_5 
ROOT
ATOM      1  C1  I4B d   1      -0.974  -1.274  -3.271  0.00  0.00    -0.075 A 
ATOM      2  C2  I4B d   1      -0.098  -0.220  -3.328  0.00  0.00     0.003 A 
ATOM      3  C3  I4B d   1      -0.539   1.091  -3.025  0.00  0.00     0.002 A 
ATOM      4  C4  I4B d   1      -1.867   1.308  -2.721  0.00  0.00    -0.004 A 
ATOM      5  C5  I4B d   1      -2.750   0.234  -2.642  0.00  0.00     0.002 A 
ATOM      6  C6  I4B d   1      -2.298  -1.067  -2.907  0.00  0.00     0.003 A 
ENDROOT
BRANCH   1   7
ATOM      7  C1' I4B d   1      -0.482  -2.641  -3.630  0.00  0.00     0.060 C 
BRANCH   7   8
ATOM      8  C2' I4B d   1      -1.013  -3.614  -2.597  0.00  0.00    -0.013 C 
ATOM      9  C4' I4B d   1      -1.782  -4.733  -3.247  0.00  0.00     0.013 C 
ATOM     10  C3' I4B d   1       0.153  -4.140  -1.815  0.00  0.00     0.013 C 
ENDBRANCH   7   8
ENDBRANCH   1   7
TORSDOF 2
ENDMDL
