MODEL 1
REMARK minimizedAffinity 6.17748117
REMARK minimizedRMSD -1
REMARK  2 active torsions:
REMARK  status: ('A' for Active; 'I' for Inactive)
REMARK    1  A    between atoms: C2'_3  and  C1'_4 
REMARK    2  A    between atoms: C1'_4  and  C1_5 
ROOT
ATOM      1  C1  I4B d   1       0.861   0.802  -1.422  0.00  0.00    -0.075 A 
ATOM      2  C2  I4B d   1       0.120   0.723  -2.574  0.00  0.00     0.003 A 
ATOM      3  C3  I4B d   1      -0.935   1.638  -2.808  0.00  0.00     0.002 A 
ATOM      4  C4  I4B d   1      -1.245   2.578  -1.846  0.00  0.00    -0.004 A 
ATOM      5  C5  I4B d   1      -0.478   2.671  -0.688  0.00  0.00     0.002 A 
ATOM      6  C6  I4B d   1       0.590   1.785  -0.480  0.00  0.00     0.003 A 
ENDROOT
BRANCH   1   7
ATOM      7  C1' I4B d   1       1.946  -0.202  -1.192  0.00  0.00     0.060 C 
BRANCH   7   8
ATOM      8  C2' I4B d   1       1.958  -0.547   0.283  0.00  0.00    -0.013 C 
ATOM      9  C4' I4B d   1       0.674  -1.215   0.697  0.00  0.00     0.013 C 
ATOM     10  C3' I4B d   1       3.138  -1.437   0.540  0.00  0.00     0.013 C 
ENDBRANCH   7   8
ENDBRANCH   1   7
TORSDOF 2
ENDMDL
