MODEL 1
REMARK minimizedAffinity 11.0925274
REMARK minimizedRMSD -1
REMARK  2 active torsions:
REMARK  status: ('A' for Active; 'I' for Inactive)
REMARK    1  A    between atoms: C2'_3  and  C1'_4 
REMARK    2  A    between atoms: C1'_4  and  C1_5 
ROOT
ATOM      1  C1  I4B d   1      -3.887   2.803  -3.586  0.00  0.00    -0.075 A 
ATOM      2  C2  I4B d   1      -5.172   2.438  -3.902  0.00  0.00     0.003 A 
ATOM      3  C3  I4B d   1      -6.000   3.313  -4.645  0.00  0.00     0.002 A 
ATOM      4  C4  I4B d   1      -5.523   4.557  -5.005  0.00  0.00    -0.004 A 
ATOM      5  C5  I4B d   1      -4.213   4.917  -4.704  0.00  0.00     0.002 A 
ATOM      6  C6  I4B d   1      -3.385   4.030  -4.001  0.00  0.00     0.003 A 
ENDROOT
BRANCH   1   7
ATOM      7  C1' I4B d   1      -3.050   1.867  -2.772  0.00  0.00     0.060 C 
BRANCH   7   8
ATOM      8  C2' I4B d   1      -3.904   0.668  -2.416  0.00  0.00    -0.013 C 
ATOM      9  C4' I4B d   1      -3.215  -0.620  -2.782  0.00  0.00     0.013 C 
ATOM     10  C3' I4B d   1      -4.196   0.727  -0.946  0.00  0.00     0.013 C 
ENDBRANCH   7   8
ENDBRANCH   1   7
TORSDOF 2
ENDMDL
