MODEL 1
REMARK minimizedAffinity 6.39435863
REMARK minimizedRMSD -1
REMARK  2 active torsions:
REMARK  status: ('A' for Active; 'I' for Inactive)
REMARK    1  A    between atoms: C2'_3  and  C1'_4 
REMARK    2  A    between atoms: C1'_4  and  C1_5 
ROOT
ATOM      1  C1  I4B d   1       4.567  -3.488  -1.564  0.00  0.00    -0.075 A 
ATOM      2  C2  I4B d   1       4.122  -4.775  -1.393  0.00  0.00     0.003 A 
ATOM      3  C3  I4B d   1       4.458  -5.777  -2.336  0.00  0.00     0.002 A 
ATOM      4  C4  I4B d   1       5.193  -5.438  -3.454  0.00  0.00    -0.004 A 
ATOM      5  C5  I4B d   1       5.663  -4.138  -3.614  0.00  0.00     0.002 A 
ATOM      6  C6  I4B d   1       5.358  -3.159  -2.657  0.00  0.00     0.003 A 
ENDROOT
BRANCH   1   7
ATOM      7  C1' I4B d   1       4.166  -2.448  -0.567  0.00  0.00     0.060 C 
BRANCH   7   8
ATOM      8  C2' I4B d   1       2.676  -2.214  -0.710  0.00  0.00    -0.013 C 
ATOM      9  C4' I4B d   1       1.923  -2.749   0.479  0.00  0.00     0.013 C 
ATOM     10  C3' I4B d   1       2.453  -0.740  -0.873  0.00  0.00     0.013 C 
ENDBRANCH   7   8
ENDBRANCH   1   7
TORSDOF 2
ENDMDL
