MODEL 1
REMARK minimizedAffinity 12.3307228
REMARK minimizedRMSD -1
REMARK  2 active torsions:
REMARK  status: ('A' for Active; 'I' for Inactive)
REMARK    1  A    between atoms: C2'_3  and  C1'_4 
REMARK    2  A    between atoms: C1'_4  and  C1_5 
ROOT
ATOM      1  C1  I4B d   1       0.154   3.987  -0.334  0.00  0.00    -0.075 A 
ATOM      2  C2  I4B d   1      -0.090   5.099  -1.101  0.00  0.00     0.003 A 
ATOM      3  C3  I4B d   1       0.987   5.888  -1.574  0.00  0.00     0.002 A 
ATOM      4  C4  I4B d   1       2.278   5.561  -1.215  0.00  0.00    -0.004 A 
ATOM      5  C5  I4B d   1       2.525   4.421  -0.456  0.00  0.00     0.002 A 
ATOM      6  C6  I4B d   1       1.457   3.621  -0.023  0.00  0.00     0.003 A 
ENDROOT
BRANCH   1   7
ATOM      7  C1' I4B d   1      -1.008   3.194   0.176  0.00  0.00     0.060 C 
BRANCH   7   8
ATOM      8  C2' I4B d   1      -1.210   2.014  -0.752  0.00  0.00    -0.013 C 
ATOM      9  C4' I4B d   1      -1.745   2.455  -2.088  0.00  0.00     0.013 C 
ATOM     10  C3' I4B d   1       0.107   1.311  -0.901  0.00  0.00     0.013 C 
ENDBRANCH   7   8
ENDBRANCH   1   7
TORSDOF 2
ENDMDL
