MODEL 1
REMARK minimizedAffinity -3.61383915
REMARK minimizedRMSD -1
REMARK  0 active torsions:
REMARK  status: ('A' for Active; 'I' for Inactive)
ROOT
ATOM      1  C   UNL d   1       2.742   0.391   1.102  0.00  0.00     0.172 C 
ATOM      2  N   UNL d   1       1.380   0.119   0.705  0.00  0.00    -0.070 N 
ATOM      3  C1  UNL d   1       0.806  -1.121   0.621  0.00  0.00    -0.004 A 
ATOM      4  C2  UNL d   1      -0.499  -0.955   0.210  0.00  0.00    -0.047 A 
ATOM      5  C3  UNL d   1      -0.716   0.433   0.039  0.00  0.00    -0.047 A 
ATOM      6  C4  UNL d   1       0.464   1.074   0.353  0.00  0.00    -0.004 A 
ENDROOT
TORSDOF 0
ENDMDL
