MODEL 1
REMARK minimizedAffinity -2.95035768
REMARK minimizedRMSD -1
REMARK  0 active torsions:
REMARK  status: ('A' for Active; 'I' for Inactive)
ROOT
ATOM      1  C   UNL d   1      -1.674   0.054  -0.672  0.00  0.00     0.172 C 
ATOM      2  N   UNL d   1      -0.302   0.132  -0.229  0.00  0.00    -0.070 N 
ATOM      3  C1  UNL d   1       0.499  -0.935   0.078  0.00  0.00    -0.004 A 
ATOM      4  C2  UNL d   1       1.730  -0.444   0.457  0.00  0.00    -0.047 A 
ATOM      5  C3  UNL d   1       1.665   0.968   0.376  0.00  0.00    -0.047 A 
ATOM      6  C4  UNL d   1       0.396   1.297  -0.051  0.00  0.00    -0.004 A 
ENDROOT
TORSDOF 0
ENDMDL
