MODEL 1
REMARK minimizedAffinity -2.43160725
REMARK minimizedRMSD -1
REMARK  0 active torsions:
REMARK  status: ('A' for Active; 'I' for Inactive)
ROOT
ATOM      1  C   UNL d   1       2.819  -0.727   1.916  0.00  0.00     0.172 C 
ATOM      2  N   UNL d   1       1.714  -0.165   1.176  0.00  0.00    -0.070 N 
ATOM      3  C1  UNL d   1       0.744  -0.880   0.524  0.00  0.00    -0.004 A 
ATOM      4  C2  UNL d   1      -0.125   0.020  -0.055  0.00  0.00    -0.047 A 
ATOM      5  C3  UNL d   1       0.339   1.319   0.259  0.00  0.00    -0.047 A 
ATOM      6  C4  UNL d   1       1.478   1.175   1.022  0.00  0.00    -0.004 A 
ENDROOT
TORSDOF 0
ENDMDL
