MODEL 1
REMARK minimizedAffinity -3.49330068
REMARK minimizedRMSD -1
REMARK  0 active torsions:
REMARK  status: ('A' for Active; 'I' for Inactive)
ROOT
ATOM      1  C   UNL d   1       2.860  -0.031   1.034  0.00  0.00     0.172 C 
ATOM      2  N   UNL d   1       1.453   0.091   0.735  0.00  0.00    -0.070 N 
ATOM      3  C1  UNL d   1       0.531  -0.919   0.804  0.00  0.00    -0.004 A 
ATOM      4  C2  UNL d   1      -0.693  -0.399   0.443  0.00  0.00    -0.047 A 
ATOM      5  C3  UNL d   1      -0.500   0.971   0.146  0.00  0.00    -0.047 A 
ATOM      6  C4  UNL d   1       0.838   1.248   0.334  0.00  0.00    -0.004 A 
ENDROOT
TORSDOF 0
ENDMDL
