MODEL 1
REMARK minimizedAffinity -3.60616422
REMARK minimizedRMSD -1
REMARK  0 active torsions:
REMARK  status: ('A' for Active; 'I' for Inactive)
ROOT
ATOM      1  C   UNL d   1      -0.589   0.082   0.089  0.00  0.00     0.172 C 
ATOM      2  N   UNL d   1       0.796   0.049   0.499  0.00  0.00    -0.070 N 
ATOM      3  C1  UNL d   1       1.695   1.072   0.359  0.00  0.00    -0.004 A 
ATOM      4  C2  UNL d   1       2.901   0.647   0.871  0.00  0.00    -0.047 A 
ATOM      5  C3  UNL d   1       2.722  -0.678   1.334  0.00  0.00    -0.047 A 
ATOM      6  C4  UNL d   1       1.409  -1.023   1.091  0.00  0.00    -0.004 A 
ENDROOT
TORSDOF 0
ENDMDL
