MODEL 1
REMARK minimizedAffinity -3.6461935
REMARK minimizedRMSD -1
REMARK  0 active torsions:
REMARK  status: ('A' for Active; 'I' for Inactive)
ROOT
ATOM      1  C   UNL d   1      -0.333   0.016  -0.133  0.00  0.00     0.172 C 
ATOM      2  N   UNL d   1       0.818  -0.489   0.578  0.00  0.00    -0.070 N 
ATOM      3  C1  UNL d   1       2.012   0.164   0.729  0.00  0.00    -0.004 A 
ATOM      4  C2  UNL d   1       2.846  -0.647   1.467  0.00  0.00    -0.047 A 
ATOM      5  C3  UNL d   1       2.129  -1.829   1.769  0.00  0.00    -0.047 A 
ATOM      6  C4  UNL d   1       0.876  -1.704   1.206  0.00  0.00    -0.004 A 
ENDROOT
TORSDOF 0
ENDMDL
