MODEL 1
REMARK minimizedAffinity -1.6018225
REMARK minimizedRMSD -1
REMARK  1 active torsions:
REMARK  status: ('A' for Active; 'I' for Inactive)
REMARK    1  A    between atoms: N_2  and  C1_3 
ROOT
ATOM      1  C1  UNL d   1       0.070   0.132   0.409  0.00  0.00     0.143 A 
ATOM      2  C2  UNL d   1       1.451  -0.068   0.503  0.00  0.00    -0.057 A 
ATOM      3  C3  UNL d   1       1.983  -1.113   1.268  0.00  0.00     0.033 A 
ATOM      4  C4  UNL d   1       1.140  -1.962   1.979  0.00  0.00    -0.042 A 
ATOM      5  C5  UNL d   1      -0.236  -1.766   1.920  0.00  0.00     0.033 A 
ATOM      6  C6  UNL d   1      -0.760  -0.724   1.148  0.00  0.00    -0.057 A 
ENDROOT
BRANCH   1   7
ATOM      7  N   UNL d   1      -0.516   1.213  -0.256  0.00  0.00    -0.732 N 
ATOM      8  C   UNL d   1      -0.858   1.117  -1.659  0.00  0.00     0.284 C 
ATOM      9  H3  UNL d   1      -1.216   1.685   0.311  0.00  0.00     0.395 HD
ENDBRANCH   1   7
TORSDOF 1
ENDMDL
