MODEL 1
REMARK minimizedAffinity -2.99588513
REMARK minimizedRMSD -1
REMARK  1 active torsions:
REMARK  status: ('A' for Active; 'I' for Inactive)
REMARK    1  A    between atoms: N_2  and  C1_3 
ROOT
ATOM      1  C1  UNL d   1       2.509  -0.892   0.575  0.00  0.00     0.143 A 
ATOM      2  C2  UNL d   1       1.683  -1.915   1.052  0.00  0.00    -0.057 A 
ATOM      3  C3  UNL d   1       0.339  -2.001   0.670  0.00  0.00     0.033 A 
ATOM      4  C4  UNL d   1      -0.212  -1.044  -0.176  0.00  0.00    -0.042 A 
ATOM      5  C5  UNL d   1       0.583  -0.004  -0.642  0.00  0.00     0.033 A 
ATOM      6  C6  UNL d   1       1.927   0.072  -0.262  0.00  0.00    -0.057 A 
ENDROOT
BRANCH   1   7
ATOM      7  N   UNL d   1       3.827  -0.696   0.996  0.00  0.00    -0.732 N 
ATOM      8  C   UNL d   1       4.116  -0.328   2.365  0.00  0.00     0.284 C 
ATOM      9  H3  UNL d   1       4.465  -1.387   0.608  0.00  0.00     0.395 HD
ENDBRANCH   1   7
TORSDOF 1
ENDMDL
