MODEL 1
REMARK minimizedAffinity -4.58284521
REMARK minimizedRMSD -1
REMARK  1 active torsions:
REMARK  status: ('A' for Active; 'I' for Inactive)
REMARK    1  A    between atoms: N_2  and  C1_3 
ROOT
ATOM      1  C1  UNL d   1       0.655  -0.463  -0.308  0.00  0.00     0.143 A 
ATOM      2  C2  UNL d   1       1.947  -0.447   0.227  0.00  0.00    -0.057 A 
ATOM      3  C3  UNL d   1       2.448  -1.538   0.949  0.00  0.00     0.033 A 
ATOM      4  C4  UNL d   1       1.650  -2.655   1.174  0.00  0.00    -0.042 A 
ATOM      5  C5  UNL d   1       0.354  -2.682   0.673  0.00  0.00     0.033 A 
ATOM      6  C6  UNL d   1      -0.138  -1.593  -0.052  0.00  0.00    -0.057 A 
ENDROOT
BRANCH   1   7
ATOM      7  N   UNL d   1       0.065   0.629  -0.949  0.00  0.00    -0.732 N 
ATOM      8  C   UNL d   1      -1.087   1.289  -0.373  0.00  0.00     0.284 C 
ATOM      9  H3  UNL d   1       0.754   1.265  -1.345  0.00  0.00     0.395 HD
ENDBRANCH   1   7
TORSDOF 1
ENDMDL
