MODEL 1
REMARK minimizedAffinity -3.70324922
REMARK minimizedRMSD -1
REMARK  1 active torsions:
REMARK  status: ('A' for Active; 'I' for Inactive)
REMARK    1  A    between atoms: N_2  and  C1_3 
ROOT
ATOM      1  C1  UNL d   1       2.431  -0.920   0.560  0.00  0.00     0.143 A 
ATOM      2  C2  UNL d   1       1.413  -1.735   1.066  0.00  0.00    -0.057 A 
ATOM      3  C3  UNL d   1       0.067  -1.472   0.787  0.00  0.00     0.033 A 
ATOM      4  C4  UNL d   1      -0.288  -0.368   0.018  0.00  0.00    -0.042 A 
ATOM      5  C5  UNL d   1       0.706   0.470  -0.474  0.00  0.00     0.033 A 
ATOM      6  C6  UNL d   1       2.049   0.198  -0.198  0.00  0.00    -0.057 A 
ENDROOT
BRANCH   1   7
ATOM      7  N   UNL d   1       3.782  -1.072   0.883  0.00  0.00    -0.732 N 
ATOM      8  C   UNL d   1       4.368  -0.323   1.974  0.00  0.00     0.284 C 
ATOM      9  H3  UNL d   1       4.087  -2.042   0.834  0.00  0.00     0.395 HD
ENDBRANCH   1   7
TORSDOF 1
ENDMDL
