MODEL 1
REMARK minimizedAffinity -2.88576865
REMARK minimizedRMSD -1
REMARK  1 active torsions:
REMARK  status: ('A' for Active; 'I' for Inactive)
REMARK    1  A    between atoms: N_2  and  C1_3 
ROOT
ATOM      1  C1  UNL d   1      -0.654   1.156  -0.408  0.00  0.00     0.143 A 
ATOM      2  C2  UNL d   1      -1.275   0.751   0.778  0.00  0.00    -0.057 A 
ATOM      3  C3  UNL d   1      -0.742  -0.281   1.561  0.00  0.00     0.033 A 
ATOM      4  C4  UNL d   1       0.410  -0.946   1.154  0.00  0.00    -0.042 A 
ATOM      5  C5  UNL d   1       1.030  -0.577  -0.034  0.00  0.00     0.033 A 
ATOM      6  C6  UNL d   1       0.497   0.458  -0.808  0.00  0.00    -0.057 A 
ENDROOT
BRANCH   1   7
ATOM      7  N   UNL d   1      -1.188   2.108  -1.280  0.00  0.00    -0.732 N 
ATOM      8  C   UNL d   1      -2.363   1.807  -2.069  0.00  0.00     0.284 C 
ATOM      9  H3  UNL d   1      -1.182   3.045  -0.883  0.00  0.00     0.395 HD
ENDBRANCH   1   7
TORSDOF 1
ENDMDL
