MODEL 1
REMARK minimizedAffinity -4.79342222
REMARK minimizedRMSD -1
REMARK  1 active torsions:
REMARK  status: ('A' for Active; 'I' for Inactive)
REMARK    1  A    between atoms: N_2  and  C1_3 
ROOT
ATOM      1  C1  UNL d   1       0.510   0.050  -0.024  0.00  0.00     0.143 A 
ATOM      2  C2  UNL d   1       1.863   0.122  -0.374  0.00  0.00    -0.057 A 
ATOM      3  C3  UNL d   1       2.776  -0.849   0.055  0.00  0.00     0.033 A 
ATOM      4  C4  UNL d   1       2.356  -1.897   0.868  0.00  0.00    -0.042 A 
ATOM      5  C5  UNL d   1       1.022  -1.975   1.248  0.00  0.00     0.033 A 
ATOM      6  C6  UNL d   1       0.113  -1.006   0.812  0.00  0.00    -0.057 A 
ENDROOT
BRANCH   1   7
ATOM      7  N   UNL d   1      -0.428   1.037  -0.336  0.00  0.00    -0.732 N 
ATOM      8  C   UNL d   1      -0.928   1.929   0.687  0.00  0.00     0.284 C 
ATOM      9  H3  UNL d   1      -0.231   1.493  -1.225  0.00  0.00     0.395 HD
ENDBRANCH   1   7
TORSDOF 1
ENDMDL
