MODEL 1
REMARK minimizedAffinity -2.45523024
REMARK minimizedRMSD -1
REMARK  1 active torsions:
REMARK  status: ('A' for Active; 'I' for Inactive)
REMARK    1  A    between atoms: N_2  and  C1_3 
ROOT
ATOM      1  C1  UNL d   1      -0.473   0.586  -1.184  0.00  0.00     0.143 A 
ATOM      2  C2  UNL d   1       0.134  -0.537  -1.756  0.00  0.00    -0.057 A 
ATOM      3  C3  UNL d   1       1.260  -1.130  -1.172  0.00  0.00     0.033 A 
ATOM      4  C4  UNL d   1       1.817  -0.591  -0.017  0.00  0.00    -0.042 A 
ATOM      5  C5  UNL d   1       1.245   0.540   0.555  0.00  0.00     0.033 A 
ATOM      6  C6  UNL d   1       0.117   1.124  -0.030  0.00  0.00    -0.057 A 
ENDROOT
BRANCH   1   7
ATOM      7  N   UNL d   1      -1.534   1.280  -1.771  0.00  0.00    -0.732 N 
ATOM      8  C   UNL d   1      -1.574   1.493  -3.202  0.00  0.00     0.284 C 
ATOM      9  H3  UNL d   1      -2.433   1.034  -1.363  0.00  0.00     0.395 HD
ENDBRANCH   1   7
TORSDOF 1
ENDMDL
