MODEL 1
REMARK minimizedAffinity -3.34631348
REMARK minimizedRMSD -1
REMARK  1 active torsions:
REMARK  status: ('A' for Active; 'I' for Inactive)
REMARK    1  A    between atoms: N_2  and  C1_3 
ROOT
ATOM      1  C1  UNL d   1       0.234  -0.226  -0.701  0.00  0.00     0.143 A 
ATOM      2  C2  UNL d   1       0.037  -0.366  -2.079  0.00  0.00    -0.057 A 
ATOM      3  C3  UNL d   1      -0.803   0.503  -2.786  0.00  0.00     0.033 A 
ATOM      4  C4  UNL d   1      -1.486   1.515  -2.119  0.00  0.00    -0.042 A 
ATOM      5  C5  UNL d   1      -1.325   1.658  -0.745  0.00  0.00     0.033 A 
ATOM      6  C6  UNL d   1      -0.480   0.791  -0.047  0.00  0.00    -0.057 A 
ENDROOT
BRANCH   1   7
ATOM      7  N   UNL d   1       0.978  -1.118   0.073  0.00  0.00    -0.732 N 
ATOM      8  C   UNL d   1       2.404  -0.936   0.242  0.00  0.00     0.284 C 
ATOM      9  H3  UNL d   1       0.491  -1.395   0.923  0.00  0.00     0.395 HD
ENDBRANCH   1   7
TORSDOF 1
ENDMDL
