MODEL 1
REMARK minimizedAffinity -2.03501844
REMARK minimizedRMSD -1
REMARK  1 active torsions:
REMARK  status: ('A' for Active; 'I' for Inactive)
REMARK    1  A    between atoms: N_2  and  C1_3 
ROOT
ATOM      1  C1  UNL d   1       1.114  -0.390  -0.385  0.00  0.00     0.143 A 
ATOM      2  C2  UNL d   1       2.269   0.399  -0.426  0.00  0.00    -0.057 A 
ATOM      3  C3  UNL d   1       3.379   0.102   0.374  0.00  0.00     0.033 A 
ATOM      4  C4  UNL d   1       3.342  -0.975   1.253  0.00  0.00    -0.042 A 
ATOM      5  C5  UNL d   1       2.196  -1.758   1.329  0.00  0.00     0.033 A 
ATOM      6  C6  UNL d   1       1.093  -1.460   0.523  0.00  0.00    -0.057 A 
ENDROOT
BRANCH   1   7
ATOM      7  N   UNL d   1      -0.059  -0.089  -1.083  0.00  0.00    -0.732 N 
ATOM      8  C   UNL d   1      -0.862   1.057  -0.715  0.00  0.00     0.284 C 
ATOM      9  H3  UNL d   1       0.042  -0.221  -2.087  0.00  0.00     0.395 HD
ENDBRANCH   1   7
TORSDOF 1
ENDMDL
