MODEL 1
REMARK minimizedAffinity -2.65559888
REMARK minimizedRMSD -1
REMARK  1 active torsions:
REMARK  status: ('A' for Active; 'I' for Inactive)
REMARK    1  A    between atoms: N_2  and  C1_3 
ROOT
ATOM      1  C1  UNL d   1      -0.159   0.360  -0.418  0.00  0.00     0.143 A 
ATOM      2  C2  UNL d   1       1.127   0.496  -0.952  0.00  0.00    -0.057 A 
ATOM      3  C3  UNL d   1       2.115  -0.469  -0.722  0.00  0.00     0.033 A 
ATOM      4  C4  UNL d   1       1.842  -1.576   0.074  0.00  0.00    -0.042 A 
ATOM      5  C5  UNL d   1       0.579  -1.720   0.637  0.00  0.00     0.033 A 
ATOM      6  C6  UNL d   1      -0.406  -0.756   0.397  0.00  0.00    -0.057 A 
ENDROOT
BRANCH   1   7
ATOM      7  N   UNL d   1      -1.155   1.333  -0.529  0.00  0.00    -0.732 N 
ATOM      8  C   UNL d   1      -1.554   1.834  -1.827  0.00  0.00     0.284 C 
ATOM      9  H3  UNL d   1      -1.929   1.171   0.111  0.00  0.00     0.395 HD
ENDBRANCH   1   7
TORSDOF 1
ENDMDL
