MODEL 1
REMARK minimizedAffinity -4.07234907
REMARK minimizedRMSD -1
REMARK  3 active torsions:
REMARK  status: ('A' for Active; 'I' for Inactive)
REMARK    1  A    between atoms: C3'_2  and  C2'_3 
REMARK    2  A    between atoms: C2'_3  and  C1'_4 
REMARK    3  A    between atoms: C1'_4  and  C1_5 
ROOT
ATOM      1  C1  N4B d   1      -0.367  -0.021  -0.002  0.00  0.00    -0.075 A 
ATOM      2  C2  N4B d   1       0.077  -1.305   0.386  0.00  0.00     0.002 A 
ATOM      3  C3  N4B d   1       1.018  -1.963  -0.369  0.00  0.00     0.002 A 
ATOM      4  C4  N4B d   1       1.513  -1.367  -1.519  0.00  0.00    -0.004 A 
ATOM      5  C5  N4B d   1       1.098  -0.116  -1.872  0.00  0.00     0.002 A 
ATOM      6  C6  N4B d   1       0.156   0.558  -1.122  0.00  0.00     0.002 A 
ENDROOT
BRANCH   1   7
ATOM      7  C1' N4B d   1      -1.456   0.700   0.743  0.00  0.00     0.057 C 
BRANCH   7   8
ATOM      8  C2' N4B d   1      -1.782  -0.067   2.021  0.00  0.00     0.009 C 
BRANCH   8   9
ATOM      9  C3' N4B d   1      -2.213   0.859   3.146  0.00  0.00     0.004 C 
ATOM     10  C4' N4B d   1      -1.267   2.005   3.350  0.00  0.00     0.003 C 
ENDBRANCH   8   9
ENDBRANCH   7   8
ENDBRANCH   1   7
TORSDOF 3
ENDMDL
