MODEL 1
REMARK minimizedAffinity -4.47364712
REMARK minimizedRMSD -1
REMARK  3 active torsions:
REMARK  status: ('A' for Active; 'I' for Inactive)
REMARK    1  A    between atoms: C3'_2  and  C2'_3 
REMARK    2  A    between atoms: C2'_3  and  C1'_4 
REMARK    3  A    between atoms: C1'_4  and  C1_5 
ROOT
ATOM      1  C1  N4B d   1       1.269  -0.054  -0.998  0.00  0.00    -0.075 A 
ATOM      2  C2  N4B d   1       0.625  -0.704   0.078  0.00  0.00     0.002 A 
ATOM      3  C3  N4B d   1      -0.563  -0.217   0.563  0.00  0.00     0.002 A 
ATOM      4  C4  N4B d   1      -1.115   0.926   0.004  0.00  0.00    -0.004 A 
ATOM      5  C5  N4B d   1      -0.500   1.534  -1.052  0.00  0.00     0.002 A 
ATOM      6  C6  N4B d   1       0.693   1.052  -1.552  0.00  0.00     0.002 A 
ENDROOT
BRANCH   1   7
ATOM      7  C1' N4B d   1       2.613  -0.500  -1.506  0.00  0.00     0.057 C 
BRANCH   7   8
ATOM      8  C2' N4B d   1       2.474  -0.954  -2.956  0.00  0.00     0.009 C 
BRANCH   8   9
ATOM      9  C3' N4B d   1       1.785  -2.303  -3.066  0.00  0.00     0.004 C 
ATOM     10  C4' N4B d   1       1.392  -2.641  -4.473  0.00  0.00     0.003 C 
ENDBRANCH   8   9
ENDBRANCH   7   8
ENDBRANCH   1   7
TORSDOF 3
ENDMDL
