MODEL 1
REMARK minimizedAffinity -3.78777361
REMARK minimizedRMSD -1
REMARK  3 active torsions:
REMARK  status: ('A' for Active; 'I' for Inactive)
REMARK    1  A    between atoms: C3'_2  and  C2'_3 
REMARK    2  A    between atoms: C2'_3  and  C1'_4 
REMARK    3  A    between atoms: C1'_4  and  C1_5 
ROOT
ATOM      1  C1  N4B d   1      -0.484  -0.034   0.069  0.00  0.00    -0.075 A 
ATOM      2  C2  N4B d   1       0.285  -1.156  -0.312  0.00  0.00     0.002 A 
ATOM      3  C3  N4B d   1       1.099  -1.087  -1.415  0.00  0.00     0.002 A 
ATOM      4  C4  N4B d   1       1.147   0.082  -2.160  0.00  0.00    -0.004 A 
ATOM      5  C5  N4B d   1       0.421   1.169  -1.771  0.00  0.00     0.002 A 
ATOM      6  C6  N4B d   1      -0.400   1.115  -0.662  0.00  0.00     0.002 A 
ENDROOT
BRANCH   1   7
ATOM      7  C1' N4B d   1      -1.455  -0.090   1.217  0.00  0.00     0.057 C 
BRANCH   7   8
ATOM      8  C2' N4B d   1      -1.349   1.200   2.025  0.00  0.00     0.009 C 
BRANCH   8   9
ATOM      9  C3' N4B d   1      -2.124   1.119   3.329  0.00  0.00     0.004 C 
ATOM     10  C4' N4B d   1      -2.147  -0.264   3.906  0.00  0.00     0.003 C 
ENDBRANCH   8   9
ENDBRANCH   7   8
ENDBRANCH   1   7
TORSDOF 3
ENDMDL
