MODEL 1
REMARK minimizedAffinity -2.92016506
REMARK minimizedRMSD -1
REMARK  3 active torsions:
REMARK  status: ('A' for Active; 'I' for Inactive)
REMARK    1  A    between atoms: C3'_2  and  C2'_3 
REMARK    2  A    between atoms: C2'_3  and  C1'_4 
REMARK    3  A    between atoms: C1'_4  and  C1_5 
ROOT
ATOM      1  C1  N4B d   1       0.030  -0.749  -0.292  0.00  0.00    -0.075 A 
ATOM      2  C2  N4B d   1       1.217  -0.503  -1.015  0.00  0.00     0.002 A 
ATOM      3  C3  N4B d   1       2.120  -1.518  -1.219  0.00  0.00     0.002 A 
ATOM      4  C4  N4B d   1       1.866  -2.776  -0.695  0.00  0.00    -0.004 A 
ATOM      5  C5  N4B d   1       0.705  -3.012  -0.019  0.00  0.00     0.002 A 
ATOM      6  C6  N4B d   1      -0.213  -2.003   0.190  0.00  0.00     0.002 A 
ENDROOT
BRANCH   1   7
ATOM      7  C1' N4B d   1      -0.946   0.350   0.030  0.00  0.00     0.057 C 
BRANCH   7   8
ATOM      8  C2' N4B d   1      -0.937   0.603   1.535  0.00  0.00     0.009 C 
BRANCH   8   9
ATOM      9  C3' N4B d   1      -2.230   0.156   2.195  0.00  0.00     0.004 C 
ATOM     10  C4' N4B d   1      -2.281   0.488   3.656  0.00  0.00     0.003 C 
ENDBRANCH   8   9
ENDBRANCH   7   8
ENDBRANCH   1   7
TORSDOF 3
ENDMDL
