MODEL 1
REMARK minimizedAffinity -4.8238883
REMARK minimizedRMSD -1
REMARK  3 active torsions:
REMARK  status: ('A' for Active; 'I' for Inactive)
REMARK    1  A    between atoms: C3'_2  and  C2'_3 
REMARK    2  A    between atoms: C2'_3  and  C1'_4 
REMARK    3  A    between atoms: C1'_4  and  C1_5 
ROOT
ATOM      1  C1  N4B d   1      -0.353   0.042  -0.321  0.00  0.00    -0.075 A 
ATOM      2  C2  N4B d   1       0.487  -1.093  -0.311  0.00  0.00     0.002 A 
ATOM      3  C3  N4B d   1       1.577  -1.147  -1.145  0.00  0.00     0.002 A 
ATOM      4  C4  N4B d   1       1.835  -0.092  -2.007  0.00  0.00    -0.004 A 
ATOM      5  C5  N4B d   1       1.033   1.012  -1.992  0.00  0.00     0.002 A 
ATOM      6  C6  N4B d   1      -0.064   1.082  -1.156  0.00  0.00     0.002 A 
ENDROOT
BRANCH   1   7
ATOM      7  C1' N4B d   1      -1.605   0.110   0.511  0.00  0.00     0.057 C 
BRANCH   7   8
ATOM      8  C2' N4B d   1      -1.289   0.797   1.836  0.00  0.00     0.009 C 
BRANCH   8   9
ATOM      9  C3' N4B d   1      -2.314   0.466   2.906  0.00  0.00     0.004 C 
ATOM     10  C4' N4B d   1      -2.126   1.269   4.159  0.00  0.00     0.003 C 
ENDBRANCH   8   9
ENDBRANCH   7   8
ENDBRANCH   1   7
TORSDOF 3
ENDMDL
