MODEL 1
REMARK minimizedAffinity -2.75839996
REMARK minimizedRMSD -1
REMARK  3 active torsions:
REMARK  status: ('A' for Active; 'I' for Inactive)
REMARK    1  A    between atoms: C3'_2  and  C2'_3 
REMARK    2  A    between atoms: C2'_3  and  C1'_4 
REMARK    3  A    between atoms: C1'_4  and  C1_5 
ROOT
ATOM      1  C1  N4B d   1      -0.441   0.230  -0.681  0.00  0.00    -0.075 A 
ATOM      2  C2  N4B d   1      -0.668   1.552  -1.125  0.00  0.00     0.002 A 
ATOM      3  C3  N4B d   1       0.011   2.036  -2.216  0.00  0.00     0.002 A 
ATOM      4  C4  N4B d   1       0.931   1.227  -2.866  0.00  0.00    -0.004 A 
ATOM      5  C5  N4B d   1       1.125  -0.057  -2.447  0.00  0.00     0.002 A 
ATOM      6  C6  N4B d   1       0.447  -0.558  -1.354  0.00  0.00     0.002 A 
ENDROOT
BRANCH   1   7
ATOM      7  C1' N4B d   1      -1.096  -0.315   0.558  0.00  0.00     0.057 C 
BRANCH   7   8
ATOM      8  C2' N4B d   1      -1.314   0.823   1.551  0.00  0.00     0.009 C 
BRANCH   8   9
ATOM      9  C3' N4B d   1      -2.387   0.488   2.573  0.00  0.00     0.004 C 
ATOM     10  C4' N4B d   1      -2.232   1.257   3.851  0.00  0.00     0.003 C 
ENDBRANCH   8   9
ENDBRANCH   7   8
ENDBRANCH   1   7
TORSDOF 3
ENDMDL
