MODEL 1
REMARK minimizedAffinity -5.45568752
REMARK minimizedRMSD -1
REMARK  3 active torsions:
REMARK  status: ('A' for Active; 'I' for Inactive)
REMARK    1  A    between atoms: C3'_2  and  C2'_3 
REMARK    2  A    between atoms: C2'_3  and  C1'_4 
REMARK    3  A    between atoms: C1'_4  and  C1_5 
ROOT
ATOM      1  C1  N4B d   1      -0.332  -0.011   0.015  0.00  0.00    -0.075 A 
ATOM      2  C2  N4B d   1       0.756   0.683  -0.558  0.00  0.00     0.002 A 
ATOM      3  C3  N4B d   1       1.838  -0.013  -1.040  0.00  0.00     0.002 A 
ATOM      4  C4  N4B d   1       1.862  -1.396  -0.942  0.00  0.00    -0.004 A 
ATOM      5  C5  N4B d   1       0.796  -2.061  -0.410  0.00  0.00     0.002 A 
ATOM      6  C6  N4B d   1      -0.300  -1.374   0.074  0.00  0.00     0.002 A 
ENDROOT
BRANCH   1   7
ATOM      7  C1' N4B d   1      -1.499   0.711   0.632  0.00  0.00     0.057 C 
BRANCH   7   8
ATOM      8  C2' N4B d   1      -1.992  -0.077   1.842  0.00  0.00     0.009 C 
BRANCH   8   9
ATOM      9  C3' N4B d   1      -1.834   0.706   3.133  0.00  0.00     0.004 C 
ATOM     10  C4' N4B d   1      -2.131   2.167   2.967  0.00  0.00     0.003 C 
ENDBRANCH   8   9
ENDBRANCH   7   8
ENDBRANCH   1   7
TORSDOF 3
ENDMDL
