MODEL 1
REMARK minimizedAffinity -4.08830166
REMARK minimizedRMSD -1
REMARK  3 active torsions:
REMARK  status: ('A' for Active; 'I' for Inactive)
REMARK    1  A    between atoms: C3'_2  and  C2'_3 
REMARK    2  A    between atoms: C2'_3  and  C1'_4 
REMARK    3  A    between atoms: C1'_4  and  C1_5 
ROOT
ATOM      1  C1  N4B d   1       2.457   0.081  -2.783  0.00  0.00    -0.075 A 
ATOM      2  C2  N4B d   1       2.273   1.385  -3.295  0.00  0.00     0.002 A 
ATOM      3  C3  N4B d   1       3.199   1.921  -4.156  0.00  0.00     0.002 A 
ATOM      4  C4  N4B d   1       4.320   1.184  -4.503  0.00  0.00    -0.004 A 
ATOM      5  C5  N4B d   1       4.478  -0.084  -4.026  0.00  0.00     0.002 A 
ATOM      6  C6  N4B d   1       3.554  -0.638  -3.162  0.00  0.00     0.002 A 
ENDROOT
BRANCH   1   7
ATOM      7  C1' N4B d   1       1.517  -0.516  -1.772  0.00  0.00     0.057 C 
BRANCH   7   8
ATOM      8  C2' N4B d   1       1.530   0.341  -0.510  0.00  0.00     0.009 C 
BRANCH   8   9
ATOM      9  C3' N4B d   1       0.250   1.146  -0.356  0.00  0.00     0.004 C 
ATOM     10  C4' N4B d   1       0.387   2.274   0.622  0.00  0.00     0.003 C 
ENDBRANCH   8   9
ENDBRANCH   7   8
ENDBRANCH   1   7
TORSDOF 3
ENDMDL
