MODEL 1
REMARK minimizedAffinity -4.43857193
REMARK minimizedRMSD -1
REMARK  2 active torsions:
REMARK  status: ('A' for Active; 'I' for Inactive)
REMARK    1  A    between atoms: C1_2  and  C2_3 
REMARK    2  A    between atoms: C2_3  and  C3_4 
ROOT
ATOM      1  C3  UNL d   1      -0.284   0.196  -0.414  0.00  0.00    -0.075 A 
ATOM      2  C4  UNL d   1      -1.346   0.148   0.500  0.00  0.00     0.002 A 
ATOM      3  C5  UNL d   1      -1.108  -0.122   1.848  0.00  0.00     0.002 A 
ATOM      4  C6  UNL d   1       0.189  -0.357   2.297  0.00  0.00    -0.004 A 
ATOM      5  C7  UNL d   1       1.250  -0.329   1.394  0.00  0.00     0.002 A 
ATOM      6  C8  UNL d   1       1.016  -0.054   0.045  0.00  0.00     0.002 A 
ENDROOT
BRANCH   1   7
ATOM      7  C2  UNL d   1      -0.531   0.517  -1.869  0.00  0.00     0.056 C 
BRANCH   7   8
ATOM      8  C1  UNL d   1      -0.010   1.892  -2.301  0.00  0.00     0.007 C 
ATOM      9  C   UNL d   1      -1.055   2.729  -3.027  0.00  0.00     0.009 C 
ENDBRANCH   7   8
ENDBRANCH   1   7
TORSDOF 2
ENDMDL
