MODEL 1
REMARK minimizedAffinity -2.91748381
REMARK minimizedRMSD -1
REMARK  2 active torsions:
REMARK  status: ('A' for Active; 'I' for Inactive)
REMARK    1  A    between atoms: C1_2  and  C2_3 
REMARK    2  A    between atoms: C2_3  and  C3_4 
ROOT
ATOM      1  C3  UNL d   1      -0.454   0.478  -1.268  0.00  0.00    -0.075 A 
ATOM      2  C4  UNL d   1      -0.528   1.006   0.029  0.00  0.00     0.002 A 
ATOM      3  C5  UNL d   1       0.241   0.463   1.059  0.00  0.00     0.002 A 
ATOM      4  C6  UNL d   1       1.084  -0.618   0.808  0.00  0.00    -0.004 A 
ATOM      5  C7  UNL d   1       1.152  -1.161  -0.473  0.00  0.00     0.002 A 
ATOM      6  C8  UNL d   1       0.387  -0.617  -1.506  0.00  0.00     0.002 A 
ENDROOT
BRANCH   1   7
ATOM      7  C2  UNL d   1      -1.262   1.079  -2.394  0.00  0.00     0.056 C 
BRANCH   7   8
ATOM      8  C1  UNL d   1      -0.915   2.541  -2.698  0.00  0.00     0.007 C 
ATOM      9  C   UNL d   1       0.433   2.707  -3.386  0.00  0.00     0.009 C 
ENDBRANCH   7   8
ENDBRANCH   1   7
TORSDOF 2
ENDMDL
