MODEL 1
REMARK minimizedAffinity -5.66263437
REMARK minimizedRMSD -1
REMARK  2 active torsions:
REMARK  status: ('A' for Active; 'I' for Inactive)
REMARK    1  A    between atoms: C1_2  and  C2_3 
REMARK    2  A    between atoms: C2_3  and  C3_4 
ROOT
ATOM      1  C3  UNL d   1       0.023   0.090  -0.016  0.00  0.00    -0.075 A 
ATOM      2  C4  UNL d   1      -0.936  -0.107   0.988  0.00  0.00     0.002 A 
ATOM      3  C5  UNL d   1      -0.552  -0.529   2.261  0.00  0.00     0.002 A 
ATOM      4  C6  UNL d   1       0.791  -0.768   2.543  0.00  0.00    -0.004 A 
ATOM      5  C7  UNL d   1       1.750  -0.592   1.549  0.00  0.00     0.002 A 
ATOM      6  C8  UNL d   1       1.370  -0.165   0.275  0.00  0.00     0.002 A 
ENDROOT
BRANCH   1   7
ATOM      7  C2  UNL d   1      -0.383   0.575  -1.388  0.00  0.00     0.056 C 
BRANCH   7   8
ATOM      8  C1  UNL d   1      -0.024   2.039  -1.663  0.00  0.00     0.007 C 
ATOM      9  C   UNL d   1      -1.024   2.742  -2.572  0.00  0.00     0.009 C 
ENDBRANCH   7   8
ENDBRANCH   1   7
TORSDOF 2
ENDMDL
