MODEL 1
REMARK minimizedAffinity -4.36432648
REMARK minimizedRMSD -1
REMARK  2 active torsions:
REMARK  status: ('A' for Active; 'I' for Inactive)
REMARK    1  A    between atoms: C1_2  and  C2_3 
REMARK    2  A    between atoms: C2_3  and  C3_4 
ROOT
ATOM      1  C3  UNL d   1      -0.204   0.124   0.013  0.00  0.00    -0.075 A 
ATOM      2  C4  UNL d   1      -0.858   0.064   1.252  0.00  0.00     0.002 A 
ATOM      3  C5  UNL d   1      -0.186  -0.388   2.388  0.00  0.00     0.002 A 
ATOM      4  C6  UNL d   1       1.144  -0.794   2.298  0.00  0.00    -0.004 A 
ATOM      5  C7  UNL d   1       1.799  -0.754   1.069  0.00  0.00     0.002 A 
ATOM      6  C8  UNL d   1       1.130  -0.299  -0.068  0.00  0.00     0.002 A 
ENDROOT
BRANCH   1   7
ATOM      7  C2  UNL d   1      -0.917   0.639  -1.213  0.00  0.00     0.056 C 
BRANCH   7   8
ATOM      8  C1  UNL d   1      -0.281   1.892  -1.824  0.00  0.00     0.007 C 
ATOM      9  C   UNL d   1      -1.295   2.982  -2.151  0.00  0.00     0.009 C 
ENDBRANCH   7   8
ENDBRANCH   1   7
TORSDOF 2
ENDMDL
