MODEL 1
REMARK minimizedAffinity -5.28468752
REMARK minimizedRMSD -1
REMARK  2 active torsions:
REMARK  status: ('A' for Active; 'I' for Inactive)
REMARK    1  A    between atoms: C1_2  and  C2_3 
REMARK    2  A    between atoms: C2_3  and  C3_4 
ROOT
ATOM      1  C3  UNL d   1       0.382   0.490   0.738  0.00  0.00    -0.075 A 
ATOM      2  C4  UNL d   1      -0.437  -0.017   1.758  0.00  0.00     0.002 A 
ATOM      3  C5  UNL d   1       0.116  -0.732   2.821  0.00  0.00     0.002 A 
ATOM      4  C6  UNL d   1       1.489  -0.959   2.872  0.00  0.00    -0.004 A 
ATOM      5  C7  UNL d   1       2.310  -0.476   1.856  0.00  0.00     0.002 A 
ATOM      6  C8  UNL d   1       1.761   0.245   0.794  0.00  0.00     0.002 A 
ENDROOT
BRANCH   1   7
ATOM      7  C2  UNL d   1      -0.206   1.290  -0.399  0.00  0.00     0.056 C 
BRANCH   7   8
ATOM      8  C1  UNL d   1      -0.992   0.451  -1.412  0.00  0.00     0.007 C 
ATOM      9  C   UNL d   1      -1.688   1.289  -2.475  0.00  0.00     0.009 C 
ENDBRANCH   7   8
ENDBRANCH   1   7
TORSDOF 2
ENDMDL
