MODEL 1
REMARK minimizedAffinity -4.68498135
REMARK minimizedRMSD -1
REMARK  2 active torsions:
REMARK  status: ('A' for Active; 'I' for Inactive)
REMARK    1  A    between atoms: C1_2  and  C2_3 
REMARK    2  A    between atoms: C2_3  and  C3_4 
ROOT
ATOM      1  C3  UNL d   1      -1.459   1.059   0.963  0.00  0.00    -0.075 A 
ATOM      2  C4  UNL d   1      -0.608   0.292   0.155  0.00  0.00     0.002 A 
ATOM      3  C5  UNL d   1       0.450   0.891  -0.530  0.00  0.00     0.002 A 
ATOM      4  C6  UNL d   1       0.663   2.264  -0.425  0.00  0.00    -0.004 A 
ATOM      5  C7  UNL d   1      -0.187   3.039   0.362  0.00  0.00     0.002 A 
ATOM      6  C8  UNL d   1      -1.243   2.441   1.052  0.00  0.00     0.002 A 
ENDROOT
BRANCH   1   7
ATOM      7  C2  UNL d   1      -2.587   0.412   1.730  0.00  0.00     0.056 C 
BRANCH   7   8
ATOM      8  C1  UNL d   1      -2.166  -0.819   2.539  0.00  0.00     0.007 C 
ATOM      9  C   UNL d   1      -3.147  -1.173   3.649  0.00  0.00     0.009 C 
ENDBRANCH   7   8
ENDBRANCH   1   7
TORSDOF 2
ENDMDL
