MODEL 1
REMARK minimizedAffinity -6.04880047
REMARK minimizedRMSD -1
REMARK  2 active torsions:
REMARK  status: ('A' for Active; 'I' for Inactive)
REMARK    1  A    between atoms: C1_2  and  C2_3 
REMARK    2  A    between atoms: C2_3  and  C3_4 
ROOT
ATOM      1  C3  UNL d   1      -0.664   0.104   0.778  0.00  0.00    -0.075 A 
ATOM      2  C4  UNL d   1       0.601   0.178   0.177  0.00  0.00     0.002 A 
ATOM      3  C5  UNL d   1       0.965   1.295  -0.574  0.00  0.00     0.002 A 
ATOM      4  C6  UNL d   1       0.067   2.347  -0.744  0.00  0.00    -0.004 A 
ATOM      5  C7  UNL d   1      -1.199   2.277  -0.166  0.00  0.00     0.002 A 
ATOM      6  C8  UNL d   1      -1.564   1.162   0.590  0.00  0.00     0.002 A 
ENDROOT
BRANCH   1   7
ATOM      7  C2  UNL d   1      -1.053  -1.089   1.617  0.00  0.00     0.056 C 
BRANCH   7   8
ATOM      8  C1  UNL d   1      -1.739  -0.726   2.938  0.00  0.00     0.007 C 
ATOM      9  C   UNL d   1      -3.213  -1.106   2.975  0.00  0.00     0.009 C 
ENDBRANCH   7   8
ENDBRANCH   1   7
TORSDOF 2
ENDMDL
