MODEL 1
REMARK minimizedAffinity -2.12479448
REMARK minimizedRMSD -1
REMARK  2 active torsions:
REMARK  status: ('A' for Active; 'I' for Inactive)
REMARK    1  A    between atoms: C1_2  and  C2_3 
REMARK    2  A    between atoms: C2_3  and  C3_4 
ROOT
ATOM      1  C3  UNL d   1      -1.462  -2.829   1.459  0.00  0.00    -0.075 A 
ATOM      2  C4  UNL d   1      -2.035  -3.857   0.695  0.00  0.00     0.002 A 
ATOM      3  C5  UNL d   1      -1.815  -3.924  -0.681  0.00  0.00     0.002 A 
ATOM      4  C6  UNL d   1      -1.029  -2.961  -1.311  0.00  0.00    -0.004 A 
ATOM      5  C7  UNL d   1      -0.468  -1.927  -0.565  0.00  0.00     0.002 A 
ATOM      6  C8  UNL d   1      -0.683  -1.860   0.812  0.00  0.00     0.002 A 
ENDROOT
BRANCH   1   7
ATOM      7  C2  UNL d   1      -1.672  -2.768   2.953  0.00  0.00     0.056 C 
BRANCH   7   8
ATOM      8  C1  UNL d   1      -2.388  -1.500   3.430  0.00  0.00     0.007 C 
ATOM      9  C   UNL d   1      -3.876  -1.708   3.679  0.00  0.00     0.009 C 
ENDBRANCH   7   8
ENDBRANCH   1   7
TORSDOF 2
ENDMDL
