MODEL 1
REMARK minimizedAffinity -3.71461892
REMARK minimizedRMSD -1
REMARK  2 active torsions:
REMARK  status: ('A' for Active; 'I' for Inactive)
REMARK    1  A    between atoms: C1_2  and  C2_3 
REMARK    2  A    between atoms: C2_3  and  C3_4 
ROOT
ATOM      1  C3  UNL d   1      -0.282   0.539  -0.005  0.00  0.00    -0.075 A 
ATOM      2  C4  UNL d   1      -1.257   1.491   0.328  0.00  0.00     0.002 A 
ATOM      3  C5  UNL d   1      -0.896   2.812   0.592  0.00  0.00     0.002 A 
ATOM      4  C6  UNL d   1       0.442   3.196   0.537  0.00  0.00    -0.004 A 
ATOM      5  C7  UNL d   1       1.421   2.255   0.224  0.00  0.00     0.002 A 
ATOM      6  C8  UNL d   1       1.062   0.933  -0.045  0.00  0.00     0.002 A 
ENDROOT
BRANCH   1   7
ATOM      7  C2  UNL d   1      -0.670  -0.886  -0.320  0.00  0.00     0.056 C 
BRANCH   7   8
ATOM      8  C1  UNL d   1      -0.326  -1.324  -1.748  0.00  0.00     0.007 C 
ATOM      9  C   UNL d   1      -0.966  -2.650  -2.139  0.00  0.00     0.009 C 
ENDBRANCH   7   8
ENDBRANCH   1   7
TORSDOF 2
ENDMDL
