MODEL 1
REMARK minimizedAffinity -3.69414973
REMARK minimizedRMSD -1
REMARK  2 active torsions:
REMARK  status: ('A' for Active; 'I' for Inactive)
REMARK    1  A    between atoms: C1_2  and  C2_3 
REMARK    2  A    between atoms: C2_3  and  C3_4 
ROOT
ATOM      1  C3  UNL d   1      -0.083  -2.065  -0.972  0.00  0.00    -0.075 A 
ATOM      2  C4  UNL d   1       0.729  -3.208  -0.983  0.00  0.00     0.002 A 
ATOM      3  C5  UNL d   1       0.666  -4.111  -2.046  0.00  0.00     0.002 A 
ATOM      4  C6  UNL d   1      -0.213  -3.888  -3.103  0.00  0.00    -0.004 A 
ATOM      5  C7  UNL d   1      -1.036  -2.764  -3.094  0.00  0.00     0.002 A 
ATOM      6  C8  UNL d   1      -0.973  -1.857  -2.035  0.00  0.00     0.002 A 
ENDROOT
BRANCH   1   7
ATOM      7  C2  UNL d   1       0.001  -1.069   0.160  0.00  0.00     0.056 C 
BRANCH   7   8
ATOM      8  C1  UNL d   1      -0.083   0.394  -0.289  0.00  0.00     0.007 C 
ATOM      9  C   UNL d   1      -1.217   1.162   0.378  0.00  0.00     0.009 C 
ENDBRANCH   7   8
ENDBRANCH   1   7
TORSDOF 2
ENDMDL
