MODEL 1
REMARK minimizedAffinity -3.99584174
REMARK minimizedRMSD -1
REMARK  2 active torsions:
REMARK  status: ('A' for Active; 'I' for Inactive)
REMARK    1  A    between atoms: C1_2  and  C2_3 
REMARK    2  A    between atoms: C2_3  and  C3_4 
ROOT
ATOM      1  C3  UNL d   1      -0.743  -1.708  -0.690  0.00  0.00    -0.075 A 
ATOM      2  C4  UNL d   1       0.269  -2.234  -1.507  0.00  0.00     0.002 A 
ATOM      3  C5  UNL d   1      -0.051  -3.031  -2.606  0.00  0.00     0.002 A 
ATOM      4  C6  UNL d   1      -1.382  -3.321  -2.897  0.00  0.00    -0.004 A 
ATOM      5  C7  UNL d   1      -2.395  -2.818  -2.082  0.00  0.00     0.002 A 
ATOM      6  C8  UNL d   1      -2.078  -2.016  -0.985  0.00  0.00     0.002 A 
ENDROOT
BRANCH   1   7
ATOM      7  C2  UNL d   1      -0.405  -0.820   0.483  0.00  0.00     0.056 C 
BRANCH   7   8
ATOM      8  C1  UNL d   1       0.639   0.257   0.171  0.00  0.00     0.007 C 
ATOM      9  C   UNL d   1       1.995  -0.019   0.808  0.00  0.00     0.009 C 
ENDBRANCH   7   8
ENDBRANCH   1   7
TORSDOF 2
ENDMDL
