MODEL 1
REMARK minimizedAffinity -3.70906234
REMARK minimizedRMSD -1
REMARK  2 active torsions:
REMARK  status: ('A' for Active; 'I' for Inactive)
REMARK    1  A    between atoms: C1_2  and  C2_3 
REMARK    2  A    between atoms: C2_3  and  C3_4 
ROOT
ATOM      1  C3  UNL d   1       1.197   2.695  -4.727  0.00  0.00    -0.075 A 
ATOM      2  C4  UNL d   1       1.887   2.214  -3.604  0.00  0.00     0.002 A 
ATOM      3  C5  UNL d   1       3.254   1.944  -3.675  0.00  0.00     0.002 A 
ATOM      4  C6  UNL d   1       3.945   2.140  -4.868  0.00  0.00    -0.004 A 
ATOM      5  C7  UNL d   1       3.266   2.601  -5.994  0.00  0.00     0.002 A 
ATOM      6  C8  UNL d   1       1.900   2.876  -5.925  0.00  0.00     0.002 A 
ENDROOT
BRANCH   1   7
ATOM      7  C2  UNL d   1      -0.276   3.017  -4.649  0.00  0.00     0.056 C 
BRANCH   7   8
ATOM      8  C1  UNL d   1      -0.997   2.968  -6.000  0.00  0.00     0.007 C 
ATOM      9  C   UNL d   1      -2.444   3.440  -5.925  0.00  0.00     0.009 C 
ENDBRANCH   7   8
ENDBRANCH   1   7
TORSDOF 2
ENDMDL
