MODEL 1
REMARK minimizedAffinity 6.0911212
REMARK minimizedRMSD -1
REMARK  2 active torsions:
REMARK  status: ('A' for Active; 'I' for Inactive)
REMARK    1  A    between atoms: C1_2  and  C2_3 
REMARK    2  A    between atoms: C2_3  and  C3_4 
ROOT
ATOM      1  C3  UNL d   1      -1.158   3.164  -5.363  0.00  0.00    -0.075 A 
ATOM      2  C4  UNL d   1      -2.245   2.546  -5.997  0.00  0.00     0.002 A 
ATOM      3  C5  UNL d   1      -3.515   2.582  -5.420  0.00  0.00     0.002 A 
ATOM      4  C6  UNL d   1      -3.712   3.227  -4.201  0.00  0.00    -0.004 A 
ATOM      5  C7  UNL d   1      -2.636   3.831  -3.555  0.00  0.00     0.002 A 
ATOM      6  C8  UNL d   1      -1.365   3.800  -4.131  0.00  0.00     0.002 A 
ENDROOT
BRANCH   1   7
ATOM      7  C2  UNL d   1       0.213   3.154  -5.996  0.00  0.00     0.056 C 
BRANCH   7   8
ATOM      8  C1  UNL d   1       1.364   3.037  -4.990  0.00  0.00     0.007 C 
ATOM      9  C   UNL d   1       2.717   3.412  -5.580  0.00  0.00     0.009 C 
ENDBRANCH   7   8
ENDBRANCH   1   7
TORSDOF 2
ENDMDL
