MODEL 1
REMARK minimizedAffinity -1.18495119
REMARK minimizedRMSD -1
REMARK  2 active torsions:
REMARK  status: ('A' for Active; 'I' for Inactive)
REMARK    1  A    between atoms: C1_2  and  C2_3 
REMARK    2  A    between atoms: C2_3  and  C3_4 
ROOT
ATOM      1  C3  UNL d   1      -0.845   3.750  -4.752  0.00  0.00    -0.075 A 
ATOM      2  C4  UNL d   1      -1.483   3.250  -5.897  0.00  0.00     0.002 A 
ATOM      3  C5  UNL d   1      -2.874   3.274  -6.000  0.00  0.00     0.002 A 
ATOM      4  C6  UNL d   1      -3.644   3.787  -4.958  0.00  0.00    -0.004 A 
ATOM      5  C7  UNL d   1      -3.022   4.271  -3.810  0.00  0.00     0.002 A 
ATOM      6  C8  UNL d   1      -1.630   4.253  -3.706  0.00  0.00     0.002 A 
ENDROOT
BRANCH   1   7
ATOM      7  C2  UNL d   1       0.661   3.755  -4.647  0.00  0.00     0.056 C 
BRANCH   7   8
ATOM      8  C1  UNL d   1       1.381   3.773  -6.000  0.00  0.00     0.007 C 
ATOM      9  C   UNL d   1       2.877   3.511  -5.887  0.00  0.00     0.009 C 
ENDBRANCH   7   8
ENDBRANCH   1   7
TORSDOF 2
ENDMDL
