MODEL 1
REMARK minimizedAffinity -4.63604212
REMARK minimizedRMSD -1
REMARK  2 active torsions:
REMARK  status: ('A' for Active; 'I' for Inactive)
REMARK    1  A    between atoms: C1_2  and  C2_3 
REMARK    2  A    between atoms: C2_3  and  C3_4 
ROOT
ATOM      1  C3  UNL d   1      -0.414   0.521  -0.076  0.00  0.00    -0.075 A 
ATOM      2  C4  UNL d   1      -1.521   1.357   0.129  0.00  0.00     0.002 A 
ATOM      3  C5  UNL d   1      -1.344   2.719   0.376  0.00  0.00     0.002 A 
ATOM      4  C6  UNL d   1      -0.061   3.259   0.433  0.00  0.00    -0.004 A 
ATOM      5  C7  UNL d   1       1.047   2.434   0.248  0.00  0.00     0.002 A 
ATOM      6  C8  UNL d   1       0.873   1.072  -0.004  0.00  0.00     0.002 A 
ENDROOT
BRANCH   1   7
ATOM      7  C2  UNL d   1      -0.599  -0.948  -0.373  0.00  0.00     0.056 C 
BRANCH   7   8
ATOM      8  C1  UNL d   1      -0.330  -1.327  -1.833  0.00  0.00     0.007 C 
ATOM      9  C   UNL d   1      -1.046  -2.600  -2.265  0.00  0.00     0.009 C 
ENDBRANCH   7   8
ENDBRANCH   1   7
TORSDOF 2
ENDMDL
