MODEL 1
REMARK minimizedAffinity 12.2528639
REMARK minimizedRMSD -1
REMARK  1 active torsions:
REMARK  status: ('A' for Active; 'I' for Inactive)
REMARK    1  A    between atoms: C1_2  and  C2_3 
ROOT
ATOM      1  C2  UNL d   1      -3.194  -5.582  -5.026  0.00  0.00    -0.073 A 
ATOM      2  C3  UNL d   1      -2.280  -6.000  -5.999  0.00  0.00    -0.002 A 
ATOM      3  C4  UNL d   1      -0.909  -5.963  -5.740  0.00  0.00     0.004 A 
ATOM      4  C5  UNL d   1      -0.440  -5.516  -4.505  0.00  0.00    -0.004 A 
ATOM      5  C6  UNL d   1      -1.339  -5.106  -3.515  0.00  0.00    -0.075 A 
ATOM      6  C7  UNL d   1      -0.850  -4.620  -2.182  0.00  0.00     0.076 C 
ATOM      7  C8  UNL d   1      -2.714  -5.143  -3.784  0.00  0.00     0.001 A 
ENDROOT
BRANCH   1   8
ATOM      8  C1  UNL d   1      -4.676  -5.626  -5.299  0.00  0.00     0.053 C 
ATOM      9  C   UNL d   1      -5.164  -4.368  -6.000  0.00  0.00     0.018 C 
ENDBRANCH   1   8
TORSDOF 1
ENDMDL
