MODEL 1
REMARK minimizedAffinity 5.70382881
REMARK minimizedRMSD -1
REMARK  1 active torsions:
REMARK  status: ('A' for Active; 'I' for Inactive)
REMARK    1  A    between atoms: C1_2  and  C2_3 
ROOT
ATOM      1  C2  UNL d   1       0.325   2.531   1.182  0.00  0.00    -0.073 A 
ATOM      2  C3  UNL d   1      -0.586   2.362   0.133  0.00  0.00    -0.002 A 
ATOM      3  C4  UNL d   1      -0.361   2.975  -1.101  0.00  0.00     0.004 A 
ATOM      4  C5  UNL d   1       0.778   3.755  -1.300  0.00  0.00    -0.004 A 
ATOM      5  C6  UNL d   1       1.706   3.926  -0.268  0.00  0.00    -0.075 A 
ATOM      6  C7  UNL d   1       2.935   4.764  -0.466  0.00  0.00     0.076 C 
ATOM      7  C8  UNL d   1       1.472   3.310   0.969  0.00  0.00     0.001 A 
ENDROOT
BRANCH   1   8
ATOM      8  C1  UNL d   1       0.090   1.866   2.513  0.00  0.00     0.053 C 
ATOM      9  C   UNL d   1      -1.375   1.524   2.729  0.00  0.00     0.018 C 
ENDBRANCH   1   8
TORSDOF 1
ENDMDL
