MODEL 1
REMARK minimizedAffinity 14.8112612
REMARK minimizedRMSD -1
REMARK  1 active torsions:
REMARK  status: ('A' for Active; 'I' for Inactive)
REMARK    1  A    between atoms: C1_2  and  C2_3 
ROOT
ATOM      1  C2  UNL d   1      -4.471   1.494  -2.625  0.00  0.00    -0.073 A 
ATOM      2  C3  UNL d   1      -3.670   1.381  -3.767  0.00  0.00    -0.002 A 
ATOM      3  C4  UNL d   1      -3.630   2.413  -4.705  0.00  0.00     0.004 A 
ATOM      4  C5  UNL d   1      -4.383   3.570  -4.509  0.00  0.00    -0.004 A 
ATOM      5  C6  UNL d   1      -5.181   3.707  -3.368  0.00  0.00    -0.075 A 
ATOM      6  C7  UNL d   1      -6.000   4.944  -3.143  0.00  0.00     0.076 C 
ATOM      7  C8  UNL d   1      -5.218   2.665  -2.432  0.00  0.00     0.001 A 
ENDROOT
BRANCH   1   8
ATOM      8  C1  UNL d   1      -4.512   0.385  -1.606  0.00  0.00     0.053 C 
ATOM      9  C   UNL d   1      -5.785   0.422  -0.775  0.00  0.00     0.018 C 
ENDBRANCH   1   8
TORSDOF 1
ENDMDL
