MODEL 1
REMARK minimizedAffinity 9.04076099
REMARK minimizedRMSD -1
REMARK  1 active torsions:
REMARK  status: ('A' for Active; 'I' for Inactive)
REMARK    1  A    between atoms: C1_2  and  C2_3 
ROOT
ATOM      1  C2  UNL d   1       2.157  -4.855  -2.071  0.00  0.00    -0.073 A 
ATOM      2  C3  UNL d   1       2.481  -4.819  -3.432  0.00  0.00    -0.002 A 
ATOM      3  C4  UNL d   1       3.766  -5.155  -3.860  0.00  0.00     0.004 A 
ATOM      4  C5  UNL d   1       4.737  -5.537  -2.934  0.00  0.00    -0.004 A 
ATOM      5  C6  UNL d   1       4.429  -5.591  -1.571  0.00  0.00    -0.075 A 
ATOM      6  C7  UNL d   1       5.463  -5.997  -0.562  0.00  0.00     0.076 C 
ATOM      7  C8  UNL d   1       3.137  -5.249  -1.149  0.00  0.00     0.001 A 
ENDROOT
BRANCH   1   8
ATOM      8  C1  UNL d   1       0.769  -4.500  -1.605  0.00  0.00     0.053 C 
ATOM      9  C   UNL d   1      -0.225  -4.454  -2.755  0.00  0.00     0.018 C 
ENDBRANCH   1   8
TORSDOF 1
ENDMDL
