MODEL 1
REMARK minimizedAffinity 4.88695765
REMARK minimizedRMSD -1
REMARK  1 active torsions:
REMARK  status: ('A' for Active; 'I' for Inactive)
REMARK    1  A    between atoms: C1_2  and  C2_3 
ROOT
ATOM      1  C2  UNL d   1      -0.368   3.499  -0.619  0.00  0.00    -0.073 A 
ATOM      2  C3  UNL d   1       0.851   4.172  -0.753  0.00  0.00    -0.002 A 
ATOM      3  C4  UNL d   1       0.905   5.414  -1.385  0.00  0.00     0.004 A 
ATOM      4  C5  UNL d   1      -0.259   5.999  -1.884  0.00  0.00    -0.004 A 
ATOM      5  C6  UNL d   1      -1.490   5.347  -1.750  0.00  0.00    -0.075 A 
ATOM      6  C7  UNL d   1      -2.751   5.962  -2.283  0.00  0.00     0.076 C 
ATOM      7  C8  UNL d   1      -1.535   4.098  -1.115  0.00  0.00     0.001 A 
ENDROOT
BRANCH   1   8
ATOM      8  C1  UNL d   1      -0.432   2.160   0.069  0.00  0.00     0.053 C 
ATOM      9  C   UNL d   1       0.020   2.242   1.519  0.00  0.00     0.018 C 
ENDBRANCH   1   8
TORSDOF 1
ENDMDL
