MODEL 1
REMARK minimizedAffinity 8.62281704
REMARK minimizedRMSD -1
REMARK  1 active torsions:
REMARK  status: ('A' for Active; 'I' for Inactive)
REMARK    1  A    between atoms: C1_2  and  C2_3 
ROOT
ATOM      1  C2  UNL d   1       0.445   4.390  -0.945  0.00  0.00    -0.073 A 
ATOM      2  C3  UNL d   1      -0.864   4.385  -0.450  0.00  0.00    -0.002 A 
ATOM      3  C4  UNL d   1      -1.394   3.232   0.130  0.00  0.00     0.004 A 
ATOM      4  C5  UNL d   1      -0.620   2.076   0.229  0.00  0.00    -0.004 A 
ATOM      5  C6  UNL d   1       0.694   2.065  -0.249  0.00  0.00    -0.075 A 
ATOM      6  C7  UNL d   1       1.540   0.829  -0.153  0.00  0.00     0.076 C 
ATOM      7  C8  UNL d   1       1.219   3.226  -0.833  0.00  0.00     0.001 A 
ENDROOT
BRANCH   1   8
ATOM      8  C1  UNL d   1       1.024   5.635  -1.566  0.00  0.00     0.053 C 
ATOM      9  C   UNL d   1       2.543   5.650  -1.503  0.00  0.00     0.018 C 
ENDBRANCH   1   8
TORSDOF 1
ENDMDL
