MODEL 1
REMARK minimizedAffinity -3.77405
REMARK minimizedRMSD -1
REMARK  1 active torsions:
REMARK  status: ('A' for Active; 'I' for Inactive)
REMARK    1  A    between atoms: C3_4  and  O_7 
ROOT
ATOM      1  C   UNL d   1      -1.896   1.602   1.928  0.00  0.00    -0.033 A 
ATOM      2  C1  UNL d   1      -2.805   0.625   1.517  0.00  0.00     0.039 A 
ATOM      3  C2  UNL d   1      -3.089  -0.460   2.348  0.00  0.00    -0.080 A 
ATOM      4  C3  UNL d   1      -2.460  -0.556   3.586  0.00  0.00     0.150 A 
ATOM      5  C4  UNL d   1      -1.557   0.416   4.004  0.00  0.00    -0.007 A 
ATOM      6  C5  UNL d   1      -1.273   1.498   3.172  0.00  0.00     0.039 A 
ENDROOT
BRANCH   4   7
ATOM      7  O   UNL d   1      -2.701  -1.600   4.429  0.00  0.00    -0.526 OA
ATOM      8  H5  UNL d   1      -3.324  -2.207   3.996  0.00  0.00     0.418 HD
ENDBRANCH   4   7
TORSDOF 1
ENDMDL
