MODEL 1
REMARK minimizedAffinity -3.4071672
REMARK minimizedRMSD -1
REMARK  1 active torsions:
REMARK  status: ('A' for Active; 'I' for Inactive)
REMARK    1  A    between atoms: C3_4  and  O_7 
ROOT
ATOM      1  C   UNL d   1      -3.095  -0.290   3.593  0.00  0.00    -0.033 A 
ATOM      2  C1  UNL d   1      -3.409  -0.760   4.870  0.00  0.00     0.039 A 
ATOM      3  C2  UNL d   1      -4.268  -1.850   5.023  0.00  0.00    -0.080 A 
ATOM      4  C3  UNL d   1      -4.805  -2.461   3.894  0.00  0.00     0.150 A 
ATOM      5  C4  UNL d   1      -4.494  -2.000   2.618  0.00  0.00    -0.007 A 
ATOM      6  C5  UNL d   1      -3.637  -0.911   2.467  0.00  0.00     0.039 A 
ENDROOT
BRANCH   4   7
ATOM      7  O   UNL d   1      -5.652  -3.524   3.993  0.00  0.00    -0.526 OA
ATOM      8  H5  UNL d   1      -5.799  -3.714   4.935  0.00  0.00     0.418 HD
ENDBRANCH   4   7
TORSDOF 1
ENDMDL
