MODEL 1
REMARK minimizedAffinity 6.56712389
REMARK minimizedRMSD -1
REMARK  1 active torsions:
REMARK  status: ('A' for Active; 'I' for Inactive)
REMARK    1  A    between atoms: C3_4  and  O_7 
ROOT
ATOM      1  C   UNL d   1       1.518  -1.545  -1.562  0.00  0.00    -0.033 A 
ATOM      2  C1  UNL d   1       0.680  -0.637  -0.912  0.00  0.00     0.039 A 
ATOM      3  C2  UNL d   1      -0.691  -0.887  -0.827  0.00  0.00    -0.080 A 
ATOM      4  C3  UNL d   1      -1.210  -2.048  -1.394  0.00  0.00     0.150 A 
ATOM      5  C4  UNL d   1      -0.380  -2.958  -2.040  0.00  0.00    -0.007 A 
ATOM      6  C5  UNL d   1       0.988  -2.706  -2.125  0.00  0.00     0.039 A 
ENDROOT
BRANCH   4   7
ATOM      7  O   UNL d   1      -2.542  -2.333  -1.341  0.00  0.00    -0.526 OA
ATOM      8  H5  UNL d   1      -2.996  -1.601  -0.890  0.00  0.00     0.418 HD
ENDBRANCH   4   7
TORSDOF 1
ENDMDL
