MODEL 1
REMARK minimizedAffinity -3.89654946
REMARK minimizedRMSD -1
REMARK  1 active torsions:
REMARK  status: ('A' for Active; 'I' for Inactive)
REMARK    1  A    between atoms: C3_4  and  O_7 
ROOT
ATOM      1  C   UNL d   1       0.455  -0.636   0.077  0.00  0.00    -0.033 A 
ATOM      2  C1  UNL d   1       1.471   0.050  -0.592  0.00  0.00     0.039 A 
ATOM      3  C2  UNL d   1       1.186   1.239  -1.265  0.00  0.00    -0.080 A 
ATOM      4  C3  UNL d   1      -0.117   1.732  -1.261  0.00  0.00     0.150 A 
ATOM      5  C4  UNL d   1      -1.132   1.055  -0.593  0.00  0.00    -0.007 A 
ATOM      6  C5  UNL d   1      -0.846  -0.133   0.078  0.00  0.00     0.039 A 
ENDROOT
BRANCH   4   7
ATOM      7  O   UNL d   1      -0.444   2.886  -1.908  0.00  0.00    -0.526 OA
ATOM      8  H5  UNL d   1       0.352   3.228  -2.349  0.00  0.00     0.418 HD
ENDBRANCH   4   7
TORSDOF 1
ENDMDL
