MODEL 1
REMARK minimizedAffinity -1.33691168
REMARK minimizedRMSD -1
REMARK  1 active torsions:
REMARK  status: ('A' for Active; 'I' for Inactive)
REMARK    1  A    between atoms: C3_4  and  O_7 
ROOT
ATOM      1  C   UNL d   1       2.418  -1.296  -1.107  0.00  0.00    -0.033 A 
ATOM      2  C1  UNL d   1       3.210  -1.494   0.025  0.00  0.00     0.039 A 
ATOM      3  C2  UNL d   1       3.056  -2.649   0.794  0.00  0.00    -0.080 A 
ATOM      4  C3  UNL d   1       2.109  -3.598   0.419  0.00  0.00     0.150 A 
ATOM      5  C4  UNL d   1       1.319  -3.410  -0.710  0.00  0.00    -0.007 A 
ATOM      6  C5  UNL d   1       1.473  -2.255  -1.476  0.00  0.00     0.039 A 
ENDROOT
BRANCH   4   7
ATOM      7  O   UNL d   1       1.920  -4.739   1.141  0.00  0.00    -0.526 OA
ATOM      8  H5  UNL d   1       2.515  -4.720   1.909  0.00  0.00     0.418 HD
ENDBRANCH   4   7
TORSDOF 1
ENDMDL
