MODEL 1
REMARK minimizedAffinity -3.07015324
REMARK minimizedRMSD -1
REMARK  1 active torsions:
REMARK  status: ('A' for Active; 'I' for Inactive)
REMARK    1  A    between atoms: C3_4  and  O_7 
ROOT
ATOM      1  C   UNL d   1      -0.056   0.954  -1.473  0.00  0.00    -0.033 A 
ATOM      2  C1  UNL d   1       0.615   0.282  -2.496  0.00  0.00     0.039 A 
ATOM      3  C2  UNL d   1       1.187  -0.969  -2.255  0.00  0.00    -0.080 A 
ATOM      4  C3  UNL d   1       1.080  -1.536  -0.989  0.00  0.00     0.150 A 
ATOM      5  C4  UNL d   1       0.410  -0.874   0.035  0.00  0.00    -0.007 A 
ATOM      6  C5  UNL d   1      -0.160   0.375  -0.207  0.00  0.00     0.039 A 
ENDROOT
BRANCH   4   7
ATOM      7  O   UNL d   1       1.626  -2.753  -0.704  0.00  0.00    -0.526 OA
ATOM      8  H5  UNL d   1       2.082  -3.078  -1.498  0.00  0.00     0.418 HD
ENDBRANCH   4   7
TORSDOF 1
ENDMDL
