MODEL 1
REMARK minimizedAffinity 0.735344529
REMARK minimizedRMSD -1
REMARK  1 active torsions:
REMARK  status: ('A' for Active; 'I' for Inactive)
REMARK    1  A    between atoms: C3_4  and  O_7 
ROOT
ATOM      1  C   UNL d   1       1.234   1.599  -3.013  0.00  0.00    -0.033 A 
ATOM      2  C1  UNL d   1       2.300   0.831  -3.485  0.00  0.00     0.039 A 
ATOM      3  C2  UNL d   1       2.785  -0.235  -2.725  0.00  0.00    -0.080 A 
ATOM      4  C3  UNL d   1       2.196  -0.522  -1.497  0.00  0.00     0.150 A 
ATOM      5  C4  UNL d   1       1.131   0.237  -1.022  0.00  0.00    -0.007 A 
ATOM      6  C5  UNL d   1       0.649   1.302  -1.782  0.00  0.00     0.039 A 
ENDROOT
BRANCH   4   7
ATOM      7  O   UNL d   1       2.637  -1.549  -0.717  0.00  0.00    -0.526 OA
ATOM      8  H5  UNL d   1       3.396  -1.967  -1.159  0.00  0.00     0.418 HD
ENDBRANCH   4   7
TORSDOF 1
ENDMDL
