MODEL 1
REMARK minimizedAffinity -4.8050704
REMARK minimizedRMSD -1
REMARK  1 active torsions:
REMARK  status: ('A' for Active; 'I' for Inactive)
REMARK    1  A    between atoms: C3_4  and  O_7 
ROOT
ATOM      1  C   UNL d   1       2.797   0.857  -1.529  0.00  0.00    -0.033 A 
ATOM      2  C1  UNL d   1       1.921   1.689  -2.228  0.00  0.00     0.039 A 
ATOM      3  C2  UNL d   1       0.556   1.672  -1.936  0.00  0.00    -0.080 A 
ATOM      4  C3  UNL d   1       0.080   0.820  -0.942  0.00  0.00     0.150 A 
ATOM      5  C4  UNL d   1       0.948  -0.009  -0.239  0.00  0.00    -0.007 A 
ATOM      6  C5  UNL d   1       2.311   0.009  -0.533  0.00  0.00     0.039 A 
ENDROOT
BRANCH   4   7
ATOM      7  O   UNL d   1      -1.244   0.764  -0.625  0.00  0.00    -0.526 OA
ATOM      8  H5  UNL d   1      -1.727   1.370  -1.212  0.00  0.00     0.418 HD
ENDBRANCH   4   7
TORSDOF 1
ENDMDL
