MODEL 1
REMARK minimizedAffinity -1.75852108
REMARK minimizedRMSD -1
REMARK  1 active torsions:
REMARK  status: ('A' for Active; 'I' for Inactive)
REMARK    1  A    between atoms: C3_4  and  O_7 
ROOT
ATOM      1  C   UNL d   1       2.495   0.525  -3.626  0.00  0.00    -0.033 A 
ATOM      2  C1  UNL d   1       2.557  -0.655  -2.882  0.00  0.00     0.039 A 
ATOM      3  C2  UNL d   1       1.762  -0.808  -1.744  0.00  0.00    -0.080 A 
ATOM      4  C3  UNL d   1       0.909   0.224  -1.363  0.00  0.00     0.150 A 
ATOM      5  C4  UNL d   1       0.839   1.401  -2.101  0.00  0.00    -0.007 A 
ATOM      6  C5  UNL d   1       1.635   1.552  -3.236  0.00  0.00     0.039 A 
ENDROOT
BRANCH   4   7
ATOM      7  O   UNL d   1       0.118   0.122  -0.257  0.00  0.00    -0.526 OA
ATOM      8  H5  UNL d   1       0.293  -0.733   0.169  0.00  0.00     0.418 HD
ENDBRANCH   4   7
TORSDOF 1
ENDMDL
