MODEL 1
REMARK minimizedAffinity -4.06235027
REMARK minimizedRMSD -1
REMARK  1 active torsions:
REMARK  status: ('A' for Active; 'I' for Inactive)
REMARK    1  A    between atoms: C3_4  and  O_7 
ROOT
ATOM      1  C   UNL d   1       2.124  -0.130  -1.550  0.00  0.00    -0.033 A 
ATOM      2  C1  UNL d   1       1.475   1.099  -1.686  0.00  0.00     0.039 A 
ATOM      3  C2  UNL d   1       0.229   1.303  -1.089  0.00  0.00    -0.080 A 
ATOM      4  C3  UNL d   1      -0.355   0.272  -0.359  0.00  0.00     0.150 A 
ATOM      5  C4  UNL d   1       0.287  -0.953  -0.216  0.00  0.00    -0.007 A 
ATOM      6  C5  UNL d   1       1.530  -1.155  -0.814  0.00  0.00     0.039 A 
ENDROOT
BRANCH   4   7
ATOM      7  O   UNL d   1      -1.572   0.422   0.238  0.00  0.00    -0.526 OA
ATOM      8  H5  UNL d   1      -1.909   1.310   0.030  0.00  0.00     0.418 HD
ENDBRANCH   4   7
TORSDOF 1
ENDMDL
