MODEL 1
REMARK minimizedAffinity -1.89020944
REMARK minimizedRMSD -1
REMARK  1 active torsions:
REMARK  status: ('A' for Active; 'I' for Inactive)
REMARK    1  A    between atoms: C3_4  and  O_7 
ROOT
ATOM      1  C   UNL d   1       2.432  -0.992  -1.308  0.00  0.00    -0.033 A 
ATOM      2  C1  UNL d   1       1.991   0.313  -1.080  0.00  0.00     0.039 A 
ATOM      3  C2  UNL d   1       0.716   0.539  -0.556  0.00  0.00    -0.080 A 
ATOM      4  C3  UNL d   1      -0.105  -0.546  -0.263  0.00  0.00     0.150 A 
ATOM      5  C4  UNL d   1       0.330  -1.849  -0.485  0.00  0.00    -0.007 A 
ATOM      6  C5  UNL d   1       1.602  -2.073  -1.009  0.00  0.00     0.039 A 
ENDROOT
BRANCH   4   7
ATOM      7  O   UNL d   1      -1.358  -0.375   0.245  0.00  0.00    -0.526 OA
ATOM      8  H5  UNL d   1      -1.533   0.578   0.318  0.00  0.00     0.418 HD
ENDBRANCH   4   7
TORSDOF 1
ENDMDL
