MODEL 1
REMARK minimizedAffinity -3.90720844
REMARK minimizedRMSD -1
REMARK  1 active torsions:
REMARK  status: ('A' for Active; 'I' for Inactive)
REMARK    1  A    between atoms: C3_4  and  O_7 
ROOT
ATOM      1  C   UNL d   1      -0.205  -0.552  -0.301  0.00  0.00    -0.033 A 
ATOM      2  C1  UNL d   1       0.427  -1.751  -0.639  0.00  0.00     0.039 A 
ATOM      3  C2  UNL d   1       1.714  -1.735  -1.180  0.00  0.00    -0.080 A 
ATOM      4  C3  UNL d   1       2.358  -0.517  -1.377  0.00  0.00     0.150 A 
ATOM      5  C4  UNL d   1       1.736   0.681  -1.038  0.00  0.00    -0.007 A 
ATOM      6  C5  UNL d   1       0.451   0.664  -0.499  0.00  0.00     0.039 A 
ENDROOT
BRANCH   4   7
ATOM      7  O   UNL d   1       3.613  -0.451  -1.906  0.00  0.00    -0.526 OA
ATOM      8  H5  UNL d   1       3.905  -1.353  -2.118  0.00  0.00     0.418 HD
ENDBRANCH   4   7
TORSDOF 1
ENDMDL
