MODEL 1
REMARK minimizedAffinity -1.46477067
REMARK minimizedRMSD -1
REMARK  1 active torsions:
REMARK  status: ('A' for Active; 'I' for Inactive)
REMARK    1  A    between atoms: C3_4  and  O_7 
ROOT
ATOM      1  C   UNL d   1      -1.299  -0.024   0.124  0.00  0.00    -0.033 A 
ATOM      2  C1  UNL d   1      -0.399   0.926  -0.364  0.00  0.00     0.039 A 
ATOM      3  C2  UNL d   1       0.807   0.518  -0.936  0.00  0.00    -0.080 A 
ATOM      4  C3  UNL d   1       1.102  -0.840  -1.015  0.00  0.00     0.150 A 
ATOM      5  C4  UNL d   1       0.209  -1.792  -0.535  0.00  0.00    -0.007 A 
ATOM      6  C5  UNL d   1      -0.995  -1.383   0.037  0.00  0.00     0.039 A 
ENDROOT
BRANCH   4   7
ATOM      7  O   UNL d   1       2.269  -1.286  -1.561  0.00  0.00    -0.526 OA
ATOM      8  H5  UNL d   1       2.800  -0.515  -1.824  0.00  0.00     0.418 HD
ENDBRANCH   4   7
TORSDOF 1
ENDMDL
