MODEL 1
REMARK minimizedAffinity 6.40834379
REMARK minimizedRMSD -1
REMARK  2 active torsions:
REMARK  status: ('A' for Active; 'I' for Inactive)
REMARK    1  A    between atoms: C1_2  and  C2_3 
REMARK    2  A    between atoms: C2_3  and  C3_4 
ROOT
ATOM      1  C3  UNL d   1       2.390  -2.180   4.801  0.00  0.00    -0.075 A 
ATOM      2  C4  UNL d   1       3.684  -2.716   4.870  0.00  0.00     0.002 A 
ATOM      3  C5  UNL d   1       4.536  -2.656   3.767  0.00  0.00     0.002 A 
ATOM      4  C6  UNL d   1       4.104  -2.069   2.580  0.00  0.00    -0.004 A 
ATOM      5  C7  UNL d   1       2.815  -1.547   2.495  0.00  0.00     0.002 A 
ATOM      6  C8  UNL d   1       1.961  -1.603   3.598  0.00  0.00     0.002 A 
ENDROOT
BRANCH   1   7
ATOM      7  C2  UNL d   1       1.473  -2.216   6.000  0.00  0.00     0.056 C 
BRANCH   7   8
ATOM      8  C1  UNL d   1       0.183  -1.409   5.823  0.00  0.00     0.007 C 
ATOM      9  C   UNL d   1      -0.963  -2.230   5.245  0.00  0.00     0.009 C 
ENDBRANCH   7   8
ENDBRANCH   1   7
TORSDOF 2
ENDMDL
