MODEL 1
REMARK minimizedAffinity 6.21120262
REMARK minimizedRMSD -1
REMARK  2 active torsions:
REMARK  status: ('A' for Active; 'I' for Inactive)
REMARK    1  A    between atoms: C1_2  and  C2_3 
REMARK    2  A    between atoms: C2_3  and  C3_4 
ROOT
ATOM      1  C3  UNL d   1       0.308  -5.085   0.378  0.00  0.00    -0.075 A 
ATOM      2  C4  UNL d   1       0.081  -4.486  -0.869  0.00  0.00     0.002 A 
ATOM      3  C5  UNL d   1      -0.998  -3.621  -1.053  0.00  0.00     0.002 A 
ATOM      4  C6  UNL d   1      -1.868  -3.352   0.002  0.00  0.00    -0.004 A 
ATOM      5  C7  UNL d   1      -1.661  -3.955   1.241  0.00  0.00     0.002 A 
ATOM      6  C8  UNL d   1      -0.579  -4.818   1.429  0.00  0.00     0.002 A 
ENDROOT
BRANCH   1   7
ATOM      7  C2  UNL d   1       1.491  -5.999   0.592  0.00  0.00     0.056 C 
BRANCH   7   8
ATOM      8  C1  UNL d   1       2.850  -5.308   0.434  0.00  0.00     0.007 C 
ATOM      9  C   UNL d   1       3.968  -5.999   1.203  0.00  0.00     0.009 C 
ENDBRANCH   7   8
ENDBRANCH   1   7
TORSDOF 2
ENDMDL
