MODEL 1
REMARK minimizedAffinity -4.1180582
REMARK minimizedRMSD -1
REMARK  2 active torsions:
REMARK  status: ('A' for Active; 'I' for Inactive)
REMARK    1  A    between atoms: C1_2  and  C2_3 
REMARK    2  A    between atoms: C2_3  and  C3_4 
ROOT
ATOM      1  C3  UNL d   1      -1.297  -2.006   0.198  0.00  0.00    -0.075 A 
ATOM      2  C4  UNL d   1      -1.194  -0.979  -0.751  0.00  0.00     0.002 A 
ATOM      3  C5  UNL d   1       0.027  -0.340  -0.974  0.00  0.00     0.002 A 
ATOM      4  C6  UNL d   1       1.155  -0.713  -0.246  0.00  0.00    -0.004 A 
ATOM      5  C7  UNL d   1       1.060  -1.721   0.710  0.00  0.00     0.002 A 
ATOM      6  C8  UNL d   1      -0.159  -2.365   0.933  0.00  0.00     0.002 A 
ENDROOT
BRANCH   1   7
ATOM      7  C2  UNL d   1      -2.607  -2.721   0.423  0.00  0.00     0.056 C 
BRANCH   7   8
ATOM      8  C1  UNL d   1      -3.810  -2.042  -0.239  0.00  0.00     0.007 C 
ATOM      9  C   UNL d   1      -5.146  -2.490   0.338  0.00  0.00     0.009 C 
ENDBRANCH   7   8
ENDBRANCH   1   7
TORSDOF 2
ENDMDL
