MODEL 1
REMARK minimizedAffinity -4.12777996
REMARK minimizedRMSD -1
REMARK  1 active torsions:
REMARK  status: ('A' for Active; 'I' for Inactive)
REMARK    1  A    between atoms: C3_4  and  O_7 
ROOT
ATOM      1  C   UNL d   1       0.194   0.226  -0.425  0.00  0.00    -0.033 A 
ATOM      2  C1  UNL d   1      -0.679  -0.845  -0.231  0.00  0.00     0.039 A 
ATOM      3  C2  UNL d   1      -0.208  -2.044   0.307  0.00  0.00    -0.080 A 
ATOM      4  C3  UNL d   1       1.137  -2.158   0.649  0.00  0.00     0.150 A 
ATOM      5  C4  UNL d   1       2.012  -1.093   0.462  0.00  0.00    -0.007 A 
ATOM      6  C5  UNL d   1       1.540   0.103  -0.076  0.00  0.00     0.039 A 
ENDROOT
BRANCH   4   7
ATOM      7  O   UNL d   1       1.644  -3.310   1.173  0.00  0.00    -0.526 OA
ATOM      8  H5  UNL d   1       0.930  -3.968   1.218  0.00  0.00     0.418 HD
ENDBRANCH   4   7
TORSDOF 1
ENDMDL
