MODEL 1
REMARK minimizedAffinity -4.14237118
REMARK minimizedRMSD -1
REMARK  1 active torsions:
REMARK  status: ('A' for Active; 'I' for Inactive)
REMARK    1  A    between atoms: C3_4  and  O_7 
ROOT
ATOM      1  C   UNL d   1       1.763  -2.144   0.673  0.00  0.00    -0.033 A 
ATOM      2  C1  UNL d   1       0.605  -1.862   1.402  0.00  0.00     0.039 A 
ATOM      3  C2  UNL d   1      -0.194  -0.772   1.053  0.00  0.00    -0.080 A 
ATOM      4  C3  UNL d   1       0.174   0.028  -0.025  0.00  0.00     0.150 A 
ATOM      5  C4  UNL d   1       1.324  -0.249  -0.758  0.00  0.00    -0.007 A 
ATOM      6  C5  UNL d   1       2.121  -1.338  -0.408  0.00  0.00     0.039 A 
ENDROOT
BRANCH   4   7
ATOM      7  O   UNL d   1      -0.571   1.106  -0.401  0.00  0.00    -0.526 OA
ATOM      8  H5  UNL d   1      -1.319   1.191   0.214  0.00  0.00     0.418 HD
ENDBRANCH   4   7
TORSDOF 1
ENDMDL
