MODEL 1
REMARK minimizedAffinity -4.55080414
REMARK minimizedRMSD -1
REMARK  1 active torsions:
REMARK  status: ('A' for Active; 'I' for Inactive)
REMARK    1  A    between atoms: C3_4  and  O_7 
ROOT
ATOM      1  C   UNL d   1      -0.089   0.015  -0.120  0.00  0.00    -0.033 A 
ATOM      2  C1  UNL d   1       1.267  -0.185  -0.388  0.00  0.00     0.039 A 
ATOM      3  C2  UNL d   1       1.879  -1.391  -0.039  0.00  0.00    -0.080 A 
ATOM      4  C3  UNL d   1       1.125  -2.387   0.575  0.00  0.00     0.150 A 
ATOM      5  C4  UNL d   1      -0.227  -2.196   0.841  0.00  0.00    -0.007 A 
ATOM      6  C5  UNL d   1      -0.836  -0.991   0.493  0.00  0.00     0.039 A 
ENDROOT
BRANCH   4   7
ATOM      7  O   UNL d   1       1.679  -3.578   0.938  0.00  0.00    -0.526 OA
ATOM      8  H5  UNL d   1       2.626  -3.557   0.719  0.00  0.00     0.418 HD
ENDBRANCH   4   7
TORSDOF 1
ENDMDL
