MODEL 1
REMARK minimizedAffinity -2.21952271
REMARK minimizedRMSD -1
REMARK  1 active torsions:
REMARK  status: ('A' for Active; 'I' for Inactive)
REMARK    1  A    between atoms: C3_4  and  O_7 
ROOT
ATOM      1  C   UNL d   1      -0.693   0.699   0.203  0.00  0.00    -0.033 A 
ATOM      2  C1  UNL d   1       0.604   1.039  -0.186  0.00  0.00     0.039 A 
ATOM      3  C2  UNL d   1       1.649   0.130  -0.011  0.00  0.00    -0.080 A 
ATOM      4  C3  UNL d   1       1.383  -1.116   0.552  0.00  0.00     0.150 A 
ATOM      5  C4  UNL d   1       0.093  -1.463   0.938  0.00  0.00    -0.007 A 
ATOM      6  C5  UNL d   1      -0.949  -0.553   0.764  0.00  0.00     0.039 A 
ENDROOT
BRANCH   4   7
ATOM      7  O   UNL d   1       2.371  -2.035   0.747  0.00  0.00    -0.526 OA
ATOM      8  H5  UNL d   1       3.214  -1.646   0.460  0.00  0.00     0.418 HD
ENDBRANCH   4   7
TORSDOF 1
ENDMDL
