MODEL 1
REMARK minimizedAffinity -5.47276783
REMARK minimizedRMSD -1
REMARK  1 active torsions:
REMARK  status: ('A' for Active; 'I' for Inactive)
REMARK    1  A    between atoms: C3_4  and  O_7 
ROOT
ATOM      1  C   UNL d   1       1.471  -2.583   0.954  0.00  0.00    -0.033 A 
ATOM      2  C1  UNL d   1       0.871  -1.642   0.115  0.00  0.00     0.039 A 
ATOM      3  C2  UNL d   1      -0.167  -0.840   0.592  0.00  0.00    -0.080 A 
ATOM      4  C3  UNL d   1      -0.595  -0.988   1.909  0.00  0.00     0.150 A 
ATOM      5  C4  UNL d   1       0.001  -1.921   2.751  0.00  0.00    -0.007 A 
ATOM      6  C5  UNL d   1       1.037  -2.722   2.272  0.00  0.00     0.039 A 
ENDROOT
BRANCH   4   7
ATOM      7  O   UNL d   1      -1.608  -0.232   2.419  0.00  0.00    -0.526 OA
ATOM      8  H5  UNL d   1      -1.943   0.348   1.715  0.00  0.00     0.418 HD
ENDBRANCH   4   7
TORSDOF 1
ENDMDL
