MODEL 1
REMARK minimizedAffinity -4.85711956
REMARK minimizedRMSD -1
REMARK  1 active torsions:
REMARK  status: ('A' for Active; 'I' for Inactive)
REMARK    1  A    between atoms: C3_4  and  O_7 
ROOT
ATOM      1  C   UNL d   1      -0.053   0.252  -0.315  0.00  0.00    -0.033 A 
ATOM      2  C1  UNL d   1       1.248   0.120  -0.804  0.00  0.00     0.039 A 
ATOM      3  C2  UNL d   1       1.988  -1.030  -0.522  0.00  0.00    -0.080 A 
ATOM      4  C3  UNL d   1       1.416  -2.039   0.247  0.00  0.00     0.150 A 
ATOM      5  C4  UNL d   1       0.118  -1.916   0.733  0.00  0.00    -0.007 A 
ATOM      6  C5  UNL d   1      -0.619  -0.767   0.452  0.00  0.00     0.039 A 
ENDROOT
BRANCH   4   7
ATOM      7  O   UNL d   1       2.101  -3.178   0.552  0.00  0.00    -0.526 OA
ATOM      8  H5  UNL d   1       2.993  -3.111   0.174  0.00  0.00     0.418 HD
ENDBRANCH   4   7
TORSDOF 1
ENDMDL
