MODEL 1
REMARK minimizedAffinity -4.58489704
REMARK minimizedRMSD -1
REMARK  1 active torsions:
REMARK  status: ('A' for Active; 'I' for Inactive)
REMARK    1  A    between atoms: C3_4  and  O_7 
ROOT
ATOM      1  C   UNL d   1       2.013  -2.598   1.049  0.00  0.00    -0.033 A 
ATOM      2  C1  UNL d   1       0.728  -2.367   1.545  0.00  0.00     0.039 A 
ATOM      3  C2  UNL d   1      -0.071  -1.371   0.981  0.00  0.00    -0.080 A 
ATOM      4  C3  UNL d   1       0.425  -0.615  -0.078  0.00  0.00     0.150 A 
ATOM      5  C4  UNL d   1       1.702  -0.843  -0.580  0.00  0.00    -0.007 A 
ATOM      6  C5  UNL d   1       2.499  -1.837  -0.014  0.00  0.00     0.039 A 
ENDROOT
BRANCH   4   7
ATOM      7  O   UNL d   1      -0.317   0.371  -0.658  0.00  0.00    -0.526 OA
ATOM      8  H5  UNL d   1      -1.166   0.434  -0.189  0.00  0.00     0.418 HD
ENDBRANCH   4   7
TORSDOF 1
ENDMDL
