MODEL 1
REMARK minimizedAffinity -3.72341585
REMARK minimizedRMSD -1
REMARK  1 active torsions:
REMARK  status: ('A' for Active; 'I' for Inactive)
REMARK    1  A    between atoms: C3_4  and  O_7 
ROOT
ATOM      1  C   UNL d   1       1.847  -1.943   1.007  0.00  0.00    -0.033 A 
ATOM      2  C1  UNL d   1       0.612  -1.889   1.655  0.00  0.00     0.039 A 
ATOM      3  C2  UNL d   1      -0.330  -0.925   1.290  0.00  0.00    -0.080 A 
ATOM      4  C3  UNL d   1      -0.024  -0.021   0.276  0.00  0.00     0.150 A 
ATOM      5  C4  UNL d   1       1.203  -0.071  -0.377  0.00  0.00    -0.007 A 
ATOM      6  C5  UNL d   1       2.142  -1.035  -0.011  0.00  0.00     0.039 A 
ENDROOT
BRANCH   4   7
ATOM      7  O   UNL d   1      -0.908   0.941  -0.112  0.00  0.00    -0.526 OA
ATOM      8  H5  UNL d   1      -1.701   0.873   0.446  0.00  0.00     0.418 HD
ENDBRANCH   4   7
TORSDOF 1
ENDMDL
