MODEL 1
REMARK minimizedAffinity -4.02207088
REMARK minimizedRMSD -1
REMARK  1 active torsions:
REMARK  status: ('A' for Active; 'I' for Inactive)
REMARK    1  A    between atoms: C3_4  and  O_7 
ROOT
ATOM      1  C   UNL d   1       0.826  -2.442   2.300  0.00  0.00    -0.033 A 
ATOM      2  C1  UNL d   1      -0.331  -1.835   2.793  0.00  0.00     0.039 A 
ATOM      3  C2  UNL d   1      -0.871  -0.724   2.141  0.00  0.00    -0.080 A 
ATOM      4  C3  UNL d   1      -0.245  -0.231   0.999  0.00  0.00     0.150 A 
ATOM      5  C4  UNL d   1       0.905  -0.833   0.500  0.00  0.00    -0.007 A 
ATOM      6  C5  UNL d   1       1.443  -1.942   1.153  0.00  0.00     0.039 A 
ENDROOT
BRANCH   4   7
ATOM      7  O   UNL d   1      -0.732   0.853   0.332  0.00  0.00    -0.526 OA
ATOM      8  H5  UNL d   1      -1.514   1.182   0.807  0.00  0.00     0.418 HD
ENDBRANCH   4   7
TORSDOF 1
ENDMDL
