MODEL 1
REMARK minimizedAffinity -1.40162158
REMARK minimizedRMSD -1
REMARK  1 active torsions:
REMARK  status: ('A' for Active; 'I' for Inactive)
REMARK    1  A    between atoms: C3_4  and  O_7 
ROOT
ATOM      1  C   UNL d   1      -0.634   0.774   0.376  0.00  0.00    -0.033 A 
ATOM      2  C1  UNL d   1       0.499   0.951  -0.420  0.00  0.00     0.039 A 
ATOM      3  C2  UNL d   1       1.552   0.037  -0.352  0.00  0.00    -0.080 A 
ATOM      4  C3  UNL d   1       1.458  -1.050   0.514  0.00  0.00     0.150 A 
ATOM      5  C4  UNL d   1       0.330  -1.234   1.306  0.00  0.00    -0.007 A 
ATOM      6  C5  UNL d   1      -0.719  -0.319   1.238  0.00  0.00     0.039 A 
ENDROOT
BRANCH   4   7
ATOM      7  O   UNL d   1       2.462  -1.966   0.618  0.00  0.00    -0.526 OA
ATOM      8  H5  UNL d   1       3.189  -1.694   0.033  0.00  0.00     0.418 HD
ENDBRANCH   4   7
TORSDOF 1
ENDMDL
