MODEL 1
REMARK minimizedAffinity -4.97493219
REMARK minimizedRMSD -1
REMARK  1 active torsions:
REMARK  status: ('A' for Active; 'I' for Inactive)
REMARK    1  A    between atoms: C3_4  and  O_7 
ROOT
ATOM      1  C   UNL d   1       1.199  -2.999   1.986  0.00  0.00    -0.033 A 
ATOM      2  C1  UNL d   1       0.176  -2.265   2.591  0.00  0.00     0.039 A 
ATOM      3  C2  UNL d   1      -0.429  -1.211   1.904  0.00  0.00    -0.080 A 
ATOM      4  C3  UNL d   1      -0.005  -0.902   0.615  0.00  0.00     0.150 A 
ATOM      5  C4  UNL d   1       1.011  -1.631   0.005  0.00  0.00    -0.007 A 
ATOM      6  C5  UNL d   1       1.615  -2.682   0.693  0.00  0.00     0.039 A 
ENDROOT
BRANCH   4   7
ATOM      7  O   UNL d   1      -0.562   0.121  -0.093  0.00  0.00    -0.526 OA
ATOM      8  H5  UNL d   1      -1.230   0.553   0.465  0.00  0.00     0.418 HD
ENDBRANCH   4   7
TORSDOF 1
ENDMDL
