MODEL 1
REMARK minimizedAffinity -3.97702217
REMARK minimizedRMSD -1
REMARK  1 active torsions:
REMARK  status: ('A' for Active; 'I' for Inactive)
REMARK    1  A    between atoms: C3_4  and  O_7 
ROOT
ATOM      1  C   UNL d   1       1.740  -2.312   0.665  0.00  0.00    -0.033 A 
ATOM      2  C1  UNL d   1       0.955  -1.237   0.243  0.00  0.00     0.039 A 
ATOM      3  C2  UNL d   1      -0.136  -0.823   1.010  0.00  0.00    -0.080 A 
ATOM      4  C3  UNL d   1      -0.430  -1.491   2.196  0.00  0.00     0.150 A 
ATOM      5  C4  UNL d   1       0.351  -2.559   2.625  0.00  0.00    -0.007 A 
ATOM      6  C5  UNL d   1       1.439  -2.972   1.857  0.00  0.00     0.039 A 
ENDROOT
BRANCH   4   7
ATOM      7  O   UNL d   1      -1.487  -1.126   2.975  0.00  0.00    -0.526 OA
ATOM      8  H5  UNL d   1      -1.952  -0.393   2.540  0.00  0.00     0.418 HD
ENDBRANCH   4   7
TORSDOF 1
ENDMDL
