MODEL 1
REMARK minimizedAffinity -5.02609158
REMARK minimizedRMSD -1
REMARK  1 active torsions:
REMARK  status: ('A' for Active; 'I' for Inactive)
REMARK    1  A    between atoms: C3_4  and  O_7 
ROOT
ATOM      1  C   UNL d   1       0.936  -2.770   1.960  0.00  0.00    -0.033 A 
ATOM      2  C1  UNL d   1      -0.163  -2.032   2.406  0.00  0.00     0.039 A 
ATOM      3  C2  UNL d   1      -0.673  -0.995   1.623  0.00  0.00    -0.080 A 
ATOM      4  C3  UNL d   1      -0.078  -0.706   0.398  0.00  0.00     0.150 A 
ATOM      5  C4  UNL d   1       1.015  -1.439  -0.054  0.00  0.00    -0.007 A 
ATOM      6  C5  UNL d   1       1.524  -2.474   0.730  0.00  0.00     0.039 A 
ENDROOT
BRANCH   4   7
ATOM      7  O   UNL d   1      -0.538   0.300  -0.398  0.00  0.00    -0.526 OA
ATOM      8  H5  UNL d   1      -1.278   0.737   0.055  0.00  0.00     0.418 HD
ENDBRANCH   4   7
TORSDOF 1
ENDMDL
