MODEL 1
REMARK minimizedAffinity -3.64244294
REMARK minimizedRMSD -1
REMARK  1 active torsions:
REMARK  status: ('A' for Active; 'I' for Inactive)
REMARK    1  A    between atoms: C3_4  and  O_7 
ROOT
ATOM      1  C   UNL d   1       0.140   0.731   0.132  0.00  0.00    -0.033 A 
ATOM      2  C1  UNL d   1      -0.722  -0.218   0.686  0.00  0.00     0.039 A 
ATOM      3  C2  UNL d   1      -0.261  -1.507   0.960  0.00  0.00    -0.080 A 
ATOM      4  C3  UNL d   1       1.062  -1.834   0.677  0.00  0.00     0.150 A 
ATOM      5  C4  UNL d   1       1.927  -0.893   0.128  0.00  0.00    -0.007 A 
ATOM      6  C5  UNL d   1       1.465   0.393  -0.146  0.00  0.00     0.039 A 
ENDROOT
BRANCH   4   7
ATOM      7  O   UNL d   1       1.557  -3.081   0.922  0.00  0.00    -0.526 OA
ATOM      8  H5  UNL d   1       0.838  -3.633   1.274  0.00  0.00     0.418 HD
ENDBRANCH   4   7
TORSDOF 1
ENDMDL
