MODEL 1
REMARK minimizedAffinity 18.1359406
REMARK minimizedRMSD -1
REMARK  1 active torsions:
REMARK  status: ('A' for Active; 'I' for Inactive)
REMARK    1  A    between atoms: C1_2  and  C2_3 
ROOT
ATOM      1  C2  UNL d   1       1.058  -1.981  -2.350  0.00  0.00    -0.073 A 
ATOM      2  C3  UNL d   1       1.469  -0.872  -1.601  0.00  0.00    -0.002 A 
ATOM      3  C4  UNL d   1       0.550   0.114  -1.240  0.00  0.00     0.004 A 
ATOM      4  C5  UNL d   1      -0.788  -0.001  -1.618  0.00  0.00    -0.004 A 
ATOM      5  C6  UNL d   1      -1.220  -1.107  -2.356  0.00  0.00    -0.075 A 
ATOM      6  C7  UNL d   1      -2.655  -1.244  -2.772  0.00  0.00     0.076 C 
ATOM      7  C8  UNL d   1      -0.291  -2.092  -2.717  0.00  0.00     0.001 A 
ENDROOT
BRANCH   1   8
ATOM      8  C1  UNL d   1       2.045  -3.052  -2.736  0.00  0.00     0.053 C 
ATOM      9  C   UNL d   1       2.941  -2.614  -3.884  0.00  0.00     0.018 C 
ENDBRANCH   1   8
TORSDOF 1
ENDMDL
