MODEL 1
REMARK minimizedAffinity 7.89101315
REMARK minimizedRMSD -1
REMARK  1 active torsions:
REMARK  status: ('A' for Active; 'I' for Inactive)
REMARK    1  A    between atoms: C1_2  and  C2_3 
ROOT
ATOM      1  C2  UNL d   1       2.765  -0.285  -0.506  0.00  0.00    -0.073 A 
ATOM      2  C3  UNL d   1       3.312   0.826  -1.158  0.00  0.00    -0.002 A 
ATOM      3  C4  UNL d   1       3.725   0.731  -2.487  0.00  0.00     0.004 A 
ATOM      4  C5  UNL d   1       3.589  -0.472  -3.180  0.00  0.00    -0.004 A 
ATOM      5  C6  UNL d   1       3.034  -1.590  -2.549  0.00  0.00    -0.075 A 
ATOM      6  C7  UNL d   1       2.883  -2.893  -3.279  0.00  0.00     0.076 C 
ATOM      7  C8  UNL d   1       2.624  -1.487  -1.213  0.00  0.00     0.001 A 
ENDROOT
BRANCH   1   8
ATOM      8  C1  UNL d   1       2.311  -0.184   0.928  0.00  0.00     0.053 C 
ATOM      9  C   UNL d   1       2.346  -1.531   1.632  0.00  0.00     0.018 C 
ENDBRANCH   1   8
TORSDOF 1
ENDMDL
