MODEL 1
REMARK minimizedAffinity 12.5401583
REMARK minimizedRMSD -1
REMARK  1 active torsions:
REMARK  status: ('A' for Active; 'I' for Inactive)
REMARK    1  A    between atoms: C1_2  and  C2_3 
ROOT
ATOM      1  C2  UNL d   1       4.895   2.634   1.269  0.00  0.00    -0.073 A 
ATOM      2  C3  UNL d   1       5.276   3.270   0.082  0.00  0.00    -0.002 A 
ATOM      3  C4  UNL d   1       4.690   2.909  -1.131  0.00  0.00     0.004 A 
ATOM      4  C5  UNL d   1       3.713   1.914  -1.171  0.00  0.00    -0.004 A 
ATOM      5  C6  UNL d   1       3.310   1.274   0.006  0.00  0.00    -0.075 A 
ATOM      6  C7  UNL d   1       2.263   0.200  -0.020  0.00  0.00     0.076 C 
ATOM      7  C8  UNL d   1       3.905   1.641   1.221  0.00  0.00     0.001 A 
ENDROOT
BRANCH   1   8
ATOM      8  C1  UNL d   1       5.520   3.025   2.583  0.00  0.00     0.053 C 
ATOM      9  C   UNL d   1       4.906   4.296   3.150  0.00  0.00     0.018 C 
ENDBRANCH   1   8
TORSDOF 1
ENDMDL
