MODEL 1
REMARK minimizedAffinity 8.41713715
REMARK minimizedRMSD -1
REMARK  1 active torsions:
REMARK  status: ('A' for Active; 'I' for Inactive)
REMARK    1  A    between atoms: C1_2  and  C2_3 
ROOT
ATOM      1  C2  UNL d   1      -3.347   0.173  -2.404  0.00  0.00    -0.073 A 
ATOM      2  C3  UNL d   1      -2.052  -0.140  -2.835  0.00  0.00    -0.002 A 
ATOM      3  C4  UNL d   1      -1.786  -0.322  -4.193  0.00  0.00     0.004 A 
ATOM      4  C5  UNL d   1      -2.807  -0.185  -5.133  0.00  0.00    -0.004 A 
ATOM      5  C6  UNL d   1      -4.105   0.139  -4.723  0.00  0.00    -0.075 A 
ATOM      6  C7  UNL d   1      -5.215   0.287  -5.722  0.00  0.00     0.076 C 
ATOM      7  C8  UNL d   1      -4.365   0.317  -3.358  0.00  0.00     0.001 A 
ENDROOT
BRANCH   1   8
ATOM      8  C1  UNL d   1      -3.638   0.376  -0.940  0.00  0.00     0.053 C 
ATOM      9  C   UNL d   1      -5.124   0.557  -0.674  0.00  0.00     0.018 C 
ENDBRANCH   1   8
TORSDOF 1
ENDMDL
