MODEL 1
REMARK minimizedAffinity 15.280694
REMARK minimizedRMSD -1
REMARK  1 active torsions:
REMARK  status: ('A' for Active; 'I' for Inactive)
REMARK    1  A    between atoms: C1_2  and  C2_3 
ROOT
ATOM      1  C2  UNL d   1       2.937   4.062   3.319  0.00  0.00    -0.073 A 
ATOM      2  C3  UNL d   1       2.595   5.387   3.613  0.00  0.00    -0.002 A 
ATOM      3  C4  UNL d   1       1.696   5.672   4.641  0.00  0.00     0.004 A 
ATOM      4  C5  UNL d   1       1.135   4.637   5.389  0.00  0.00    -0.004 A 
ATOM      5  C6  UNL d   1       1.473   3.307   5.118  0.00  0.00    -0.075 A 
ATOM      6  C7  UNL d   1       0.876   2.182   5.913  0.00  0.00     0.076 C 
ATOM      7  C8  UNL d   1       2.375   3.029   4.082  0.00  0.00     0.001 A 
ENDROOT
BRANCH   1   8
ATOM      8  C1  UNL d   1       3.913   3.750   2.214  0.00  0.00     0.053 C 
ATOM      9  C   UNL d   1       3.504   2.518   1.423  0.00  0.00     0.018 C 
ENDBRANCH   1   8
TORSDOF 1
ENDMDL
