MODEL 1
REMARK minimizedAffinity 3.4980123
REMARK minimizedRMSD -1
REMARK  1 active torsions:
REMARK  status: ('A' for Active; 'I' for Inactive)
REMARK    1  A    between atoms: C1_2  and  C2_3 
ROOT
ATOM      1  C2  UNL d   1      -4.035   1.155   0.296  0.00  0.00    -0.073 A 
ATOM      2  C3  UNL d   1      -4.657   0.390  -0.697  0.00  0.00    -0.002 A 
ATOM      3  C4  UNL d   1      -3.920  -0.093  -1.780  0.00  0.00     0.004 A 
ATOM      4  C5  UNL d   1      -2.556   0.178  -1.877  0.00  0.00    -0.004 A 
ATOM      5  C6  UNL d   1      -1.913   0.930  -0.888  0.00  0.00    -0.075 A 
ATOM      6  C7  UNL d   1      -0.446   1.232  -0.979  0.00  0.00     0.076 C 
ATOM      7  C8  UNL d   1      -2.660   1.414   0.195  0.00  0.00     0.001 A 
ENDROOT
BRANCH   1   8
ATOM      8  C1  UNL d   1      -4.824   1.673   1.471  0.00  0.00     0.053 C 
ATOM      9  C   UNL d   1      -4.546   3.143   1.741  0.00  0.00     0.018 C 
ENDBRANCH   1   8
TORSDOF 1
ENDMDL
