MODEL 1
REMARK minimizedAffinity -5.32729912
REMARK minimizedRMSD -1
REMARK  1 active torsions:
REMARK  status: ('A' for Active; 'I' for Inactive)
REMARK    1  A    between atoms: C1_2  and  C2_3 
ROOT
ATOM      1  C2  UNL d   1      -0.574   1.351   0.431  0.00  0.00    -0.073 A 
ATOM      2  C3  UNL d   1      -0.080   1.196   1.731  0.00  0.00    -0.002 A 
ATOM      3  C4  UNL d   1       0.573   0.020   2.101  0.00  0.00     0.004 A 
ATOM      4  C5  UNL d   1       0.744  -1.009   1.175  0.00  0.00    -0.004 A 
ATOM      5  C6  UNL d   1       0.267  -0.869  -0.132  0.00  0.00    -0.075 A 
ATOM      6  C7  UNL d   1       0.441  -1.967  -1.139  0.00  0.00     0.076 C 
ATOM      7  C8  UNL d   1      -0.389   0.315  -0.496  0.00  0.00     0.001 A 
ENDROOT
BRANCH   1   8
ATOM      8  C1  UNL d   1      -1.273   2.623   0.024  0.00  0.00     0.053 C 
ATOM      9  C   UNL d   1      -0.965   3.008  -1.414  0.00  0.00     0.018 C 
ENDBRANCH   1   8
TORSDOF 1
ENDMDL
