MODEL 1
REMARK minimizedAffinity -4.58321571
REMARK minimizedRMSD -1
REMARK  1 active torsions:
REMARK  status: ('A' for Active; 'I' for Inactive)
REMARK    1  A    between atoms: C1_2  and  C2_3 
ROOT
ATOM      1  C2  UNL d   1      -0.431   1.976   0.482  0.00  0.00    -0.073 A 
ATOM      2  C3  UNL d   1      -0.587   1.547  -0.841  0.00  0.00    -0.002 A 
ATOM      3  C4  UNL d   1      -0.040   0.333  -1.258  0.00  0.00     0.004 A 
ATOM      4  C5  UNL d   1       0.662  -0.467  -0.356  0.00  0.00    -0.004 A 
ATOM      5  C6  UNL d   1       0.819  -0.061   0.973  0.00  0.00    -0.075 A 
ATOM      6  C7  UNL d   1       1.573  -0.909   1.955  0.00  0.00     0.076 C 
ATOM      7  C8  UNL d   1       0.269   1.160   1.383  0.00  0.00     0.001 A 
ENDROOT
BRANCH   1   8
ATOM      8  C1  UNL d   1      -1.026   3.283   0.938  0.00  0.00     0.053 C 
ATOM      9  C   UNL d   1      -0.861   4.379  -0.103  0.00  0.00     0.018 C 
ENDBRANCH   1   8
TORSDOF 1
ENDMDL
