MODEL 1
REMARK minimizedAffinity -3.96508479
REMARK minimizedRMSD -1
REMARK  1 active torsions:
REMARK  status: ('A' for Active; 'I' for Inactive)
REMARK    1  A    between atoms: C1_2  and  C2_3 
ROOT
ATOM      1  C2  UNL d   1       0.294  -0.430  -0.105  0.00  0.00    -0.073 A 
ATOM      2  C3  UNL d   1       0.182  -0.414   1.290  0.00  0.00    -0.002 A 
ATOM      3  C4  UNL d   1      -0.120   0.773   1.960  0.00  0.00     0.004 A 
ATOM      4  C5  UNL d   1      -0.319   1.952   1.242  0.00  0.00    -0.004 A 
ATOM      5  C6  UNL d   1      -0.223   1.954  -0.153  0.00  0.00    -0.075 A 
ATOM      6  C7  UNL d   1      -0.433   3.214  -0.940  0.00  0.00     0.076 C 
ATOM      7  C8  UNL d   1       0.083   0.758  -0.818  0.00  0.00     0.001 A 
ENDROOT
BRANCH   1   8
ATOM      8  C1  UNL d   1       0.614  -1.711  -0.832  0.00  0.00     0.053 C 
ATOM      9  C   UNL d   1      -0.452  -2.065  -1.857  0.00  0.00     0.018 C 
ENDBRANCH   1   8
TORSDOF 1
ENDMDL
