MODEL 1
REMARK minimizedAffinity -3.36338234
REMARK minimizedRMSD -1
REMARK  1 active torsions:
REMARK  status: ('A' for Active; 'I' for Inactive)
REMARK    1  A    between atoms: C1_2  and  C2_3 
ROOT
ATOM      1  C2  UNL d   1       0.924  -1.428  -0.541  0.00  0.00    -0.073 A 
ATOM      2  C3  UNL d   1       0.488  -0.715  -1.663  0.00  0.00    -0.002 A 
ATOM      3  C4  UNL d   1      -0.064   0.559  -1.520  0.00  0.00     0.004 A 
ATOM      4  C5  UNL d   1      -0.180   1.135  -0.255  0.00  0.00    -0.004 A 
ATOM      5  C6  UNL d   1       0.260   0.443   0.879  0.00  0.00    -0.075 A 
ATOM      6  C7  UNL d   1       0.140   1.047   2.247  0.00  0.00     0.076 C 
ATOM      7  C8  UNL d   1       0.811  -0.837   0.726  0.00  0.00     0.001 A 
ENDROOT
BRANCH   1   8
ATOM      8  C1  UNL d   1       1.526  -2.801  -0.692  0.00  0.00     0.053 C 
ATOM      9  C   UNL d   1       0.578  -3.766  -1.385  0.00  0.00     0.018 C 
ENDBRANCH   1   8
TORSDOF 1
ENDMDL
