MODEL 1
REMARK minimizedAffinity -3.65512848
REMARK minimizedRMSD -1
REMARK  1 active torsions:
REMARK  status: ('A' for Active; 'I' for Inactive)
REMARK    1  A    between atoms: C1_2  and  C2_3 
ROOT
ATOM      1  C2  UNL d   1      -0.743   1.086   0.208  0.00  0.00    -0.073 A 
ATOM      2  C3  UNL d   1      -0.459   1.801  -0.961  0.00  0.00    -0.002 A 
ATOM      3  C4  UNL d   1       0.149   1.167  -2.045  0.00  0.00     0.004 A 
ATOM      4  C5  UNL d   1       0.472  -0.188  -1.975  0.00  0.00    -0.004 A 
ATOM      5  C6  UNL d   1       0.186  -0.922  -0.820  0.00  0.00    -0.075 A 
ATOM      6  C7  UNL d   1       0.529  -2.380  -0.727  0.00  0.00     0.076 C 
ATOM      7  C8  UNL d   1      -0.422  -0.278   0.266  0.00  0.00     0.001 A 
ENDROOT
BRANCH   1   8
ATOM      8  C1  UNL d   1      -1.405   1.765   1.379  0.00  0.00     0.053 C 
ATOM      9  C   UNL d   1      -0.441   2.665   2.136  0.00  0.00     0.018 C 
ENDBRANCH   1   8
TORSDOF 1
ENDMDL
