MODEL 1
REMARK minimizedAffinity -2.730021
REMARK minimizedRMSD -1
REMARK  1 active torsions:
REMARK  status: ('A' for Active; 'I' for Inactive)
REMARK    1  A    between atoms: C1_2  and  C2_3 
ROOT
ATOM      1  C2  UNL d   1       0.197  -0.055  -0.148  0.00  0.00    -0.073 A 
ATOM      2  C3  UNL d   1       1.101  -0.423   0.855  0.00  0.00    -0.002 A 
ATOM      3  C4  UNL d   1       1.099   0.240   2.083  0.00  0.00     0.004 A 
ATOM      4  C5  UNL d   1       0.189   1.270   2.324  0.00  0.00    -0.004 A 
ATOM      5  C6  UNL d   1      -0.730   1.643   1.338  0.00  0.00    -0.075 A 
ATOM      6  C7  UNL d   1      -1.713   2.751   1.580  0.00  0.00     0.076 C 
ATOM      7  C8  UNL d   1      -0.719   0.975   0.106  0.00  0.00     0.001 A 
ENDROOT
BRANCH   1   8
ATOM      8  C1  UNL d   1       0.191  -0.772  -1.473  0.00  0.00     0.053 C 
ATOM      9  C   UNL d   1       0.105  -2.281  -1.305  0.00  0.00     0.018 C 
ENDBRANCH   1   8
TORSDOF 1
ENDMDL
