MODEL 1
REMARK minimizedAffinity -5.82239628
REMARK minimizedRMSD -1
REMARK  1 active torsions:
REMARK  status: ('A' for Active; 'I' for Inactive)
REMARK    1  A    between atoms: C1_2  and  C2_3 
ROOT
ATOM      1  C2  UNL d   1      -0.463   2.476   0.534  0.00  0.00    -0.073 A 
ATOM      2  C3  UNL d   1      -0.971   2.498   1.838  0.00  0.00    -0.002 A 
ATOM      3  C4  UNL d   1      -0.993   1.332   2.604  0.00  0.00     0.004 A 
ATOM      4  C5  UNL d   1      -0.502   0.137   2.079  0.00  0.00    -0.004 A 
ATOM      5  C6  UNL d   1       0.021   0.098   0.783  0.00  0.00    -0.075 A 
ATOM      6  C7  UNL d   1       0.551  -1.180   0.202  0.00  0.00     0.076 C 
ATOM      7  C8  UNL d   1       0.037   1.272   0.018  0.00  0.00     0.001 A 
ENDROOT
BRANCH   1   8
ATOM      8  C1  UNL d   1      -0.431   3.734  -0.296  0.00  0.00     0.053 C 
ATOM      9  C   UNL d   1      -0.565   3.440  -1.782  0.00  0.00     0.018 C 
ENDBRANCH   1   8
TORSDOF 1
ENDMDL
