MODEL 1
REMARK minimizedAffinity 9.55880833
REMARK minimizedRMSD -1
REMARK  0 active torsions:
REMARK  status: ('A' for Active; 'I' for Inactive)
ROOT
ATOM      1  C   UNL d   1      -5.922  -3.802  -1.646  0.00  0.00    -0.002 A 
ATOM      2  C1  UNL d   1      -5.465  -2.617  -2.207  0.00  0.00     0.010 A 
ATOM      3  C2  UNL d   1      -5.075  -2.570  -3.547  0.00  0.00     0.041 A 
ATOM      4  C3  UNL d   1      -5.153  -3.745  -4.321  0.00  0.00    -0.075 A 
ATOM      5  S   UNL d   1      -4.729  -3.924  -5.983  0.00  0.00     0.015 SA
ATOM      6  C4  UNL d   1      -5.145  -5.577  -5.987  0.00  0.00     0.022 A 
ATOM      7  C5  UNL d   1      -5.597  -5.998  -4.759  0.00  0.00     0.026 A 
ATOM      8  C6  UNL d   1      -5.610  -4.949  -3.779  0.00  0.00    -0.082 A 
ATOM      9  C7  UNL d   1      -5.998  -4.965  -2.417  0.00  0.00     0.045 A 
ENDROOT
TORSDOF 0
ENDMDL
