MODEL 1
REMARK minimizedAffinity 3.28108382
REMARK minimizedRMSD -1
REMARK  0 active torsions:
REMARK  status: ('A' for Active; 'I' for Inactive)
ROOT
ATOM      1  C   UNL d   1      -5.930  -3.830  -1.236  0.00  0.00    -0.002 A 
ATOM      2  C1  UNL d   1      -5.925  -5.217  -1.190  0.00  0.00     0.010 A 
ATOM      3  C2  UNL d   1      -5.842  -5.966  -2.366  0.00  0.00     0.041 A 
ATOM      4  C3  UNL d   1      -5.761  -5.291  -3.599  0.00  0.00    -0.075 A 
ATOM      5  S   UNL d   1      -5.650  -6.000  -5.167  0.00  0.00     0.015 SA
ATOM      6  C4  UNL d   1      -5.605  -4.478  -5.934  0.00  0.00     0.022 A 
ATOM      7  C5  UNL d   1      -5.672  -3.444  -5.031  0.00  0.00     0.026 A 
ATOM      8  C6  UNL d   1      -5.762  -3.895  -3.671  0.00  0.00    -0.082 A 
ATOM      9  C7  UNL d   1      -5.849  -3.164  -2.461  0.00  0.00     0.045 A 
ENDROOT
TORSDOF 0
ENDMDL
