MODEL 1
REMARK minimizedAffinity 3.96172976
REMARK minimizedRMSD -1
REMARK  0 active torsions:
REMARK  status: ('A' for Active; 'I' for Inactive)
ROOT
ATOM      1  C   UNL d   1       0.403  -4.872   0.800  0.00  0.00    -0.002 A 
ATOM      2  C1  UNL d   1      -0.022  -5.169   2.087  0.00  0.00     0.010 A 
ATOM      3  C2  UNL d   1       0.114  -4.233   3.114  0.00  0.00     0.041 A 
ATOM      4  C3  UNL d   1       0.689  -2.981   2.823  0.00  0.00    -0.075 A 
ATOM      5  S   UNL d   1       0.955  -1.679   3.921  0.00  0.00     0.015 SA
ATOM      6  C4  UNL d   1       1.639  -0.696   2.708  0.00  0.00     0.022 A 
ATOM      7  C5  UNL d   1       1.671  -1.330   1.488  0.00  0.00     0.026 A 
ATOM      8  C6  UNL d   1       1.124  -2.657   1.534  0.00  0.00    -0.082 A 
ATOM      9  C7  UNL d   1       0.973  -3.628   0.515  0.00  0.00     0.045 A 
ENDROOT
TORSDOF 0
ENDMDL
