MODEL 1
REMARK minimizedAffinity -2.01551557
REMARK minimizedRMSD -1
REMARK  0 active torsions:
REMARK  status: ('A' for Active; 'I' for Inactive)
ROOT
ATOM      1  C   UNL d   1      -5.839  -5.185  -1.434  0.00  0.00    -0.002 A 
ATOM      2  C1  UNL d   1      -5.991  -3.816  -1.599  0.00  0.00     0.010 A 
ATOM      3  C2  UNL d   1      -5.717  -3.213  -2.828  0.00  0.00     0.041 A 
ATOM      4  C3  UNL d   1      -5.285  -4.018  -3.900  0.00  0.00    -0.075 A 
ATOM      5  S   UNL d   1      -4.893  -3.499  -5.497  0.00  0.00     0.015 SA
ATOM      6  C4  UNL d   1      -4.514  -5.084  -5.999  0.00  0.00     0.022 A 
ATOM      7  C5  UNL d   1      -4.677  -5.998  -4.985  0.00  0.00     0.026 A 
ATOM      8  C6  UNL d   1      -5.125  -5.399  -3.760  0.00  0.00    -0.082 A 
ATOM      9  C7  UNL d   1      -5.410  -5.980  -2.500  0.00  0.00     0.045 A 
ENDROOT
TORSDOF 0
ENDMDL
