MODEL 1
REMARK minimizedAffinity 0.685722947
REMARK minimizedRMSD -1
REMARK  0 active torsions:
REMARK  status: ('A' for Active; 'I' for Inactive)
ROOT
ATOM      1  N1  IND d   1      -0.767   1.037   2.324  0.00  0.00    -0.196 N 
ATOM      2  C2  IND d   1      -1.526   2.101   1.926  0.00  0.00     0.054 A 
ATOM      3  C3  IND d   1      -1.533   2.195   0.577  0.00  0.00    -0.031 A 
ATOM      4  C4  IND d   1      -0.452   0.650  -1.176  0.00  0.00     0.051 A 
ATOM      5  C5  IND d   1       0.372  -0.434  -1.295  0.00  0.00    -0.031 A 
ATOM      6  C6  IND d   1       0.866  -1.098  -0.191  0.00  0.00     0.015 A 
ATOM      7  C7  IND d   1       0.544  -0.708   1.078  0.00  0.00    -0.016 A 
ATOM      8  C8  IND d   1      -0.286   0.396   1.203  0.00  0.00    -0.047 A 
ATOM      9  C9  IND d   1      -0.757   1.101   0.087  0.00  0.00    -0.096 A 
ATOM     10  HN1 IND d   1      -0.615   0.805   3.138  0.00  0.00     0.298 HD
ENDROOT
TORSDOF 0
ENDMDL
