MODEL 1
REMARK minimizedAffinity -5.50800371
REMARK minimizedRMSD -1
REMARK  0 active torsions:
REMARK  status: ('A' for Active; 'I' for Inactive)
ROOT
ATOM      1  N1  IND d   1       0.099   0.254  -0.853  0.00  0.00    -0.196 N 
ATOM      2  C2  IND d   1      -0.151  -0.783   0.001  0.00  0.00     0.054 A 
ATOM      3  C3  IND d   1      -0.817  -0.344   1.092  0.00  0.00    -0.031 A 
ATOM      4  C4  IND d   1      -1.689   2.016   1.636  0.00  0.00     0.051 A 
ATOM      5  C5  IND d   1      -1.673   3.303   1.176  0.00  0.00    -0.031 A 
ATOM      6  C6  IND d   1      -1.055   3.646  -0.010  0.00  0.00     0.015 A 
ATOM      7  C7  IND d   1      -0.437   2.708  -0.788  0.00  0.00    -0.016 A 
ATOM      8  C8  IND d   1      -0.446   1.402  -0.320  0.00  0.00    -0.047 A 
ATOM      9  C9  IND d   1      -1.034   1.055   0.902  0.00  0.00    -0.096 A 
ATOM     10  HN1 IND d   1       0.525   0.199  -1.598  0.00  0.00     0.298 HD
ENDROOT
TORSDOF 0
ENDMDL
