MODEL 1
REMARK minimizedAffinity -3.25027943
REMARK minimizedRMSD -1
REMARK  0 active torsions:
REMARK  status: ('A' for Active; 'I' for Inactive)
ROOT
ATOM      1  N1  IND d   1      -0.274   0.131  -1.643  0.00  0.00    -0.196 N 
ATOM      2  C2  IND d   1       0.300   0.484  -0.453  0.00  0.00     0.054 A 
ATOM      3  C3  IND d   1       1.005  -0.552   0.054  0.00  0.00    -0.031 A 
ATOM      4  C4  IND d   1       1.435  -2.884  -0.947  0.00  0.00     0.051 A 
ATOM      5  C5  IND d   1       1.089  -3.686  -1.999  0.00  0.00    -0.031 A 
ATOM      6  C6  IND d   1       0.256  -3.245  -3.008  0.00  0.00     0.015 A 
ATOM      7  C7  IND d   1      -0.254  -1.978  -3.008  0.00  0.00    -0.016 A 
ATOM      8  C8  IND d   1       0.089  -1.164  -1.938  0.00  0.00    -0.047 A 
ATOM      9  C9  IND d   1       0.899  -1.619  -0.889  0.00  0.00    -0.096 A 
ATOM     10  HN1 IND d   1      -0.777   0.634  -2.125  0.00  0.00     0.298 HD
ENDROOT
TORSDOF 0
ENDMDL
