MODEL 1
REMARK minimizedAffinity -3.34302878
REMARK minimizedRMSD -1
REMARK  0 active torsions:
REMARK  status: ('A' for Active; 'I' for Inactive)
ROOT
ATOM      1  N1  IND d   1       0.663   0.383  -0.934  0.00  0.00    -0.196 N 
ATOM      2  C2  IND d   1       0.805  -0.975  -1.000  0.00  0.00     0.054 A 
ATOM      3  C3  IND d   1       0.178  -1.564   0.043  0.00  0.00    -0.031 A 
ATOM      4  C4  IND d   1      -1.225  -0.501   1.921  0.00  0.00     0.051 A 
ATOM      5  C5  IND d   1      -1.610   0.711   2.424  0.00  0.00    -0.031 A 
ATOM      6  C6  IND d   1      -1.252   1.898   1.820  0.00  0.00     0.015 A 
ATOM      7  C7  IND d   1      -0.501   1.919   0.678  0.00  0.00    -0.016 A 
ATOM      8  C8  IND d   1      -0.103   0.691   0.168  0.00  0.00    -0.047 A 
ATOM      9  C9  IND d   1      -0.428  -0.516   0.801  0.00  0.00    -0.096 A 
ATOM     10  HN1 IND d   1       0.997   0.949  -1.488  0.00  0.00     0.298 HD
ENDROOT
TORSDOF 0
ENDMDL
