MODEL 1
REMARK minimizedAffinity -4.6619463
REMARK minimizedRMSD -1
REMARK  0 active torsions:
REMARK  status: ('A' for Active; 'I' for Inactive)
ROOT
ATOM      1  N1  IND d   1       0.725   1.184  -1.150  0.00  0.00    -0.196 N 
ATOM      2  C2  IND d   1       1.434   0.015  -1.121  0.00  0.00     0.054 A 
ATOM      3  C3  IND d   1       0.996  -0.776  -0.116  0.00  0.00    -0.031 A 
ATOM      4  C4  IND d   1      -0.938  -0.396   1.540  0.00  0.00     0.051 A 
ATOM      5  C5  IND d   1      -1.855   0.540   1.929  0.00  0.00    -0.031 A 
ATOM      6  C6  IND d   1      -1.963   1.761   1.297  0.00  0.00     0.015 A 
ATOM      7  C7  IND d   1      -1.162   2.090   0.241  0.00  0.00    -0.016 A 
ATOM      8  C8  IND d   1      -0.225   1.145  -0.152  0.00  0.00    -0.047 A 
ATOM      9  C9  IND d   1      -0.082  -0.080   0.512  0.00  0.00    -0.096 A 
ATOM     10  HN1 IND d   1       0.851   1.834  -1.698  0.00  0.00     0.298 HD
ENDROOT
TORSDOF 0
ENDMDL
