MODEL 1
REMARK minimizedAffinity -1.38326955
REMARK minimizedRMSD -1
REMARK  0 active torsions:
REMARK  status: ('A' for Active; 'I' for Inactive)
ROOT
ATOM      1  N1  IND d   1       0.790   1.891  -1.312  0.00  0.00    -0.196 N 
ATOM      2  C2  IND d   1       1.521   0.892  -1.892  0.00  0.00     0.054 A 
ATOM      3  C3  IND d   1       1.355  -0.267  -1.215  0.00  0.00    -0.031 A 
ATOM      4  C4  IND d   1      -0.149  -0.775   0.812  0.00  0.00     0.051 A 
ATOM      5  C5  IND d   1      -0.978  -0.173   1.716  0.00  0.00    -0.031 A 
ATOM      6  C6  IND d   1      -1.268   1.175   1.654  0.00  0.00     0.015 A 
ATOM      7  C7  IND d   1      -0.746   1.972   0.675  0.00  0.00    -0.016 A 
ATOM      8  C8  IND d   1       0.102   1.365  -0.241  0.00  0.00    -0.047 A 
ATOM      9  C9  IND d   1       0.433   0.006  -0.158  0.00  0.00    -0.096 A 
ATOM     10  HN1 IND d   1       0.765   2.710  -1.572  0.00  0.00     0.298 HD
ENDROOT
TORSDOF 0
ENDMDL
