MODEL 1
REMARK minimizedAffinity -2.63627076
REMARK minimizedRMSD -1
REMARK  0 active torsions:
REMARK  status: ('A' for Active; 'I' for Inactive)
ROOT
ATOM      1  N1  IND d   1       0.145   2.269  -0.583  0.00  0.00    -0.196 N 
ATOM      2  C2  IND d   1       0.818   1.396  -1.392  0.00  0.00     0.054 A 
ATOM      3  C3  IND d   1       0.909   0.183  -0.802  0.00  0.00    -0.031 A 
ATOM      4  C4  IND d   1      -0.064  -0.622   1.441  0.00  0.00     0.051 A 
ATOM      5  C5  IND d   1      -0.727  -0.176   2.550  0.00  0.00    -0.031 A 
ATOM      6  C6  IND d   1      -1.143   1.134   2.673  0.00  0.00     0.015 A 
ATOM      7  C7  IND d   1      -0.922   2.048   1.681  0.00  0.00    -0.016 A 
ATOM      8  C8  IND d   1      -0.243   1.600   0.557  0.00  0.00    -0.047 A 
ATOM      9  C9  IND d   1       0.219   0.282   0.445  0.00  0.00    -0.096 A 
ATOM     10  HN1 IND d   1      -0.011   3.096  -0.757  0.00  0.00     0.298 HD
ENDROOT
TORSDOF 0
ENDMDL
