MODEL 1
REMARK minimizedAffinity -4.33881712
REMARK minimizedRMSD -1
REMARK  0 active torsions:
REMARK  status: ('A' for Active; 'I' for Inactive)
ROOT
ATOM      1  N1  IND d   1       2.566  -0.704  -2.319  0.00  0.00    -0.196 N 
ATOM      2  C2  IND d   1       2.450  -0.680  -0.957  0.00  0.00     0.054 A 
ATOM      3  C3  IND d   1       1.502  -1.554  -0.550  0.00  0.00    -0.031 A 
ATOM      4  C4  IND d   1       0.088  -3.198  -1.939  0.00  0.00     0.051 A 
ATOM      5  C5  IND d   1      -0.186  -3.560  -3.227  0.00  0.00    -0.031 A 
ATOM      6  C6  IND d   1       0.457  -2.978  -4.301  0.00  0.00     0.015 A 
ATOM      7  C7  IND d   1       1.412  -2.017  -4.124  0.00  0.00    -0.016 A 
ATOM      8  C8  IND d   1       1.688  -1.642  -2.817  0.00  0.00    -0.047 A 
ATOM      9  C9  IND d   1       1.008  -2.198  -1.726  0.00  0.00    -0.096 A 
ATOM     10  HN1 IND d   1       3.097  -0.215  -2.786  0.00  0.00     0.298 HD
ENDROOT
TORSDOF 0
ENDMDL
