MODEL 1
REMARK minimizedAffinity -4.62349319
REMARK minimizedRMSD -1
REMARK  0 active torsions:
REMARK  status: ('A' for Active; 'I' for Inactive)
ROOT
ATOM      1  N1  IND d   1       0.741  -0.769   0.261  0.00  0.00    -0.196 N 
ATOM      2  C2  IND d   1       0.826  -0.372  -1.045  0.00  0.00     0.054 A 
ATOM      3  C3  IND d   1      -0.086   0.592  -1.303  0.00  0.00    -0.031 A 
ATOM      4  C4  IND d   1      -1.749   1.740   0.291  0.00  0.00     0.051 A 
ATOM      5  C5  IND d   1      -2.222   1.690   1.573  0.00  0.00    -0.031 A 
ATOM      6  C6  IND d   1      -1.719   0.802   2.501  0.00  0.00     0.015 A 
ATOM      7  C7  IND d   1      -0.713  -0.065   2.185  0.00  0.00    -0.016 A 
ATOM      8  C8  IND d   1      -0.235  -0.023   0.883  0.00  0.00    -0.047 A 
ATOM      9  C9  IND d   1      -0.770   0.847  -0.075  0.00  0.00    -0.096 A 
ATOM     10  HN1 IND d   1       1.218  -1.382   0.630  0.00  0.00     0.298 HD
ENDROOT
TORSDOF 0
ENDMDL
