MODEL 1
REMARK minimizedAffinity -3.54181385
REMARK minimizedRMSD -1
REMARK  0 active torsions:
REMARK  status: ('A' for Active; 'I' for Inactive)
ROOT
ATOM      1  N1  IND d   1      -1.115   2.076  -0.145  0.00  0.00    -0.196 N 
ATOM      2  C2  IND d   1      -1.518   2.271   1.147  0.00  0.00     0.054 A 
ATOM      3  C3  IND d   1      -1.088   1.257   1.932  0.00  0.00    -0.031 A 
ATOM      4  C4  IND d   1       0.377  -0.772   1.327  0.00  0.00     0.051 A 
ATOM      5  C5  IND d   1       0.961  -1.400   0.263  0.00  0.00    -0.031 A 
ATOM      6  C6  IND d   1       0.883  -0.890  -1.017  0.00  0.00     0.015 A 
ATOM      7  C7  IND d   1       0.226   0.279  -1.280  0.00  0.00    -0.016 A 
ATOM      8  C8  IND d   1      -0.374   0.915  -0.203  0.00  0.00    -0.047 A 
ATOM      9  C9  IND d   1      -0.335   0.381   1.092  0.00  0.00    -0.096 A 
ATOM     10  HN1 IND d   1      -1.294   2.591  -0.809  0.00  0.00     0.298 HD
ENDROOT
TORSDOF 0
ENDMDL
