MODEL 1
REMARK minimizedAffinity -0.0365001708
REMARK minimizedRMSD -1
REMARK  0 active torsions:
REMARK  status: ('A' for Active; 'I' for Inactive)
ROOT
ATOM      1  N1  IND d   1       0.733   0.190  -1.450  0.00  0.00    -0.196 N 
ATOM      2  C2  IND d   1       1.177  -1.092  -1.285  0.00  0.00     0.054 A 
ATOM      3  C3  IND d   1       0.781  -1.577  -0.087  0.00  0.00    -0.031 A 
ATOM      4  C4  IND d   1      -0.688  -0.476   1.718  0.00  0.00     0.051 A 
ATOM      5  C5  IND d   1      -1.303   0.702   2.035  0.00  0.00    -0.031 A 
ATOM      6  C6  IND d   1      -1.273   1.792   1.188  0.00  0.00     0.015 A 
ATOM      7  C7  IND d   1      -0.632   1.739  -0.018  0.00  0.00    -0.016 A 
ATOM      8  C8  IND d   1      -0.001   0.546  -0.340  0.00  0.00    -0.047 A 
ATOM      9  C9  IND d   1       0.007  -0.549   0.534  0.00  0.00    -0.096 A 
ATOM     10  HN1 IND d   1       0.886   0.691  -2.133  0.00  0.00     0.298 HD
ENDROOT
TORSDOF 0
ENDMDL
