MODEL 1
REMARK minimizedAffinity -4.84325743
REMARK minimizedRMSD -1
REMARK  0 active torsions:
REMARK  status: ('A' for Active; 'I' for Inactive)
ROOT
ATOM      1  N1  IND d   1      -0.853   1.966   0.383  0.00  0.00    -0.196 N 
ATOM      2  C2  IND d   1      -1.654   1.962   1.491  0.00  0.00     0.054 A 
ATOM      3  C3  IND d   1      -1.601   0.759   2.105  0.00  0.00    -0.031 A 
ATOM      4  C4  IND d   1      -0.188  -1.313   1.524  0.00  0.00     0.051 A 
ATOM      5  C5  IND d   1       0.670  -1.801   0.579  0.00  0.00    -0.031 A 
ATOM      6  C6  IND d   1       1.075  -1.042  -0.500  0.00  0.00     0.015 A 
ATOM      7  C7  IND d   1       0.643   0.243  -0.669  0.00  0.00    -0.016 A 
ATOM      8  C8  IND d   1      -0.234   0.740   0.285  0.00  0.00    -0.047 A 
ATOM      9  C9  IND d   1      -0.681  -0.040   1.359  0.00  0.00    -0.096 A 
ATOM     10  HN1 IND d   1      -0.753   2.624  -0.162  0.00  0.00     0.298 HD
ENDROOT
TORSDOF 0
ENDMDL
