MODEL 1
REMARK minimizedAffinity -1.5912745
REMARK minimizedRMSD -1
REMARK  0 active torsions:
REMARK  status: ('A' for Active; 'I' for Inactive)
ROOT
ATOM      1  N1  IND d   1      -1.866   1.740  -0.015  0.00  0.00    -0.196 N 
ATOM      2  C2  IND d   1      -2.223   1.962   1.285  0.00  0.00     0.054 A 
ATOM      3  C3  IND d   1      -1.512   1.163   2.112  0.00  0.00    -0.031 A 
ATOM      4  C4  IND d   1       0.361  -0.513   1.555  0.00  0.00     0.051 A 
ATOM      5  C5  IND d   1       1.013  -1.089   0.501  0.00  0.00    -0.031 A 
ATOM      6  C6  IND d   1       0.735  -0.743  -0.806  0.00  0.00     0.015 A 
ATOM      7  C7  IND d   1      -0.202   0.205  -1.107  0.00  0.00    -0.016 A 
ATOM      8  C8  IND d   1      -0.871   0.787  -0.040  0.00  0.00    -0.047 A 
ATOM      9  C9  IND d   1      -0.623   0.409   1.286  0.00  0.00    -0.096 A 
ATOM     10  HN1 IND d   1      -2.206   2.129  -0.703  0.00  0.00     0.298 HD
ENDROOT
TORSDOF 0
ENDMDL
