MODEL 1
REMARK minimizedAffinity -5.24716043
REMARK minimizedRMSD -1
REMARK  0 active torsions:
REMARK  status: ('A' for Active; 'I' for Inactive)
ROOT
ATOM      1  N1  IND d   1      -1.000   0.116   1.493  0.00  0.00    -0.196 N 
ATOM      2  C2  IND d   1      -1.801   1.223   1.516  0.00  0.00     0.054 A 
ATOM      3  C3  IND d   1      -1.402   2.111   0.578  0.00  0.00    -0.031 A 
ATOM      4  C4  IND d   1       0.475   1.911  -1.172  0.00  0.00     0.051 A 
ATOM      5  C5  IND d   1       1.503   1.098  -1.561  0.00  0.00    -0.031 A 
ATOM      6  C6  IND d   1       1.753  -0.109  -0.941  0.00  0.00     0.015 A 
ATOM      7  C7  IND d   1       0.973  -0.556   0.088  0.00  0.00    -0.016 A 
ATOM      8  C8  IND d   1      -0.067   0.270   0.490  0.00  0.00    -0.047 A 
ATOM      9  C9  IND d   1      -0.300   1.515  -0.107  0.00  0.00    -0.096 A 
ATOM     10  HN1 IND d   1      -1.067  -0.563   2.016  0.00  0.00     0.298 HD
ENDROOT
TORSDOF 0
ENDMDL
