MODEL 1
REMARK minimizedAffinity -5.2094965
REMARK minimizedRMSD -1
REMARK  0 active torsions:
REMARK  status: ('A' for Active; 'I' for Inactive)
ROOT
ATOM      1  N1  IND d   1      -1.419  -0.013   1.594  0.00  0.00    -0.196 N 
ATOM      2  C2  IND d   1      -2.169   1.129   1.626  0.00  0.00     0.054 A 
ATOM      3  C3  IND d   1      -1.761   1.987   0.664  0.00  0.00    -0.031 A 
ATOM      4  C4  IND d   1       0.051   1.681  -1.139  0.00  0.00     0.051 A 
ATOM      5  C5  IND d   1       1.030   0.818  -1.547  0.00  0.00    -0.031 A 
ATOM      6  C6  IND d   1       1.245  -0.391  -0.918  0.00  0.00     0.015 A 
ATOM      7  C7  IND d   1       0.479  -0.789   0.141  0.00  0.00    -0.016 A 
ATOM      8  C8  IND d   1      -0.512   0.087   0.562  0.00  0.00    -0.047 A 
ATOM      9  C9  IND d   1      -0.707   1.334  -0.046  0.00  0.00    -0.096 A 
ATOM     10  HN1 IND d   1      -1.500  -0.682   2.129  0.00  0.00     0.298 HD
ENDROOT
TORSDOF 0
ENDMDL
