MODEL 1
REMARK minimizedAffinity -5.23621035
REMARK minimizedRMSD -1
REMARK  0 active torsions:
REMARK  status: ('A' for Active; 'I' for Inactive)
ROOT
ATOM      1  N1  IND d   1       0.751   1.444  -1.062  0.00  0.00    -0.196 N 
ATOM      2  C2  IND d   1       1.498   0.311  -0.897  0.00  0.00     0.054 A 
ATOM      3  C3  IND d   1       1.026  -0.417   0.139  0.00  0.00    -0.031 A 
ATOM      4  C4  IND d   1      -1.022   0.010   1.640  0.00  0.00     0.051 A 
ATOM      5  C5  IND d   1      -1.995   0.935   1.896  0.00  0.00    -0.031 A 
ATOM      6  C6  IND d   1      -2.106   2.099   1.164  0.00  0.00     0.015 A 
ATOM      7  C7  IND d   1      -1.252   2.377   0.135  0.00  0.00    -0.016 A 
ATOM      8  C8  IND d   1      -0.258   1.444  -0.124  0.00  0.00    -0.047 A 
ATOM      9  C9  IND d   1      -0.114   0.281   0.644  0.00  0.00    -0.096 A 
ATOM     10  HN1 IND d   1       0.889   2.055  -1.651  0.00  0.00     0.298 HD
ENDROOT
TORSDOF 0
ENDMDL
