MODEL 1
REMARK minimizedAffinity -2.55787253
REMARK minimizedRMSD -1
REMARK  0 active torsions:
REMARK  status: ('A' for Active; 'I' for Inactive)
ROOT
ATOM      1  N1  IND d   1      -1.424   1.387   2.377  0.00  0.00    -0.196 N 
ATOM      2  C2  IND d   1      -2.120   2.384   1.752  0.00  0.00     0.054 A 
ATOM      3  C3  IND d   1      -1.825   2.408   0.433  0.00  0.00    -0.031 A 
ATOM      4  C4  IND d   1      -0.306   0.841  -0.932  0.00  0.00     0.051 A 
ATOM      5  C5  IND d   1       0.572  -0.198  -0.794  0.00  0.00    -0.031 A 
ATOM      6  C6  IND d   1       0.832  -0.775   0.432  0.00  0.00     0.015 A 
ATOM      7  C7  IND d   1       0.213  -0.340   1.570  0.00  0.00    -0.016 A 
ATOM      8  C8  IND d   1      -0.673   0.719   1.434  0.00  0.00    -0.047 A 
ATOM      9  C9  IND d   1      -0.909   1.337   0.199  0.00  0.00    -0.096 A 
ATOM     10  HN1 IND d   1      -1.451   1.208   3.217  0.00  0.00     0.298 HD
ENDROOT
TORSDOF 0
ENDMDL
