MODEL 1
REMARK minimizedAffinity -2.22874832
REMARK minimizedRMSD -1
REMARK  0 active torsions:
REMARK  status: ('A' for Active; 'I' for Inactive)
ROOT
ATOM      1  C   UNL d   1      -3.379   0.623   0.265  0.00  0.00     0.077 C 
ATOM      2  C1  UNL d   1      -1.882   0.574   0.182  0.00  0.00    -0.074 A 
ATOM      3  C2  UNL d   1      -1.222   0.806  -1.029  0.00  0.00    -0.005 A 
ATOM      4  C3  UNL d   1       0.171   0.766  -1.089  0.00  0.00     0.006 A 
ATOM      5  C4  UNL d   1       0.916   0.495   0.059  0.00  0.00    -0.005 A 
ATOM      6  C5  UNL d   1       0.273   0.261   1.279  0.00  0.00    -0.074 A 
ATOM      7  C6  UNL d   1       1.060  -0.023   2.524  0.00  0.00     0.077 C 
ATOM      8  C7  UNL d   1      -1.126   0.309   1.333  0.00  0.00    -0.001 A 
ENDROOT
TORSDOF 0
ENDMDL
