MODEL 1
REMARK minimizedAffinity -1.60402024
REMARK minimizedRMSD -1
REMARK  0 active torsions:
REMARK  status: ('A' for Active; 'I' for Inactive)
ROOT
ATOM      1  C   UNL d   1       0.049   0.585  -2.018  0.00  0.00     0.077 C 
ATOM      2  C1  UNL d   1      -0.016   0.396  -0.532  0.00  0.00    -0.074 A 
ATOM      3  C2  UNL d   1      -1.232   0.130   0.106  0.00  0.00    -0.005 A 
ATOM      4  C3  UNL d   1      -1.276  -0.053   1.488  0.00  0.00     0.006 A 
ATOM      5  C4  UNL d   1      -0.107   0.029   2.245  0.00  0.00    -0.005 A 
ATOM      6  C5  UNL d   1       1.118   0.293   1.624  0.00  0.00    -0.074 A 
ATOM      7  C6  UNL d   1       2.386   0.374   2.422  0.00  0.00     0.077 C 
ATOM      8  C7  UNL d   1       1.155   0.468   0.234  0.00  0.00    -0.001 A 
ENDROOT
TORSDOF 0
ENDMDL
