MODEL 1
REMARK minimizedAffinity -4.44662619
REMARK minimizedRMSD -1
REMARK  0 active torsions:
REMARK  status: ('A' for Active; 'I' for Inactive)
ROOT
ATOM      1  C   UNL d   1      -0.240  -0.839   2.807  0.00  0.00     0.077 C 
ATOM      2  C1  UNL d   1      -0.779  -0.410   1.475  0.00  0.00    -0.074 A 
ATOM      3  C2  UNL d   1      -2.150  -0.209   1.285  0.00  0.00    -0.005 A 
ATOM      4  C3  UNL d   1      -2.635   0.199   0.043  0.00  0.00     0.006 A 
ATOM      5  C4  UNL d   1      -1.757   0.410  -1.020  0.00  0.00    -0.005 A 
ATOM      6  C5  UNL d   1      -0.382   0.215  -0.849  0.00  0.00    -0.074 A 
ATOM      7  C6  UNL d   1       0.577   0.447  -1.978  0.00  0.00     0.077 C 
ATOM      8  C7  UNL d   1       0.099  -0.189   0.404  0.00  0.00    -0.001 A 
ENDROOT
TORSDOF 0
ENDMDL
