MODEL 1
REMARK minimizedAffinity -5.76438379
REMARK minimizedRMSD -1
REMARK  0 active torsions:
REMARK  status: ('A' for Active; 'I' for Inactive)
ROOT
ATOM      1  C   UNL d   1      -4.037   0.765   1.204  0.00  0.00     0.077 C 
ATOM      2  C1  UNL d   1      -2.666   0.424   1.707  0.00  0.00    -0.074 A 
ATOM      3  C2  UNL d   1      -2.411   0.306   3.077  0.00  0.00    -0.005 A 
ATOM      4  C3  UNL d   1      -1.132  -0.021   3.529  0.00  0.00     0.006 A 
ATOM      5  C4  UNL d   1      -0.098  -0.234   2.617  0.00  0.00    -0.005 A 
ATOM      6  C5  UNL d   1      -0.334  -0.122   1.243  0.00  0.00    -0.074 A 
ATOM      7  C6  UNL d   1       0.764  -0.357   0.249  0.00  0.00     0.077 C 
ATOM      8  C7  UNL d   1      -1.623   0.200   0.797  0.00  0.00    -0.001 A 
ENDROOT
TORSDOF 0
ENDMDL
