MODEL 1
REMARK minimizedAffinity -4.54950714
REMARK minimizedRMSD -1
REMARK  0 active torsions:
REMARK  status: ('A' for Active; 'I' for Inactive)
ROOT
ATOM      1  C   UNL d   1       0.152   0.069   0.120  0.00  0.00     0.077 C 
ATOM      2  C1  UNL d   1      -0.700   0.127   1.353  0.00  0.00    -0.074 A 
ATOM      3  C2  UNL d   1      -0.424  -0.687   2.457  0.00  0.00    -0.005 A 
ATOM      4  C3  UNL d   1      -1.220  -0.615   3.600  0.00  0.00     0.006 A 
ATOM      5  C4  UNL d   1      -2.298   0.269   3.651  0.00  0.00    -0.005 A 
ATOM      6  C5  UNL d   1      -2.589   1.091   2.558  0.00  0.00    -0.074 A 
ATOM      7  C6  UNL d   1      -3.738   2.054   2.600  0.00  0.00     0.077 C 
ATOM      8  C7  UNL d   1      -1.780   1.018   1.415  0.00  0.00    -0.001 A 
ENDROOT
TORSDOF 0
ENDMDL
