MODEL 1
REMARK minimizedAffinity -2.59302926
REMARK minimizedRMSD -1
REMARK  0 active torsions:
REMARK  status: ('A' for Active; 'I' for Inactive)
ROOT
ATOM      1  C   UNL d   1       1.104  -0.035  -2.897  0.00  0.00     0.077 C 
ATOM      2  C1  UNL d   1       0.590   0.226  -1.513  0.00  0.00    -0.074 A 
ATOM      3  C2  UNL d   1       1.470   0.470  -0.454  0.00  0.00    -0.005 A 
ATOM      4  C3  UNL d   1       0.977   0.720   0.827  0.00  0.00     0.006 A 
ATOM      5  C4  UNL d   1      -0.399   0.729   1.061  0.00  0.00    -0.005 A 
ATOM      6  C5  UNL d   1      -1.294   0.488   0.014  0.00  0.00    -0.074 A 
ATOM      7  C6  UNL d   1      -2.776   0.503   0.246  0.00  0.00     0.077 C 
ATOM      8  C7  UNL d   1      -0.791   0.244  -1.271  0.00  0.00    -0.001 A 
ENDROOT
TORSDOF 0
ENDMDL
