MODEL 1
REMARK minimizedAffinity -3.30443978
REMARK minimizedRMSD -1
REMARK  0 active torsions:
REMARK  status: ('A' for Active; 'I' for Inactive)
ROOT
ATOM      1  C   UNL d   1       3.960  -0.313  -4.068  0.00  0.00     0.077 C 
ATOM      2  C1  UNL d   1       2.573  -0.603  -3.576  0.00  0.00    -0.074 A 
ATOM      3  C2  UNL d   1       1.846  -1.689  -4.075  0.00  0.00    -0.005 A 
ATOM      4  C3  UNL d   1       0.561  -1.952  -3.601  0.00  0.00     0.006 A 
ATOM      5  C4  UNL d   1      -0.010  -1.134  -2.625  0.00  0.00    -0.005 A 
ATOM      6  C5  UNL d   1       0.702  -0.044  -2.114  0.00  0.00    -0.074 A 
ATOM      7  C6  UNL d   1       0.108   0.840  -1.058  0.00  0.00     0.077 C 
ATOM      8  C7  UNL d   1       1.996   0.210  -2.590  0.00  0.00    -0.001 A 
ENDROOT
TORSDOF 0
ENDMDL
