MODEL 1
REMARK minimizedAffinity -3.25958824
REMARK minimizedRMSD -1
REMARK  0 active torsions:
REMARK  status: ('A' for Active; 'I' for Inactive)
ROOT
ATOM      1  C   UNL d   1       2.453   0.591   0.749  0.00  0.00     0.077 C 
ATOM      2  C1  UNL d   1       0.971   0.569   0.978  0.00  0.00    -0.074 A 
ATOM      3  C2  UNL d   1       0.445   0.379   2.260  0.00  0.00    -0.005 A 
ATOM      4  C3  UNL d   1      -0.936   0.370   2.459  0.00  0.00     0.006 A 
ATOM      5  C4  UNL d   1      -1.802   0.551   1.380  0.00  0.00    -0.005 A 
ATOM      6  C5  UNL d   1      -1.294   0.743   0.092  0.00  0.00    -0.074 A 
ATOM      7  C6  UNL d   1      -2.211   0.949  -1.077  0.00  0.00     0.077 C 
ATOM      8  C7  UNL d   1       0.094   0.758  -0.099  0.00  0.00    -0.001 A 
ENDROOT
TORSDOF 0
ENDMDL
