MODEL 1
REMARK minimizedAffinity -2.14070344
REMARK minimizedRMSD -1
REMARK  0 active torsions:
REMARK  status: ('A' for Active; 'I' for Inactive)
ROOT
ATOM      1  C   UNL d   1      -1.206   0.003   3.445  0.00  0.00     0.077 C 
ATOM      2  C1  UNL d   1      -0.510   0.182   2.128  0.00  0.00    -0.074 A 
ATOM      3  C2  UNL d   1      -1.181  -0.054   0.923  0.00  0.00    -0.005 A 
ATOM      4  C3  UNL d   1      -0.524   0.126  -0.294  0.00  0.00     0.006 A 
ATOM      5  C4  UNL d   1       0.808   0.543  -0.319  0.00  0.00    -0.005 A 
ATOM      6  C5  UNL d   1       1.494   0.784   0.875  0.00  0.00    -0.074 A 
ATOM      7  C6  UNL d   1       2.922   1.242   0.866  0.00  0.00     0.077 C 
ATOM      8  C7  UNL d   1       0.825   0.608   2.094  0.00  0.00    -0.001 A 
ENDROOT
TORSDOF 0
ENDMDL
