MODEL 1
REMARK minimizedAffinity -2.04149675
REMARK minimizedRMSD -1
REMARK  0 active torsions:
REMARK  status: ('A' for Active; 'I' for Inactive)
ROOT
ATOM      1  C   UNL d   1       1.128  -2.338  -1.753  0.00  0.00     0.077 C 
ATOM      2  C1  UNL d   1       0.374  -2.033  -0.493  0.00  0.00    -0.074 A 
ATOM      3  C2  UNL d   1      -0.516  -2.962   0.055  0.00  0.00    -0.005 A 
ATOM      4  C3  UNL d   1      -1.203  -2.668   1.233  0.00  0.00     0.006 A 
ATOM      5  C4  UNL d   1      -1.007  -1.444   1.874  0.00  0.00    -0.005 A 
ATOM      6  C5  UNL d   1      -0.120  -0.503   1.341  0.00  0.00    -0.074 A 
ATOM      7  C6  UNL d   1       0.109   0.814   2.023  0.00  0.00     0.077 C 
ATOM      8  C7  UNL d   1       0.571  -0.808   0.161  0.00  0.00    -0.001 A 
ENDROOT
TORSDOF 0
ENDMDL
