MODEL 1
REMARK minimizedAffinity 1.3854357
REMARK minimizedRMSD -1
REMARK  0 active torsions:
REMARK  status: ('A' for Active; 'I' for Inactive)
ROOT
ATOM      1  C   UNL d   1      -1.540  -1.140   2.495  0.00  0.00     0.077 C 
ATOM      2  C1  UNL d   1      -1.376  -0.578   1.114  0.00  0.00    -0.074 A 
ATOM      3  C2  UNL d   1      -2.391   0.180   0.521  0.00  0.00    -0.005 A 
ATOM      4  C3  UNL d   1      -2.221   0.704  -0.760  0.00  0.00     0.006 A 
ATOM      5  C4  UNL d   1      -1.035   0.477  -1.460  0.00  0.00    -0.005 A 
ATOM      6  C5  UNL d   1      -0.008  -0.277  -0.883  0.00  0.00    -0.074 A 
ATOM      7  C6  UNL d   1       1.276  -0.521  -1.617  0.00  0.00     0.077 C 
ATOM      8  C7  UNL d   1      -0.185  -0.794   0.408  0.00  0.00    -0.001 A 
ENDROOT
TORSDOF 0
ENDMDL
