MODEL 1
REMARK minimizedAffinity -3.11337328
REMARK minimizedRMSD -1
REMARK  0 active torsions:
REMARK  status: ('A' for Active; 'I' for Inactive)
ROOT
ATOM      1  C   UNL d   1      -0.097  -0.168   2.313  0.00  0.00     0.077 C 
ATOM      2  C1  UNL d   1      -0.421   0.012   0.860  0.00  0.00    -0.074 A 
ATOM      3  C2  UNL d   1      -1.721   0.323   0.446  0.00  0.00    -0.005 A 
ATOM      4  C3  UNL d   1      -2.005   0.496  -0.908  0.00  0.00     0.006 A 
ATOM      5  C4  UNL d   1      -0.995   0.361  -1.861  0.00  0.00    -0.005 A 
ATOM      6  C5  UNL d   1       0.310   0.051  -1.467  0.00  0.00    -0.074 A 
ATOM      7  C6  UNL d   1       1.410  -0.088  -2.477  0.00  0.00     0.077 C 
ATOM      8  C7  UNL d   1       0.590  -0.115  -0.103  0.00  0.00    -0.001 A 
ENDROOT
TORSDOF 0
ENDMDL
