MODEL 1
REMARK minimizedAffinity -3.2933414
REMARK minimizedRMSD -1
REMARK  0 active torsions:
REMARK  status: ('A' for Active; 'I' for Inactive)
ROOT
ATOM      1  C   UNL d   1       1.183  -0.726  -2.232  0.00  0.00     0.077 C 
ATOM      2  C1  UNL d   1       0.780  -0.344  -0.839  0.00  0.00    -0.074 A 
ATOM      3  C2  UNL d   1       1.720  -0.308   0.196  0.00  0.00    -0.005 A 
ATOM      4  C3  UNL d   1       1.333   0.058   1.486  0.00  0.00     0.006 A 
ATOM      5  C4  UNL d   1       0.004   0.390   1.752  0.00  0.00    -0.005 A 
ATOM      6  C5  UNL d   1      -0.950   0.360   0.730  0.00  0.00    -0.074 A 
ATOM      7  C6  UNL d   1      -2.380   0.723   0.997  0.00  0.00     0.077 C 
ATOM      8  C7  UNL d   1      -0.551  -0.002  -0.564  0.00  0.00    -0.001 A 
ENDROOT
TORSDOF 0
ENDMDL
