MODEL 1
REMARK minimizedAffinity -2.84273314
REMARK minimizedRMSD -1
REMARK  0 active torsions:
REMARK  status: ('A' for Active; 'I' for Inactive)
ROOT
ATOM      1  C   UNL d   1       0.204  -0.410  -1.771  0.00  0.00     0.077 C 
ATOM      2  C1  UNL d   1       0.594  -0.048  -0.369  0.00  0.00    -0.074 A 
ATOM      3  C2  UNL d   1       1.835   0.537  -0.096  0.00  0.00    -0.005 A 
ATOM      4  C3  UNL d   1       2.180   0.876   1.212  0.00  0.00     0.006 A 
ATOM      5  C4  UNL d   1       1.289   0.635   2.259  0.00  0.00    -0.005 A 
ATOM      6  C5  UNL d   1       0.043   0.052   2.005  0.00  0.00    -0.074 A 
ATOM      7  C6  UNL d   1      -0.930  -0.205   3.117  0.00  0.00     0.077 C 
ATOM      8  C7  UNL d   1      -0.299  -0.280   0.687  0.00  0.00    -0.001 A 
ENDROOT
TORSDOF 0
ENDMDL
