MODEL 1
REMARK minimizedAffinity -2.27657294
REMARK minimizedRMSD -1
REMARK  0 active torsions:
REMARK  status: ('A' for Active; 'I' for Inactive)
ROOT
ATOM      1  C   UNL d   1      -0.680  -0.035   3.486  0.00  0.00     0.077 C 
ATOM      2  C1  UNL d   1      -0.471   0.148   2.012  0.00  0.00    -0.074 A 
ATOM      3  C2  UNL d   1       0.804   0.040   1.447  0.00  0.00    -0.005 A 
ATOM      4  C3  UNL d   1       0.981   0.203   0.074  0.00  0.00     0.006 A 
ATOM      5  C4  UNL d   1      -0.113   0.475  -0.749  0.00  0.00    -0.005 A 
ATOM      6  C5  UNL d   1      -1.396   0.585  -0.202  0.00  0.00    -0.074 A 
ATOM      7  C6  UNL d   1      -2.584   0.867  -1.073  0.00  0.00     0.077 C 
ATOM      8  C7  UNL d   1      -1.567   0.413   1.178  0.00  0.00    -0.001 A 
ENDROOT
TORSDOF 0
ENDMDL
