MODEL 1
REMARK minimizedAffinity -2.94753528
REMARK minimizedRMSD -1
REMARK  0 active torsions:
REMARK  status: ('A' for Active; 'I' for Inactive)
ROOT
ATOM      1  C   UNL d   1       1.501  -0.033   1.728  0.00  0.00     0.077 C 
ATOM      2  C1  UNL d   1       0.729  -0.122   0.446  0.00  0.00    -0.074 A 
ATOM      3  C2  UNL d   1      -0.579   0.365   0.359  0.00  0.00    -0.005 A 
ATOM      4  C3  UNL d   1      -1.282   0.284  -0.843  0.00  0.00     0.006 A 
ATOM      5  C4  UNL d   1      -0.684  -0.284  -1.969  0.00  0.00    -0.005 A 
ATOM      6  C5  UNL d   1       0.624  -0.776  -1.902  0.00  0.00    -0.074 A 
ATOM      7  C6  UNL d   1       1.284  -1.380  -3.105  0.00  0.00     0.077 C 
ATOM      8  C7  UNL d   1       1.325  -0.684  -0.692  0.00  0.00    -0.001 A 
ENDROOT
TORSDOF 0
ENDMDL
