MODEL 1
REMARK minimizedAffinity -1.70357919
REMARK minimizedRMSD -1
REMARK  0 active torsions:
REMARK  status: ('A' for Active; 'I' for Inactive)
ROOT
ATOM      1  C   UNL d   1      -2.997   0.474   0.398  0.00  0.00     0.077 C 
ATOM      2  C1  UNL d   1      -1.506   0.327   0.457  0.00  0.00    -0.074 A 
ATOM      3  C2  UNL d   1      -0.832   0.320   1.683  0.00  0.00    -0.005 A 
ATOM      4  C3  UNL d   1       0.554   0.173   1.722  0.00  0.00     0.006 A 
ATOM      5  C4  UNL d   1       1.280   0.031   0.539  0.00  0.00    -0.005 A 
ATOM      6  C5  UNL d   1       0.623   0.035  -0.696  0.00  0.00    -0.074 A 
ATOM      7  C6  UNL d   1       1.387  -0.126  -1.977  0.00  0.00     0.077 C 
ATOM      8  C7  UNL d   1      -0.771   0.176  -0.727  0.00  0.00    -0.001 A 
ENDROOT
TORSDOF 0
ENDMDL
