MODEL 1
REMARK minimizedAffinity 13.5296583
REMARK minimizedRMSD -1
REMARK  1 active torsions:
REMARK  status: ('A' for Active; 'I' for Inactive)
REMARK    1  A    between atoms: N_2  and  C1_3 
ROOT
ATOM      1  C1  UNL d   1       0.541  -4.136   1.113  0.00  0.00     0.143 A 
ATOM      2  C2  UNL d   1       1.066  -5.171   1.894  0.00  0.00    -0.057 A 
ATOM      3  C3  UNL d   1       2.213  -5.869   1.498  0.00  0.00     0.033 A 
ATOM      4  C4  UNL d   1       2.840  -5.563   0.295  0.00  0.00    -0.042 A 
ATOM      5  C5  UNL d   1       2.321  -4.555  -0.510  0.00  0.00     0.033 A 
ATOM      6  C6  UNL d   1       1.179  -3.856  -0.106  0.00  0.00    -0.057 A 
ENDROOT
BRANCH   1   7
ATOM      7  N   UNL d   1      -0.653  -3.470   1.404  0.00  0.00    -0.732 N 
ATOM      8  C   UNL d   1      -1.845  -3.720   0.623  0.00  0.00     0.284 C 
ATOM      9  H3  UNL d   1      -0.820  -3.391   2.404  0.00  0.00     0.395 HD
ENDBRANCH   1   7
TORSDOF 1
ENDMDL
