MODEL 1
REMARK minimizedAffinity 1.64617074
REMARK minimizedRMSD -1
REMARK  1 active torsions:
REMARK  status: ('A' for Active; 'I' for Inactive)
REMARK    1  A    between atoms: N_2  and  C1_3 
ROOT
ATOM      1  C1  UNL d   1       2.421  -4.934  -5.223  0.00  0.00     0.143 A 
ATOM      2  C2  UNL d   1       2.018  -4.110  -4.167  0.00  0.00    -0.057 A 
ATOM      3  C3  UNL d   1       0.752  -4.243  -3.584  0.00  0.00     0.033 A 
ATOM      4  C4  UNL d   1      -0.148  -5.186  -4.070  0.00  0.00    -0.042 A 
ATOM      5  C5  UNL d   1       0.221  -5.999  -5.135  0.00  0.00     0.033 A 
ATOM      6  C6  UNL d   1       1.490  -5.866  -5.708  0.00  0.00    -0.057 A 
ENDROOT
BRANCH   1   7
ATOM      7  N   UNL d   1       3.629  -4.785  -5.909  0.00  0.00    -0.732 N 
ATOM      8  C   UNL d   1       4.570  -5.881  -5.990  0.00  0.00     0.284 C 
ATOM      9  H3  UNL d   1       3.522  -4.264  -6.776  0.00  0.00     0.395 HD
ENDBRANCH   1   7
TORSDOF 1
ENDMDL
