MODEL 1
REMARK minimizedAffinity 5.4384551
REMARK minimizedRMSD -1
REMARK  1 active torsions:
REMARK  status: ('A' for Active; 'I' for Inactive)
REMARK    1  A    between atoms: N_2  and  C1_3 
ROOT
ATOM      1  C1  UNL d   1       3.302  -4.294  -5.622  0.00  0.00     0.143 A 
ATOM      2  C2  UNL d   1       2.799  -5.544  -6.000  0.00  0.00    -0.057 A 
ATOM      3  C3  UNL d   1       1.560  -5.999  -5.533  0.00  0.00     0.033 A 
ATOM      4  C4  UNL d   1       0.813  -5.222  -4.654  0.00  0.00    -0.042 A 
ATOM      5  C5  UNL d   1       1.304  -3.987  -4.246  0.00  0.00     0.033 A 
ATOM      6  C6  UNL d   1       2.539  -3.535  -4.721  0.00  0.00    -0.057 A 
ENDROOT
BRANCH   1   7
ATOM      7  N   UNL d   1       4.571  -3.827  -5.974  0.00  0.00    -0.732 N 
ATOM      8  C   UNL d   1       5.705  -4.725  -5.999  0.00  0.00     0.284 C 
ATOM      9  H3  UNL d   1       4.542  -3.172  -6.751  0.00  0.00     0.395 HD
ENDBRANCH   1   7
TORSDOF 1
ENDMDL
