MODEL 1
REMARK minimizedAffinity 12.3577204
REMARK minimizedRMSD -1
REMARK  1 active torsions:
REMARK  status: ('A' for Active; 'I' for Inactive)
REMARK    1  A    between atoms: N_2  and  C1_3 
ROOT
ATOM      1  C1  UNL d   1      -0.734   3.836  -2.935  0.00  0.00     0.143 A 
ATOM      2  C2  UNL d   1      -0.338   5.174  -3.043  0.00  0.00    -0.057 A 
ATOM      3  C3  UNL d   1      -0.837   6.000  -4.057  0.00  0.00     0.033 A 
ATOM      4  C4  UNL d   1      -1.723   5.493  -5.002  0.00  0.00    -0.042 A 
ATOM      5  C5  UNL d   1      -2.111   4.160  -4.929  0.00  0.00     0.033 A 
ATOM      6  C6  UNL d   1      -1.614   3.342  -3.910  0.00  0.00    -0.057 A 
ENDROOT
BRANCH   1   7
ATOM      7  N   UNL d   1      -0.197   2.938  -2.009  0.00  0.00    -0.732 N 
ATOM      8  C   UNL d   1       0.894   3.334  -1.145  0.00  0.00     0.284 C 
ATOM      9  H3  UNL d   1      -0.914   2.384  -1.546  0.00  0.00     0.395 HD
ENDBRANCH   1   7
TORSDOF 1
ENDMDL
