MODEL 1
REMARK minimizedAffinity 5.82125473
REMARK minimizedRMSD -1
REMARK  1 active torsions:
REMARK  status: ('A' for Active; 'I' for Inactive)
REMARK    1  A    between atoms: N_2  and  C1_3 
ROOT
ATOM      1  C1  UNL d   1       1.565   0.900   0.273  0.00  0.00     0.143 A 
ATOM      2  C2  UNL d   1       2.879   0.657   0.689  0.00  0.00    -0.057 A 
ATOM      3  C3  UNL d   1       3.253  -0.580   1.228  0.00  0.00     0.033 A 
ATOM      4  C4  UNL d   1       2.310  -1.589   1.388  0.00  0.00    -0.042 A 
ATOM      5  C5  UNL d   1       0.993  -1.362   1.006  0.00  0.00     0.033 A 
ATOM      6  C6  UNL d   1       0.627  -0.127   0.462  0.00  0.00    -0.057 A 
ENDROOT
BRANCH   1   7
ATOM      7  N   UNL d   1       1.109   2.140  -0.179  0.00  0.00    -0.732 N 
ATOM      8  C   UNL d   1       0.727   2.326  -1.562  0.00  0.00     0.284 C 
ATOM      9  H3  UNL d   1       0.487   2.592   0.488  0.00  0.00     0.395 HD
ENDBRANCH   1   7
TORSDOF 1
ENDMDL
