MODEL 1
REMARK minimizedAffinity 3.522681
REMARK minimizedRMSD -1
REMARK  1 active torsions:
REMARK  status: ('A' for Active; 'I' for Inactive)
REMARK    1  A    between atoms: N_2  and  C1_3 
ROOT
ATOM      1  C1  UNL d   1       2.940  -3.864  -5.659  0.00  0.00     0.143 A 
ATOM      2  C2  UNL d   1       2.842  -5.218  -6.000  0.00  0.00    -0.057 A 
ATOM      3  C3  UNL d   1       1.765  -6.000  -5.565  0.00  0.00     0.033 A 
ATOM      4  C4  UNL d   1       0.779  -5.447  -4.754  0.00  0.00    -0.042 A 
ATOM      5  C5  UNL d   1       0.869  -4.111  -4.382  0.00  0.00     0.033 A 
ATOM      6  C6  UNL d   1       1.943  -3.333  -4.825  0.00  0.00    -0.057 A 
ENDROOT
BRANCH   1   7
ATOM      7  N   UNL d   1       4.036  -3.059  -5.978  0.00  0.00    -0.732 N 
ATOM      8  C   UNL d   1       5.374  -3.609  -5.994  0.00  0.00     0.284 C 
ATOM      9  H3  UNL d   1       3.839  -2.421  -6.746  0.00  0.00     0.395 HD
ENDBRANCH   1   7
TORSDOF 1
ENDMDL
