MODEL 1
REMARK minimizedAffinity 14.8049088
REMARK minimizedRMSD -1
REMARK  1 active torsions:
REMARK  status: ('A' for Active; 'I' for Inactive)
REMARK    1  A    between atoms: N_2  and  C1_3 
ROOT
ATOM      1  C1  UNL d   1       1.029  -2.590   1.437  0.00  0.00     0.143 A 
ATOM      2  C2  UNL d   1       2.003  -3.585   1.571  0.00  0.00    -0.057 A 
ATOM      3  C3  UNL d   1       1.657  -4.941   1.602  0.00  0.00     0.033 A 
ATOM      4  C4  UNL d   1       0.322  -5.326   1.530  0.00  0.00    -0.042 A 
ATOM      5  C5  UNL d   1      -0.665  -4.353   1.422  0.00  0.00     0.033 A 
ATOM      6  C6  UNL d   1      -0.312  -3.001   1.384  0.00  0.00    -0.057 A 
ENDROOT
BRANCH   1   7
ATOM      7  N   UNL d   1       1.301  -1.221   1.499  0.00  0.00    -0.732 N 
ATOM      8  C   UNL d   1       2.667  -0.741   1.518  0.00  0.00     0.284 C 
ATOM      9  H3  UNL d   1       0.677  -0.674   0.911  0.00  0.00     0.395 HD
ENDBRANCH   1   7
TORSDOF 1
ENDMDL
