MODEL 1
REMARK minimizedAffinity 7.05551529
REMARK minimizedRMSD -1
REMARK  1 active torsions:
REMARK  status: ('A' for Active; 'I' for Inactive)
REMARK    1  A    between atoms: N_2  and  C1_3 
ROOT
ATOM      1  C1  UNL d   1       2.367  -4.006  -5.033  0.00  0.00     0.143 A 
ATOM      2  C2  UNL d   1       2.205  -5.004  -6.000  0.00  0.00    -0.057 A 
ATOM      3  C3  UNL d   1       1.213  -5.984  -5.873  0.00  0.00     0.033 A 
ATOM      4  C4  UNL d   1       0.382  -6.000  -4.757  0.00  0.00    -0.042 A 
ATOM      5  C5  UNL d   1       0.541  -5.032  -3.772  0.00  0.00     0.033 A 
ATOM      6  C6  UNL d   1       1.529  -4.052  -3.908  0.00  0.00    -0.057 A 
ENDROOT
BRANCH   1   7
ATOM      7  N   UNL d   1       3.398  -3.063  -5.054  0.00  0.00    -0.732 N 
ATOM      8  C   UNL d   1       4.486  -3.181  -6.000  0.00  0.00     0.284 C 
ATOM      9  H3  UNL d   1       3.057  -2.112  -4.929  0.00  0.00     0.395 HD
ENDBRANCH   1   7
TORSDOF 1
ENDMDL
