MODEL 1
REMARK minimizedAffinity 8.7056303
REMARK minimizedRMSD -1
REMARK  1 active torsions:
REMARK  status: ('A' for Active; 'I' for Inactive)
REMARK    1  A    between atoms: N_2  and  C1_3 
ROOT
ATOM      1  C1  UNL d   1      -3.802  -2.655   3.867  0.00  0.00     0.143 A 
ATOM      2  C2  UNL d   1      -5.171  -2.366   3.873  0.00  0.00    -0.057 A 
ATOM      3  C3  UNL d   1      -5.995  -2.776   4.928  0.00  0.00     0.033 A 
ATOM      4  C4  UNL d   1      -5.468  -3.511   5.985  0.00  0.00    -0.042 A 
ATOM      5  C5  UNL d   1      -4.115  -3.831   5.988  0.00  0.00     0.033 A 
ATOM      6  C6  UNL d   1      -3.296  -3.412   4.935  0.00  0.00    -0.057 A 
ENDROOT
BRANCH   1   7
ATOM      7  N   UNL d   1      -2.950  -2.360   2.801  0.00  0.00    -0.732 N 
ATOM      8  C   UNL d   1      -3.123  -3.006   1.518  0.00  0.00     0.284 C 
ATOM      9  H3  UNL d   1      -2.732  -1.367   2.740  0.00  0.00     0.395 HD
ENDBRANCH   1   7
TORSDOF 1
ENDMDL
