MODEL 1
REMARK minimizedAffinity 9.1948843
REMARK minimizedRMSD -1
REMARK  1 active torsions:
REMARK  status: ('A' for Active; 'I' for Inactive)
REMARK    1  A    between atoms: N_2  and  C1_3 
ROOT
ATOM      1  C1  UNL d   1       1.438  -5.267  -4.505  0.00  0.00     0.143 A 
ATOM      2  C2  UNL d   1       1.203  -3.888  -4.485  0.00  0.00    -0.057 A 
ATOM      3  C3  UNL d   1       0.681  -3.257  -3.350  0.00  0.00     0.033 A 
ATOM      4  C4  UNL d   1       0.355  -4.001  -2.220  0.00  0.00    -0.042 A 
ATOM      5  C5  UNL d   1       0.557  -5.377  -2.227  0.00  0.00     0.033 A 
ATOM      6  C6  UNL d   1       1.085  -6.000  -3.361  0.00  0.00    -0.057 A 
ENDROOT
BRANCH   1   7
ATOM      7  N   UNL d   1       1.864  -5.967  -5.636  0.00  0.00    -0.732 N 
ATOM      8  C   UNL d   1       3.264  -6.000  -6.000  0.00  0.00     0.284 C 
ATOM      9  H3  UNL d   1       1.385  -6.858  -5.744  0.00  0.00     0.395 HD
ENDBRANCH   1   7
TORSDOF 1
ENDMDL
