MODEL 1
REMARK minimizedAffinity 8.50417805
REMARK minimizedRMSD -1
REMARK  1 active torsions:
REMARK  status: ('A' for Active; 'I' for Inactive)
REMARK    1  A    between atoms: N_2  and  C1_3 
ROOT
ATOM      1  C1  UNL d   1      -4.572  -5.383  -0.162  0.00  0.00     0.143 A 
ATOM      2  C2  UNL d   1      -5.272  -5.999   0.881  0.00  0.00    -0.057 A 
ATOM      3  C3  UNL d   1      -5.426  -5.371   2.123  0.00  0.00     0.033 A 
ATOM      4  C4  UNL d   1      -4.855  -4.124   2.354  0.00  0.00    -0.042 A 
ATOM      5  C5  UNL d   1      -4.133  -3.504   1.340  0.00  0.00     0.033 A 
ATOM      6  C6  UNL d   1      -3.989  -4.133   0.100  0.00  0.00    -0.057 A 
ENDROOT
BRANCH   1   7
ATOM      7  N   UNL d   1      -4.301  -5.998  -1.386  0.00  0.00    -0.732 N 
ATOM      8  C   UNL d   1      -5.288  -6.000  -2.445  0.00  0.00     0.284 C 
ATOM      9  H3  UNL d   1      -3.350  -5.827  -1.705  0.00  0.00     0.395 HD
ENDBRANCH   1   7
TORSDOF 1
ENDMDL
