MODEL 1
REMARK minimizedAffinity 15.7737474
REMARK minimizedRMSD -1
REMARK  1 active torsions:
REMARK  status: ('A' for Active; 'I' for Inactive)
REMARK    1  A    between atoms: N_2  and  C1_3 
ROOT
ATOM      1  C1  UNL d   1      -2.790   4.371  -2.890  0.00  0.00     0.143 A 
ATOM      2  C2  UNL d   1      -2.917   3.393  -3.883  0.00  0.00    -0.057 A 
ATOM      3  C3  UNL d   1      -2.728   3.703  -5.235  0.00  0.00     0.033 A 
ATOM      4  C4  UNL d   1      -2.437   5.007  -5.622  0.00  0.00    -0.042 A 
ATOM      5  C5  UNL d   1      -2.331   6.000  -4.655  0.00  0.00     0.033 A 
ATOM      6  C6  UNL d   1      -2.513   5.683  -3.305  0.00  0.00    -0.057 A 
ENDROOT
BRANCH   1   7
ATOM      7  N   UNL d   1      -3.062   4.146  -1.538  0.00  0.00    -0.732 N 
ATOM      8  C   UNL d   1      -4.423   4.161  -1.048  0.00  0.00     0.284 C 
ATOM      9  H3  UNL d   1      -2.486   3.406  -1.144  0.00  0.00     0.395 HD
ENDBRANCH   1   7
TORSDOF 1
ENDMDL
