MODEL 1
REMARK minimizedAffinity -2.08380771
REMARK minimizedRMSD -1
REMARK  3 active torsions:
REMARK  status: ('A' for Active; 'I' for Inactive)
REMARK    1  A    between atoms: C3'_2  and  C2'_3 
REMARK    2  A    between atoms: C2'_3  and  C1'_4 
REMARK    3  A    between atoms: C1'_4  and  C1_5 
ROOT
ATOM      1  C1  N4B d   1      -0.225  -0.011   0.889  0.00  0.00    -0.075 A 
ATOM      2  C2  N4B d   1       0.285   1.128   0.228  0.00  0.00     0.002 A 
ATOM      3  C3  N4B d   1      -0.037   2.385   0.678  0.00  0.00     0.002 A 
ATOM      4  C4  N4B d   1      -0.879   2.528   1.771  0.00  0.00    -0.004 A 
ATOM      5  C5  N4B d   1      -1.347   1.422   2.419  0.00  0.00     0.002 A 
ATOM      6  C6  N4B d   1      -1.028   0.153   1.980  0.00  0.00     0.002 A 
ENDROOT
BRANCH   1   7
ATOM      7  C1' N4B d   1       0.030  -1.404   0.382  0.00  0.00     0.057 C 
BRANCH   7   8
ATOM      8  C2' N4B d   1       1.125  -1.358  -0.678  0.00  0.00     0.009 C 
BRANCH   8   9
ATOM      9  C3' N4B d   1       1.252  -2.677  -1.421  0.00  0.00     0.004 C 
ATOM     10  C4' N4B d   1       0.860  -2.571  -2.865  0.00  0.00     0.003 C 
ENDBRANCH   8   9
ENDBRANCH   7   8
ENDBRANCH   1   7
TORSDOF 3
ENDMDL
