MODEL 1
REMARK minimizedAffinity -4.17224789
REMARK minimizedRMSD -1
REMARK  3 active torsions:
REMARK  status: ('A' for Active; 'I' for Inactive)
REMARK    1  A    between atoms: C3'_2  and  C2'_3 
REMARK    2  A    between atoms: C2'_3  and  C1'_4 
REMARK    3  A    between atoms: C1'_4  and  C1_5 
ROOT
ATOM      1  C1  N4B d   1       0.479  -0.506   0.179  0.00  0.00    -0.075 A 
ATOM      2  C2  N4B d   1       0.718  -0.351   1.562  0.00  0.00     0.002 A 
ATOM      3  C3  N4B d   1      -0.291   0.078   2.389  0.00  0.00     0.002 A 
ATOM      4  C4  N4B d   1      -1.537   0.374   1.856  0.00  0.00    -0.004 A 
ATOM      5  C5  N4B d   1      -1.766   0.197   0.523  0.00  0.00     0.002 A 
ATOM      6  C6  N4B d   1      -0.763  -0.237  -0.320  0.00  0.00     0.002 A 
ENDROOT
BRANCH   1   7
ATOM      7  C1' N4B d   1       1.574  -0.890  -0.777  0.00  0.00     0.057 C 
BRANCH   7   8
ATOM      8  C2' N4B d   1       1.519  -2.395  -1.025  0.00  0.00     0.009 C 
BRANCH   8   9
ATOM      9  C3' N4B d   1       0.875  -2.727  -2.361  0.00  0.00     0.004 C 
ATOM     10  C4' N4B d   1       0.424  -4.154  -2.448  0.00  0.00     0.003 C 
ENDBRANCH   8   9
ENDBRANCH   7   8
ENDBRANCH   1   7
TORSDOF 3
ENDMDL
