MODEL 1
REMARK minimizedAffinity -1.07428694
REMARK minimizedRMSD -1
REMARK  3 active torsions:
REMARK  status: ('A' for Active; 'I' for Inactive)
REMARK    1  A    between atoms: C3'_2  and  C2'_3 
REMARK    2  A    between atoms: C2'_3  and  C1'_4 
REMARK    3  A    between atoms: C1'_4  and  C1_5 
ROOT
ATOM      1  C1  N4B d   1       1.084  -1.735  -1.164  0.00  0.00    -0.075 A 
ATOM      2  C2  N4B d   1       1.387  -3.007  -0.631  0.00  0.00     0.002 A 
ATOM      3  C3  N4B d   1       1.392  -4.111  -1.448  0.00  0.00     0.002 A 
ATOM      4  C4  N4B d   1       1.080  -3.971  -2.792  0.00  0.00    -0.004 A 
ATOM      5  C5  N4B d   1       0.812  -2.735  -3.304  0.00  0.00     0.002 A 
ATOM      6  C6  N4B d   1       0.808  -1.617  -2.496  0.00  0.00     0.002 A 
ENDROOT
BRANCH   1   7
ATOM      7  C1' N4B d   1       0.982  -0.513  -0.294  0.00  0.00     0.057 C 
BRANCH   7   8
ATOM      8  C2' N4B d   1      -0.490  -0.193  -0.049  0.00  0.00     0.009 C 
BRANCH   8   9
ATOM      9  C3' N4B d   1      -0.794  -0.006   1.427  0.00  0.00     0.004 C 
ATOM     10  C4' N4B d   1      -1.199   1.398   1.763  0.00  0.00     0.003 C 
ENDBRANCH   8   9
ENDBRANCH   7   8
ENDBRANCH   1   7
TORSDOF 3
ENDMDL
