MODEL 1
REMARK minimizedAffinity 0.199080214
REMARK minimizedRMSD -1
REMARK  3 active torsions:
REMARK  status: ('A' for Active; 'I' for Inactive)
REMARK    1  A    between atoms: C3'_2  and  C2'_3 
REMARK    2  A    between atoms: C2'_3  and  C1'_4 
REMARK    3  A    between atoms: C1'_4  and  C1_5 
ROOT
ATOM      1  C1  N4B d   1       0.218  -0.160   0.060  0.00  0.00    -0.075 A 
ATOM      2  C2  N4B d   1       0.321   1.142   0.598  0.00  0.00     0.002 A 
ATOM      3  C3  N4B d   1      -0.516   1.533   1.613  0.00  0.00     0.002 A 
ATOM      4  C4  N4B d   1      -1.473   0.651   2.092  0.00  0.00    -0.004 A 
ATOM      5  C5  N4B d   1      -1.550  -0.613   1.585  0.00  0.00     0.002 A 
ATOM      6  C6  N4B d   1      -0.712  -1.022   0.567  0.00  0.00     0.002 A 
ENDROOT
BRANCH   1   7
ATOM      7  C1' N4B d   1       1.053  -0.605  -1.109  0.00  0.00     0.057 C 
BRANCH   7   8
ATOM      8  C2' N4B d   1       1.077  -2.130  -1.156  0.00  0.00     0.009 C 
BRANCH   8   9
ATOM      9  C3' N4B d   1       0.275  -2.675  -2.325  0.00  0.00     0.004 C 
ATOM     10  C4' N4B d   1      -0.435  -3.954  -1.996  0.00  0.00     0.003 C 
ENDBRANCH   8   9
ENDBRANCH   7   8
ENDBRANCH   1   7
TORSDOF 3
ENDMDL
