MODEL 1
REMARK minimizedAffinity -4.01259947
REMARK minimizedRMSD -1
REMARK  3 active torsions:
REMARK  status: ('A' for Active; 'I' for Inactive)
REMARK    1  A    between atoms: C3'_2  and  C2'_3 
REMARK    2  A    between atoms: C2'_3  and  C1'_4 
REMARK    3  A    between atoms: C1'_4  and  C1_5 
ROOT
ATOM      1  C1  N4B d   1       0.624   0.145   0.049  0.00  0.00    -0.075 A 
ATOM      2  C2  N4B d   1       0.215  -0.768   1.046  0.00  0.00     0.002 A 
ATOM      3  C3  N4B d   1      -0.655  -0.366   2.030  0.00  0.00     0.002 A 
ATOM      4  C4  N4B d   1      -1.112   0.943   2.048  0.00  0.00    -0.004 A 
ATOM      5  C5  N4B d   1      -0.733   1.812   1.067  0.00  0.00     0.002 A 
ATOM      6  C6  N4B d   1       0.138   1.420   0.070  0.00  0.00     0.002 A 
ENDROOT
BRANCH   1   7
ATOM      7  C1' N4B d   1       1.641  -0.224  -0.997  0.00  0.00     0.057 C 
BRANCH   7   8
ATOM      8  C2' N4B d   1       1.548  -1.721  -1.279  0.00  0.00     0.009 C 
BRANCH   8   9
ATOM      9  C3' N4B d   1       0.562  -2.029  -2.393  0.00  0.00     0.004 C 
ATOM     10  C4' N4B d   1       0.395  -3.500  -2.630  0.00  0.00     0.003 C 
ENDBRANCH   8   9
ENDBRANCH   7   8
ENDBRANCH   1   7
TORSDOF 3
ENDMDL
