MODEL 1
REMARK minimizedAffinity -4.25229979
REMARK minimizedRMSD -1
REMARK  3 active torsions:
REMARK  status: ('A' for Active; 'I' for Inactive)
REMARK    1  A    between atoms: C3'_2  and  C2'_3 
REMARK    2  A    between atoms: C2'_3  and  C1'_4 
REMARK    3  A    between atoms: C1'_4  and  C1_5 
ROOT
ATOM      1  C1  N4B d   1      -0.726   0.910   0.789  0.00  0.00    -0.075 A 
ATOM      2  C2  N4B d   1      -0.257   1.927  -0.072  0.00  0.00     0.002 A 
ATOM      3  C3  N4B d   1      -0.480   3.246   0.239  0.00  0.00     0.002 A 
ATOM      4  C4  N4B d   1      -1.182   3.570   1.390  0.00  0.00    -0.004 A 
ATOM      5  C5  N4B d   1      -1.609   2.583   2.229  0.00  0.00     0.002 A 
ATOM      6  C6  N4B d   1      -1.389   1.253   1.931  0.00  0.00     0.002 A 
ENDROOT
BRANCH   1   7
ATOM      7  C1' N4B d   1      -0.581  -0.548   0.448  0.00  0.00     0.057 C 
BRANCH   7   8
ATOM      8  C2' N4B d   1       0.685  -0.746  -0.381  0.00  0.00     0.009 C 
BRANCH   8   9
ATOM      9  C3' N4B d   1       0.459  -1.690  -1.548  0.00  0.00     0.004 C 
ATOM     10  C4' N4B d   1       1.243  -2.962  -1.427  0.00  0.00     0.003 C 
ENDBRANCH   8   9
ENDBRANCH   7   8
ENDBRANCH   1   7
TORSDOF 3
ENDMDL
