MODEL 1
REMARK minimizedAffinity -4.57118702
REMARK minimizedRMSD -1
REMARK  3 active torsions:
REMARK  status: ('A' for Active; 'I' for Inactive)
REMARK    1  A    between atoms: C3'_2  and  C2'_3 
REMARK    2  A    between atoms: C2'_3  and  C1'_4 
REMARK    3  A    between atoms: C1'_4  and  C1_5 
ROOT
ATOM      1  C1  N4B d   1      -0.566   0.985   0.180  0.00  0.00    -0.075 A 
ATOM      2  C2  N4B d   1       0.068   1.933  -0.652  0.00  0.00     0.002 A 
ATOM      3  C3  N4B d   1      -0.106   3.276  -0.420  0.00  0.00     0.002 A 
ATOM      4  C4  N4B d   1      -0.921   3.692   0.622  0.00  0.00    -0.004 A 
ATOM      5  C5  N4B d   1      -1.510   2.769   1.437  0.00  0.00     0.002 A 
ATOM      6  C6  N4B d   1      -1.340   1.417   1.218  0.00  0.00     0.002 A 
ENDROOT
BRANCH   1   7
ATOM      7  C1' N4B d   1      -0.474  -0.493  -0.086  0.00  0.00     0.057 C 
BRANCH   7   8
ATOM      8  C2' N4B d   1       0.590  -0.744  -1.150  0.00  0.00     0.009 C 
BRANCH   8   9
ATOM      9  C3' N4B d   1       1.149  -2.155  -1.072  0.00  0.00     0.004 C 
ATOM     10  C4' N4B d   1       0.427  -3.116  -1.968  0.00  0.00     0.003 C 
ENDBRANCH   8   9
ENDBRANCH   7   8
ENDBRANCH   1   7
TORSDOF 3
ENDMDL
