MODEL 1
REMARK minimizedAffinity -5.65815639
REMARK minimizedRMSD -1
REMARK  3 active torsions:
REMARK  status: ('A' for Active; 'I' for Inactive)
REMARK    1  A    between atoms: C3'_2  and  C2'_3 
REMARK    2  A    between atoms: C2'_3  and  C1'_4 
REMARK    3  A    between atoms: C1'_4  and  C1_5 
ROOT
ATOM      1  C1  N4B d   1      -0.523   0.661   0.169  0.00  0.00    -0.075 A 
ATOM      2  C2  N4B d   1      -0.068   1.671  -0.708  0.00  0.00     0.002 A 
ATOM      3  C3  N4B d   1      -0.219   2.993  -0.370  0.00  0.00     0.002 A 
ATOM      4  C4  N4B d   1      -0.836   3.329   0.826  0.00  0.00    -0.004 A 
ATOM      5  C5  N4B d   1      -1.250   2.348   1.679  0.00  0.00     0.002 A 
ATOM      6  C6  N4B d   1      -1.101   1.015   1.354  0.00  0.00     0.002 A 
ENDROOT
BRANCH   1   7
ATOM      7  C1' N4B d   1      -0.457  -0.796  -0.196  0.00  0.00     0.057 C 
BRANCH   7   8
ATOM      8  C2' N4B d   1       0.817  -1.056  -0.995  0.00  0.00     0.009 C 
BRANCH   8   9
ATOM      9  C3' N4B d   1       0.564  -1.959  -2.190  0.00  0.00     0.004 C 
ATOM     10  C4' N4B d   1       1.024  -3.368  -1.960  0.00  0.00     0.003 C 
ENDBRANCH   8   9
ENDBRANCH   7   8
ENDBRANCH   1   7
TORSDOF 3
ENDMDL
