MODEL 1
REMARK minimizedAffinity -1.08602846
REMARK minimizedRMSD -1
REMARK  0 active torsions:
REMARK  status: ('A' for Active; 'I' for Inactive)
ROOT
ATOM      1  C   UNL d   1      -1.854  -1.500   0.957  0.00  0.00     0.078 C 
ATOM      2  C1  UNL d   1      -2.316  -1.310  -0.456  0.00  0.00    -0.077 A 
ATOM      3  C2  UNL d   1      -2.194  -2.338  -1.399  0.00  0.00    -0.001 A 
ATOM      4  C3  UNL d   1      -2.620  -2.143  -2.715  0.00  0.00     0.003 A 
ATOM      5  C4  UNL d   1      -3.169  -0.921  -3.099  0.00  0.00    -0.005 A 
ATOM      6  C5  UNL d   1      -3.292   0.108  -2.168  0.00  0.00     0.003 A 
ATOM      7  C6  UNL d   1      -2.867  -0.084  -0.853  0.00  0.00    -0.001 A 
ENDROOT
TORSDOF 0
ENDMDL
