MODEL 1
REMARK minimizedAffinity 3.43167162
REMARK minimizedRMSD -1
REMARK  0 active torsions:
REMARK  status: ('A' for Active; 'I' for Inactive)
ROOT
ATOM      1  C   UNL d   1       1.132  -2.204   6.000  0.00  0.00     0.078 C 
ATOM      2  C1  UNL d   1       1.564  -1.660   4.671  0.00  0.00    -0.077 A 
ATOM      3  C2  UNL d   1       1.167  -0.384   4.250  0.00  0.00    -0.001 A 
ATOM      4  C3  UNL d   1       1.569   0.105   3.006  0.00  0.00     0.003 A 
ATOM      5  C4  UNL d   1       2.368  -0.674   2.172  0.00  0.00    -0.005 A 
ATOM      6  C5  UNL d   1       2.765  -1.946   2.581  0.00  0.00     0.003 A 
ATOM      7  C6  UNL d   1       2.365  -2.437   3.825  0.00  0.00    -0.001 A 
ENDROOT
TORSDOF 0
ENDMDL
