MODEL 1
REMARK minimizedAffinity 3.33839488
REMARK minimizedRMSD -1
REMARK  0 active torsions:
REMARK  status: ('A' for Active; 'I' for Inactive)
ROOT
ATOM      1  C   UNL d   1       2.011  -2.930   1.601  0.00  0.00     0.078 C 
ATOM      2  C1  UNL d   1       0.797  -2.057   1.495  0.00  0.00    -0.077 A 
ATOM      3  C2  UNL d   1      -0.442  -2.587   1.115  0.00  0.00    -0.001 A 
ATOM      4  C3  UNL d   1      -1.562  -1.761   1.012  0.00  0.00     0.003 A 
ATOM      5  C4  UNL d   1      -1.455  -0.399   1.286  0.00  0.00    -0.005 A 
ATOM      6  C5  UNL d   1      -0.226   0.138   1.663  0.00  0.00     0.003 A 
ATOM      7  C6  UNL d   1       0.896  -0.687   1.767  0.00  0.00    -0.001 A 
ENDROOT
TORSDOF 0
ENDMDL
