MODEL 1
REMARK minimizedAffinity 6.862885
REMARK minimizedRMSD -1
REMARK  0 active torsions:
REMARK  status: ('A' for Active; 'I' for Inactive)
ROOT
ATOM      1  C   UNL d   1      -2.300  -4.697   0.100  0.00  0.00     0.078 C 
ATOM      2  C1  UNL d   1      -2.581  -3.238  -0.104  0.00  0.00    -0.077 A 
ATOM      3  C2  UNL d   1      -3.407  -2.801  -1.147  0.00  0.00    -0.001 A 
ATOM      4  C3  UNL d   1      -3.652  -1.439  -1.330  0.00  0.00     0.003 A 
ATOM      5  C4  UNL d   1      -3.074  -0.503  -0.475  0.00  0.00    -0.005 A 
ATOM      6  C5  UNL d   1      -2.249  -0.928   0.564  0.00  0.00     0.003 A 
ATOM      7  C6  UNL d   1      -2.003  -2.289   0.749  0.00  0.00    -0.001 A 
ENDROOT
TORSDOF 0
ENDMDL
