MODEL 1
REMARK minimizedAffinity 3.65654922
REMARK minimizedRMSD -1
REMARK  0 active torsions:
REMARK  status: ('A' for Active; 'I' for Inactive)
ROOT
ATOM      1  C   UNL d   1       1.300   1.116   4.097  0.00  0.00     0.078 C 
ATOM      2  C1  UNL d   1       1.694  -0.135   3.370  0.00  0.00    -0.077 A 
ATOM      3  C2  UNL d   1       2.172  -1.253   4.064  0.00  0.00    -0.001 A 
ATOM      4  C3  UNL d   1       2.544  -2.407   3.373  0.00  0.00     0.003 A 
ATOM      5  C4  UNL d   1       2.445  -2.454   1.984  0.00  0.00    -0.005 A 
ATOM      6  C5  UNL d   1       1.974  -1.345   1.284  0.00  0.00     0.003 A 
ATOM      7  C6  UNL d   1       1.600  -0.190   1.973  0.00  0.00    -0.001 A 
ENDROOT
TORSDOF 0
ENDMDL
