MODEL 1
REMARK minimizedAffinity 6.87670517
REMARK minimizedRMSD -1
REMARK  0 active torsions:
REMARK  status: ('A' for Active; 'I' for Inactive)
ROOT
ATOM      1  C   UNL d   1       1.185  -0.377   2.172  0.00  0.00     0.078 C 
ATOM      2  C1  UNL d   1      -0.030  -0.078   1.347  0.00  0.00    -0.077 A 
ATOM      3  C2  UNL d   1      -0.139   1.121   0.632  0.00  0.00    -0.001 A 
ATOM      4  C3  UNL d   1      -1.281   1.391  -0.125  0.00  0.00     0.003 A 
ATOM      5  C4  UNL d   1      -2.323   0.467  -0.172  0.00  0.00    -0.005 A 
ATOM      6  C5  UNL d   1      -2.225  -0.728   0.538  0.00  0.00     0.003 A 
ATOM      7  C6  UNL d   1      -1.084  -0.999   1.295  0.00  0.00    -0.001 A 
ENDROOT
TORSDOF 0
ENDMDL
