MODEL 1
REMARK minimizedAffinity 4.4073019
REMARK minimizedRMSD -1
REMARK  0 active torsions:
REMARK  status: ('A' for Active; 'I' for Inactive)
ROOT
ATOM      1  C   UNL d   1      -3.694   1.157  -2.740  0.00  0.00     0.078 C 
ATOM      2  C1  UNL d   1      -3.828   2.530  -3.327  0.00  0.00    -0.077 A 
ATOM      3  C2  UNL d   1      -3.540   2.770  -4.676  0.00  0.00    -0.001 A 
ATOM      4  C3  UNL d   1      -3.660   4.055  -5.206  0.00  0.00     0.003 A 
ATOM      5  C4  UNL d   1      -4.067   5.112  -4.394  0.00  0.00    -0.005 A 
ATOM      6  C5  UNL d   1      -4.353   4.884  -3.049  0.00  0.00     0.003 A 
ATOM      7  C6  UNL d   1      -4.234   3.599  -2.517  0.00  0.00    -0.001 A 
ENDROOT
TORSDOF 0
ENDMDL
