MODEL 1
REMARK minimizedAffinity 10.8044987
REMARK minimizedRMSD -1
REMARK  0 active torsions:
REMARK  status: ('A' for Active; 'I' for Inactive)
ROOT
ATOM      1  C   UNL d   1       1.364  -2.281   5.982  0.00  0.00     0.078 C 
ATOM      2  C1  UNL d   1       1.323  -1.405   4.766  0.00  0.00    -0.077 A 
ATOM      3  C2  UNL d   1       1.255  -0.011   4.883  0.00  0.00    -0.001 A 
ATOM      4  C3  UNL d   1       1.208   0.792   3.743  0.00  0.00     0.003 A 
ATOM      5  C4  UNL d   1       1.226   0.210   2.477  0.00  0.00    -0.005 A 
ATOM      6  C5  UNL d   1       1.290  -1.176   2.350  0.00  0.00     0.003 A 
ATOM      7  C6  UNL d   1       1.338  -1.980   3.489  0.00  0.00    -0.001 A 
ENDROOT
TORSDOF 0
ENDMDL
