MODEL 1
REMARK minimizedAffinity -3.64256549
REMARK minimizedRMSD -1
REMARK  1 active torsions:
REMARK  status: ('A' for Active; 'I' for Inactive)
REMARK    1  A    between atoms: C3_4  and  O_7 
ROOT
ATOM      1  C   UNL d   1       3.688  -5.084   4.949  0.00  0.00    -0.033 A 
ATOM      2  C1  UNL d   1       3.592  -4.168   5.998  0.00  0.00     0.039 A 
ATOM      3  C2  UNL d   1       4.280  -2.955   5.934  0.00  0.00    -0.080 A 
ATOM      4  C3  UNL d   1       5.058  -2.669   4.815  0.00  0.00     0.150 A 
ATOM      5  C4  UNL d   1       5.155  -3.575   3.764  0.00  0.00    -0.007 A 
ATOM      6  C5  UNL d   1       4.469  -4.786   3.831  0.00  0.00     0.039 A 
ENDROOT
BRANCH   4   7
ATOM      7  O   UNL d   1       5.751  -1.500   4.709  0.00  0.00    -0.526 OA
ATOM      8  H5  UNL d   1       5.612  -0.985   5.522  0.00  0.00     0.418 HD
ENDBRANCH   4   7
TORSDOF 1
ENDMDL
