MODEL 1
REMARK minimizedAffinity -2.4378531
REMARK minimizedRMSD -1
REMARK  1 active torsions:
REMARK  status: ('A' for Active; 'I' for Inactive)
REMARK    1  A    between atoms: C3_4  and  O_7 
ROOT
ATOM      1  C   UNL d   1       6.000  -1.782   3.916  0.00  0.00    -0.033 A 
ATOM      2  C1  UNL d   1       5.700  -2.947   3.208  0.00  0.00     0.039 A 
ATOM      3  C2  UNL d   1       5.389  -4.122   3.894  0.00  0.00    -0.080 A 
ATOM      4  C3  UNL d   1       5.380  -4.119   5.286  0.00  0.00     0.150 A 
ATOM      5  C4  UNL d   1       5.675  -2.960   5.998  0.00  0.00    -0.007 A 
ATOM      6  C5  UNL d   1       5.986  -1.788   5.311  0.00  0.00     0.039 A 
ENDROOT
BRANCH   4   7
ATOM      7  O   UNL d   1       5.088  -5.243   6.000  0.00  0.00    -0.526 OA
ATOM      8  H5  UNL d   1       4.934  -5.972   5.376  0.00  0.00     0.418 HD
ENDBRANCH   4   7
TORSDOF 1
ENDMDL
