MODEL 1
REMARK minimizedAffinity -3.37491059
REMARK minimizedRMSD -1
REMARK  1 active torsions:
REMARK  status: ('A' for Active; 'I' for Inactive)
REMARK    1  A    between atoms: C3_4  and  O_7 
ROOT
ATOM      1  C   UNL d   1       6.000  -4.352   2.190  0.00  0.00    -0.033 A 
ATOM      2  C1  UNL d   1       6.000  -4.847   3.496  0.00  0.00     0.039 A 
ATOM      3  C2  UNL d   1       5.629  -4.019   4.557  0.00  0.00    -0.080 A 
ATOM      4  C3  UNL d   1       5.261  -2.701   4.300  0.00  0.00     0.150 A 
ATOM      5  C4  UNL d   1       5.255  -2.203   3.002  0.00  0.00    -0.007 A 
ATOM      6  C5  UNL d   1       5.626  -3.031   1.943  0.00  0.00     0.039 A 
ENDROOT
BRANCH   4   7
ATOM      7  O   UNL d   1       4.896  -1.854   5.304  0.00  0.00    -0.526 OA
ATOM      8  H5  UNL d   1       4.976  -2.327   6.150  0.00  0.00     0.418 HD
ENDBRANCH   4   7
TORSDOF 1
ENDMDL
