MODEL 1
REMARK minimizedAffinity -2.59423304
REMARK minimizedRMSD -1
REMARK  1 active torsions:
REMARK  status: ('A' for Active; 'I' for Inactive)
REMARK    1  A    between atoms: C3_4  and  O_7 
ROOT
ATOM      1  C   UNL d   1       5.988  -4.485   1.900  0.00  0.00    -0.033 A 
ATOM      2  C1  UNL d   1       5.723  -4.768   3.241  0.00  0.00     0.039 A 
ATOM      3  C2  UNL d   1       5.467  -3.728   4.138  0.00  0.00    -0.080 A 
ATOM      4  C3  UNL d   1       5.478  -2.413   3.680  0.00  0.00     0.150 A 
ATOM      5  C4  UNL d   1       5.739  -2.125   2.345  0.00  0.00    -0.007 A 
ATOM      6  C5  UNL d   1       5.995  -3.164   1.451  0.00  0.00     0.039 A 
ENDROOT
BRANCH   4   7
ATOM      7  O   UNL d   1       5.239  -1.365   4.519  0.00  0.00    -0.526 OA
ATOM      8  H5  UNL d   1       5.104  -1.713   5.416  0.00  0.00     0.418 HD
ENDBRANCH   4   7
TORSDOF 1
ENDMDL
