MODEL 1
REMARK minimizedAffinity -3.77431798
REMARK minimizedRMSD -1
REMARK  1 active torsions:
REMARK  status: ('A' for Active; 'I' for Inactive)
REMARK    1  A    between atoms: C3_4  and  O_7 
ROOT
ATOM      1  C   UNL d   1       5.099  -5.097   3.588  0.00  0.00    -0.033 A 
ATOM      2  C1  UNL d   1       4.846  -4.976   4.956  0.00  0.00     0.039 A 
ATOM      3  C2  UNL d   1       5.055  -3.755   5.601  0.00  0.00    -0.080 A 
ATOM      4  C3  UNL d   1       5.516  -2.665   4.867  0.00  0.00     0.150 A 
ATOM      5  C4  UNL d   1       5.766  -2.778   3.503  0.00  0.00    -0.007 A 
ATOM      6  C5  UNL d   1       5.558  -3.998   2.862  0.00  0.00     0.039 A 
ENDROOT
BRANCH   4   7
ATOM      7  O   UNL d   1       5.739  -1.455   5.453  0.00  0.00    -0.526 OA
ATOM      8  H5  UNL d   1       5.551  -1.533   6.403  0.00  0.00     0.418 HD
ENDBRANCH   4   7
TORSDOF 1
ENDMDL
