MODEL 1
REMARK minimizedAffinity -3.85623121
REMARK minimizedRMSD -1
REMARK  1 active torsions:
REMARK  status: ('A' for Active; 'I' for Inactive)
REMARK    1  A    between atoms: C3_4  and  O_7 
ROOT
ATOM      1  C   UNL d   1       5.990  -4.614   2.733  0.00  0.00    -0.033 A 
ATOM      2  C1  UNL d   1       5.887  -3.306   2.257  0.00  0.00     0.039 A 
ATOM      3  C2  UNL d   1       5.697  -2.249   3.149  0.00  0.00    -0.080 A 
ATOM      4  C3  UNL d   1       5.613  -2.513   4.513  0.00  0.00     0.150 A 
ATOM      5  C4  UNL d   1       5.719  -3.813   4.995  0.00  0.00    -0.007 A 
ATOM      6  C5  UNL d   1       5.908  -4.868   4.103  0.00  0.00     0.039 A 
ENDROOT
BRANCH   4   7
ATOM      7  O   UNL d   1       5.424  -1.515   5.422  0.00  0.00    -0.526 OA
ATOM      8  H5  UNL d   1       5.340  -0.674   4.942  0.00  0.00     0.418 HD
ENDBRANCH   4   7
TORSDOF 1
ENDMDL
