MODEL 1
REMARK minimizedAffinity -3.97015524
REMARK minimizedRMSD -1
REMARK  1 active torsions:
REMARK  status: ('A' for Active; 'I' for Inactive)
REMARK    1  A    between atoms: C3_4  and  O_7 
ROOT
ATOM      1  C   UNL d   1       4.581  -3.773   5.716  0.00  0.00    -0.033 A 
ATOM      2  C1  UNL d   1       5.375  -3.684   4.571  0.00  0.00     0.039 A 
ATOM      3  C2  UNL d   1       4.779  -3.599   3.311  0.00  0.00    -0.080 A 
ATOM      4  C3  UNL d   1       3.390  -3.603   3.210  0.00  0.00     0.150 A 
ATOM      5  C4  UNL d   1       2.593  -3.686   4.347  0.00  0.00    -0.007 A 
ATOM      6  C5  UNL d   1       3.190  -3.772   5.604  0.00  0.00     0.039 A 
ENDROOT
BRANCH   4   7
ATOM      7  O   UNL d   1       2.763  -3.526   2.002  0.00  0.00    -0.526 OA
ATOM      8  H5  UNL d   1       3.440  -3.503   1.305  0.00  0.00     0.418 HD
ENDBRANCH   4   7
TORSDOF 1
ENDMDL
