MODEL 1
REMARK minimizedAffinity -3.28336
REMARK minimizedRMSD -1
REMARK  1 active torsions:
REMARK  status: ('A' for Active; 'I' for Inactive)
REMARK    1  A    between atoms: C3_4  and  O_7 
ROOT
ATOM      1  C   UNL d   1       5.999  -2.855   2.895  0.00  0.00    -0.033 A 
ATOM      2  C1  UNL d   1       5.678  -2.595   4.229  0.00  0.00     0.039 A 
ATOM      3  C2  UNL d   1       5.326  -3.643   5.081  0.00  0.00    -0.080 A 
ATOM      4  C3  UNL d   1       5.302  -4.945   4.590  0.00  0.00     0.150 A 
ATOM      5  C4  UNL d   1       5.625  -5.212   3.263  0.00  0.00    -0.007 A 
ATOM      6  C5  UNL d   1       5.974  -4.164   2.413  0.00  0.00     0.039 A 
ENDROOT
BRANCH   4   7
ATOM      7  O   UNL d   1       4.961  -6.000   5.383  0.00  0.00    -0.526 OA
ATOM      8  H5  UNL d   1       4.735  -5.661   6.265  0.00  0.00     0.418 HD
ENDBRANCH   4   7
TORSDOF 1
ENDMDL
