MODEL 1
REMARK minimizedAffinity -3.57035828
REMARK minimizedRMSD -1
REMARK  1 active torsions:
REMARK  status: ('A' for Active; 'I' for Inactive)
REMARK    1  A    between atoms: C3_4  and  O_7 
ROOT
ATOM      1  C   UNL d   1       5.948  -1.939   3.584  0.00  0.00    -0.033 A 
ATOM      2  C1  UNL d   1       5.650  -2.920   2.636  0.00  0.00     0.039 A 
ATOM      3  C2  UNL d   1       5.405  -4.233   3.040  0.00  0.00    -0.080 A 
ATOM      4  C3  UNL d   1       5.461  -4.553   4.394  0.00  0.00     0.150 A 
ATOM      5  C4  UNL d   1       5.754  -3.581   5.345  0.00  0.00    -0.007 A 
ATOM      6  C5  UNL d   1       5.998  -2.270   4.939  0.00  0.00     0.039 A 
ENDROOT
BRANCH   4   7
ATOM      7  O   UNL d   1       5.234  -5.823   4.836  0.00  0.00    -0.526 OA
ATOM      8  H5  UNL d   1       5.073  -6.393   4.066  0.00  0.00     0.418 HD
ENDBRANCH   4   7
TORSDOF 1
ENDMDL
