MODEL 1
REMARK minimizedAffinity 1.75256586
REMARK minimizedRMSD -1
REMARK  1 active torsions:
REMARK  status: ('A' for Active; 'I' for Inactive)
REMARK    1  A    between atoms: C3_4  and  O_7 
ROOT
ATOM      1  C   UNL d   1       5.631  -2.030   2.185  0.00  0.00    -0.033 A 
ATOM      2  C1  UNL d   1       6.000  -3.025   1.278  0.00  0.00     0.039 A 
ATOM      3  C2  UNL d   1       6.000  -4.365   1.670  0.00  0.00    -0.080 A 
ATOM      4  C3  UNL d   1       5.629  -4.696   2.971  0.00  0.00     0.150 A 
ATOM      5  C4  UNL d   1       5.256  -3.710   3.879  0.00  0.00    -0.007 A 
ATOM      6  C5  UNL d   1       5.258  -2.373   3.485  0.00  0.00     0.039 A 
ENDROOT
BRANCH   4   7
ATOM      7  O   UNL d   1       5.618  -5.989   3.401  0.00  0.00    -0.526 OA
ATOM      8  H5  UNL d   1       5.925  -6.558   2.675  0.00  0.00     0.418 HD
ENDBRANCH   4   7
TORSDOF 1
ENDMDL
