MODEL 1
REMARK minimizedAffinity -3.28204226
REMARK minimizedRMSD -1
REMARK  1 active torsions:
REMARK  status: ('A' for Active; 'I' for Inactive)
REMARK    1  A    between atoms: C3_4  and  O_7 
ROOT
ATOM      1  C   UNL d   1       4.996  -5.867   4.909  0.00  0.00    -0.033 A 
ATOM      2  C1  UNL d   1       5.531  -5.286   3.758  0.00  0.00     0.039 A 
ATOM      3  C2  UNL d   1       5.717  -3.904   3.693  0.00  0.00    -0.080 A 
ATOM      4  C3  UNL d   1       5.366  -3.115   4.785  0.00  0.00     0.150 A 
ATOM      5  C4  UNL d   1       4.836  -3.688   5.937  0.00  0.00    -0.007 A 
ATOM      6  C5  UNL d   1       4.650  -5.068   5.999  0.00  0.00     0.039 A 
ENDROOT
BRANCH   4   7
ATOM      7  O   UNL d   1       5.525  -1.761   4.767  0.00  0.00    -0.526 OA
ATOM      8  H5  UNL d   1       5.873  -1.504   3.897  0.00  0.00     0.418 HD
ENDBRANCH   4   7
TORSDOF 1
ENDMDL
