MODEL 1
REMARK minimizedAffinity -2.36659002
REMARK minimizedRMSD -1
REMARK  1 active torsions:
REMARK  status: ('A' for Active; 'I' for Inactive)
REMARK    1  A    between atoms: C3_4  and  O_7 
ROOT
ATOM      1  C   UNL d   1       5.970  -2.556   4.936  0.00  0.00    -0.033 A 
ATOM      2  C1  UNL d   1       5.945  -3.951   4.903  0.00  0.00     0.039 A 
ATOM      3  C2  UNL d   1       5.944  -4.622   3.679  0.00  0.00    -0.080 A 
ATOM      4  C3  UNL d   1       5.970  -3.887   2.497  0.00  0.00     0.150 A 
ATOM      5  C4  UNL d   1       6.000  -2.497   2.522  0.00  0.00    -0.007 A 
ATOM      6  C5  UNL d   1       5.999  -1.829   3.746  0.00  0.00     0.039 A 
ENDROOT
BRANCH   4   7
ATOM      7  O   UNL d   1       5.966  -4.498   1.278  0.00  0.00    -0.526 OA
ATOM      8  H5  UNL d   1       5.915  -5.459   1.415  0.00  0.00     0.418 HD
ENDBRANCH   4   7
TORSDOF 1
ENDMDL
