MODEL 1
REMARK minimizedAffinity -3.15130234
REMARK minimizedRMSD -1
REMARK  1 active torsions:
REMARK  status: ('A' for Active; 'I' for Inactive)
REMARK    1  A    between atoms: C3_4  and  O_7 
ROOT
ATOM      1  C   UNL d   1       6.000  -2.605   2.746  0.00  0.00    -0.033 A 
ATOM      2  C1  UNL d   1       6.000  -2.314   4.112  0.00  0.00     0.039 A 
ATOM      3  C2  UNL d   1       5.138  -2.995   4.973  0.00  0.00    -0.080 A 
ATOM      4  C3  UNL d   1       4.283  -3.965   4.457  0.00  0.00     0.150 A 
ATOM      5  C4  UNL d   1       4.281  -4.264   3.099  0.00  0.00    -0.007 A 
ATOM      6  C5  UNL d   1       5.141  -3.582   2.240  0.00  0.00     0.039 A 
ENDROOT
BRANCH   4   7
ATOM      7  O   UNL d   1       3.421  -4.654   5.258  0.00  0.00    -0.526 OA
ATOM      8  H5  UNL d   1       3.513  -4.321   6.167  0.00  0.00     0.418 HD
ENDBRANCH   4   7
TORSDOF 1
ENDMDL
