MODEL 1
REMARK minimizedAffinity -3.84486747
REMARK minimizedRMSD -1
REMARK  1 active torsions:
REMARK  status: ('A' for Active; 'I' for Inactive)
REMARK    1  A    between atoms: C3_4  and  O_7 
ROOT
ATOM      1  C   UNL d   1       5.603  -2.502   4.063  0.00  0.00    -0.033 A 
ATOM      2  C1  UNL d   1       4.697  -2.394   3.006  0.00  0.00     0.039 A 
ATOM      3  C2  UNL d   1       3.523  -3.148   3.010  0.00  0.00    -0.080 A 
ATOM      4  C3  UNL d   1       3.265  -4.005   4.077  0.00  0.00     0.150 A 
ATOM      5  C4  UNL d   1       4.160  -4.114   5.136  0.00  0.00    -0.007 A 
ATOM      6  C5  UNL d   1       5.333  -3.361   5.129  0.00  0.00     0.039 A 
ENDROOT
BRANCH   4   7
ATOM      7  O   UNL d   1       2.134  -4.765   4.123  0.00  0.00    -0.526 OA
ATOM      8  H5  UNL d   1       1.623  -4.607   3.311  0.00  0.00     0.418 HD
ENDBRANCH   4   7
TORSDOF 1
ENDMDL
