MODEL 1
REMARK minimizedAffinity -4.01452637
REMARK minimizedRMSD -1
REMARK  1 active torsions:
REMARK  status: ('A' for Active; 'I' for Inactive)
REMARK    1  A    between atoms: C3_4  and  O_7 
ROOT
ATOM      1  C   UNL d   1       5.896  -2.928   2.507  0.00  0.00    -0.033 A 
ATOM      2  C1  UNL d   1       5.999  -4.315   2.390  0.00  0.00     0.039 A 
ATOM      3  C2  UNL d   1       5.741  -5.132   3.492  0.00  0.00    -0.080 A 
ATOM      4  C3  UNL d   1       5.380  -4.550   4.704  0.00  0.00     0.150 A 
ATOM      5  C4  UNL d   1       5.272  -3.169   4.827  0.00  0.00    -0.007 A 
ATOM      6  C5  UNL d   1       5.531  -2.355   3.725  0.00  0.00     0.039 A 
ENDROOT
BRANCH   4   7
ATOM      7  O   UNL d   1       5.123  -5.306   5.809  0.00  0.00    -0.526 OA
ATOM      8  H5  UNL d   1       5.266  -6.240   5.583  0.00  0.00     0.418 HD
ENDBRANCH   4   7
TORSDOF 1
ENDMDL
