MODEL 1
REMARK minimizedAffinity -1.40134442
REMARK minimizedRMSD -1
REMARK  1 active torsions:
REMARK  status: ('A' for Active; 'I' for Inactive)
REMARK    1  A    between atoms: C3_4  and  O_7 
ROOT
ATOM      1  C   UNL d   1       5.978  -2.684   5.964  0.00  0.00    -0.033 A 
ATOM      2  C1  UNL d   1       5.993  -4.044   5.647  0.00  0.00     0.039 A 
ATOM      3  C2  UNL d   1       5.999  -4.451   4.311  0.00  0.00    -0.080 A 
ATOM      4  C3  UNL d   1       5.992  -3.490   3.304  0.00  0.00     0.150 A 
ATOM      5  C4  UNL d   1       5.981  -2.133   3.613  0.00  0.00    -0.007 A 
ATOM      6  C5  UNL d   1       5.973  -1.729   4.947  0.00  0.00     0.039 A 
ENDROOT
BRANCH   4   7
ATOM      7  O   UNL d   1       5.992  -3.838   1.986  0.00  0.00    -0.526 OA
ATOM      8  H5  UNL d   1       5.971  -4.808   1.924  0.00  0.00     0.418 HD
ENDBRANCH   4   7
TORSDOF 1
ENDMDL
