MODEL 1
REMARK minimizedAffinity -3.36564779
REMARK minimizedRMSD -1
REMARK  1 active torsions:
REMARK  status: ('A' for Active; 'I' for Inactive)
REMARK    1  A    between atoms: C3_4  and  O_7 
ROOT
ATOM      1  C   UNL d   1       6.000  -4.853   2.514  0.00  0.00    -0.033 A 
ATOM      2  C1  UNL d   1       6.000  -5.331   3.826  0.00  0.00     0.039 A 
ATOM      3  C2  UNL d   1       5.748  -4.461   4.888  0.00  0.00    -0.080 A 
ATOM      4  C3  UNL d   1       5.497  -3.117   4.625  0.00  0.00     0.150 A 
ATOM      5  C4  UNL d   1       5.492  -2.635   3.320  0.00  0.00    -0.007 A 
ATOM      6  C5  UNL d   1       5.744  -3.505   2.261  0.00  0.00     0.039 A 
ENDROOT
BRANCH   4   7
ATOM      7  O   UNL d   1       5.251  -2.228   5.629  0.00  0.00    -0.526 OA
ATOM      8  H5  UNL d   1       5.316  -2.697   6.478  0.00  0.00     0.418 HD
ENDBRANCH   4   7
TORSDOF 1
ENDMDL
