MODEL 1
REMARK minimizedAffinity -5.08544874
REMARK minimizedRMSD -1
REMARK  1 active torsions:
REMARK  status: ('A' for Active; 'I' for Inactive)
REMARK    1  A    between atoms: C1_2  and  C2_3 
ROOT
ATOM      1  C2  UNL d   1       0.104  -0.225  -0.242  0.00  0.00    -0.073 A 
ATOM      2  C3  UNL d   1       1.051  -0.750  -1.128  0.00  0.00    -0.002 A 
ATOM      3  C4  UNL d   1       2.195  -1.385  -0.642  0.00  0.00     0.004 A 
ATOM      4  C5  UNL d   1       2.400  -1.507   0.732  0.00  0.00    -0.004 A 
ATOM      5  C6  UNL d   1       1.459  -0.999   1.633  0.00  0.00    -0.075 A 
ATOM      6  C7  UNL d   1       1.665  -1.120   3.115  0.00  0.00     0.076 C 
ATOM      7  C8  UNL d   1       0.314  -0.360   1.138  0.00  0.00     0.001 A 
ENDROOT
BRANCH   1   8
ATOM      8  C1  UNL d   1      -1.136   0.456  -0.762  0.00  0.00     0.053 C 
ATOM      9  C   UNL d   1      -0.809   1.727  -1.530  0.00  0.00     0.018 C 
ENDBRANCH   1   8
TORSDOF 1
ENDMDL
