MODEL 1
REMARK minimizedAffinity -4.46143341
REMARK minimizedRMSD -1
REMARK  1 active torsions:
REMARK  status: ('A' for Active; 'I' for Inactive)
REMARK    1  A    between atoms: C1_2  and  C2_3 
ROOT
ATOM      1  C2  UNL d   1       0.515  -0.336  -0.111  0.00  0.00    -0.073 A 
ATOM      2  C3  UNL d   1      -0.179  -0.029   1.065  0.00  0.00    -0.002 A 
ATOM      3  C4  UNL d   1       0.323  -0.429   2.304  0.00  0.00     0.004 A 
ATOM      4  C5  UNL d   1       1.524  -1.133   2.382  0.00  0.00    -0.004 A 
ATOM      5  C6  UNL d   1       2.238  -1.440   1.219  0.00  0.00    -0.075 A 
ATOM      6  C7  UNL d   1       3.531  -2.199   1.284  0.00  0.00     0.076 C 
ATOM      7  C8  UNL d   1       1.727  -1.036  -0.022  0.00  0.00     0.001 A 
ENDROOT
BRANCH   1   8
ATOM      8  C1  UNL d   1      -0.018   0.100  -1.451  0.00  0.00     0.053 C 
ATOM      9  C   UNL d   1      -1.146   1.110  -1.314  0.00  0.00     0.018 C 
ENDBRANCH   1   8
TORSDOF 1
ENDMDL
