MODEL 1
REMARK minimizedAffinity -5.99956942
REMARK minimizedRMSD -1
REMARK  1 active torsions:
REMARK  status: ('A' for Active; 'I' for Inactive)
REMARK    1  A    between atoms: C1_2  and  C2_3 
ROOT
ATOM      1  C2  UNL d   1       1.022  -0.825  -0.421  0.00  0.00    -0.073 A 
ATOM      2  C3  UNL d   1       2.092  -1.726  -0.384  0.00  0.00    -0.002 A 
ATOM      3  C4  UNL d   1       2.649  -2.109   0.837  0.00  0.00     0.004 A 
ATOM      4  C5  UNL d   1       2.138  -1.601   2.032  0.00  0.00    -0.004 A 
ATOM      5  C6  UNL d   1       1.061  -0.709   2.015  0.00  0.00    -0.075 A 
ATOM      6  C7  UNL d   1       0.501  -0.152   3.291  0.00  0.00     0.076 C 
ATOM      7  C8  UNL d   1       0.509  -0.328   0.785  0.00  0.00     0.001 A 
ENDROOT
BRANCH   1   8
ATOM      8  C1  UNL d   1       0.413  -0.414  -1.737  0.00  0.00     0.053 C 
ATOM      9  C   UNL d   1      -1.024   0.056  -1.578  0.00  0.00     0.018 C 
ENDBRANCH   1   8
TORSDOF 1
ENDMDL
