MODEL 1
REMARK minimizedAffinity -3.58392453
REMARK minimizedRMSD -1
REMARK  1 active torsions:
REMARK  status: ('A' for Active; 'I' for Inactive)
REMARK    1  A    between atoms: C1_2  and  C2_3 
ROOT
ATOM      1  C2  UNL d   1       0.939  -0.812   1.699  0.00  0.00    -0.073 A 
ATOM      2  C3  UNL d   1      -0.232  -1.020   2.437  0.00  0.00    -0.002 A 
ATOM      3  C4  UNL d   1      -1.466  -0.606   1.933  0.00  0.00     0.004 A 
ATOM      4  C5  UNL d   1      -1.543   0.014   0.686  0.00  0.00    -0.004 A 
ATOM      5  C6  UNL d   1      -0.385   0.220  -0.072  0.00  0.00    -0.075 A 
ATOM      6  C7  UNL d   1      -0.451   0.887  -1.415  0.00  0.00     0.076 C 
ATOM      7  C8  UNL d   1       0.850  -0.197   0.442  0.00  0.00     0.001 A 
ENDROOT
BRANCH   1   8
ATOM      8  C1  UNL d   1       2.272  -1.263   2.236  0.00  0.00     0.053 C 
ATOM      9  C   UNL d   1       3.040  -2.101   1.225  0.00  0.00     0.018 C 
ENDBRANCH   1   8
TORSDOF 1
ENDMDL
