MODEL 1
REMARK minimizedAffinity -5.9397707
REMARK minimizedRMSD -1
REMARK  1 active torsions:
REMARK  status: ('A' for Active; 'I' for Inactive)
REMARK    1  A    between atoms: C1_2  and  C2_3 
ROOT
ATOM      1  C2  UNL d   1      -0.026   0.027   0.053  0.00  0.00    -0.073 A 
ATOM      2  C3  UNL d   1      -0.871   0.476   1.075  0.00  0.00    -0.002 A 
ATOM      3  C4  UNL d   1      -0.608   0.142   2.404  0.00  0.00     0.004 A 
ATOM      4  C5  UNL d   1       0.503  -0.637   2.726  0.00  0.00    -0.004 A 
ATOM      5  C6  UNL d   1       1.365  -1.085   1.720  0.00  0.00    -0.075 A 
ATOM      6  C7  UNL d   1       2.564  -1.926   2.049  0.00  0.00     0.076 C 
ATOM      7  C8  UNL d   1       1.093  -0.748   0.387  0.00  0.00     0.001 A 
ENDROOT
BRANCH   1   8
ATOM      8  C1  UNL d   1      -0.302   0.391  -1.383  0.00  0.00     0.053 C 
ATOM      9  C   UNL d   1      -0.362   1.896  -1.589  0.00  0.00     0.018 C 
ENDBRANCH   1   8
TORSDOF 1
ENDMDL
