MODEL 1
REMARK minimizedAffinity -4.7350769
REMARK minimizedRMSD -1
REMARK  1 active torsions:
REMARK  status: ('A' for Active; 'I' for Inactive)
REMARK    1  A    between atoms: C1_2  and  C2_3 
ROOT
ATOM      1  C2  UNL d   1       0.672  -0.865   1.183  0.00  0.00    -0.073 A 
ATOM      2  C3  UNL d   1       1.730  -1.501   0.522  0.00  0.00    -0.002 A 
ATOM      3  C4  UNL d   1       1.935  -1.293  -0.842  0.00  0.00     0.004 A 
ATOM      4  C5  UNL d   1       1.090  -0.445  -1.558  0.00  0.00    -0.004 A 
ATOM      5  C6  UNL d   1       0.035   0.208  -0.913  0.00  0.00    -0.075 A 
ATOM      6  C7  UNL d   1      -0.884   1.122  -1.669  0.00  0.00     0.076 C 
ATOM      7  C8  UNL d   1      -0.166  -0.007   0.457  0.00  0.00     0.001 A 
ENDROOT
BRANCH   1   8
ATOM      8  C1  UNL d   1       0.451  -1.081   2.658  0.00  0.00     0.053 C 
ATOM      9  C   UNL d   1       1.632  -1.776   3.316  0.00  0.00     0.018 C 
ENDBRANCH   1   8
TORSDOF 1
ENDMDL
