MODEL 1
REMARK minimizedAffinity -4.81091309
REMARK minimizedRMSD -1
REMARK  0 active torsions:
REMARK  status: ('A' for Active; 'I' for Inactive)
ROOT
ATOM      1  C   UNL d   1      -0.887  -3.055  -2.493  0.00  0.00     0.077 C 
ATOM      2  C1  UNL d   1      -0.493  -2.170  -1.348  0.00  0.00    -0.074 A 
ATOM      3  C2  UNL d   1       0.404  -2.614  -0.372  0.00  0.00    -0.005 A 
ATOM      4  C3  UNL d   1       0.769  -1.775   0.682  0.00  0.00     0.006 A 
ATOM      5  C4  UNL d   1       0.240  -0.487   0.770  0.00  0.00    -0.005 A 
ATOM      6  C5  UNL d   1      -0.658  -0.025  -0.198  0.00  0.00    -0.074 A 
ATOM      7  C6  UNL d   1      -1.228   1.360  -0.124  0.00  0.00     0.077 C 
ATOM      8  C7  UNL d   1      -1.014  -0.871  -1.257  0.00  0.00    -0.001 A 
ENDROOT
TORSDOF 0
ENDMDL
