MODEL 1
REMARK minimizedAffinity -3.89473343
REMARK minimizedRMSD -1
REMARK  0 active torsions:
REMARK  status: ('A' for Active; 'I' for Inactive)
ROOT
ATOM      1  C   UNL d   1       1.126   3.271   0.057  0.00  0.00     0.077 C 
ATOM      2  C1  UNL d   1       0.147   2.137   0.127  0.00  0.00    -0.074 A 
ATOM      3  C2  UNL d   1      -1.209   2.372   0.379  0.00  0.00    -0.005 A 
ATOM      4  C3  UNL d   1      -2.109   1.308   0.432  0.00  0.00     0.006 A 
ATOM      5  C4  UNL d   1      -1.664   0.001   0.233  0.00  0.00    -0.005 A 
ATOM      6  C5  UNL d   1      -0.313  -0.254  -0.022  0.00  0.00    -0.074 A 
ATOM      7  C6  UNL d   1       0.180  -1.652  -0.248  0.00  0.00     0.077 C 
ATOM      8  C7  UNL d   1       0.584   0.821  -0.080  0.00  0.00    -0.001 A 
ENDROOT
TORSDOF 0
ENDMDL
