MODEL 1
REMARK minimizedAffinity 3.01610851
REMARK minimizedRMSD -1
REMARK  0 active torsions:
REMARK  status: ('A' for Active; 'I' for Inactive)
ROOT
ATOM      1  C   UNL d   1      -1.668  -1.812  -0.056  0.00  0.00     0.077 C 
ATOM      2  C1  UNL d   1      -1.275  -0.407   0.290  0.00  0.00    -0.074 A 
ATOM      3  C2  UNL d   1      -2.215   0.629   0.267  0.00  0.00    -0.005 A 
ATOM      4  C3  UNL d   1      -1.838   1.929   0.601  0.00  0.00     0.006 A 
ATOM      5  C4  UNL d   1      -0.518   2.207   0.961  0.00  0.00    -0.005 A 
ATOM      6  C5  UNL d   1       0.435   1.184   0.991  0.00  0.00    -0.074 A 
ATOM      7  C6  UNL d   1       1.855   1.464   1.386  0.00  0.00     0.077 C 
ATOM      8  C7  UNL d   1       0.046  -0.121   0.661  0.00  0.00    -0.001 A 
ENDROOT
TORSDOF 0
ENDMDL
