MODEL 1
REMARK minimizedAffinity -4.12635469
REMARK minimizedRMSD -1
REMARK  0 active torsions:
REMARK  status: ('A' for Active; 'I' for Inactive)
ROOT
ATOM      1  C   UNL d   1      -0.686   3.808   3.107  0.00  0.00     0.077 C 
ATOM      2  C1  UNL d   1      -0.029   3.263   1.874  0.00  0.00    -0.074 A 
ATOM      3  C2  UNL d   1       1.104   3.877   1.332  0.00  0.00    -0.005 A 
ATOM      4  C3  UNL d   1       1.710   3.354   0.190  0.00  0.00     0.006 A 
ATOM      5  C4  UNL d   1       1.190   2.211  -0.420  0.00  0.00    -0.005 A 
ATOM      6  C5  UNL d   1       0.058   1.582   0.108  0.00  0.00    -0.074 A 
ATOM      7  C6  UNL d   1      -0.508   0.348  -0.529  0.00  0.00     0.077 C 
ATOM      8  C7  UNL d   1      -0.541   2.111   1.260  0.00  0.00    -0.001 A 
ENDROOT
TORSDOF 0
ENDMDL
