MODEL 1
REMARK minimizedAffinity -5.16873169
REMARK minimizedRMSD -1
REMARK  0 active torsions:
REMARK  status: ('A' for Active; 'I' for Inactive)
ROOT
ATOM      1  C   UNL d   1       2.046  -1.090   0.364  0.00  0.00     0.077 C 
ATOM      2  C1  UNL d   1       1.001  -0.014   0.358  0.00  0.00    -0.074 A 
ATOM      3  C2  UNL d   1      -0.350  -0.322   0.546  0.00  0.00    -0.005 A 
ATOM      4  C3  UNL d   1      -1.309   0.691   0.548  0.00  0.00     0.006 A 
ATOM      5  C4  UNL d   1      -0.927   2.020   0.362  0.00  0.00    -0.005 A 
ATOM      6  C5  UNL d   1       0.419   2.347   0.173  0.00  0.00    -0.074 A 
ATOM      7  C6  UNL d   1       0.848   3.772  -0.019  0.00  0.00     0.077 C 
ATOM      8  C7  UNL d   1       1.378   1.325   0.179  0.00  0.00    -0.001 A 
ENDROOT
TORSDOF 0
ENDMDL
