MODEL 1
REMARK minimizedAffinity -2.48804784
REMARK minimizedRMSD -1
REMARK  0 active torsions:
REMARK  status: ('A' for Active; 'I' for Inactive)
ROOT
ATOM      1  C   UNL d   1       2.547   0.028   0.351  0.00  0.00     0.077 C 
ATOM      2  C1  UNL d   1       1.101  -0.357   0.243  0.00  0.00    -0.074 A 
ATOM      3  C2  UNL d   1       0.101   0.436   0.816  0.00  0.00    -0.005 A 
ATOM      4  C3  UNL d   1      -1.240   0.070   0.699  0.00  0.00     0.006 A 
ATOM      5  C4  UNL d   1      -1.594  -1.089   0.008  0.00  0.00    -0.005 A 
ATOM      6  C5  UNL d   1      -0.608  -1.893  -0.572  0.00  0.00    -0.074 A 
ATOM      7  C6  UNL d   1      -0.973  -3.138  -1.327  0.00  0.00     0.077 C 
ATOM      8  C7  UNL d   1       0.736  -1.516  -0.456  0.00  0.00    -0.001 A 
ENDROOT
TORSDOF 0
ENDMDL
