MODEL 1
REMARK minimizedAffinity -2.82764125
REMARK minimizedRMSD -1
REMARK  0 active torsions:
REMARK  status: ('A' for Active; 'I' for Inactive)
ROOT
ATOM      1  C   UNL d   1      -1.584   2.122   0.246  0.00  0.00     0.077 C 
ATOM      2  C1  UNL d   1      -1.048   0.738   0.033  0.00  0.00    -0.074 A 
ATOM      3  C2  UNL d   1      -0.455   0.027   1.081  0.00  0.00    -0.005 A 
ATOM      4  C3  UNL d   1       0.030  -1.264   0.870  0.00  0.00     0.006 A 
ATOM      5  C4  UNL d   1      -0.072  -1.855  -0.389  0.00  0.00    -0.005 A 
ATOM      6  C5  UNL d   1      -0.662  -1.160  -1.450  0.00  0.00    -0.074 A 
ATOM      7  C6  UNL d   1      -0.788  -1.785  -2.807  0.00  0.00     0.077 C 
ATOM      8  C7  UNL d   1      -1.154   0.134  -1.228  0.00  0.00    -0.001 A 
ENDROOT
TORSDOF 0
ENDMDL
