MODEL 1
REMARK minimizedAffinity -3.16410518
REMARK minimizedRMSD -1
REMARK  0 active torsions:
REMARK  status: ('A' for Active; 'I' for Inactive)
ROOT
ATOM      1  C   UNL d   1       2.028   1.149   1.074  0.00  0.00     0.077 C 
ATOM      2  C1  UNL d   1       0.780   0.527   0.521  0.00  0.00    -0.074 A 
ATOM      3  C2  UNL d   1      -0.459   1.163   0.651  0.00  0.00    -0.005 A 
ATOM      4  C3  UNL d   1      -1.609   0.576   0.124  0.00  0.00     0.006 A 
ATOM      5  C4  UNL d   1      -1.533  -0.650  -0.538  0.00  0.00    -0.005 A 
ATOM      6  C5  UNL d   1      -0.303  -1.300  -0.678  0.00  0.00    -0.074 A 
ATOM      7  C6  UNL d   1      -0.202  -2.614  -1.395  0.00  0.00     0.077 C 
ATOM      8  C7  UNL d   1       0.850  -0.701  -0.152  0.00  0.00    -0.001 A 
ENDROOT
TORSDOF 0
ENDMDL
