MODEL 1
REMARK minimizedAffinity -4.11283493
REMARK minimizedRMSD -1
REMARK  0 active torsions:
REMARK  status: ('A' for Active; 'I' for Inactive)
ROOT
ATOM      1  C   UNL d   1       4.297   1.339   0.243  0.00  0.00     0.077 C 
ATOM      2  C1  UNL d   1       2.846   1.719   0.245  0.00  0.00    -0.074 A 
ATOM      3  C2  UNL d   1       2.455   3.059   0.329  0.00  0.00    -0.005 A 
ATOM      4  C3  UNL d   1       1.102   3.399   0.320  0.00  0.00     0.006 A 
ATOM      5  C4  UNL d   1       0.128   2.403   0.229  0.00  0.00    -0.005 A 
ATOM      6  C5  UNL d   1       0.501   1.058   0.144  0.00  0.00    -0.074 A 
ATOM      7  C6  UNL d   1      -0.533  -0.023   0.035  0.00  0.00     0.077 C 
ATOM      8  C7  UNL d   1       1.862   0.726   0.146  0.00  0.00    -0.001 A 
ENDROOT
TORSDOF 0
ENDMDL
