MODEL 1
REMARK minimizedAffinity -6.36446142
REMARK minimizedRMSD -1
REMARK  0 active torsions:
REMARK  status: ('A' for Active; 'I' for Inactive)
ROOT
ATOM      1  C   UNL d   1      -0.572   3.103   0.596  0.00  0.00     0.077 C 
ATOM      2  C1  UNL d   1       0.609   2.199   0.396  0.00  0.00    -0.074 A 
ATOM      3  C2  UNL d   1       1.870   2.544   0.892  0.00  0.00    -0.005 A 
ATOM      4  C3  UNL d   1       2.957   1.689   0.706  0.00  0.00     0.006 A 
ATOM      5  C4  UNL d   1       2.793   0.483   0.025  0.00  0.00    -0.005 A 
ATOM      6  C5  UNL d   1       1.539   0.121  -0.477  0.00  0.00    -0.074 A 
ATOM      7  C6  UNL d   1       1.343  -1.177  -1.204  0.00  0.00     0.077 C 
ATOM      8  C7  UNL d   1       0.451   0.982  -0.281  0.00  0.00    -0.001 A 
ENDROOT
TORSDOF 0
ENDMDL
