MODEL 1
REMARK minimizedAffinity -3.30231857
REMARK minimizedRMSD -1
REMARK  0 active torsions:
REMARK  status: ('A' for Active; 'I' for Inactive)
ROOT
ATOM      1  C   UNL d   1       1.690   3.172   0.416  0.00  0.00     0.077 C 
ATOM      2  C1  UNL d   1       0.606   2.136   0.453  0.00  0.00    -0.074 A 
ATOM      3  C2  UNL d   1      -0.674   2.452   0.921  0.00  0.00    -0.005 A 
ATOM      4  C3  UNL d   1      -1.675   1.481   0.940  0.00  0.00     0.006 A 
ATOM      5  C4  UNL d   1      -1.407   0.187   0.492  0.00  0.00    -0.005 A 
ATOM      6  C5  UNL d   1      -0.134  -0.147   0.019  0.00  0.00    -0.074 A 
ATOM      7  C6  UNL d   1       0.168  -1.530  -0.476  0.00  0.00     0.077 C 
ATOM      8  C7  UNL d   1       0.865   0.836  -0.004  0.00  0.00    -0.001 A 
ENDROOT
TORSDOF 0
ENDMDL
