MODEL 1
REMARK minimizedAffinity -4.31984901
REMARK minimizedRMSD -1
REMARK  0 active torsions:
REMARK  status: ('A' for Active; 'I' for Inactive)
ROOT
ATOM      1  C   UNL d   1       2.800   1.726   1.104  0.00  0.00     0.077 C 
ATOM      2  C1  UNL d   1       1.378   1.289   0.910  0.00  0.00    -0.074 A 
ATOM      3  C2  UNL d   1       0.327   2.208   0.982  0.00  0.00    -0.005 A 
ATOM      4  C3  UNL d   1      -0.989   1.788   0.789  0.00  0.00     0.006 A 
ATOM      5  C4  UNL d   1      -1.267   0.447   0.522  0.00  0.00    -0.005 A 
ATOM      6  C5  UNL d   1      -0.228  -0.487   0.446  0.00  0.00    -0.074 A 
ATOM      7  C6  UNL d   1      -0.508  -1.930   0.151  0.00  0.00     0.077 C 
ATOM      8  C7  UNL d   1       1.092  -0.056   0.634  0.00  0.00    -0.001 A 
ENDROOT
TORSDOF 0
ENDMDL
