MODEL 1
REMARK minimizedAffinity -5.86948061
REMARK minimizedRMSD -1
REMARK  0 active torsions:
REMARK  status: ('A' for Active; 'I' for Inactive)
ROOT
ATOM      1  C   UNL d   1      -1.809   0.387   0.638  0.00  0.00     0.077 C 
ATOM      2  C1  UNL d   1      -0.377   0.827   0.572  0.00  0.00    -0.074 A 
ATOM      3  C2  UNL d   1       0.664  -0.106   0.617  0.00  0.00    -0.005 A 
ATOM      4  C3  UNL d   1       1.991   0.317   0.545  0.00  0.00     0.006 A 
ATOM      5  C4  UNL d   1       2.290   1.675   0.426  0.00  0.00    -0.005 A 
ATOM      6  C5  UNL d   1       1.263   2.622   0.378  0.00  0.00    -0.074 A 
ATOM      7  C6  UNL d   1       1.566   4.085   0.241  0.00  0.00     0.077 C 
ATOM      8  C7  UNL d   1      -0.069   2.188   0.445  0.00  0.00    -0.001 A 
ENDROOT
TORSDOF 0
ENDMDL
