MODEL 1
REMARK minimizedAffinity 0.748702288
REMARK minimizedRMSD -1
REMARK  0 active torsions:
REMARK  status: ('A' for Active; 'I' for Inactive)
ROOT
ATOM      1  C   UNL d   1      -3.130   1.488   0.384  0.00  0.00     0.077 C 
ATOM      2  C1  UNL d   1      -1.965   0.549   0.283  0.00  0.00    -0.074 A 
ATOM      3  C2  UNL d   1      -0.706   0.910   0.775  0.00  0.00    -0.005 A 
ATOM      4  C3  UNL d   1       0.366   0.022   0.683  0.00  0.00     0.006 A 
ATOM      5  C4  UNL d   1       0.191  -1.233   0.099  0.00  0.00    -0.005 A 
ATOM      6  C5  UNL d   1      -1.060  -1.612  -0.397  0.00  0.00    -0.074 A 
ATOM      7  C6  UNL d   1      -1.268  -2.961  -1.018  0.00  0.00     0.077 C 
ATOM      8  C7  UNL d   1      -2.134  -0.717  -0.295  0.00  0.00    -0.001 A 
ENDROOT
TORSDOF 0
ENDMDL
