MODEL 1
REMARK minimizedAffinity 1.44738519
REMARK minimizedRMSD -1
REMARK  0 active torsions:
REMARK  status: ('A' for Active; 'I' for Inactive)
ROOT
ATOM      1  O1  BZF d   1      -1.123  -0.397  -0.205  0.00  0.00    -0.204 OA
ATOM      2  C2  BZF d   1       0.046   0.331  -0.098  0.00  0.00     0.174 A 
ATOM      3  C3  BZF d   1       0.575   0.209   1.136  0.00  0.00    -0.012 A 
ATOM      4  C3A BZF d   1      -0.271  -0.724   1.817  0.00  0.00    -0.107 A 
ATOM      5  C4  BZF d   1      -0.255  -1.264   3.071  0.00  0.00     0.055 A 
ATOM      6  C5  BZF d   1      -1.267  -2.088   3.449  0.00  0.00    -0.016 A 
ATOM      7  C6  BZF d   1      -2.313  -2.389   2.601  0.00  0.00     0.022 A 
ATOM      8  C7  BZF d   1      -2.370  -1.882   1.345  0.00  0.00     0.029 A 
ATOM      9  C7A BZF d   1      -1.331  -1.075   0.950  0.00  0.00     0.058 A 
ENDROOT
TORSDOF 0
ENDMDL
