MODEL 1
REMARK minimizedAffinity -3.09626579
REMARK minimizedRMSD -1
REMARK  0 active torsions:
REMARK  status: ('A' for Active; 'I' for Inactive)
ROOT
ATOM      1  O1  BZF d   1      -2.926  -6.000  -6.000  0.00  0.00    -0.204 OA
ATOM      2  C2  BZF d   1      -1.669  -5.626  -5.565  0.00  0.00     0.174 A 
ATOM      3  C3  BZF d   1      -1.725  -4.460  -4.889  0.00  0.00    -0.012 A 
ATOM      4  C3A BZF d   1      -3.115  -4.128  -4.823  0.00  0.00    -0.107 A 
ATOM      5  C4  BZF d   1      -3.808  -3.092  -4.265  0.00  0.00     0.055 A 
ATOM      6  C5  BZF d   1      -5.153  -3.026  -4.442  0.00  0.00    -0.016 A 
ATOM      7  C6  BZF d   1      -5.837  -3.974  -5.175  0.00  0.00     0.022 A 
ATOM      8  C7  BZF d   1      -5.193  -5.023  -5.744  0.00  0.00     0.029 A 
ATOM      9  C7A BZF d   1      -3.838  -5.110  -5.539  0.00  0.00     0.058 A 
ENDROOT
TORSDOF 0
ENDMDL
