MODEL 1
REMARK minimizedAffinity -4.47120762
REMARK minimizedRMSD -1
REMARK  0 active torsions:
REMARK  status: ('A' for Active; 'I' for Inactive)
ROOT
ATOM      1  O1  BZF d   1      -3.729  -5.887  -4.284  0.00  0.00    -0.204 OA
ATOM      2  C2  BZF d   1      -2.486  -5.837  -4.885  0.00  0.00     0.174 A 
ATOM      3  C3  BZF d   1      -2.320  -4.672  -5.546  0.00  0.00    -0.012 A 
ATOM      4  C3A BZF d   1      -3.500  -3.911  -5.268  0.00  0.00    -0.107 A 
ATOM      5  C4  BZF d   1      -3.918  -2.663  -5.630  0.00  0.00     0.055 A 
ATOM      6  C5  BZF d   1      -5.155  -2.245  -5.252  0.00  0.00    -0.016 A 
ATOM      7  C6  BZF d   1      -6.000  -3.051  -4.517  0.00  0.00     0.022 A 
ATOM      8  C7  BZF d   1      -5.627  -4.295  -4.130  0.00  0.00     0.029 A 
ATOM      9  C7A BZF d   1      -4.365  -4.707  -4.483  0.00  0.00     0.058 A 
ENDROOT
TORSDOF 0
ENDMDL
