MODEL 1
REMARK minimizedAffinity -2.96748304
REMARK minimizedRMSD -1
REMARK  0 active torsions:
REMARK  status: ('A' for Active; 'I' for Inactive)
ROOT
ATOM      1  O1  BZF d   1      -3.045  -5.185  -3.766  0.00  0.00    -0.204 OA
ATOM      2  C2  BZF d   1      -2.371  -5.499  -4.930  0.00  0.00     0.174 A 
ATOM      3  C3  BZF d   1      -2.949  -4.901  -5.993  0.00  0.00    -0.012 A 
ATOM      4  C3A BZF d   1      -3.997  -4.095  -5.447  0.00  0.00    -0.107 A 
ATOM      5  C4  BZF d   1      -4.918  -3.251  -6.000  0.00  0.00     0.055 A 
ATOM      6  C5  BZF d   1      -5.850  -2.673  -5.198  0.00  0.00    -0.016 A 
ATOM      7  C6  BZF d   1      -5.894  -2.920  -3.841  0.00  0.00     0.022 A 
ATOM      8  C7  BZF d   1      -4.998  -3.746  -3.246  0.00  0.00     0.029 A 
ATOM      9  C7A BZF d   1      -4.035  -4.305  -4.049  0.00  0.00     0.058 A 
ENDROOT
TORSDOF 0
ENDMDL
