MODEL 1
REMARK minimizedAffinity -4.01573515
REMARK minimizedRMSD -1
REMARK  0 active torsions:
REMARK  status: ('A' for Active; 'I' for Inactive)
ROOT
ATOM      1  O1  BZF d   1      -4.097  -2.765  -3.798  0.00  0.00    -0.204 OA
ATOM      2  C2  BZF d   1      -5.381  -3.237  -3.605  0.00  0.00     0.174 A 
ATOM      3  C3  BZF d   1      -5.507  -4.491  -4.085  0.00  0.00    -0.012 A 
ATOM      4  C3A BZF d   1      -4.197  -4.858  -4.528  0.00  0.00    -0.107 A 
ATOM      5  C4  BZF d   1      -3.678  -5.990  -5.088  0.00  0.00     0.055 A 
ATOM      6  C5  BZF d   1      -2.374  -5.999  -5.472  0.00  0.00    -0.016 A 
ATOM      7  C6  BZF d   1      -1.564  -4.894  -5.316  0.00  0.00     0.022 A 
ATOM      8  C7  BZF d   1      -2.032  -3.750  -4.761  0.00  0.00     0.029 A 
ATOM      9  C7A BZF d   1      -3.340  -3.748  -4.342  0.00  0.00     0.058 A 
ENDROOT
TORSDOF 0
ENDMDL
