MODEL 1
REMARK minimizedAffinity -4.42355919
REMARK minimizedRMSD -1
REMARK  0 active torsions:
REMARK  status: ('A' for Active; 'I' for Inactive)
ROOT
ATOM      1  O1  BZF d   1      -1.857  -4.420  -6.000  0.00  0.00    -0.204 OA
ATOM      2  C2  BZF d   1      -1.645  -5.606  -5.324  0.00  0.00     0.174 A 
ATOM      3  C3  BZF d   1      -2.655  -5.854  -4.465  0.00  0.00    -0.012 A 
ATOM      4  C3A BZF d   1      -3.600  -4.802  -4.681  0.00  0.00    -0.107 A 
ATOM      5  C4  BZF d   1      -4.818  -4.507  -4.137  0.00  0.00     0.055 A 
ATOM      6  C5  BZF d   1      -5.450  -3.365  -4.514  0.00  0.00    -0.016 A 
ATOM      7  C6  BZF d   1      -4.893  -2.493  -5.426  0.00  0.00     0.022 A 
ATOM      8  C7  BZF d   1      -3.689  -2.745  -5.996  0.00  0.00     0.029 A 
ATOM      9  C7A BZF d   1      -3.062  -3.915  -5.642  0.00  0.00     0.058 A 
ENDROOT
TORSDOF 0
ENDMDL
