MODEL 1
REMARK minimizedAffinity -4.06248617
REMARK minimizedRMSD -1
REMARK  0 active torsions:
REMARK  status: ('A' for Active; 'I' for Inactive)
ROOT
ATOM      1  O1  BZF d   1      -5.989  -3.880  -4.511  0.00  0.00    -0.204 OA
ATOM      2  C2  BZF d   1      -5.944  -2.537  -4.832  0.00  0.00     0.174 A 
ATOM      3  C3  BZF d   1      -4.711  -2.186  -5.252  0.00  0.00    -0.012 A 
ATOM      4  C3A BZF d   1      -3.962  -3.404  -5.277  0.00  0.00    -0.107 A 
ATOM      5  C4  BZF d   1      -2.676  -3.709  -5.623  0.00  0.00     0.055 A 
ATOM      6  C5  BZF d   1      -2.234  -4.984  -5.464  0.00  0.00    -0.016 A 
ATOM      7  C6  BZF d   1      -3.047  -5.977  -4.959  0.00  0.00     0.022 A 
ATOM      8  C7  BZF d   1      -4.331  -5.724  -4.607  0.00  0.00     0.029 A 
ATOM      9  C7A BZF d   1      -4.791  -4.444  -4.797  0.00  0.00     0.058 A 
ENDROOT
TORSDOF 0
ENDMDL
