MODEL 1
REMARK minimizedAffinity -2.79716516
REMARK minimizedRMSD -1
REMARK  0 active torsions:
REMARK  status: ('A' for Active; 'I' for Inactive)
ROOT
ATOM      1  O1  BZF d   1      -4.924  -5.303  -3.761  0.00  0.00    -0.204 OA
ATOM      2  C2  BZF d   1      -6.000  -4.518  -3.395  0.00  0.00     0.174 A 
ATOM      3  C3  BZF d   1      -5.863  -3.265  -3.875  0.00  0.00    -0.012 A 
ATOM      4  C3A BZF d   1      -4.669  -3.293  -4.663  0.00  0.00    -0.107 A 
ATOM      5  C4  BZF d   1      -4.014  -2.354  -5.409  0.00  0.00     0.055 A 
ATOM      6  C5  BZF d   1      -2.833  -2.683  -5.995  0.00  0.00    -0.016 A 
ATOM      7  C6  BZF d   1      -2.276  -3.937  -5.853  0.00  0.00     0.022 A 
ATOM      8  C7  BZF d   1      -2.891  -4.903  -5.127  0.00  0.00     0.029 A 
ATOM      9  C7A BZF d   1      -4.101  -4.584  -4.561  0.00  0.00     0.058 A 
ENDROOT
TORSDOF 0
ENDMDL
