MODEL 1
REMARK minimizedAffinity -3.42720199
REMARK minimizedRMSD -1
REMARK  0 active torsions:
REMARK  status: ('A' for Active; 'I' for Inactive)
ROOT
ATOM      1  O1  BZF d   1      -3.070  -5.907  -6.000  0.00  0.00    -0.204 OA
ATOM      2  C2  BZF d   1      -1.800  -5.485  -5.654  0.00  0.00     0.174 A 
ATOM      3  C3  BZF d   1      -1.859  -4.472  -4.765  0.00  0.00    -0.012 A 
ATOM      4  C3A BZF d   1      -3.249  -4.309  -4.471  0.00  0.00    -0.107 A 
ATOM      5  C4  BZF d   1      -3.942  -3.471  -3.645  0.00  0.00     0.055 A 
ATOM      6  C5  BZF d   1      -5.301  -3.519  -3.644  0.00  0.00    -0.016 A 
ATOM      7  C6  BZF d   1      -5.997  -4.387  -4.459  0.00  0.00     0.022 A 
ATOM      8  C7  BZF d   1      -5.353  -5.241  -5.291  0.00  0.00     0.029 A 
ATOM      9  C7A BZF d   1      -3.980  -5.218  -5.270  0.00  0.00     0.058 A 
ENDROOT
TORSDOF 0
ENDMDL
