MODEL 1
REMARK minimizedAffinity -3.81756067
REMARK minimizedRMSD -1
REMARK  0 active torsions:
REMARK  status: ('A' for Active; 'I' for Inactive)
ROOT
ATOM      1  O1  BZF d   1      -5.999  -4.486  -4.151  0.00  0.00    -0.204 OA
ATOM      2  C2  BZF d   1      -5.939  -3.207  -3.634  0.00  0.00     0.174 A 
ATOM      3  C3  BZF d   1      -4.692  -2.704  -3.745  0.00  0.00    -0.012 A 
ATOM      4  C3A BZF d   1      -3.947  -3.699  -4.455  0.00  0.00    -0.107 A 
ATOM      5  C4  BZF d   1      -2.653  -3.774  -4.884  0.00  0.00     0.055 A 
ATOM      6  C5  BZF d   1      -2.222  -4.915  -5.484  0.00  0.00    -0.016 A 
ATOM      7  C6  BZF d   1      -3.054  -5.999  -5.665  0.00  0.00     0.022 A 
ATOM      8  C7  BZF d   1      -4.348  -5.970  -5.261  0.00  0.00     0.029 A 
ATOM      9  C7A BZF d   1      -4.796  -4.806  -4.684  0.00  0.00     0.058 A 
ENDROOT
TORSDOF 0
ENDMDL
