MODEL 1
REMARK minimizedAffinity -1.95751607
REMARK minimizedRMSD -1
REMARK  0 active torsions:
REMARK  status: ('A' for Active; 'I' for Inactive)
ROOT
ATOM      1  O1  BZF d   1      -2.466  -5.048  -4.987  0.00  0.00    -0.204 OA
ATOM      2  C2  BZF d   1      -2.886  -5.995  -5.901  0.00  0.00     0.174 A 
ATOM      3  C3  BZF d   1      -4.231  -6.000  -6.000  0.00  0.00    -0.012 A 
ATOM      4  C3A BZF d   1      -4.674  -4.930  -5.159  0.00  0.00    -0.107 A 
ATOM      5  C4  BZF d   1      -5.906  -4.425  -4.853  0.00  0.00     0.055 A 
ATOM      6  C5  BZF d   1      -6.000  -3.423  -3.940  0.00  0.00    -0.016 A 
ATOM      7  C6  BZF d   1      -4.886  -2.907  -3.311  0.00  0.00     0.022 A 
ATOM      8  C7  BZF d   1      -3.643  -3.372  -3.585  0.00  0.00     0.029 A 
ATOM      9  C7A BZF d   1      -3.541  -4.362  -4.532  0.00  0.00     0.058 A 
ENDROOT
TORSDOF 0
ENDMDL
