MODEL 1
REMARK minimizedAffinity -2.98424077
REMARK minimizedRMSD -1
REMARK  0 active torsions:
REMARK  status: ('A' for Active; 'I' for Inactive)
ROOT
ATOM      1  O1  BZF d   1      -2.100  -4.216  -4.681  0.00  0.00    -0.204 OA
ATOM      2  C2  BZF d   1      -1.518  -5.234  -5.412  0.00  0.00     0.174 A 
ATOM      3  C3  BZF d   1      -2.460  -5.999  -6.000  0.00  0.00    -0.012 A 
ATOM      4  C3A BZF d   1      -3.706  -5.369  -5.686  0.00  0.00    -0.107 A 
ATOM      5  C4  BZF d   1      -5.005  -5.650  -6.000  0.00  0.00     0.055 A 
ATOM      6  C5  BZF d   1      -5.993  -4.879  -5.475  0.00  0.00    -0.016 A 
ATOM      7  C6  BZF d   1      -5.719  -3.823  -4.630  0.00  0.00     0.022 A 
ATOM      8  C7  BZF d   1      -4.445  -3.503  -4.295  0.00  0.00     0.029 A 
ATOM      9  C7A BZF d   1      -3.443  -4.260  -4.850  0.00  0.00     0.058 A 
ENDROOT
TORSDOF 0
ENDMDL
