MODEL 1
REMARK minimizedAffinity -3.67506599
REMARK minimizedRMSD -1
REMARK  0 active torsions:
REMARK  status: ('A' for Active; 'I' for Inactive)
ROOT
ATOM      1  O1  BZF d   1      -4.481  -5.679  -4.661  0.00  0.00    -0.204 OA
ATOM      2  C2  BZF d   1      -3.294  -5.927  -5.324  0.00  0.00     0.174 A 
ATOM      3  C3  BZF d   1      -2.882  -4.831  -5.993  0.00  0.00    -0.012 A 
ATOM      4  C3A BZF d   1      -3.825  -3.809  -5.658  0.00  0.00    -0.107 A 
ATOM      5  C4  BZF d   1      -3.943  -2.492  -6.000  0.00  0.00     0.055 A 
ATOM      6  C5  BZF d   1      -5.020  -1.789  -5.561  0.00  0.00    -0.016 A 
ATOM      7  C6  BZF d   1      -5.999  -2.372  -4.783  0.00  0.00     0.022 A 
ATOM      8  C7  BZF d   1      -5.923  -3.674  -4.414  0.00  0.00     0.029 A 
ATOM      9  C7A BZF d   1      -4.819  -4.378  -4.829  0.00  0.00     0.058 A 
ENDROOT
TORSDOF 0
ENDMDL
