MODEL 1
REMARK minimizedAffinity -2.96387172
REMARK minimizedRMSD -1
REMARK  0 active torsions:
REMARK  status: ('A' for Active; 'I' for Inactive)
ROOT
ATOM      1  O1  BZF d   1      -4.356  -1.722  -5.993  0.00  0.00    -0.204 OA
ATOM      2  C2  BZF d   1      -5.632  -1.621  -5.473  0.00  0.00     0.174 A 
ATOM      3  C3  BZF d   1      -6.000  -2.774  -4.880  0.00  0.00    -0.012 A 
ATOM      4  C3A BZF d   1      -4.849  -3.621  -4.958  0.00  0.00    -0.107 A 
ATOM      5  C4  BZF d   1      -4.588  -4.891  -4.530  0.00  0.00     0.055 A 
ATOM      6  C5  BZF d   1      -3.388  -5.455  -4.829  0.00  0.00    -0.016 A 
ATOM      7  C6  BZF d   1      -2.430  -4.781  -5.558  0.00  0.00     0.022 A 
ATOM      8  C7  BZF d   1      -2.642  -3.518  -6.000  0.00  0.00     0.029 A 
ATOM      9  C7A BZF d   1      -3.841  -2.933  -5.671  0.00  0.00     0.058 A 
ENDROOT
TORSDOF 0
ENDMDL
