MODEL 1
REMARK minimizedAffinity -3.97543263
REMARK minimizedRMSD -1
REMARK  0 active torsions:
REMARK  status: ('A' for Active; 'I' for Inactive)
ROOT
ATOM      1  O1  BZF d   1      -4.713  -5.992  -4.009  0.00  0.00    -0.204 OA
ATOM      2  C2  BZF d   1      -5.924  -5.403  -3.700  0.00  0.00     0.174 A 
ATOM      3  C3  BZF d   1      -5.957  -4.125  -4.130  0.00  0.00    -0.012 A 
ATOM      4  C3A BZF d   1      -4.724  -3.930  -4.827  0.00  0.00    -0.107 A 
ATOM      5  C4  BZF d   1      -4.179  -2.869  -5.493  0.00  0.00     0.055 A 
ATOM      6  C5  BZF d   1      -2.924  -2.981  -6.000  0.00  0.00    -0.016 A 
ATOM      7  C6  BZF d   1      -2.183  -4.136  -5.856  0.00  0.00     0.022 A 
ATOM      8  C7  BZF d   1      -2.682  -5.216  -5.208  0.00  0.00     0.029 A 
ATOM      9  C7A BZF d   1      -3.963  -5.117  -4.723  0.00  0.00     0.058 A 
ENDROOT
TORSDOF 0
ENDMDL
