MODEL 1
REMARK minimizedAffinity -3.32347393
REMARK minimizedRMSD -1
REMARK  0 active torsions:
REMARK  status: ('A' for Active; 'I' for Inactive)
ROOT
ATOM      1  O1  BZF d   1      -5.887  -4.360  -4.733  0.00  0.00    -0.204 OA
ATOM      2  C2  BZF d   1      -6.000  -2.989  -4.857  0.00  0.00     0.174 A 
ATOM      3  C3  BZF d   1      -4.804  -2.435  -5.143  0.00  0.00    -0.012 A 
ATOM      4  C3A BZF d   1      -3.904  -3.537  -5.293  0.00  0.00    -0.107 A 
ATOM      5  C4  BZF d   1      -2.576  -3.630  -5.596  0.00  0.00     0.055 A 
ATOM      6  C5  BZF d   1      -1.982  -4.852  -5.592  0.00  0.00    -0.016 A 
ATOM      7  C6  BZF d   1      -2.684  -6.000  -5.286  0.00  0.00     0.022 A 
ATOM      8  C7  BZF d   1      -4.004  -5.958  -4.984  0.00  0.00     0.029 A 
ATOM      9  C7A BZF d   1      -4.615  -4.728  -5.019  0.00  0.00     0.058 A 
ENDROOT
TORSDOF 0
ENDMDL
