MODEL 1
REMARK minimizedAffinity -3.18395972
REMARK minimizedRMSD -1
REMARK  0 active torsions:
REMARK  status: ('A' for Active; 'I' for Inactive)
ROOT
ATOM      1  O1  BZF d   1      -2.851  -4.826  -3.825  0.00  0.00    -0.204 OA
ATOM      2  C2  BZF d   1      -2.067  -4.912  -4.959  0.00  0.00     0.174 A 
ATOM      3  C3  BZF d   1      -2.661  -4.293  -6.000  0.00  0.00    -0.012 A 
ATOM      4  C3A BZF d   1      -3.851  -3.710  -5.461  0.00  0.00    -0.107 A 
ATOM      5  C4  BZF d   1      -4.853  -2.954  -5.999  0.00  0.00     0.055 A 
ATOM      6  C5  BZF d   1      -5.910  -2.606  -5.219  0.00  0.00    -0.016 A 
ATOM      7  C6  BZF d   1      -6.000  -3.001  -3.900  0.00  0.00     0.022 A 
ATOM      8  C7  BZF d   1      -5.029  -3.747  -3.320  0.00  0.00     0.029 A 
ATOM      9  C7A BZF d   1      -3.943  -4.073  -4.097  0.00  0.00     0.058 A 
ENDROOT
TORSDOF 0
ENDMDL
