MODEL 1
REMARK minimizedAffinity -4.73493385
REMARK minimizedRMSD -1
REMARK  0 active torsions:
REMARK  status: ('A' for Active; 'I' for Inactive)
ROOT
ATOM      1  O1  BZF d   1      -1.818  -4.129  -5.579  0.00  0.00    -0.204 OA
ATOM      2  C2  BZF d   1      -1.590  -5.458  -5.281  0.00  0.00     0.174 A 
ATOM      3  C3  BZF d   1      -2.658  -6.000  -4.661  0.00  0.00    -0.012 A 
ATOM      4  C3A BZF d   1      -3.649  -4.968  -4.649  0.00  0.00    -0.107 A 
ATOM      5  C4  BZF d   1      -4.931  -4.904  -4.183  0.00  0.00     0.055 A 
ATOM      6  C5  BZF d   1      -5.603  -3.725  -4.260  0.00  0.00    -0.016 A 
ATOM      7  C6  BZF d   1      -5.023  -2.592  -4.790  0.00  0.00     0.022 A 
ATOM      8  C7  BZF d   1      -3.755  -2.608  -5.269  0.00  0.00     0.029 A 
ATOM      9  C7A BZF d   1      -3.085  -3.806  -5.223  0.00  0.00     0.058 A 
ENDROOT
TORSDOF 0
ENDMDL
