MODEL 1
REMARK minimizedAffinity -0.803811073
REMARK minimizedRMSD -1
REMARK  1 active torsions:
REMARK  status: ('A' for Active; 'I' for Inactive)
REMARK    1  A    between atoms: C1_2  and  C2_3 
ROOT
ATOM      1  C2  UNL d   1       0.632   0.124  -1.095  0.00  0.00    -0.073 A 
ATOM      2  C3  UNL d   1       1.452  -0.068   0.023  0.00  0.00    -0.002 A 
ATOM      3  C4  UNL d   1       0.928   0.053   1.310  0.00  0.00     0.004 A 
ATOM      4  C5  UNL d   1      -0.421   0.360   1.493  0.00  0.00    -0.004 A 
ATOM      5  C6  UNL d   1      -1.258   0.544   0.389  0.00  0.00    -0.075 A 
ATOM      6  C7  UNL d   1      -2.711   0.876   0.568  0.00  0.00     0.076 C 
ATOM      7  C8  UNL d   1      -0.724   0.423  -0.901  0.00  0.00     0.001 A 
ENDROOT
BRANCH   1   8
ATOM      8  C1  UNL d   1       1.193  -0.011  -2.487  0.00  0.00     0.053 C 
ATOM      9  C   UNL d   1       0.796  -1.328  -3.136  0.00  0.00     0.018 C 
ENDBRANCH   1   8
TORSDOF 1
ENDMDL
