MODEL 1
REMARK minimizedAffinity -3.13280749
REMARK minimizedRMSD -1
REMARK  1 active torsions:
REMARK  status: ('A' for Active; 'I' for Inactive)
REMARK    1  A    between atoms: C1_2  and  C2_3 
ROOT
ATOM      1  C2  UNL d   1       0.236   0.526  -0.244  0.00  0.00    -0.073 A 
ATOM      2  C3  UNL d   1       1.145   0.203   0.770  0.00  0.00    -0.002 A 
ATOM      3  C4  UNL d   1       0.732   0.170   2.103  0.00  0.00     0.004 A 
ATOM      4  C5  UNL d   1      -0.593   0.452   2.434  0.00  0.00    -0.004 A 
ATOM      5  C6  UNL d   1      -1.519   0.765   1.434  0.00  0.00    -0.075 A 
ATOM      6  C7  UNL d   1      -2.947   1.073   1.774  0.00  0.00     0.076 C 
ATOM      7  C8  UNL d   1      -1.096   0.799   0.098  0.00  0.00     0.001 A 
ENDROOT
BRANCH   1   8
ATOM      8  C1  UNL d   1       0.676   0.557  -1.685  0.00  0.00     0.053 C 
ATOM      9  C   UNL d   1       0.703  -0.832  -2.302  0.00  0.00     0.018 C 
ENDBRANCH   1   8
TORSDOF 1
ENDMDL
