MODEL 1
REMARK minimizedAffinity -3.0551765
REMARK minimizedRMSD -1
REMARK  1 active torsions:
REMARK  status: ('A' for Active; 'I' for Inactive)
REMARK    1  A    between atoms: C1_2  and  C2_3 
ROOT
ATOM      1  C2  UNL d   1       0.494  -0.440  -1.498  0.00  0.00    -0.073 A 
ATOM      2  C3  UNL d   1       0.120  -1.671  -2.049  0.00  0.00    -0.002 A 
ATOM      3  C4  UNL d   1       0.705  -2.118  -3.235  0.00  0.00     0.004 A 
ATOM      4  C5  UNL d   1       1.672  -1.344  -3.876  0.00  0.00    -0.004 A 
ATOM      5  C6  UNL d   1       2.067  -0.117  -3.335  0.00  0.00    -0.075 A 
ATOM      6  C7  UNL d   1       3.104   0.728  -4.014  0.00  0.00     0.076 C 
ATOM      7  C8  UNL d   1       1.473   0.327  -2.145  0.00  0.00     0.001 A 
ENDROOT
BRANCH   1   8
ATOM      8  C1  UNL d   1      -0.130   0.045  -0.214  0.00  0.00     0.053 C 
ATOM      9  C   UNL d   1       0.897   0.663   0.721  0.00  0.00     0.018 C 
ENDBRANCH   1   8
TORSDOF 1
ENDMDL
