MODEL 1
REMARK minimizedAffinity -2.27781796
REMARK minimizedRMSD -1
REMARK  1 active torsions:
REMARK  status: ('A' for Active; 'I' for Inactive)
REMARK    1  A    between atoms: C1_2  and  C2_3 
ROOT
ATOM      1  C2  UNL d   1       1.139  -0.730  -1.172  0.00  0.00    -0.073 A 
ATOM      2  C3  UNL d   1       1.854  -0.570   0.021  0.00  0.00    -0.002 A 
ATOM      3  C4  UNL d   1       1.254   0.034   1.127  0.00  0.00     0.004 A 
ATOM      4  C5  UNL d   1      -0.066   0.478   1.054  0.00  0.00    -0.004 A 
ATOM      5  C6  UNL d   1      -0.801   0.316  -0.125  0.00  0.00    -0.075 A 
ATOM      6  C7  UNL d   1      -2.221   0.790  -0.220  0.00  0.00     0.076 C 
ATOM      7  C8  UNL d   1      -0.191  -0.289  -1.232  0.00  0.00     0.001 A 
ENDROOT
BRANCH   1   8
ATOM      8  C1  UNL d   1       1.780  -1.387  -2.366  0.00  0.00     0.053 C 
ATOM      9  C   UNL d   1       0.824  -2.328  -3.081  0.00  0.00     0.018 C 
ENDBRANCH   1   8
TORSDOF 1
ENDMDL
