MODEL 1
REMARK minimizedAffinity -2.58490014
REMARK minimizedRMSD -1
REMARK  1 active torsions:
REMARK  status: ('A' for Active; 'I' for Inactive)
REMARK    1  A    between atoms: C1_2  and  C2_3 
ROOT
ATOM      1  C2  UNL d   1       0.815   0.193  -1.972  0.00  0.00    -0.073 A 
ATOM      2  C3  UNL d   1       0.360   1.431  -1.504  0.00  0.00    -0.002 A 
ATOM      3  C4  UNL d   1       0.066   1.608  -0.151  0.00  0.00     0.004 A 
ATOM      4  C5  UNL d   1       0.231   0.554   0.747  0.00  0.00    -0.004 A 
ATOM      5  C6  UNL d   1       0.696  -0.688   0.300  0.00  0.00    -0.075 A 
ATOM      6  C7  UNL d   1       0.876  -1.833   1.253  0.00  0.00     0.076 C 
ATOM      7  C8  UNL d   1       0.986  -0.859  -1.060  0.00  0.00     0.001 A 
ENDROOT
BRANCH   1   8
ATOM      8  C1  UNL d   1       1.139  -0.002  -3.431  0.00  0.00     0.053 C 
ATOM      9  C   UNL d   1       0.490  -1.255  -3.997  0.00  0.00     0.018 C 
ENDBRANCH   1   8
TORSDOF 1
ENDMDL
