MODEL 1
REMARK minimizedAffinity -5.55520439
REMARK minimizedRMSD -1
REMARK  1 active torsions:
REMARK  status: ('A' for Active; 'I' for Inactive)
REMARK    1  A    between atoms: C1_2  and  C2_3 
ROOT
ATOM      1  C2  UNL d   1      -0.293  -0.018  -1.139  0.00  0.00    -0.073 A 
ATOM      2  C3  UNL d   1      -0.234   0.898  -2.195  0.00  0.00    -0.002 A 
ATOM      3  C4  UNL d   1       0.354   0.539  -3.408  0.00  0.00     0.004 A 
ATOM      4  C5  UNL d   1       0.881  -0.741  -3.581  0.00  0.00    -0.004 A 
ATOM      5  C6  UNL d   1       0.820  -1.675  -2.542  0.00  0.00    -0.075 A 
ATOM      6  C7  UNL d   1       1.384  -3.055  -2.711  0.00  0.00     0.076 C 
ATOM      7  C8  UNL d   1       0.231  -1.306  -1.325  0.00  0.00     0.001 A 
ENDROOT
BRANCH   1   8
ATOM      8  C1  UNL d   1      -0.932   0.364   0.171  0.00  0.00     0.053 C 
ATOM      9  C   UNL d   1      -2.448   0.428   0.068  0.00  0.00     0.018 C 
ENDBRANCH   1   8
TORSDOF 1
ENDMDL
