MODEL 1
REMARK minimizedAffinity -3.41015434
REMARK minimizedRMSD -1
REMARK  1 active torsions:
REMARK  status: ('A' for Active; 'I' for Inactive)
REMARK    1  A    between atoms: C1_2  and  C2_3 
ROOT
ATOM      1  C2  UNL d   1       0.611  -0.156  -1.737  0.00  0.00    -0.073 A 
ATOM      2  C3  UNL d   1      -0.632   0.473  -1.877  0.00  0.00    -0.002 A 
ATOM      3  C4  UNL d   1      -1.299   0.972  -0.757  0.00  0.00     0.004 A 
ATOM      4  C5  UNL d   1      -0.728   0.855   0.510  0.00  0.00    -0.004 A 
ATOM      5  C6  UNL d   1       0.518   0.240   0.668  0.00  0.00    -0.075 A 
ATOM      6  C7  UNL d   1       1.144   0.104   2.025  0.00  0.00     0.076 C 
ATOM      7  C8  UNL d   1       1.180  -0.261  -0.460  0.00  0.00     0.001 A 
ENDROOT
BRANCH   1   8
ATOM      8  C1  UNL d   1       1.338  -0.691  -2.944  0.00  0.00     0.053 C 
ATOM      9  C   UNL d   1       0.553  -1.792  -3.640  0.00  0.00     0.018 C 
ENDBRANCH   1   8
TORSDOF 1
ENDMDL
