MODEL 1
REMARK minimizedAffinity -1.11658895
REMARK minimizedRMSD -1
REMARK  1 active torsions:
REMARK  status: ('A' for Active; 'I' for Inactive)
REMARK    1  A    between atoms: C1_2  and  C2_3 
ROOT
ATOM      1  C2  UNL d   1       0.466  -0.214  -1.412  0.00  0.00    -0.073 A 
ATOM      2  C3  UNL d   1      -0.396  -1.196  -1.912  0.00  0.00    -0.002 A 
ATOM      3  C4  UNL d   1      -0.010  -1.988  -2.995  0.00  0.00     0.004 A 
ATOM      4  C5  UNL d   1       1.242  -1.810  -3.583  0.00  0.00    -0.004 A 
ATOM      5  C6  UNL d   1       2.122  -0.842  -3.089  0.00  0.00    -0.075 A 
ATOM      6  C7  UNL d   1       3.472  -0.637  -3.712  0.00  0.00     0.076 C 
ATOM      7  C8  UNL d   1       1.726  -0.049  -2.004  0.00  0.00     0.001 A 
ENDROOT
BRANCH   1   8
ATOM      8  C1  UNL d   1       0.056   0.639  -0.239  0.00  0.00     0.053 C 
ATOM      9  C   UNL d   1       1.058   0.558   0.902  0.00  0.00     0.018 C 
ENDBRANCH   1   8
TORSDOF 1
ENDMDL
