MODEL 1
REMARK minimizedAffinity -3.08174491
REMARK minimizedRMSD -1
REMARK  1 active torsions:
REMARK  status: ('A' for Active; 'I' for Inactive)
REMARK    1  A    between atoms: C1_2  and  C2_3 
ROOT
ATOM      1  C2  UNL d   1      -0.296  -1.202  -1.857  0.00  0.00    -0.073 A 
ATOM      2  C3  UNL d   1       0.669  -0.474  -1.152  0.00  0.00    -0.002 A 
ATOM      3  C4  UNL d   1       0.287   0.567  -0.306  0.00  0.00     0.004 A 
ATOM      4  C5  UNL d   1      -1.062   0.888  -0.151  0.00  0.00    -0.004 A 
ATOM      5  C6  UNL d   1      -2.042   0.164  -0.838  0.00  0.00    -0.075 A 
ATOM      6  C7  UNL d   1      -3.497   0.497  -0.685  0.00  0.00     0.076 C 
ATOM      7  C8  UNL d   1      -1.650  -0.879  -1.688  0.00  0.00     0.001 A 
ENDROOT
BRANCH   1   8
ATOM      8  C1  UNL d   1       0.111  -2.332  -2.767  0.00  0.00     0.053 C 
ATOM      9  C   UNL d   1       1.418  -2.041  -3.487  0.00  0.00     0.018 C 
ENDBRANCH   1   8
TORSDOF 1
ENDMDL
