MODEL 1
REMARK minimizedAffinity 3.38481236
REMARK minimizedRMSD -1
REMARK  1 active torsions:
REMARK  status: ('A' for Active; 'I' for Inactive)
REMARK    1  A    between atoms: C1_2  and  C2_3 
ROOT
ATOM      1  C2  UNL d   1      -1.216   0.536   0.814  0.00  0.00    -0.073 A 
ATOM      2  C3  UNL d   1      -0.473   0.613   1.998  0.00  0.00    -0.002 A 
ATOM      3  C4  UNL d   1       0.899   0.359   1.987  0.00  0.00     0.004 A 
ATOM      4  C5  UNL d   1       1.543   0.033   0.793  0.00  0.00    -0.004 A 
ATOM      5  C6  UNL d   1       0.820  -0.038  -0.402  0.00  0.00    -0.075 A 
ATOM      6  C7  UNL d   1       1.497  -0.390  -1.694  0.00  0.00     0.076 C 
ATOM      7  C8  UNL d   1      -0.558   0.216  -0.382  0.00  0.00     0.001 A 
ENDROOT
BRANCH   1   8
ATOM      8  C1  UNL d   1      -2.696   0.815   0.820  0.00  0.00     0.053 C 
ATOM      9  C   UNL d   1      -3.195   1.219   2.199  0.00  0.00     0.018 C 
ENDBRANCH   1   8
TORSDOF 1
ENDMDL
