MODEL 1
REMARK minimizedAffinity -0.195593029
REMARK minimizedRMSD -1
REMARK  1 active torsions:
REMARK  status: ('A' for Active; 'I' for Inactive)
REMARK    1  A    between atoms: C1_2  and  C2_3 
ROOT
ATOM      1  C2  UNL d   1       0.333  -0.782   1.156  0.00  0.00    -0.073 A 
ATOM      2  C3  UNL d   1       0.735   0.103   2.163  0.00  0.00    -0.002 A 
ATOM      3  C4  UNL d   1      -0.215   0.791   2.918  0.00  0.00     0.004 A 
ATOM      4  C5  UNL d   1      -1.576   0.597   2.680  0.00  0.00    -0.004 A 
ATOM      5  C6  UNL d   1      -1.998  -0.291   1.685  0.00  0.00    -0.075 A 
ATOM      6  C7  UNL d   1      -3.458  -0.509   1.415  0.00  0.00     0.076 C 
ATOM      7  C8  UNL d   1      -1.037  -0.977   0.929  0.00  0.00     0.001 A 
ENDROOT
BRANCH   1   8
ATOM      8  C1  UNL d   1       1.355  -1.532   0.342  0.00  0.00     0.053 C 
ATOM      9  C   UNL d   1       0.960  -1.626  -1.123  0.00  0.00     0.018 C 
ENDBRANCH   1   8
TORSDOF 1
ENDMDL
