MODEL 1
REMARK minimizedAffinity -4.73227978
REMARK minimizedRMSD -1
REMARK  1 active torsions:
REMARK  status: ('A' for Active; 'I' for Inactive)
REMARK    1  A    between atoms: C1_2  and  C2_3 
ROOT
ATOM      1  C2  UNL d   1      -0.728   0.304   1.675  0.00  0.00    -0.073 A 
ATOM      2  C3  UNL d   1      -2.036   0.595   1.272  0.00  0.00    -0.002 A 
ATOM      3  C4  UNL d   1      -2.337   0.760  -0.081  0.00  0.00     0.004 A 
ATOM      4  C5  UNL d   1      -1.337   0.628  -1.044  0.00  0.00    -0.004 A 
ATOM      5  C6  UNL d   1      -0.026   0.325  -0.662  0.00  0.00    -0.075 A 
ATOM      6  C7  UNL d   1       1.062   0.182  -1.685  0.00  0.00     0.076 C 
ATOM      7  C8  UNL d   1       0.269   0.164   0.699  0.00  0.00     0.001 A 
ENDROOT
BRANCH   1   8
ATOM      8  C1  UNL d   1      -0.399   0.119   3.134  0.00  0.00     0.053 C 
ATOM      9  C   UNL d   1      -1.644  -0.125   3.972  0.00  0.00     0.018 C 
ENDBRANCH   1   8
TORSDOF 1
ENDMDL
