MODEL 1
REMARK minimizedAffinity -2.5278604
REMARK minimizedRMSD -1
REMARK  1 active torsions:
REMARK  status: ('A' for Active; 'I' for Inactive)
REMARK    1  A    between atoms: C1_2  and  C2_3 
ROOT
ATOM      1  C2  UNL d   1       0.429  -0.018   1.886  0.00  0.00    -0.073 A 
ATOM      2  C3  UNL d   1      -0.160  -0.790   2.893  0.00  0.00    -0.002 A 
ATOM      3  C4  UNL d   1      -1.517  -1.112   2.832  0.00  0.00     0.004 A 
ATOM      4  C5  UNL d   1      -2.295  -0.672   1.761  0.00  0.00    -0.004 A 
ATOM      5  C6  UNL d   1      -1.721   0.091   0.739  0.00  0.00    -0.075 A 
ATOM      6  C7  UNL d   1      -2.545   0.574  -0.418  0.00  0.00     0.076 C 
ATOM      7  C8  UNL d   1      -0.359   0.412   0.809  0.00  0.00     0.001 A 
ENDROOT
BRANCH   1   8
ATOM      8  C1  UNL d   1       1.895   0.327   1.944  0.00  0.00     0.053 C 
ATOM      9  C   UNL d   1       2.212   1.601   1.177  0.00  0.00     0.018 C 
ENDBRANCH   1   8
TORSDOF 1
ENDMDL
