MODEL 1
REMARK minimizedAffinity -3.15223312
REMARK minimizedRMSD -1
REMARK  1 active torsions:
REMARK  status: ('A' for Active; 'I' for Inactive)
REMARK    1  A    between atoms: C1_2  and  C2_3 
ROOT
ATOM      1  C2  UNL d   1      -0.376  -0.012   0.956  0.00  0.00    -0.073 A 
ATOM      2  C3  UNL d   1      -0.351  -1.315   0.444  0.00  0.00    -0.002 A 
ATOM      3  C4  UNL d   1       0.865  -1.941   0.169  0.00  0.00     0.004 A 
ATOM      4  C5  UNL d   1       2.067  -1.275   0.408  0.00  0.00    -0.004 A 
ATOM      5  C6  UNL d   1       2.063   0.022   0.931  0.00  0.00    -0.075 A 
ATOM      6  C7  UNL d   1       3.347   0.753   1.192  0.00  0.00     0.076 C 
ATOM      7  C8  UNL d   1       0.837   0.645   1.202  0.00  0.00     0.001 A 
ENDROOT
BRANCH   1   8
ATOM      8  C1  UNL d   1      -1.687   0.665   1.261  0.00  0.00     0.053 C 
ATOM      9  C   UNL d   1      -2.707   0.458   0.153  0.00  0.00     0.018 C 
ENDBRANCH   1   8
TORSDOF 1
ENDMDL
