MODEL 1
REMARK minimizedAffinity 17.1847973
REMARK minimizedRMSD -1
REMARK  0 active torsions:
REMARK  status: ('A' for Active; 'I' for Inactive)
ROOT
ATOM      1  C   UNL d   1       0.837   2.390   0.893  0.00  0.00     0.020 A 
ATOM      2  C1  UNL d   1      -0.522   2.104   1.022  0.00  0.00     0.020 A 
ATOM      3  C2  UNL d   1      -1.440   2.669   0.135  0.00  0.00     0.034 A 
ATOM      4  C3  UNL d   1      -1.002   3.523  -0.884  0.00  0.00     0.017 A 
ATOM      5  C4  UNL d   1       0.362   3.809  -1.011  0.00  0.00     0.017 A 
ATOM      6  C5  UNL d   1       1.278   3.240  -0.121  0.00  0.00     0.034 A 
ATOM      7 Cl   UNL d   1       0.979   4.854  -2.243  0.00  0.00    -0.070 Cl
ATOM      8 Cl1  UNL d   1      -2.194   4.187  -1.944  0.00  0.00    -0.070 Cl
ENDROOT
TORSDOF 0
ENDMDL
