MODEL 1
REMARK minimizedAffinity 11.5892029
REMARK minimizedRMSD -1
REMARK  0 active torsions:
REMARK  status: ('A' for Active; 'I' for Inactive)
ROOT
ATOM      1  C   UNL d   1      -1.070   3.960  -1.312  0.00  0.00     0.020 A 
ATOM      2  C1  UNL d   1      -0.993   2.638  -0.877  0.00  0.00     0.020 A 
ATOM      3  C2  UNL d   1      -1.486   2.287   0.381  0.00  0.00     0.034 A 
ATOM      4  C3  UNL d   1      -2.059   3.260   1.209  0.00  0.00     0.017 A 
ATOM      5  C4  UNL d   1      -2.136   4.587   0.771  0.00  0.00     0.017 A 
ATOM      6  C5  UNL d   1      -1.640   4.932  -0.490  0.00  0.00     0.034 A 
ATOM      7 Cl   UNL d   1      -2.829   5.843   1.735  0.00  0.00    -0.070 Cl
ATOM      8 Cl1  UNL d   1      -2.650   2.755   2.752  0.00  0.00    -0.070 Cl
ENDROOT
TORSDOF 0
ENDMDL
