MODEL 1
REMARK minimizedAffinity 10.4790297
REMARK minimizedRMSD -1
REMARK  0 active torsions:
REMARK  status: ('A' for Active; 'I' for Inactive)
ROOT
ATOM      1  C   UNL d   1      -0.630   2.665   0.211  0.00  0.00     0.020 A 
ATOM      2  C1  UNL d   1       0.709   3.040   0.109  0.00  0.00     0.020 A 
ATOM      3  C2  UNL d   1       1.081   4.071  -0.756  0.00  0.00     0.034 A 
ATOM      4  C3  UNL d   1       0.114   4.729  -1.524  0.00  0.00     0.017 A 
ATOM      5  C4  UNL d   1      -1.230   4.352  -1.421  0.00  0.00     0.017 A 
ATOM      6  C5  UNL d   1      -1.597   3.319  -0.553  0.00  0.00     0.034 A 
ATOM      7 Cl   UNL d   1      -2.480   5.118  -2.336  0.00  0.00    -0.070 Cl
ATOM      8 Cl1  UNL d   1       0.646   5.995  -2.573  0.00  0.00    -0.070 Cl
ENDROOT
TORSDOF 0
ENDMDL
