MODEL 1
REMARK minimizedAffinity 13.0379553
REMARK minimizedRMSD -1
REMARK  0 active torsions:
REMARK  status: ('A' for Active; 'I' for Inactive)
ROOT
ATOM      1  C   UNL d   1       0.137   2.552  -1.153  0.00  0.00     0.020 A 
ATOM      2  C1  UNL d   1       0.278   2.754   0.219  0.00  0.00     0.020 A 
ATOM      3  C2  UNL d   1      -0.526   3.689   0.873  0.00  0.00     0.034 A 
ATOM      4  C3  UNL d   1      -1.475   4.426   0.155  0.00  0.00     0.017 A 
ATOM      5  C4  UNL d   1      -1.615   4.223  -1.222  0.00  0.00     0.017 A 
ATOM      6  C5  UNL d   1      -0.808   3.285  -1.872  0.00  0.00     0.034 A 
ATOM      7 Cl   UNL d   1      -2.764   5.094  -2.175  0.00  0.00    -0.070 Cl
ATOM      8 Cl1  UNL d   1      -2.435   5.566   1.029  0.00  0.00    -0.070 Cl
ENDROOT
TORSDOF 0
ENDMDL
