MODEL 1
REMARK minimizedAffinity 11.6264019
REMARK minimizedRMSD -1
REMARK  0 active torsions:
REMARK  status: ('A' for Active; 'I' for Inactive)
ROOT
ATOM      1  C   UNL d   1       0.030   1.955  -0.211  0.00  0.00     0.020 A 
ATOM      2  C1  UNL d   1      -0.165   3.159  -0.885  0.00  0.00     0.020 A 
ATOM      3  C2  UNL d   1      -1.014   4.130  -0.349  0.00  0.00     0.034 A 
ATOM      4  C3  UNL d   1      -1.671   3.898   0.864  0.00  0.00     0.017 A 
ATOM      5  C4  UNL d   1      -1.475   2.688   1.541  0.00  0.00     0.017 A 
ATOM      6  C5  UNL d   1      -0.623   1.720   1.000  0.00  0.00     0.034 A 
ATOM      7 Cl   UNL d   1      -2.250   2.330   3.043  0.00  0.00    -0.070 Cl
ATOM      8 Cl1  UNL d   1      -2.706   5.142   1.469  0.00  0.00    -0.070 Cl
ENDROOT
TORSDOF 0
ENDMDL
