MODEL 1
REMARK minimizedAffinity 20.4030094
REMARK minimizedRMSD -1
REMARK  0 active torsions:
REMARK  status: ('A' for Active; 'I' for Inactive)
ROOT
ATOM      1  C   UNL d   1      -5.719  -1.981   5.729  0.00  0.00     0.020 A 
ATOM      2  C1  UNL d   1      -5.059  -2.717   4.746  0.00  0.00     0.020 A 
ATOM      3  C2  UNL d   1      -4.676  -2.102   3.552  0.00  0.00     0.034 A 
ATOM      4  C3  UNL d   1      -4.955  -0.747   3.337  0.00  0.00     0.017 A 
ATOM      5  C4  UNL d   1      -5.618  -0.009   4.324  0.00  0.00     0.017 A 
ATOM      6  C5  UNL d   1      -5.999  -0.630   5.518  0.00  0.00     0.034 A 
ATOM      7 Cl   UNL d   1      -5.996   1.666   4.131  0.00  0.00    -0.070 Cl
ATOM      8 Cl1  UNL d   1      -4.453  -0.052   1.837  0.00  0.00    -0.070 Cl
ENDROOT
TORSDOF 0
ENDMDL
