MODEL 1
REMARK minimizedAffinity 14.9919605
REMARK minimizedRMSD -1
REMARK  0 active torsions:
REMARK  status: ('A' for Active; 'I' for Inactive)
ROOT
ATOM      1  C   UNL d   1      -0.729   3.783  -1.622  0.00  0.00     0.020 A 
ATOM      2  C1  UNL d   1       0.333   4.683  -1.702  0.00  0.00     0.020 A 
ATOM      3  C2  UNL d   1       1.486   4.473  -0.943  0.00  0.00     0.034 A 
ATOM      4  C3  UNL d   1       1.581   3.360  -0.100  0.00  0.00     0.017 A 
ATOM      5  C4  UNL d   1       0.515   2.456  -0.020  0.00  0.00     0.017 A 
ATOM      6  C5  UNL d   1      -0.638   2.672  -0.782  0.00  0.00     0.034 A 
ATOM      7 Cl   UNL d   1       0.558   1.060   0.997  0.00  0.00    -0.070 Cl
ATOM      8 Cl1  UNL d   1       3.036   3.162   0.809  0.00  0.00    -0.070 Cl
ENDROOT
TORSDOF 0
ENDMDL
