MODEL 1
REMARK minimizedAffinity 13.780674
REMARK minimizedRMSD -1
REMARK  0 active torsions:
REMARK  status: ('A' for Active; 'I' for Inactive)
ROOT
ATOM      1  C   UNL d   1      -4.820   1.842  -2.078  0.00  0.00     0.020 A 
ATOM      2  C1  UNL d   1      -4.304   3.104  -1.789  0.00  0.00     0.020 A 
ATOM      3  C2  UNL d   1      -3.119   3.224  -1.059  0.00  0.00     0.034 A 
ATOM      4  C3  UNL d   1      -2.447   2.079  -0.615  0.00  0.00     0.017 A 
ATOM      5  C4  UNL d   1      -2.967   0.812  -0.906  0.00  0.00     0.017 A 
ATOM      6  C5  UNL d   1      -4.153   0.698  -1.637  0.00  0.00     0.034 A 
ATOM      7 Cl   UNL d   1      -2.195  -0.646  -0.392  0.00  0.00    -0.070 Cl
ATOM      8 Cl1  UNL d   1      -0.987   2.301   0.282  0.00  0.00    -0.070 Cl
ENDROOT
TORSDOF 0
ENDMDL
