MODEL 1
REMARK minimizedAffinity 10.8951941
REMARK minimizedRMSD -1
REMARK  0 active torsions:
REMARK  status: ('A' for Active; 'I' for Inactive)
ROOT
ATOM      1  C   UNL d   1       0.623   3.433  -1.067  0.00  0.00     0.020 A 
ATOM      2  C1  UNL d   1      -0.673   3.069  -0.703  0.00  0.00     0.020 A 
ATOM      3  C2  UNL d   1      -0.914   2.515   0.556  0.00  0.00     0.034 A 
ATOM      4  C3  UNL d   1       0.142   2.324   1.455  0.00  0.00     0.017 A 
ATOM      5  C4  UNL d   1       1.442   2.690   1.088  0.00  0.00     0.017 A 
ATOM      6  C5  UNL d   1       1.678   3.244  -0.174  0.00  0.00     0.034 A 
ATOM      7 Cl   UNL d   1       2.795   2.485   2.144  0.00  0.00    -0.070 Cl
ATOM      8 Cl1  UNL d   1      -0.230   1.634   2.995  0.00  0.00    -0.070 Cl
ENDROOT
TORSDOF 0
ENDMDL
