MODEL 1
REMARK minimizedAffinity 9.62642288
REMARK minimizedRMSD -1
REMARK  0 active torsions:
REMARK  status: ('A' for Active; 'I' for Inactive)
ROOT
ATOM      1  C   UNL d   1       1.016  -4.702  -0.845  0.00  0.00     0.020 A 
ATOM      2  C1  UNL d   1       0.219  -3.989  -1.740  0.00  0.00     0.020 A 
ATOM      3  C2  UNL d   1       0.620  -3.847  -3.070  0.00  0.00     0.034 A 
ATOM      4  C3  UNL d   1       1.820  -4.418  -3.509  0.00  0.00     0.017 A 
ATOM      5  C4  UNL d   1       2.618  -5.134  -2.610  0.00  0.00     0.017 A 
ATOM      6  C5  UNL d   1       2.213  -5.273  -1.279  0.00  0.00     0.034 A 
ATOM      7 Cl   UNL d   1       4.112  -5.867  -3.077  0.00  0.00    -0.070 Cl
ATOM      8 Cl1  UNL d   1       2.252  -4.203  -5.168  0.00  0.00    -0.070 Cl
ENDROOT
TORSDOF 0
ENDMDL
