MODEL 1
REMARK minimizedAffinity -2.27237582
REMARK minimizedRMSD -1
REMARK  0 active torsions:
REMARK  status: ('A' for Active; 'I' for Inactive)
ROOT
ATOM      1  C   UNL d   1       5.463  -5.999   5.038  0.00  0.00     0.172 C 
ATOM      2  N   UNL d   1       5.266  -5.530   3.687  0.00  0.00    -0.070 N 
ATOM      3  C1  UNL d   1       5.999  -4.555   3.065  0.00  0.00    -0.004 A 
ATOM      4  C2  UNL d   1       5.500  -4.401   1.790  0.00  0.00    -0.047 A 
ATOM      5  C3  UNL d   1       4.429  -5.314   1.640  0.00  0.00    -0.047 A 
ATOM      6  C4  UNL d   1       4.306  -6.000   2.830  0.00  0.00    -0.004 A 
ENDROOT
TORSDOF 0
ENDMDL
