MODEL 1
REMARK minimizedAffinity 2.26350927
REMARK minimizedRMSD -1
REMARK  0 active torsions:
REMARK  status: ('A' for Active; 'I' for Inactive)
ROOT
ATOM      1  C   UNL d   1      -0.475  -3.749   0.745  0.00  0.00     0.172 C 
ATOM      2  N   UNL d   1       0.556  -4.544   1.371  0.00  0.00    -0.070 N 
ATOM      3  C1  UNL d   1       0.363  -5.452   2.377  0.00  0.00    -0.004 A 
ATOM      4  C2  UNL d   1       1.589  -5.996   2.696  0.00  0.00    -0.047 A 
ATOM      5  C3  UNL d   1       2.552  -5.393   1.853  0.00  0.00    -0.047 A 
ATOM      6  C4  UNL d   1       1.885  -4.498   1.043  0.00  0.00    -0.004 A 
ENDROOT
TORSDOF 0
ENDMDL
