MODEL 1
REMARK minimizedAffinity 0.499005079
REMARK minimizedRMSD -1
REMARK  0 active torsions:
REMARK  status: ('A' for Active; 'I' for Inactive)
ROOT
ATOM      1  C   UNL d   1       1.252  -5.161   1.866  0.00  0.00     0.172 C 
ATOM      2  N   UNL d   1       2.644  -5.358   2.194  0.00  0.00    -0.070 N 
ATOM      3  C1  UNL d   1       3.709  -4.940   1.441  0.00  0.00    -0.004 A 
ATOM      4  C2  UNL d   1       4.862  -5.317   2.093  0.00  0.00    -0.047 A 
ATOM      5  C3  UNL d   1       4.478  -5.986   3.280  0.00  0.00    -0.047 A 
ATOM      6  C4  UNL d   1       3.099  -5.997   3.317  0.00  0.00    -0.004 A 
ENDROOT
TORSDOF 0
ENDMDL
