MODEL 1
REMARK minimizedAffinity 3.76656938
REMARK minimizedRMSD -1
REMARK  0 active torsions:
REMARK  status: ('A' for Active; 'I' for Inactive)
ROOT
ATOM      1  C   UNL d   1       5.982  -2.419   5.685  0.00  0.00     0.172 C 
ATOM      2  N   UNL d   1       5.958  -3.779   5.200  0.00  0.00    -0.070 N 
ATOM      3  C1  UNL d   1       5.999  -4.159   3.885  0.00  0.00    -0.004 A 
ATOM      4  C2  UNL d   1       5.958  -5.536   3.842  0.00  0.00    -0.047 A 
ATOM      5  C3  UNL d   1       5.889  -6.000   5.177  0.00  0.00    -0.047 A 
ATOM      6  C4  UNL d   1       5.891  -4.891   5.997  0.00  0.00    -0.004 A 
ENDROOT
TORSDOF 0
ENDMDL
