MODEL 1
REMARK minimizedAffinity 0.267559499
REMARK minimizedRMSD -1
REMARK  0 active torsions:
REMARK  status: ('A' for Active; 'I' for Inactive)
ROOT
ATOM      1  C   UNL d   1      -4.714  -2.223   2.489  0.00  0.00     0.172 C 
ATOM      2  N   UNL d   1      -4.504  -2.250   3.917  0.00  0.00    -0.070 N 
ATOM      3  C1  UNL d   1      -4.480  -3.374   4.700  0.00  0.00    -0.004 A 
ATOM      4  C2  UNL d   1      -4.254  -2.977   6.000  0.00  0.00    -0.047 A 
ATOM      5  C3  UNL d   1      -4.139  -1.567   5.999  0.00  0.00    -0.047 A 
ATOM      6  C4  UNL d   1      -4.298  -1.143   4.697  0.00  0.00    -0.004 A 
ENDROOT
TORSDOF 0
ENDMDL
