MODEL 1
REMARK minimizedAffinity -2.73625708
REMARK minimizedRMSD -1
REMARK  0 active torsions:
REMARK  status: ('A' for Active; 'I' for Inactive)
ROOT
ATOM      1  C   UNL d   1       5.951  -6.000   4.248  0.00  0.00     0.172 C 
ATOM      2  N   UNL d   1       5.212  -5.419   3.152  0.00  0.00    -0.070 N 
ATOM      3  C1  UNL d   1       5.483  -4.217   2.555  0.00  0.00    -0.004 A 
ATOM      4  C2  UNL d   1       4.554  -4.024   1.555  0.00  0.00    -0.047 A 
ATOM      5  C3  UNL d   1       3.695  -5.149   1.552  0.00  0.00    -0.047 A 
ATOM      6  C4  UNL d   1       4.125  -5.997   2.550  0.00  0.00    -0.004 A 
ENDROOT
TORSDOF 0
ENDMDL
