MODEL 1
REMARK minimizedAffinity -1.38101423
REMARK minimizedRMSD -1
REMARK  0 active torsions:
REMARK  status: ('A' for Active; 'I' for Inactive)
ROOT
ATOM      1  C   UNL d   1       5.997  -2.430   5.925  0.00  0.00     0.172 C 
ATOM      2  N   UNL d   1       5.964  -3.726   5.289  0.00  0.00    -0.070 N 
ATOM      3  C1  UNL d   1       5.999  -3.954   3.939  0.00  0.00    -0.004 A 
ATOM      4  C2  UNL d   1       5.949  -5.317   3.739  0.00  0.00    -0.047 A 
ATOM      5  C3  UNL d   1       5.879  -5.929   5.013  0.00  0.00    -0.047 A 
ATOM      6  C4  UNL d   1       5.890  -4.921   5.954  0.00  0.00    -0.004 A 
ENDROOT
TORSDOF 0
ENDMDL
