MODEL 1
REMARK minimizedAffinity -0.330041736
REMARK minimizedRMSD -1
REMARK  0 active torsions:
REMARK  status: ('A' for Active; 'I' for Inactive)
ROOT
ATOM      1  C   UNL d   1      -4.183   3.376   2.480  0.00  0.00     0.172 C 
ATOM      2  N   UNL d   1      -2.768   3.150   2.301  0.00  0.00    -0.070 N 
ATOM      3  C1  UNL d   1      -2.204   2.055   1.704  0.00  0.00    -0.004 A 
ATOM      4  C2  UNL d   1      -0.835   2.218   1.729  0.00  0.00    -0.047 A 
ATOM      5  C3  UNL d   1      -0.568   3.454   2.364  0.00  0.00    -0.047 A 
ATOM      6  C4  UNL d   1      -1.782   4.010   2.708  0.00  0.00    -0.004 A 
ENDROOT
TORSDOF 0
ENDMDL
