MODEL 1
REMARK minimizedAffinity -0.244486198
REMARK minimizedRMSD -1
REMARK  0 active torsions:
REMARK  status: ('A' for Active; 'I' for Inactive)
ROOT
ATOM      1  C   UNL d   1      -4.903   5.990   5.698  0.00  0.00     0.172 C 
ATOM      2  N   UNL d   1      -4.919   5.451   4.358  0.00  0.00    -0.070 N 
ATOM      3  C1  UNL d   1      -6.000   5.434   3.518  0.00  0.00    -0.004 A 
ATOM      4  C2  UNL d   1      -5.608   4.839   2.338  0.00  0.00    -0.047 A 
ATOM      5  C3  UNL d   1      -4.245   4.485   2.475  0.00  0.00    -0.047 A 
ATOM      6  C4  UNL d   1      -3.844   4.875   3.735  0.00  0.00    -0.004 A 
ENDROOT
TORSDOF 0
ENDMDL
