MODEL 1
REMARK minimizedAffinity -1.40320933
REMARK minimizedRMSD -1
REMARK  0 active torsions:
REMARK  status: ('A' for Active; 'I' for Inactive)
ROOT
ATOM      1  C   UNL d   1      -2.631  -5.992   2.166  0.00  0.00     0.172 C 
ATOM      2  N   UNL d   1      -3.855  -5.387   1.696  0.00  0.00    -0.070 N 
ATOM      3  C1  UNL d   1      -3.973  -4.127   1.172  0.00  0.00    -0.004 A 
ATOM      4  C2  UNL d   1      -5.296  -3.928   0.844  0.00  0.00    -0.047 A 
ATOM      5  C3  UNL d   1      -5.999  -5.109   1.183  0.00  0.00    -0.047 A 
ATOM      6  C4  UNL d   1      -5.082  -5.995   1.708  0.00  0.00    -0.004 A 
ENDROOT
TORSDOF 0
ENDMDL
