MODEL 1
REMARK minimizedAffinity 0.448489159
REMARK minimizedRMSD -1
REMARK  0 active torsions:
REMARK  status: ('A' for Active; 'I' for Inactive)
ROOT
ATOM      1  C   UNL d   1      -2.558   0.653   0.618  0.00  0.00     0.172 C 
ATOM      2  N   UNL d   1      -1.261   0.358   1.179  0.00  0.00    -0.070 N 
ATOM      3  C1  UNL d   1      -0.131   1.115   1.019  0.00  0.00    -0.004 A 
ATOM      4  C2  UNL d   1       0.891   0.499   1.707  0.00  0.00    -0.047 A 
ATOM      5  C3  UNL d   1       0.358  -0.669   2.302  0.00  0.00    -0.047 A 
ATOM      6  C4  UNL d   1      -0.976  -0.732   1.959  0.00  0.00    -0.004 A 
ENDROOT
TORSDOF 0
ENDMDL
