MODEL 1
REMARK minimizedAffinity 3.09721327
REMARK minimizedRMSD -1
REMARK  0 active torsions:
REMARK  status: ('A' for Active; 'I' for Inactive)
ROOT
ATOM      1  C   UNL d   1      -6.000   1.195   2.379  0.00  0.00     0.172 C 
ATOM      2  N   UNL d   1      -5.999   0.936   3.800  0.00  0.00    -0.070 N 
ATOM      3  C1  UNL d   1      -5.996   1.887   4.785  0.00  0.00    -0.004 A 
ATOM      4  C2  UNL d   1      -5.997   1.236   6.000  0.00  0.00    -0.047 A 
ATOM      5  C3  UNL d   1      -5.999  -0.154   5.736  0.00  0.00    -0.047 A 
ATOM      6  C4  UNL d   1      -6.000  -0.312   4.366  0.00  0.00    -0.004 A 
ENDROOT
TORSDOF 0
ENDMDL
