MODEL 1
REMARK minimizedAffinity 3.13375878
REMARK minimizedRMSD -1
REMARK  0 active torsions:
REMARK  status: ('A' for Active; 'I' for Inactive)
ROOT
ATOM      1  C   UNL d   1       3.496   2.159   0.383  0.00  0.00     0.172 C 
ATOM      2  N   UNL d   1       4.322   3.277  -0.008  0.00  0.00    -0.070 N 
ATOM      3  C1  UNL d   1       5.527   3.192  -0.654  0.00  0.00    -0.004 A 
ATOM      4  C2  UNL d   1       5.993   4.474  -0.847  0.00  0.00    -0.047 A 
ATOM      5  C3  UNL d   1       5.036   5.361  -0.298  0.00  0.00    -0.047 A 
ATOM      6  C4  UNL d   1       4.012   4.593   0.214  0.00  0.00    -0.004 A 
ENDROOT
TORSDOF 0
ENDMDL
