MODEL 1
REMARK minimizedAffinity 3.39094043
REMARK minimizedRMSD -1
REMARK  0 active torsions:
REMARK  status: ('A' for Active; 'I' for Inactive)
ROOT
ATOM      1  C   UNL d   1       1.054  -2.246  -6.000  0.00  0.00     0.172 C 
ATOM      2  N   UNL d   1       2.166  -1.582  -5.362  0.00  0.00    -0.070 N 
ATOM      3  C1  UNL d   1       3.279  -1.099  -5.997  0.00  0.00    -0.004 A 
ATOM      4  C2  UNL d   1       4.100  -0.539  -5.043  0.00  0.00    -0.047 A 
ATOM      5  C3  UNL d   1       3.460  -0.693  -3.790  0.00  0.00    -0.047 A 
ATOM      6  C4  UNL d   1       2.264  -1.342  -4.017  0.00  0.00    -0.004 A 
ENDROOT
TORSDOF 0
ENDMDL
