MODEL 1
REMARK minimizedAffinity 8.98728085
REMARK minimizedRMSD -1
REMARK  1 active torsions:
REMARK  status: ('A' for Active; 'I' for Inactive)
REMARK    1  A    between atoms: C1_2  and  C2_3 
ROOT
ATOM      1  C2  UNL d   1      -2.898   1.256  -1.947  0.00  0.00    -0.076 A 
ATOM      2  C3  UNL d   1      -1.684   1.813  -1.509  0.00  0.00     0.004 A 
ATOM      3  C4  UNL d   1      -0.518   1.050  -1.469  0.00  0.00    -0.003 A 
ATOM      4  C5  UNL d   1      -0.548  -0.282  -1.866  0.00  0.00     0.000 A 
ATOM      5  C6  UNL d   1      -1.740  -0.846  -2.320  0.00  0.00     0.000 A 
ATOM      6  C7  UNL d   1      -2.920  -0.086  -2.382  0.00  0.00    -0.073 A 
ATOM      7  C8  UNL d   1      -4.179  -0.747  -2.874  0.00  0.00     0.078 C 
ENDROOT
BRANCH   1   8
ATOM      8  C1  UNL d   1      -4.136   2.124  -1.943  0.00  0.00     0.053 C 
ATOM      9  C   UNL d   1      -3.955   3.401  -2.750  0.00  0.00     0.018 C 
ENDBRANCH   1   8
TORSDOF 1
ENDMDL
