MODEL 1
REMARK minimizedAffinity -0.0628987774
REMARK minimizedRMSD -1
REMARK  1 active torsions:
REMARK  status: ('A' for Active; 'I' for Inactive)
REMARK    1  A    between atoms: C1_2  and  C2_3 
ROOT
ATOM      1  C2  UNL d   1       0.434   0.939   1.259  0.00  0.00    -0.076 A 
ATOM      2  C3  UNL d   1       0.812   1.788   2.314  0.00  0.00     0.004 A 
ATOM      3  C4  UNL d   1       0.856   3.170   2.142  0.00  0.00    -0.003 A 
ATOM      4  C5  UNL d   1       0.521   3.727   0.912  0.00  0.00     0.000 A 
ATOM      5  C6  UNL d   1       0.127   2.901  -0.140  0.00  0.00     0.000 A 
ATOM      6  C7  UNL d   1       0.062   1.506   0.021  0.00  0.00    -0.073 A 
ATOM      7  C8  UNL d   1      -0.364   0.663  -1.149  0.00  0.00     0.078 C 
ENDROOT
BRANCH   1   8
ATOM      8  C1  UNL d   1       0.431  -0.554   1.496  0.00  0.00     0.053 C 
ATOM      9  C   UNL d   1       1.526  -0.994   2.456  0.00  0.00     0.018 C 
ENDBRANCH   1   8
TORSDOF 1
ENDMDL
