MODEL 1
REMARK minimizedAffinity 2.29564238
REMARK minimizedRMSD -1
REMARK  1 active torsions:
REMARK  status: ('A' for Active; 'I' for Inactive)
REMARK    1  A    between atoms: C1_2  and  C2_3 
ROOT
ATOM      1  C2  UNL d   1      -3.012   2.787  -2.509  0.00  0.00    -0.076 A 
ATOM      2  C3  UNL d   1      -3.991   1.778  -2.496  0.00  0.00     0.004 A 
ATOM      3  C4  UNL d   1      -3.693   0.496  -2.037  0.00  0.00    -0.003 A 
ATOM      4  C5  UNL d   1      -2.412   0.202  -1.584  0.00  0.00     0.000 A 
ATOM      5  C6  UNL d   1      -1.433   1.195  -1.574  0.00  0.00     0.000 A 
ATOM      6  C7  UNL d   1      -1.721   2.497  -2.018  0.00  0.00    -0.073 A 
ATOM      7  C8  UNL d   1      -0.625   3.528  -1.991  0.00  0.00     0.078 C 
ENDROOT
BRANCH   1   8
ATOM      8  C1  UNL d   1      -3.385   4.151  -3.044  0.00  0.00     0.053 C 
ATOM      9  C   UNL d   1      -4.886   4.395  -3.021  0.00  0.00     0.018 C 
ENDBRANCH   1   8
TORSDOF 1
ENDMDL
