MODEL 1
REMARK minimizedAffinity 8.73846245
REMARK minimizedRMSD -1
REMARK  1 active torsions:
REMARK  status: ('A' for Active; 'I' for Inactive)
REMARK    1  A    between atoms: C1_2  and  C2_3 
ROOT
ATOM      1  C2  UNL d   1      -2.855   2.619  -2.611  0.00  0.00    -0.076 A 
ATOM      2  C3  UNL d   1      -3.748   1.537  -2.704  0.00  0.00     0.004 A 
ATOM      3  C4  UNL d   1      -3.333   0.238  -2.420  0.00  0.00    -0.003 A 
ATOM      4  C5  UNL d   1      -2.018  -0.002  -2.036  0.00  0.00     0.000 A 
ATOM      5  C6  UNL d   1      -1.123   1.062  -1.921  0.00  0.00     0.000 A 
ATOM      6  C7  UNL d   1      -1.529   2.380  -2.188  0.00  0.00    -0.073 A 
ATOM      7  C8  UNL d   1      -0.521   3.488  -2.054  0.00  0.00     0.078 C 
ENDROOT
BRANCH   1   8
ATOM      8  C1  UNL d   1      -3.354   4.003  -2.958  0.00  0.00     0.053 C 
ATOM      9  C   UNL d   1      -4.766   3.988  -3.524  0.00  0.00     0.018 C 
ENDBRANCH   1   8
TORSDOF 1
ENDMDL
