MODEL 1
REMARK minimizedAffinity -2.8350265
REMARK minimizedRMSD -1
REMARK  1 active torsions:
REMARK  status: ('A' for Active; 'I' for Inactive)
REMARK    1  A    between atoms: C1_2  and  C2_3 
ROOT
ATOM      1  C2  UNL d   1      -0.109   2.588   0.224  0.00  0.00    -0.076 A 
ATOM      2  C3  UNL d   1      -0.342   1.854  -0.952  0.00  0.00     0.004 A 
ATOM      3  C4  UNL d   1      -0.270   0.462  -0.954  0.00  0.00    -0.003 A 
ATOM      4  C5  UNL d   1       0.034  -0.218   0.220  0.00  0.00     0.000 A 
ATOM      5  C6  UNL d   1       0.250   0.493   1.400  0.00  0.00     0.000 A 
ATOM      6  C7  UNL d   1       0.166   1.896   1.423  0.00  0.00    -0.073 A 
ATOM      7  C8  UNL d   1       0.414   2.613   2.721  0.00  0.00     0.078 C 
ENDROOT
BRANCH   1   8
ATOM      8  C1  UNL d   1      -0.174   4.098   0.160  0.00  0.00     0.053 C 
ATOM      9  C   UNL d   1       0.046   4.631  -1.248  0.00  0.00     0.018 C 
ENDBRANCH   1   8
TORSDOF 1
ENDMDL
