MODEL 1
REMARK minimizedAffinity 4.20549202
REMARK minimizedRMSD -1
REMARK  0 active torsions:
REMARK  status: ('A' for Active; 'I' for Inactive)
ROOT
ATOM      1  O1  BZF d   1       0.949  -2.207  -2.414  0.00  0.00    -0.204 OA
ATOM      2  C2  BZF d   1       1.165  -2.469  -3.754  0.00  0.00     0.174 A 
ATOM      3  C3  BZF d   1       2.335  -1.937  -4.162  0.00  0.00    -0.012 A 
ATOM      4  C3A BZF d   1       2.928  -1.383  -2.984  0.00  0.00    -0.107 A 
ATOM      5  C4  BZF d   1       4.104  -0.731  -2.742  0.00  0.00     0.055 A 
ATOM      6  C5  BZF d   1       4.350  -0.254  -1.494  0.00  0.00    -0.016 A 
ATOM      7  C6  BZF d   1       3.442  -0.405  -0.467  0.00  0.00     0.022 A 
ATOM      8  C7  BZF d   1       2.264  -1.049  -0.657  0.00  0.00     0.029 A 
ATOM      9  C7A BZF d   1       2.027  -1.561  -1.909  0.00  0.00     0.058 A 
ENDROOT
TORSDOF 0
ENDMDL
