MODEL 1
REMARK minimizedAffinity -2.13603115
REMARK minimizedRMSD -1
REMARK  0 active torsions:
REMARK  status: ('A' for Active; 'I' for Inactive)
ROOT
ATOM      1  O1  BZF d   1       0.039  -0.354   1.890  0.00  0.00    -0.204 OA
ATOM      2  C2  BZF d   1      -0.656   0.835   1.998  0.00  0.00     0.174 A 
ATOM      3  C3  BZF d   1      -0.659   1.496   0.823  0.00  0.00    -0.012 A 
ATOM      4  C3A BZF d   1       0.001   0.625  -0.101  0.00  0.00    -0.107 A 
ATOM      5  C4  BZF d   1       0.294   0.715  -1.431  0.00  0.00     0.055 A 
ATOM      6  C5  BZF d   1       1.014  -0.277  -2.018  0.00  0.00    -0.016 A 
ATOM      7  C6  BZF d   1       1.460  -1.370  -1.304  0.00  0.00     0.022 A 
ATOM      8  C7  BZF d   1       1.190  -1.506   0.017  0.00  0.00     0.029 A 
ATOM      9  C7A BZF d   1       0.435  -0.521   0.605  0.00  0.00     0.058 A 
ENDROOT
TORSDOF 0
ENDMDL
