MODEL 1
REMARK minimizedAffinity 7.7539916
REMARK minimizedRMSD -1
REMARK  0 active torsions:
REMARK  status: ('A' for Active; 'I' for Inactive)
ROOT
ATOM      1  O1  BZF d   1       3.606  -0.099  -2.176  0.00  0.00    -0.204 OA
ATOM      2  C2  BZF d   1       3.168  -0.831  -1.088  0.00  0.00     0.174 A 
ATOM      3  C3  BZF d   1       2.076  -0.262  -0.537  0.00  0.00    -0.012 A 
ATOM      4  C3A BZF d   1       1.760   0.845  -1.386  0.00  0.00    -0.107 A 
ATOM      5  C4  BZF d   1       0.771   1.787  -1.371  0.00  0.00     0.055 A 
ATOM      6  C5  BZF d   1       0.787   2.777  -2.303  0.00  0.00    -0.016 A 
ATOM      7  C6  BZF d   1       1.779   2.858  -3.259  0.00  0.00     0.022 A 
ATOM      8  C7  BZF d   1       2.778   1.943  -3.316  0.00  0.00     0.029 A 
ATOM      9  C7A BZF d   1       2.745   0.923  -2.397  0.00  0.00     0.058 A 
ENDROOT
TORSDOF 0
ENDMDL
