MODEL 1
REMARK minimizedAffinity -1.71246207
REMARK minimizedRMSD -1
REMARK  0 active torsions:
REMARK  status: ('A' for Active; 'I' for Inactive)
ROOT
ATOM      1  O1  BZF d   1      -2.144  -0.500  -0.921  0.00  0.00    -0.204 OA
ATOM      2  C2  BZF d   1      -2.483  -1.836  -1.023  0.00  0.00     0.174 A 
ATOM      3  C3  BZF d   1      -1.399  -2.584  -1.312  0.00  0.00    -0.012 A 
ATOM      4  C3A BZF d   1      -0.298  -1.670  -1.304  0.00  0.00    -0.107 A 
ATOM      5  C4  BZF d   1       1.045  -1.815  -1.506  0.00  0.00     0.055 A 
ATOM      6  C5  BZF d   1       1.837  -0.711  -1.503  0.00  0.00    -0.016 A 
ATOM      7  C6  BZF d   1       1.320   0.553  -1.305  0.00  0.00     0.022 A 
ATOM      8  C7  BZF d   1      -0.005   0.747  -1.096  0.00  0.00     0.029 A 
ATOM      9  C7A BZF d   1      -0.803  -0.371  -1.066  0.00  0.00     0.058 A 
ENDROOT
TORSDOF 0
ENDMDL
