MODEL 1
REMARK minimizedAffinity 7.79169083
REMARK minimizedRMSD -1
REMARK  0 active torsions:
REMARK  status: ('A' for Active; 'I' for Inactive)
ROOT
ATOM      1  O1  BZF d   1       2.864   1.803  -0.609  0.00  0.00    -0.204 OA
ATOM      2  C2  BZF d   1       2.834   1.331  -1.908  0.00  0.00     0.174 A 
ATOM      3  C3  BZF d   1       1.621   0.819  -2.202  0.00  0.00    -0.012 A 
ATOM      4  C3A BZF d   1       0.818   1.064  -1.044  0.00  0.00    -0.107 A 
ATOM      5  C4  BZF d   1      -0.486   0.801  -0.733  0.00  0.00     0.055 A 
ATOM      6  C5  BZF d   1      -0.942   1.104   0.511  0.00  0.00    -0.016 A 
ATOM      7  C6  BZF d   1      -0.122   1.663   1.469  0.00  0.00     0.022 A 
ATOM      8  C7  BZF d   1       1.177   1.947   1.205  0.00  0.00     0.029 A 
ATOM      9  C7A BZF d   1       1.632   1.673  -0.061  0.00  0.00     0.058 A 
ENDROOT
TORSDOF 0
ENDMDL
