MODEL 1
REMARK minimizedAffinity 6.254704
REMARK minimizedRMSD -1
REMARK  0 active torsions:
REMARK  status: ('A' for Active; 'I' for Inactive)
ROOT
ATOM      1  O1  BZF d   1      -1.055   2.178  -1.402  0.00  0.00    -0.204 OA
ATOM      2  C2  BZF d   1      -1.429   1.146  -0.563  0.00  0.00     0.174 A 
ATOM      3  C3  BZF d   1      -0.482   0.187  -0.533  0.00  0.00    -0.012 A 
ATOM      4  C3A BZF d   1       0.589   0.690  -1.337  0.00  0.00    -0.107 A 
ATOM      5  C4  BZF d   1       1.817   0.200  -1.679  0.00  0.00     0.055 A 
ATOM      6  C5  BZF d   1       2.594   0.907  -2.541  0.00  0.00    -0.016 A 
ATOM      7  C6  BZF d   1       2.173   2.104  -3.084  0.00  0.00     0.022 A 
ATOM      8  C7  BZF d   1       0.965   2.632  -2.771  0.00  0.00     0.029 A 
ATOM      9  C7A BZF d   1       0.191   1.936  -1.874  0.00  0.00     0.058 A 
ENDROOT
TORSDOF 0
ENDMDL
