MODEL 1
REMARK minimizedAffinity 5.95712757
REMARK minimizedRMSD -1
REMARK  0 active torsions:
REMARK  status: ('A' for Active; 'I' for Inactive)
ROOT
ATOM      1  O1  BZF d   1       2.004  -0.926  -3.020  0.00  0.00    -0.204 OA
ATOM      2  C2  BZF d   1       2.361  -0.949  -1.686  0.00  0.00     0.174 A 
ATOM      3  C3  BZF d   1       2.479   0.303  -1.200  0.00  0.00    -0.012 A 
ATOM      4  C3A BZF d   1       2.087   1.162  -2.275  0.00  0.00    -0.107 A 
ATOM      5  C4  BZF d   1       1.980   2.517  -2.403  0.00  0.00     0.055 A 
ATOM      6  C5  BZF d   1       1.639   3.042  -3.610  0.00  0.00    -0.016 A 
ATOM      7  C6  BZF d   1       1.404   2.242  -4.709  0.00  0.00     0.022 A 
ATOM      8  C7  BZF d   1       1.493   0.892  -4.630  0.00  0.00     0.029 A 
ATOM      9  C7A BZF d   1       1.805   0.358  -3.404  0.00  0.00     0.058 A 
ENDROOT
TORSDOF 0
ENDMDL
