MODEL 1
REMARK minimizedAffinity 5.42582512
REMARK minimizedRMSD -1
REMARK  0 active torsions:
REMARK  status: ('A' for Active; 'I' for Inactive)
ROOT
ATOM      1  O1  BZF d   1      -3.371  -2.658  -1.198  0.00  0.00    -0.204 OA
ATOM      2  C2  BZF d   1      -2.300  -2.792  -0.336  0.00  0.00     0.174 A 
ATOM      3  C3  BZF d   1      -2.434  -3.897   0.425  0.00  0.00    -0.012 A 
ATOM      4  C3A BZF d   1      -3.619  -4.541  -0.051  0.00  0.00    -0.107 A 
ATOM      5  C4  BZF d   1      -4.267  -5.692   0.296  0.00  0.00     0.055 A 
ATOM      6  C5  BZF d   1      -5.441  -5.999  -0.315  0.00  0.00    -0.016 A 
ATOM      7  C6  BZF d   1      -5.998  -5.177  -1.272  0.00  0.00     0.022 A 
ATOM      8  C7  BZF d   1      -5.390  -4.028  -1.654  0.00  0.00     0.029 A 
ATOM      9  C7A BZF d   1      -4.187  -3.731  -1.062  0.00  0.00     0.058 A 
ENDROOT
TORSDOF 0
ENDMDL
