MODEL 1
REMARK minimizedAffinity 1.60154343
REMARK minimizedRMSD -1
REMARK  0 active torsions:
REMARK  status: ('A' for Active; 'I' for Inactive)
ROOT
ATOM      1  O1  BZF d   1       1.143   0.135  -0.729  0.00  0.00    -0.204 OA
ATOM      2  C2  BZF d   1       2.438   0.498  -1.043  0.00  0.00     0.174 A 
ATOM      3  C3  BZF d   1       3.100  -0.531  -1.611  0.00  0.00    -0.012 A 
ATOM      4  C3A BZF d   1       2.131  -1.576  -1.739  0.00  0.00    -0.107 A 
ATOM      5  C4  BZF d   1       2.178  -2.843  -2.245  0.00  0.00     0.055 A 
ATOM      6  C5  BZF d   1       1.076  -3.633  -2.153  0.00  0.00    -0.016 A 
ATOM      7  C6  BZF d   1      -0.087  -3.190  -1.557  0.00  0.00     0.022 A 
ATOM      8  C7  BZF d   1      -0.183  -1.939  -1.045  0.00  0.00     0.029 A 
ATOM      9  C7A BZF d   1       0.918  -1.127  -1.167  0.00  0.00     0.058 A 
ENDROOT
TORSDOF 0
ENDMDL
