MODEL 1
REMARK minimizedAffinity 3.71746445
REMARK minimizedRMSD -1
REMARK  0 active torsions:
REMARK  status: ('A' for Active; 'I' for Inactive)
ROOT
ATOM      1  O1  BZF d   1       0.827   2.753  -2.558  0.00  0.00    -0.204 OA
ATOM      2  C2  BZF d   1       1.816   2.819  -3.521  0.00  0.00     0.174 A 
ATOM      3  C3  BZF d   1       2.684   1.796  -3.386  0.00  0.00    -0.012 A 
ATOM      4  C3A BZF d   1       2.157   0.992  -2.326  0.00  0.00    -0.107 A 
ATOM      5  C4  BZF d   1       2.564  -0.171  -1.738  0.00  0.00     0.055 A 
ATOM      6  C5  BZF d   1       1.865  -0.656  -0.679  0.00  0.00    -0.016 A 
ATOM      7  C6  BZF d   1       0.758  -0.002  -0.180  0.00  0.00     0.022 A 
ATOM      8  C7  BZF d   1       0.312   1.152  -0.733  0.00  0.00     0.029 A 
ATOM      9  C7A BZF d   1       0.998   1.627  -1.824  0.00  0.00     0.058 A 
ENDROOT
TORSDOF 0
ENDMDL
