MODEL 1
REMARK minimizedAffinity 12.3599262
REMARK minimizedRMSD -1
REMARK  0 active torsions:
REMARK  status: ('A' for Active; 'I' for Inactive)
ROOT
ATOM      1  O1  BZF d   1       1.284  -1.199  -1.560  0.00  0.00    -0.204 OA
ATOM      2  C2  BZF d   1       1.995  -0.014  -1.551  0.00  0.00     0.174 A 
ATOM      3  C3  BZF d   1       1.208   1.013  -1.171  0.00  0.00    -0.012 A 
ATOM      4  C3A BZF d   1      -0.051   0.419  -0.837  0.00  0.00    -0.107 A 
ATOM      5  C4  BZF d   1      -1.234   0.922  -0.378  0.00  0.00     0.055 A 
ATOM      6  C5  BZF d   1      -2.293   0.085  -0.223  0.00  0.00    -0.016 A 
ATOM      7  C6  BZF d   1      -2.205  -1.259  -0.523  0.00  0.00     0.022 A 
ATOM      8  C7  BZF d   1      -1.051  -1.805  -0.977  0.00  0.00     0.029 A 
ATOM      9  C7A BZF d   1       0.030  -0.967  -1.103  0.00  0.00     0.058 A 
ENDROOT
TORSDOF 0
ENDMDL
