MODEL 1
REMARK minimizedAffinity 4.18023872
REMARK minimizedRMSD -1
REMARK  0 active torsions:
REMARK  status: ('A' for Active; 'I' for Inactive)
ROOT
ATOM      1  O1  BZF d   1       1.350   0.003  -0.950  0.00  0.00    -0.204 OA
ATOM      2  C2  BZF d   1       2.418  -0.842  -1.185  0.00  0.00     0.174 A 
ATOM      3  C3  BZF d   1       2.013  -2.127  -1.219  0.00  0.00    -0.012 A 
ATOM      4  C3A BZF d   1       0.589  -2.077  -1.083  0.00  0.00    -0.107 A 
ATOM      5  C4  BZF d   1      -0.386  -3.033  -1.060  0.00  0.00     0.055 A 
ATOM      6  C5  BZF d   1      -1.674  -2.657  -0.839  0.00  0.00    -0.016 A 
ATOM      7  C6  BZF d   1      -2.020  -1.338  -0.631  0.00  0.00     0.022 A 
ATOM      8  C7  BZF d   1      -1.088  -0.354  -0.650  0.00  0.00     0.029 A 
ATOM      9  C7A BZF d   1       0.209  -0.727  -0.906  0.00  0.00     0.058 A 
ENDROOT
TORSDOF 0
ENDMDL
