MODEL 1
REMARK minimizedAffinity 12.6524086
REMARK minimizedRMSD -1
REMARK  0 active torsions:
REMARK  status: ('A' for Active; 'I' for Inactive)
ROOT
ATOM      1  O1  BZF d   1       0.664   0.508  -1.814  0.00  0.00    -0.204 OA
ATOM      2  C2  BZF d   1       2.046   0.513  -1.831  0.00  0.00     0.174 A 
ATOM      3  C3  BZF d   1       2.536   1.102  -0.722  0.00  0.00    -0.012 A 
ATOM      4  C3A BZF d   1       1.390   1.407   0.079  0.00  0.00    -0.107 A 
ATOM      5  C4  BZF d   1       1.229   1.986   1.306  0.00  0.00     0.055 A 
ATOM      6  C5  BZF d   1      -0.028   2.205   1.773  0.00  0.00    -0.016 A 
ATOM      7  C6  BZF d   1      -1.145   1.864   1.039  0.00  0.00     0.022 A 
ATOM      8  C7  BZF d   1      -1.036   1.283  -0.181  0.00  0.00     0.029 A 
ATOM      9  C7A BZF d   1       0.233   1.030  -0.641  0.00  0.00     0.058 A 
ENDROOT
TORSDOF 0
ENDMDL
