MODEL 1
REMARK minimizedAffinity 13.7347221
REMARK minimizedRMSD -1
REMARK  0 active torsions:
REMARK  status: ('A' for Active; 'I' for Inactive)
ROOT
ATOM      1  O1  BZF d   1       0.318   3.274  -2.395  0.00  0.00    -0.204 OA
ATOM      2  C2  BZF d   1       0.930   4.045  -3.364  0.00  0.00     0.174 A 
ATOM      3  C3  BZF d   1       2.130   3.528  -3.700  0.00  0.00    -0.012 A 
ATOM      4  C3A BZF d   1       2.236   2.310  -2.956  0.00  0.00    -0.107 A 
ATOM      5  C4  BZF d   1       3.193   1.339  -2.876  0.00  0.00     0.055 A 
ATOM      6  C5  BZF d   1       3.023   0.315  -1.999  0.00  0.00    -0.016 A 
ATOM      7  C6  BZF d   1       1.912   0.232  -1.185  0.00  0.00     0.022 A 
ATOM      8  C7  BZF d   1       0.934   1.169  -1.233  0.00  0.00     0.029 A 
ATOM      9  C7A BZF d   1       1.087   2.187  -2.142  0.00  0.00     0.058 A 
ENDROOT
TORSDOF 0
ENDMDL
