MODEL 1
REMARK minimizedAffinity 6.16930771
REMARK minimizedRMSD -1
REMARK  0 active torsions:
REMARK  status: ('A' for Active; 'I' for Inactive)
ROOT
ATOM      1  O1  BZF d   1      -0.952   0.547  -0.289  0.00  0.00    -0.204 OA
ATOM      2  C2  BZF d   1      -1.103   1.627   0.559  0.00  0.00     0.174 A 
ATOM      3  C3  BZF d   1       0.069   2.275   0.721  0.00  0.00    -0.012 A 
ATOM      4  C3A BZF d   1       0.991   1.609  -0.147  0.00  0.00    -0.107 A 
ATOM      5  C4  BZF d   1       2.311   1.801  -0.440  0.00  0.00     0.055 A 
ATOM      6  C5  BZF d   1       2.935   0.931  -1.276  0.00  0.00    -0.016 A 
ATOM      7  C6  BZF d   1       2.272  -0.144  -1.832  0.00  0.00     0.022 A 
ATOM      8  C7  BZF d   1       0.961  -0.372  -1.575  0.00  0.00     0.029 A 
ATOM      9  C7A BZF d   1       0.319   0.525  -0.757  0.00  0.00     0.058 A 
ENDROOT
TORSDOF 0
ENDMDL
