MODEL 1
REMARK minimizedAffinity 6.0896225
REMARK minimizedRMSD -1
REMARK  0 active torsions:
REMARK  status: ('A' for Active; 'I' for Inactive)
ROOT
ATOM      1  O1  BZF d   1       0.025   0.410  -0.735  0.00  0.00    -0.204 OA
ATOM      2  C2  BZF d   1       1.239  -0.174  -1.042  0.00  0.00     0.174 A 
ATOM      3  C3  BZF d   1       1.108  -1.510  -1.171  0.00  0.00    -0.012 A 
ATOM      4  C3A BZF d   1      -0.291  -1.767  -1.021  0.00  0.00    -0.107 A 
ATOM      5  C4  BZF d   1      -1.046  -2.904  -1.064  0.00  0.00     0.055 A 
ATOM      6  C5  BZF d   1      -2.378  -2.822  -0.804  0.00  0.00    -0.016 A 
ATOM      7  C6  BZF d   1      -2.985  -1.623  -0.495  0.00  0.00     0.022 A 
ATOM      8  C7  BZF d   1      -2.278  -0.468  -0.445  0.00  0.00     0.029 A 
ATOM      9  C7A BZF d   1      -0.938  -0.542  -0.739  0.00  0.00     0.058 A 
ENDROOT
TORSDOF 0
ENDMDL
