MODEL 1
REMARK minimizedAffinity -4.27157307
REMARK minimizedRMSD -1
REMARK  0 active torsions:
REMARK  status: ('A' for Active; 'I' for Inactive)
ROOT
ATOM      1  O1  BZF d   1      -1.134  -0.766  -0.602  0.00  0.00    -0.204 OA
ATOM      2  C2  BZF d   1      -1.785   0.342  -0.094  0.00  0.00     0.174 A 
ATOM      3  C3  BZF d   1      -0.898   1.281   0.295  0.00  0.00    -0.012 A 
ATOM      4  C3A BZF d   1       0.384   0.763  -0.073  0.00  0.00    -0.107 A 
ATOM      5  C4  BZF d   1       1.658   1.244   0.038  0.00  0.00     0.055 A 
ATOM      6  C5  BZF d   1       2.696   0.459  -0.353  0.00  0.00    -0.016 A 
ATOM      7  C6  BZF d   1       2.498  -0.811  -0.854  0.00  0.00     0.022 A 
ATOM      8  C7  BZF d   1       1.252  -1.329  -0.987  0.00  0.00     0.029 A 
ATOM      9  C7A BZF d   1       0.199  -0.526  -0.624  0.00  0.00     0.058 A 
ENDROOT
TORSDOF 0
ENDMDL
