MODEL 1
REMARK minimizedAffinity 3.99570775
REMARK minimizedRMSD -1
REMARK  0 active torsions:
REMARK  status: ('A' for Active; 'I' for Inactive)
ROOT
ATOM      1  O1  BZF d   1       1.007   2.057  -2.628  0.00  0.00    -0.204 OA
ATOM      2  C2  BZF d   1       1.777   2.300  -3.749  0.00  0.00     0.174 A 
ATOM      3  C3  BZF d   1       2.740   1.366  -3.880  0.00  0.00    -0.012 A 
ATOM      4  C3A BZF d   1       2.503   0.431  -2.823  0.00  0.00    -0.107 A 
ATOM      5  C4  BZF d   1       3.118  -0.726  -2.438  0.00  0.00     0.055 A 
ATOM      6  C5  BZF d   1       2.685  -1.362  -1.317  0.00  0.00    -0.016 A 
ATOM      7  C6  BZF d   1       1.646  -0.868  -0.557  0.00  0.00     0.022 A 
ATOM      8  C7  BZF d   1       1.002   0.274  -0.902  0.00  0.00     0.029 A 
ATOM      9  C7A BZF d   1       1.415   0.901  -2.052  0.00  0.00     0.058 A 
ENDROOT
TORSDOF 0
ENDMDL
