MODEL 1
REMARK minimizedAffinity 4.32739687
REMARK minimizedRMSD -1
REMARK  0 active torsions:
REMARK  status: ('A' for Active; 'I' for Inactive)
ROOT
ATOM      1  O1  BZF d   1       0.702  -0.079  -0.748  0.00  0.00    -0.204 OA
ATOM      2  C2  BZF d   1       1.548  -1.169  -0.791  0.00  0.00     0.174 A 
ATOM      3  C3  BZF d   1       2.505  -0.996  -1.725  0.00  0.00    -0.012 A 
ATOM      4  C3A BZF d   1       2.295   0.323  -2.239  0.00  0.00    -0.107 A 
ATOM      5  C4  BZF d   1       2.935   1.076  -3.181  0.00  0.00     0.055 A 
ATOM      6  C5  BZF d   1       2.434   2.298  -3.501  0.00  0.00    -0.016 A 
ATOM      7  C6  BZF d   1       1.294   2.795  -2.904  0.00  0.00     0.022 A 
ATOM      8  C7  BZF d   1       0.628   2.086  -1.961  0.00  0.00     0.029 A 
ATOM      9  C7A BZF d   1       1.150   0.865  -1.611  0.00  0.00     0.058 A 
ENDROOT
TORSDOF 0
ENDMDL
