MODEL 1
REMARK minimizedAffinity -4.14203405
REMARK minimizedRMSD -1
REMARK  0 active torsions:
REMARK  status: ('A' for Active; 'I' for Inactive)
ROOT
ATOM      1  C4' PXY d   1       0.987  -0.440  -2.217  0.00  0.00     0.077 C 
ATOM      2  C1' PXY d   1      -1.396   1.177   2.796  0.00  0.00     0.077 C 
ATOM      3  C1  PXY d   1      -0.759   0.756   1.486  0.00  0.00    -0.082 A 
ATOM      4  C2  PXY d   1      -1.480   0.761   0.377  0.00  0.00     0.003 A 
ATOM      5  C3  PXY d   1      -0.929   0.353  -0.811  0.00  0.00     0.003 A 
ATOM      6  C4  PXY d   1       0.388  -0.014  -0.873  0.00  0.00    -0.082 A 
ATOM      7  C5  PXY d   1       1.134  -0.011   0.252  0.00  0.00     0.003 A 
ATOM      8  C6  PXY d   1       0.544   0.367   1.455  0.00  0.00     0.003 A 
ENDROOT
TORSDOF 0
ENDMDL
