MODEL 1
REMARK minimizedAffinity -5.32414865
REMARK minimizedRMSD -1
REMARK  0 active torsions:
REMARK  status: ('A' for Active; 'I' for Inactive)
ROOT
ATOM      1  C4' PXY d   1       0.347  -0.754  -1.837  0.00  0.00     0.077 C 
ATOM      2  C1' PXY d   1      -0.863   1.517   3.340  0.00  0.00     0.077 C 
ATOM      3  C1  PXY d   1      -0.534   0.926   1.983  0.00  0.00    -0.082 A 
ATOM      4  C2  PXY d   1      -1.507   0.695   1.116  0.00  0.00     0.003 A 
ATOM      5  C3  PXY d   1      -1.230   0.131  -0.103  0.00  0.00     0.003 A 
ATOM      6  C4  PXY d   1       0.062  -0.150  -0.459  0.00  0.00    -0.082 A 
ATOM      7  C5  PXY d   1       1.061   0.093   0.415  0.00  0.00     0.003 A 
ATOM      8  C6  PXY d   1       0.755   0.627   1.664  0.00  0.00     0.003 A 
ENDROOT
TORSDOF 0
ENDMDL
