MODEL 1
REMARK minimizedAffinity -3.53271055
REMARK minimizedRMSD -1
REMARK  0 active torsions:
REMARK  status: ('A' for Active; 'I' for Inactive)
ROOT
ATOM      1  C4' PXY d   1       0.695  -0.397  -1.794  0.00  0.00     0.077 C 
ATOM      2  C1' PXY d   1      -1.459   1.316   3.290  0.00  0.00     0.077 C 
ATOM      3  C1  PXY d   1      -0.884   0.874   1.958  0.00  0.00    -0.082 A 
ATOM      4  C2  PXY d   1      -1.689   0.387   1.027  0.00  0.00     0.003 A 
ATOM      5  C3  PXY d   1      -1.181  -0.046  -0.171  0.00  0.00     0.003 A 
ATOM      6  C4  PXY d   1       0.157   0.069  -0.438  0.00  0.00    -0.082 A 
ATOM      7  C5  PXY d   1       0.982   0.575   0.502  0.00  0.00     0.003 A 
ATOM      8  C6  PXY d   1       0.453   0.971   1.727  0.00  0.00     0.003 A 
ENDROOT
TORSDOF 0
ENDMDL
