MODEL 1
REMARK minimizedAffinity 4.79962683
REMARK minimizedRMSD -1
REMARK  2 active torsions:
REMARK  status: ('A' for Active; 'I' for Inactive)
REMARK    1  A    between atoms: C1_2  and  C2_3 
REMARK    2  A    between atoms: C2_3  and  C3_4 
ROOT
ATOM      1  C3  UNL d   1       0.127   4.230   0.601  0.00  0.00    -0.075 A 
ATOM      2  C4  UNL d   1      -1.004   3.555   1.085  0.00  0.00     0.002 A 
ATOM      3  C5  UNL d   1      -0.886   2.629   2.121  0.00  0.00     0.002 A 
ATOM      4  C6  UNL d   1       0.361   2.358   2.679  0.00  0.00    -0.004 A 
ATOM      5  C7  UNL d   1       1.493   3.010   2.196  0.00  0.00     0.002 A 
ATOM      6  C8  UNL d   1       1.378   3.941   1.162  0.00  0.00     0.002 A 
ENDROOT
BRANCH   1   7
ATOM      7  C2  UNL d   1       0.002   5.256  -0.500  0.00  0.00     0.056 C 
BRANCH   7   8
ATOM      8  C1  UNL d   1      -1.345   5.986  -0.522  0.00  0.00     0.007 C 
ATOM      9  C   UNL d   1      -2.001   5.994  -1.897  0.00  0.00     0.009 C 
ENDBRANCH   7   8
ENDBRANCH   1   7
TORSDOF 2
ENDMDL
