MODEL 1
REMARK minimizedAffinity 7.37259054
REMARK minimizedRMSD -1
REMARK  2 active torsions:
REMARK  status: ('A' for Active; 'I' for Inactive)
REMARK    1  A    between atoms: C1_2  and  C2_3 
REMARK    2  A    between atoms: C2_3  and  C3_4 
ROOT
ATOM      1  C3  UNL d   1      -0.178   3.660   1.350  0.00  0.00    -0.075 A 
ATOM      2  C4  UNL d   1       0.033   3.329   0.004  0.00  0.00     0.002 A 
ATOM      3  C5  UNL d   1       0.077   4.325  -0.972  0.00  0.00     0.002 A 
ATOM      4  C6  UNL d   1      -0.098   5.660  -0.617  0.00  0.00    -0.004 A 
ATOM      5  C7  UNL d   1      -0.325   5.999   0.716  0.00  0.00     0.002 A 
ATOM      6  C8  UNL d   1      -0.365   5.005   1.695  0.00  0.00     0.002 A 
ENDROOT
BRANCH   1   7
ATOM      7  C2  UNL d   1      -0.198   2.589   2.415  0.00  0.00     0.056 C 
BRANCH   7   8
ATOM      8  C1  UNL d   1      -1.560   2.410   3.095  0.00  0.00     0.007 C 
ATOM      9  C   UNL d   1      -2.319   1.184   2.605  0.00  0.00     0.009 C 
ENDBRANCH   7   8
ENDBRANCH   1   7
TORSDOF 2
ENDMDL
