MODEL 1
REMARK minimizedAffinity 10.0492401
REMARK minimizedRMSD -1
REMARK  2 active torsions:
REMARK  status: ('A' for Active; 'I' for Inactive)
REMARK    1  A    between atoms: C1_2  and  C2_3 
REMARK    2  A    between atoms: C2_3  and  C3_4 
ROOT
ATOM      1  C3  UNL d   1       0.311   2.419   2.852  0.00  0.00    -0.075 A 
ATOM      2  C4  UNL d   1      -0.933   3.062   2.776  0.00  0.00     0.002 A 
ATOM      3  C5  UNL d   1      -1.241   3.881   1.689  0.00  0.00     0.002 A 
ATOM      4  C6  UNL d   1      -0.309   4.076   0.673  0.00  0.00    -0.004 A 
ATOM      5  C7  UNL d   1       0.936   3.455   0.747  0.00  0.00     0.002 A 
ATOM      6  C8  UNL d   1       1.246   2.632   1.830  0.00  0.00     0.002 A 
ENDROOT
BRANCH   1   7
ATOM      7  C2  UNL d   1       0.640   1.508   4.011  0.00  0.00     0.056 C 
BRANCH   7   8
ATOM      8  C1  UNL d   1       1.345   0.210   3.603  0.00  0.00     0.007 C 
ATOM      9  C   UNL d   1       1.132  -0.926   4.595  0.00  0.00     0.009 C 
ENDBRANCH   7   8
ENDBRANCH   1   7
TORSDOF 2
ENDMDL
