MODEL 1
REMARK minimizedAffinity 4.62122393
REMARK minimizedRMSD -1
REMARK  2 active torsions:
REMARK  status: ('A' for Active; 'I' for Inactive)
REMARK    1  A    between atoms: C1_2  and  C2_3 
REMARK    2  A    between atoms: C2_3  and  C3_4 
ROOT
ATOM      1  C3  UNL d   1       4.597  -3.201  -2.060  0.00  0.00    -0.075 A 
ATOM      2  C4  UNL d   1       4.028  -2.032  -1.534  0.00  0.00     0.002 A 
ATOM      3  C5  UNL d   1       4.426  -1.550  -0.287  0.00  0.00     0.002 A 
ATOM      4  C6  UNL d   1       5.389  -2.234   0.453  0.00  0.00    -0.004 A 
ATOM      5  C7  UNL d   1       5.948  -3.405  -0.053  0.00  0.00     0.002 A 
ATOM      6  C8  UNL d   1       5.555  -3.887  -1.303  0.00  0.00     0.002 A 
ENDROOT
BRANCH   1   7
ATOM      7  C2  UNL d   1       4.191  -3.712  -3.422  0.00  0.00     0.056 C 
BRANCH   7   8
ATOM      8  C1  UNL d   1       3.719  -5.169  -3.427  0.00  0.00     0.007 C 
ATOM      9  C   UNL d   1       2.489  -5.405  -2.560  0.00  0.00     0.009 C 
ENDBRANCH   7   8
ENDBRANCH   1   7
TORSDOF 2
ENDMDL
