MODEL 1
REMARK minimizedAffinity 8.1544857
REMARK minimizedRMSD -1
REMARK  2 active torsions:
REMARK  status: ('A' for Active; 'I' for Inactive)
REMARK    1  A    between atoms: C1_2  and  C2_3 
REMARK    2  A    between atoms: C2_3  and  C3_4 
ROOT
ATOM      1  C3  UNL d   1      -0.148   5.198  -1.239  0.00  0.00    -0.075 A 
ATOM      2  C4  UNL d   1      -1.541   5.292  -1.371  0.00  0.00     0.002 A 
ATOM      3  C5  UNL d   1      -2.115   5.632  -2.597  0.00  0.00     0.002 A 
ATOM      4  C6  UNL d   1      -1.305   5.893  -3.700  0.00  0.00    -0.004 A 
ATOM      5  C7  UNL d   1       0.080   5.819  -3.576  0.00  0.00     0.002 A 
ATOM      6  C8  UNL d   1       0.657   5.474  -2.352  0.00  0.00     0.002 A 
ENDROOT
BRANCH   1   7
ATOM      7  C2  UNL d   1       0.478   4.802   0.077  0.00  0.00     0.056 C 
BRANCH   7   8
ATOM      8  C1  UNL d   1       0.147   3.373   0.519  0.00  0.00     0.007 C 
ATOM      9  C   UNL d   1       0.271   3.166   2.023  0.00  0.00     0.009 C 
ENDBRANCH   7   8
ENDBRANCH   1   7
TORSDOF 2
ENDMDL
