MODEL 1
REMARK minimizedAffinity -2.23391509
REMARK minimizedRMSD -1
REMARK  1 active torsions:
REMARK  status: ('A' for Active; 'I' for Inactive)
REMARK    1  A    between atoms: C1_2  and  C2_3 
ROOT
ATOM      1  C2  UNL d   1      -3.788  -0.015  -3.352  0.00  0.00    -0.077 A 
ATOM      2  C3  UNL d   1      -4.133   1.131  -2.624  0.00  0.00     0.002 A 
ATOM      3  C4  UNL d   1      -5.233   1.904  -3.003  0.00  0.00     0.002 A 
ATOM      4  C5  UNL d   1      -5.997   1.537  -4.108  0.00  0.00    -0.004 A 
ATOM      5  C6  UNL d   1      -5.660   0.399  -4.840  0.00  0.00     0.002 A 
ATOM      6  C7  UNL d   1      -4.561  -0.374  -4.463  0.00  0.00     0.002 A 
ENDROOT
BRANCH   1   7
ATOM      7  C1  UNL d   1      -2.632  -0.878  -2.916  0.00  0.00     0.055 C 
ATOM      8  C   UNL d   1      -2.305  -0.662  -1.445  0.00  0.00     0.019 C 
ENDBRANCH   1   7
TORSDOF 1
ENDMDL
