MODEL 1
REMARK minimizedAffinity 0.993771911
REMARK minimizedRMSD -1
REMARK  1 active torsions:
REMARK  status: ('A' for Active; 'I' for Inactive)
REMARK    1  A    between atoms: C1_2  and  C2_3 
ROOT
ATOM      1  C2  UNL d   1       2.109   5.593   3.408  0.00  0.00    -0.077 A 
ATOM      2  C3  UNL d   1       1.327   5.214   4.508  0.00  0.00     0.002 A 
ATOM      3  C4  UNL d   1       1.865   5.227   5.796  0.00  0.00     0.002 A 
ATOM      4  C5  UNL d   1       3.186   5.623   5.997  0.00  0.00    -0.004 A 
ATOM      5  C6  UNL d   1       3.973   6.000   4.910  0.00  0.00     0.002 A 
ATOM      6  C7  UNL d   1       3.437   5.986   3.621  0.00  0.00     0.002 A 
ENDROOT
BRANCH   1   7
ATOM      7  C1  UNL d   1       1.516   5.626   2.024  0.00  0.00     0.055 C 
ATOM      8  C   UNL d   1       0.038   5.265   2.047  0.00  0.00     0.019 C 
ENDBRANCH   1   7
TORSDOF 1
ENDMDL
