MODEL 1
REMARK minimizedAffinity 5.97679996
REMARK minimizedRMSD -1
REMARK  1 active torsions:
REMARK  status: ('A' for Active; 'I' for Inactive)
REMARK    1  A    between atoms: C1_2  and  C2_3 
ROOT
ATOM      1  C2  UNL d   1       0.658  -1.901   1.902  0.00  0.00    -0.077 A 
ATOM      2  C3  UNL d   1       1.051  -0.948   0.951  0.00  0.00     0.002 A 
ATOM      3  C4  UNL d   1       2.043  -1.250   0.016  0.00  0.00     0.002 A 
ATOM      4  C5  UNL d   1       2.647  -2.506   0.020  0.00  0.00    -0.004 A 
ATOM      5  C6  UNL d   1       2.265  -3.459   0.963  0.00  0.00     0.002 A 
ATOM      6  C7  UNL d   1       1.274  -3.159   1.899  0.00  0.00     0.002 A 
ENDROOT
BRANCH   1   7
ATOM      7  C1  UNL d   1      -0.446  -1.594   2.879  0.00  0.00     0.055 C 
ATOM      8  C   UNL d   1      -0.289  -0.201   3.472  0.00  0.00     0.019 C 
ENDBRANCH   1   7
TORSDOF 1
ENDMDL
