MODEL 1
REMARK minimizedAffinity 4.93225431
REMARK minimizedRMSD -1
REMARK  1 active torsions:
REMARK  status: ('A' for Active; 'I' for Inactive)
REMARK    1  A    between atoms: C1_2  and  C2_3 
ROOT
ATOM      1  C2  UNL d   1       0.272  -2.900   1.804  0.00  0.00    -0.077 A 
ATOM      2  C3  UNL d   1       0.231  -4.245   1.408  0.00  0.00     0.002 A 
ATOM      3  C4  UNL d   1       1.391  -4.889   0.973  0.00  0.00     0.002 A 
ATOM      4  C5  UNL d   1       2.600  -4.198   0.934  0.00  0.00    -0.004 A 
ATOM      5  C6  UNL d   1       2.651  -2.860   1.323  0.00  0.00     0.002 A 
ATOM      6  C7  UNL d   1       1.492  -2.214   1.757  0.00  0.00     0.002 A 
ENDROOT
BRANCH   1   7
ATOM      7  C1  UNL d   1      -0.968  -2.218   2.320  0.00  0.00     0.055 C 
ATOM      8  C   UNL d   1      -2.053  -3.228   2.663  0.00  0.00     0.019 C 
ENDBRANCH   1   7
TORSDOF 1
ENDMDL
