MODEL 1
REMARK minimizedAffinity 8.02857971
REMARK minimizedRMSD -1
REMARK  1 active torsions:
REMARK  status: ('A' for Active; 'I' for Inactive)
REMARK    1  A    between atoms: C1_2  and  C2_3 
ROOT
ATOM      1  C2  UNL d   1       2.236  -1.712   2.679  0.00  0.00    -0.077 A 
ATOM      2  C3  UNL d   1       2.922  -2.586   1.824  0.00  0.00     0.002 A 
ATOM      3  C4  UNL d   1       2.473  -2.792   0.518  0.00  0.00     0.002 A 
ATOM      4  C5  UNL d   1       1.341  -2.124   0.054  0.00  0.00    -0.004 A 
ATOM      5  C6  UNL d   1       0.652  -1.255   0.898  0.00  0.00     0.002 A 
ATOM      6  C7  UNL d   1       1.098  -1.049   2.204  0.00  0.00     0.002 A 
ENDROOT
BRANCH   1   7
ATOM      7  C1  UNL d   1       2.746  -1.451   4.072  0.00  0.00     0.055 C 
ATOM      8  C   UNL d   1       4.008  -2.252   4.359  0.00  0.00     0.019 C 
ENDBRANCH   1   7
TORSDOF 1
ENDMDL
