MODEL 1
REMARK minimizedAffinity 2.41615009
REMARK minimizedRMSD -1
REMARK  1 active torsions:
REMARK  status: ('A' for Active; 'I' for Inactive)
REMARK    1  A    between atoms: C1_2  and  C2_3 
ROOT
ATOM      1  C2  UNL d   1       2.481   5.271   4.199  0.00  0.00    -0.077 A 
ATOM      2  C3  UNL d   1       3.584   5.249   3.335  0.00  0.00     0.002 A 
ATOM      3  C4  UNL d   1       4.853   5.600   3.800  0.00  0.00     0.002 A 
ATOM      4  C5  UNL d   1       5.031   5.972   5.131  0.00  0.00    -0.004 A 
ATOM      5  C6  UNL d   1       3.939   6.000   5.998  0.00  0.00     0.002 A 
ATOM      6  C7  UNL d   1       2.670   5.650   5.534  0.00  0.00     0.002 A 
ENDROOT
BRANCH   1   7
ATOM      7  C1  UNL d   1       1.121   4.845   3.712  0.00  0.00     0.055 C 
ATOM      8  C   UNL d   1       1.134   3.404   3.224  0.00  0.00     0.019 C 
ENDBRANCH   1   7
TORSDOF 1
ENDMDL
