MODEL 1
REMARK minimizedAffinity 7.42239714
REMARK minimizedRMSD -1
REMARK  0 active torsions:
REMARK  status: ('A' for Active; 'I' for Inactive)
ROOT
ATOM      1  C   UNL d   1      -1.416   0.103   1.665  0.00  0.00    -0.002 A 
ATOM      2  C1  UNL d   1      -0.730   0.304   0.476  0.00  0.00     0.010 A 
ATOM      3  C2  UNL d   1       0.291  -0.566   0.089  0.00  0.00     0.041 A 
ATOM      4  C3  UNL d   1       0.613  -1.654   0.925  0.00  0.00    -0.075 A 
ATOM      5  S   UNL d   1       1.825  -2.849   0.654  0.00  0.00     0.015 SA
ATOM      6  C4  UNL d   1       1.460  -3.656   2.110  0.00  0.00     0.022 A 
ATOM      7  C5  UNL d   1       0.441  -3.042   2.799  0.00  0.00     0.026 A 
ATOM      8  C6  UNL d   1      -0.065  -1.878   2.126  0.00  0.00    -0.082 A 
ATOM      9  C7  UNL d   1      -1.095  -0.978   2.491  0.00  0.00     0.045 A 
ENDROOT
TORSDOF 0
ENDMDL
