MODEL 1
REMARK minimizedAffinity 4.54659414
REMARK minimizedRMSD -1
REMARK  0 active torsions:
REMARK  status: ('A' for Active; 'I' for Inactive)
ROOT
ATOM      1  C   UNL d   1       2.014  -1.730   0.337  0.00  0.00    -0.002 A 
ATOM      2  C1  UNL d   1       1.961  -2.974   0.950  0.00  0.00     0.010 A 
ATOM      3  C2  UNL d   1       0.946  -3.275   1.860  0.00  0.00     0.041 A 
ATOM      4  C3  UNL d   1      -0.026  -2.296   2.145  0.00  0.00    -0.075 A 
ATOM      5  S   UNL d   1      -1.362  -2.441   3.225  0.00  0.00     0.015 SA
ATOM      6  C4  UNL d   1      -1.895  -0.855   2.898  0.00  0.00     0.022 A 
ATOM      7  C5  UNL d   1      -1.085  -0.216   1.989  0.00  0.00     0.026 A 
ATOM      8  C6  UNL d   1       0.005  -1.036   1.540  0.00  0.00    -0.082 A 
ATOM      9  C7  UNL d   1       1.048  -0.761   0.622  0.00  0.00     0.045 A 
ENDROOT
TORSDOF 0
ENDMDL
