MODEL 1
REMARK minimizedAffinity 3.16880155
REMARK minimizedRMSD -1
REMARK  0 active torsions:
REMARK  status: ('A' for Active; 'I' for Inactive)
ROOT
ATOM      1  C   UNL d   1       3.327   1.588  -3.152  0.00  0.00    -0.002 A 
ATOM      2  C1  UNL d   1       2.448   2.662  -3.130  0.00  0.00     0.010 A 
ATOM      3  C2  UNL d   1       1.209   2.552  -2.495  0.00  0.00     0.041 A 
ATOM      4  C3  UNL d   1       0.867   1.334  -1.875  0.00  0.00    -0.075 A 
ATOM      5  S   UNL d   1      -0.595   0.969  -1.037  0.00  0.00     0.015 SA
ATOM      6  C4  UNL d   1      -0.087  -0.620  -0.689  0.00  0.00     0.022 A 
ATOM      7  C5  UNL d   1       1.165  -0.882  -1.192  0.00  0.00     0.026 A 
ATOM      8  C6  UNL d   1       1.736   0.239  -1.884  0.00  0.00    -0.082 A 
ATOM      9  C7  UNL d   1       2.984   0.382  -2.537  0.00  0.00     0.045 A 
ENDROOT
TORSDOF 0
ENDMDL
