MODEL 1
REMARK minimizedAffinity 1.24860609
REMARK minimizedRMSD -1
REMARK  0 active torsions:
REMARK  status: ('A' for Active; 'I' for Inactive)
ROOT
ATOM      1  C   UNL d   1       0.546  -4.912   2.600  0.00  0.00    -0.002 A 
ATOM      2  C1  UNL d   1       1.401  -4.518   1.580  0.00  0.00     0.010 A 
ATOM      3  C2  UNL d   1       1.305  -3.240   1.025  0.00  0.00     0.041 A 
ATOM      4  C3  UNL d   1       0.326  -2.355   1.519  0.00  0.00    -0.075 A 
ATOM      5  S   UNL d   1       0.025  -0.741   0.994  0.00  0.00     0.015 SA
ATOM      6  C4  UNL d   1      -1.246  -0.535   2.111  0.00  0.00     0.022 A 
ATOM      7  C5  UNL d   1      -1.448  -1.661   2.874  0.00  0.00     0.026 A 
ATOM      8  C6  UNL d   1      -0.545  -2.728   2.546  0.00  0.00    -0.082 A 
ATOM      9  C7  UNL d   1      -0.423  -4.031   3.087  0.00  0.00     0.045 A 
ENDROOT
TORSDOF 0
ENDMDL
