MODEL 1
REMARK minimizedAffinity -1.24571645
REMARK minimizedRMSD -1
REMARK  0 active torsions:
REMARK  status: ('A' for Active; 'I' for Inactive)
ROOT
ATOM      1  C   UNL d   1      -5.391  -5.279  -1.348  0.00  0.00    -0.002 A 
ATOM      2  C1  UNL d   1      -5.997  -4.057  -1.602  0.00  0.00     0.010 A 
ATOM      3  C2  UNL d   1      -5.994  -3.517  -2.890  0.00  0.00     0.041 A 
ATOM      4  C3  UNL d   1      -5.368  -4.234  -3.928  0.00  0.00    -0.075 A 
ATOM      5  S   UNL d   1      -5.241  -3.768  -5.583  0.00  0.00     0.015 SA
ATOM      6  C4  UNL d   1      -4.381  -5.182  -5.992  0.00  0.00     0.022 A 
ATOM      7  C5  UNL d   1      -4.186  -5.999  -4.905  0.00  0.00     0.026 A 
ATOM      8  C6  UNL d   1      -4.752  -5.467  -3.697  0.00  0.00    -0.082 A 
ATOM      9  C7  UNL d   1      -4.771  -5.987  -2.381  0.00  0.00     0.045 A 
ENDROOT
TORSDOF 0
ENDMDL
