MODEL 1
REMARK minimizedAffinity 4.65840673
REMARK minimizedRMSD -1
REMARK  0 active torsions:
REMARK  status: ('A' for Active; 'I' for Inactive)
ROOT
ATOM      1  C   UNL d   1      -4.800  -1.333  -4.503  0.00  0.00    -0.002 A 
ATOM      2  C1  UNL d   1      -5.414  -1.745  -3.329  0.00  0.00     0.010 A 
ATOM      3  C2  UNL d   1      -5.606  -3.103  -3.066  0.00  0.00     0.041 A 
ATOM      4  C3  UNL d   1      -5.164  -4.049  -4.012  0.00  0.00    -0.075 A 
ATOM      5  S   UNL d   1      -5.292  -5.765  -3.903  0.00  0.00     0.015 SA
ATOM      6  C4  UNL d   1      -4.533  -5.992  -5.412  0.00  0.00     0.022 A 
ATOM      7  C5  UNL d   1      -4.185  -4.798  -5.999  0.00  0.00     0.026 A 
ATOM      8  C6  UNL d   1      -4.542  -3.659  -5.201  0.00  0.00    -0.082 A 
ATOM      9  C7  UNL d   1      -4.363  -2.275  -5.439  0.00  0.00     0.045 A 
ENDROOT
TORSDOF 0
ENDMDL
