MODEL 1
REMARK minimizedAffinity 1.6722697
REMARK minimizedRMSD -1
REMARK  0 active torsions:
REMARK  status: ('A' for Active; 'I' for Inactive)
ROOT
ATOM      1  C   UNL d   1      -4.110  -5.996  -5.772  0.00  0.00    -0.002 A 
ATOM      2  C1  UNL d   1      -5.349  -5.415  -6.000  0.00  0.00     0.010 A 
ATOM      3  C2  UNL d   1      -6.000  -4.709  -4.986  0.00  0.00     0.041 A 
ATOM      4  C3  UNL d   1      -5.376  -4.594  -3.728  0.00  0.00    -0.075 A 
ATOM      5  S   UNL d   1      -5.985  -3.775  -2.338  0.00  0.00     0.015 SA
ATOM      6  C4  UNL d   1      -4.612  -4.176  -1.410  0.00  0.00     0.022 A 
ATOM      7  C5  UNL d   1      -3.703  -4.916  -2.127  0.00  0.00     0.026 A 
ATOM      8  C6  UNL d   1      -4.128  -5.169  -3.475  0.00  0.00    -0.082 A 
ATOM      9  C7  UNL d   1      -3.494  -5.879  -4.523  0.00  0.00     0.045 A 
ENDROOT
TORSDOF 0
ENDMDL
