MODEL 1
REMARK minimizedAffinity 5.91672134
REMARK minimizedRMSD -1
REMARK  0 active torsions:
REMARK  status: ('A' for Active; 'I' for Inactive)
ROOT
ATOM      1  C   UNL d   1       1.503  -1.315   2.123  0.00  0.00    -0.002 A 
ATOM      2  C1  UNL d   1       1.248  -1.342   3.487  0.00  0.00     0.010 A 
ATOM      3  C2  UNL d   1       1.297  -2.545   4.195  0.00  0.00     0.041 A 
ATOM      4  C3  UNL d   1       1.611  -3.731   3.503  0.00  0.00    -0.075 A 
ATOM      5  S   UNL d   1       1.728  -5.320   4.162  0.00  0.00     0.015 SA
ATOM      6  C4  UNL d   1       2.121  -6.000   2.650  0.00  0.00     0.022 A 
ATOM      7  C5  UNL d   1       2.165  -5.052   1.654  0.00  0.00     0.026 A 
ATOM      8  C6  UNL d   1       1.872  -3.729   2.130  0.00  0.00    -0.082 A 
ATOM      9  C7  UNL d   1       1.815  -2.494   1.440  0.00  0.00     0.045 A 
ENDROOT
TORSDOF 0
ENDMDL
