MODEL 1
REMARK minimizedAffinity 6.07877064
REMARK minimizedRMSD -1
REMARK  0 active torsions:
REMARK  status: ('A' for Active; 'I' for Inactive)
ROOT
ATOM      1  C   UNL d   1       0.555  -4.229   0.655  0.00  0.00    -0.002 A 
ATOM      2  C1  UNL d   1       0.363  -4.627   1.970  0.00  0.00     0.010 A 
ATOM      3  C2  UNL d   1       0.486  -3.709   3.015  0.00  0.00     0.041 A 
ATOM      4  C3  UNL d   1       0.807  -2.371   2.713  0.00  0.00    -0.075 A 
ATOM      5  S   UNL d   1       1.008  -1.073   3.829  0.00  0.00     0.015 SA
ATOM      6  C4  UNL d   1       1.353   0.041   2.586  0.00  0.00     0.022 A 
ATOM      7  C5  UNL d   1       1.320  -0.546   1.343  0.00  0.00     0.026 A 
ATOM      8  C6  UNL d   1       1.004  -1.946   1.396  0.00  0.00    -0.082 A 
ATOM      9  C7  UNL d   1       0.873  -2.901   0.359  0.00  0.00     0.045 A 
ENDROOT
TORSDOF 0
ENDMDL
