MODEL 1
REMARK minimizedAffinity 9.46904564
REMARK minimizedRMSD -1
REMARK  0 active torsions:
REMARK  status: ('A' for Active; 'I' for Inactive)
ROOT
ATOM      1  C   UNL d   1       3.961   4.538  -1.522  0.00  0.00    -0.002 A 
ATOM      2  C1  UNL d   1       3.084   3.776  -2.282  0.00  0.00     0.010 A 
ATOM      3  C2  UNL d   1       3.179   3.762  -3.675  0.00  0.00     0.041 A 
ATOM      4  C3  UNL d   1       4.181   4.532  -4.298  0.00  0.00    -0.075 A 
ATOM      5  S   UNL d   1       4.487   4.668  -5.989  0.00  0.00     0.015 SA
ATOM      6  C4  UNL d   1       5.790   5.740  -5.743  0.00  0.00     0.022 A 
ATOM      7  C5  UNL d   1       6.000   5.998  -4.409  0.00  0.00     0.026 A 
ATOM      8  C6  UNL d   1       5.077   5.306  -3.554  0.00  0.00    -0.082 A 
ATOM      9  C7  UNL d   1       4.954   5.300  -2.144  0.00  0.00     0.045 A 
ENDROOT
TORSDOF 0
ENDMDL
