MODEL 1
REMARK minimizedAffinity 3.63210106
REMARK minimizedRMSD -1
REMARK  0 active torsions:
REMARK  status: ('A' for Active; 'I' for Inactive)
ROOT
ATOM      1  C   UNL d   1      -4.815  -5.421  -5.954  0.00  0.00    -0.002 A 
ATOM      2  C1  UNL d   1      -5.353  -4.143  -6.000  0.00  0.00     0.010 A 
ATOM      3  C2  UNL d   1      -5.564  -3.418  -4.825  0.00  0.00     0.041 A 
ATOM      4  C3  UNL d   1      -5.219  -4.004  -3.592  0.00  0.00    -0.075 A 
ATOM      5  S   UNL d   1      -5.386  -3.304  -2.025  0.00  0.00     0.015 SA
ATOM      6  C4  UNL d   1      -4.746  -4.685  -1.258  0.00  0.00     0.022 A 
ATOM      7  C5  UNL d   1      -4.407  -5.666  -2.159  0.00  0.00     0.026 A 
ATOM      8  C6  UNL d   1      -4.674  -5.290  -3.520  0.00  0.00    -0.082 A 
ATOM      9  C7  UNL d   1      -4.474  -5.999  -4.728  0.00  0.00     0.045 A 
ENDROOT
TORSDOF 0
ENDMDL
