MODEL 1
REMARK minimizedAffinity 12.4970188
REMARK minimizedRMSD -1
REMARK  0 active torsions:
REMARK  status: ('A' for Active; 'I' for Inactive)
ROOT
ATOM      1  C   UNL d   1       4.158  -5.914  -6.000  0.00  0.00    -0.002 A 
ATOM      2  C1  UNL d   1       5.516  -5.772  -5.753  0.00  0.00     0.010 A 
ATOM      3  C2  UNL d   1       5.997  -5.709  -4.444  0.00  0.00     0.041 A 
ATOM      4  C3  UNL d   1       5.082  -5.793  -3.377  0.00  0.00    -0.075 A 
ATOM      5  S   UNL d   1       5.442  -5.739  -1.691  0.00  0.00     0.015 SA
ATOM      6  C4  UNL d   1       3.801  -5.904  -1.259  0.00  0.00     0.022 A 
ATOM      7  C5  UNL d   1       2.985  -5.999  -2.361  0.00  0.00     0.026 A 
ATOM      8  C6  UNL d   1       3.709  -5.937  -3.600  0.00  0.00    -0.082 A 
ATOM      9  C7  UNL d   1       3.253  -5.998  -4.939  0.00  0.00     0.045 A 
ENDROOT
TORSDOF 0
ENDMDL
