MODEL 1
REMARK minimizedAffinity 16.6216412
REMARK minimizedRMSD -1
REMARK  0 active torsions:
REMARK  status: ('A' for Active; 'I' for Inactive)
ROOT
ATOM      1  C   UNL d   1       3.334   1.770  -0.695  0.00  0.00    -0.002 A 
ATOM      2  C1  UNL d   1       2.897   0.530  -0.250  0.00  0.00     0.010 A 
ATOM      3  C2  UNL d   1       2.268   0.402   0.990  0.00  0.00     0.041 A 
ATOM      4  C3  UNL d   1       2.082   1.553   1.782  0.00  0.00    -0.075 A 
ATOM      5  S   UNL d   1       1.336   1.637   3.334  0.00  0.00     0.015 SA
ATOM      6  C4  UNL d   1       1.579   3.320   3.442  0.00  0.00     0.022 A 
ATOM      7  C5  UNL d   1       2.213   3.822   2.331  0.00  0.00     0.026 A 
ATOM      8  C6  UNL d   1       2.513   2.812   1.355  0.00  0.00    -0.082 A 
ATOM      9  C7  UNL d   1       3.148   2.909   0.094  0.00  0.00     0.045 A 
ENDROOT
TORSDOF 0
ENDMDL
