MODEL 1
REMARK minimizedAffinity 12.7495527
REMARK minimizedRMSD -1
REMARK  0 active torsions:
REMARK  status: ('A' for Active; 'I' for Inactive)
ROOT
ATOM      1  C   UNL d   1       2.094  -3.082   2.822  0.00  0.00    -0.002 A 
ATOM      2  C1  UNL d   1       1.128  -2.176   3.236  0.00  0.00     0.010 A 
ATOM      3  C2  UNL d   1       0.199  -2.527   4.217  0.00  0.00     0.041 A 
ATOM      4  C3  UNL d   1       0.259  -3.816   4.782  0.00  0.00    -0.075 A 
ATOM      5  S   UNL d   1      -0.775  -4.467   5.999  0.00  0.00     0.015 SA
ATOM      6  C4  UNL d   1       0.043  -5.962   6.000  0.00  0.00     0.022 A 
ATOM      7  C5  UNL d   1       1.081  -5.982   5.099  0.00  0.00     0.026 A 
ATOM      8  C6  UNL d   1       1.223  -4.746   4.383  0.00  0.00    -0.082 A 
ATOM      9  C7  UNL d   1       2.151  -4.360   3.386  0.00  0.00     0.045 A 
ENDROOT
TORSDOF 0
ENDMDL
