MODEL 1
REMARK minimizedAffinity -2.34483743
REMARK minimizedRMSD -1
REMARK  0 active torsions:
REMARK  status: ('A' for Active; 'I' for Inactive)
ROOT
ATOM      1  C   UNL d   1      -5.948   5.997   5.217  0.00  0.00    -0.002 A 
ATOM      2  C1  UNL d   1      -4.725   5.999   5.873  0.00  0.00     0.010 A 
ATOM      3  C2  UNL d   1      -3.531   5.999   5.149  0.00  0.00     0.041 A 
ATOM      4  C3  UNL d   1      -3.587   5.999   3.742  0.00  0.00    -0.075 A 
ATOM      5  S   UNL d   1      -2.254   6.000   2.648  0.00  0.00     0.015 SA
ATOM      6  C4  UNL d   1      -3.276   5.998   1.285  0.00  0.00     0.022 A 
ATOM      7  C5  UNL d   1      -4.605   5.997   1.636  0.00  0.00     0.026 A 
ATOM      8  C6  UNL d   1      -4.807   5.998   3.058  0.00  0.00    -0.082 A 
ATOM      9  C7  UNL d   1      -6.000   5.997   3.820  0.00  0.00     0.045 A 
ENDROOT
TORSDOF 0
ENDMDL
