MODEL 1
REMARK minimizedAffinity -1.05583811
REMARK minimizedRMSD -1
REMARK  0 active torsions:
REMARK  status: ('A' for Active; 'I' for Inactive)
ROOT
ATOM      1  C   UNL d   1      -5.210   5.950   1.085  0.00  0.00    -0.002 A 
ATOM      2  C1  UNL d   1      -3.826   5.961   1.184  0.00  0.00     0.010 A 
ATOM      3  C2  UNL d   1      -3.203   5.978   2.433  0.00  0.00     0.041 A 
ATOM      4  C3  UNL d   1      -4.003   5.981   3.593  0.00  0.00    -0.075 A 
ATOM      5  S   UNL d   1      -3.460   6.000   5.229  0.00  0.00     0.015 SA
ATOM      6  C4  UNL d   1      -5.053   5.993   5.836  0.00  0.00     0.022 A 
ATOM      7  C5  UNL d   1      -5.988   5.977   4.829  0.00  0.00     0.026 A 
ATOM      8  C6  UNL d   1      -5.399   5.969   3.519  0.00  0.00    -0.082 A 
ATOM      9  C7  UNL d   1      -6.000   5.953   2.238  0.00  0.00     0.045 A 
ENDROOT
TORSDOF 0
ENDMDL
