MODEL 1
REMARK minimizedAffinity 9.35134983
REMARK minimizedRMSD -1
REMARK  0 active torsions:
REMARK  status: ('A' for Active; 'I' for Inactive)
ROOT
ATOM      1  C   UNL d   1       0.586  -1.908   4.172  0.00  0.00    -0.002 A 
ATOM      2  C1  UNL d   1       1.490  -2.385   5.111  0.00  0.00     0.010 A 
ATOM      3  C2  UNL d   1       1.292  -3.625   5.721  0.00  0.00     0.041 A 
ATOM      4  C3  UNL d   1       0.161  -4.386   5.367  0.00  0.00    -0.075 A 
ATOM      5  S   UNL d   1      -0.286  -5.934   5.983  0.00  0.00     0.015 SA
ATOM      6  C4  UNL d   1      -1.686  -5.998   5.014  0.00  0.00     0.022 A 
ATOM      7  C5  UNL d   1      -1.825  -4.875   4.233  0.00  0.00     0.026 A 
ATOM      8  C6  UNL d   1      -0.763  -3.928   4.424  0.00  0.00    -0.082 A 
ATOM      9  C7  UNL d   1      -0.535  -2.666   3.824  0.00  0.00     0.045 A 
ENDROOT
TORSDOF 0
ENDMDL
