MODEL 1
REMARK minimizedAffinity -2.28728414
REMARK minimizedRMSD -1
REMARK  0 active torsions:
REMARK  status: ('A' for Active; 'I' for Inactive)
ROOT
ATOM      1  C   UNL d   1      -3.525   5.987   1.341  0.00  0.00    -0.002 A 
ATOM      2  C1  UNL d   1      -4.904   5.965   1.186  0.00  0.00     0.010 A 
ATOM      3  C2  UNL d   1      -5.744   5.953   2.302  0.00  0.00     0.041 A 
ATOM      4  C3  UNL d   1      -5.169   5.965   3.588  0.00  0.00    -0.075 A 
ATOM      5  S   UNL d   1      -6.000   5.955   5.098  0.00  0.00     0.015 SA
ATOM      6  C4  UNL d   1      -4.544   5.981   5.984  0.00  0.00     0.022 A 
ATOM      7  C5  UNL d   1      -3.441   5.997   5.164  0.00  0.00     0.026 A 
ATOM      8  C6  UNL d   1      -3.783   5.989   3.769  0.00  0.00    -0.082 A 
ATOM      9  C7  UNL d   1      -2.958   6.000   2.618  0.00  0.00     0.045 A 
ENDROOT
TORSDOF 0
ENDMDL
