MODEL 1
REMARK minimizedAffinity 6.02618122
REMARK minimizedRMSD -1
REMARK  0 active torsions:
REMARK  status: ('A' for Active; 'I' for Inactive)
ROOT
ATOM      1  C   UNL d   1       1.059  -2.590   4.102  0.00  0.00    -0.002 A 
ATOM      2  C1  UNL d   1       1.505  -3.027   5.342  0.00  0.00     0.010 A 
ATOM      3  C2  UNL d   1       0.861  -4.077   5.999  0.00  0.00     0.041 A 
ATOM      4  C3  UNL d   1      -0.249  -4.688   5.383  0.00  0.00    -0.075 A 
ATOM      5  S   UNL d   1      -1.194  -5.991   6.000  0.00  0.00     0.015 SA
ATOM      6  C4  UNL d   1      -2.211  -6.000   4.632  0.00  0.00     0.022 A 
ATOM      7  C5  UNL d   1      -1.853  -5.038   3.717  0.00  0.00     0.026 A 
ATOM      8  C6  UNL d   1      -0.716  -4.266   4.134  0.00  0.00    -0.082 A 
ATOM      9  C7  UNL d   1      -0.042  -3.199   3.494  0.00  0.00     0.045 A 
ENDROOT
TORSDOF 0
ENDMDL
