MODEL 1
REMARK minimizedAffinity -0.78297627
REMARK minimizedRMSD -1
REMARK  0 active torsions:
REMARK  status: ('A' for Active; 'I' for Inactive)
ROOT
ATOM      1  C   UNL d   1      -3.968   5.831   1.418  0.00  0.00    -0.002 A 
ATOM      2  C1  UNL d   1      -2.712   5.963   1.994  0.00  0.00     0.010 A 
ATOM      3  C2  UNL d   1      -2.568   5.998   3.382  0.00  0.00     0.041 A 
ATOM      4  C3  UNL d   1      -3.717   5.894   4.190  0.00  0.00    -0.075 A 
ATOM      5  S   UNL d   1      -3.783   5.912   5.912  0.00  0.00     0.015 SA
ATOM      6  C4  UNL d   1      -5.478   5.743   5.924  0.00  0.00     0.022 A 
ATOM      7  C5  UNL d   1      -5.999   5.673   4.654  0.00  0.00     0.026 A 
ATOM      8  C6  UNL d   1      -4.992   5.759   3.633  0.00  0.00    -0.082 A 
ATOM      9  C7  UNL d   1      -5.106   5.728   2.222  0.00  0.00     0.045 A 
ENDROOT
TORSDOF 0
ENDMDL
