MODEL 1
REMARK minimizedAffinity -2.9804256
REMARK minimizedRMSD -1
REMARK  0 active torsions:
REMARK  status: ('A' for Active; 'I' for Inactive)
ROOT
ATOM      1  C2' OXE d   1      -0.252   0.350  -1.196  0.00  0.00     0.078 C 
ATOM      2  C1' OXE d   1       1.835  -1.527  -1.172  0.00  0.00     0.078 C 
ATOM      3  C1  OXE d   1       1.010  -1.376   0.082  0.00  0.00    -0.078 A 
ATOM      4  C2  OXE d   1       0.021  -0.423   0.077  0.00  0.00    -0.078 A 
ATOM      5  C3  OXE d   1      -0.805  -0.280   1.188  0.00  0.00     0.003 A 
ATOM      6  C4  OXE d   1      -0.539  -0.991   2.364  0.00  0.00    -0.002 A 
ATOM      7  C5  OXE d   1       0.489  -1.939   2.404  0.00  0.00    -0.002 A 
ATOM      8  C6  OXE d   1       1.244  -2.174   1.261  0.00  0.00     0.003 A 
ENDROOT
TORSDOF 0
ENDMDL
