MODEL 1
REMARK minimizedAffinity -3.1442399
REMARK minimizedRMSD -1
REMARK  0 active torsions:
REMARK  status: ('A' for Active; 'I' for Inactive)
ROOT
ATOM      1  C2' OXE d   1       2.289  -3.219   1.032  0.00  0.00     0.078 C 
ATOM      2  C1' OXE d   1       2.272  -1.496  -1.184  0.00  0.00     0.078 C 
ATOM      3  C1  OXE d   1       1.263  -1.246  -0.091  0.00  0.00    -0.078 A 
ATOM      4  C2  OXE d   1       1.248  -2.122   0.968  0.00  0.00    -0.078 A 
ATOM      5  C3  OXE d   1       0.373  -1.906   2.029  0.00  0.00     0.003 A 
ATOM      6  C4  OXE d   1      -0.593  -0.896   1.957  0.00  0.00    -0.002 A 
ATOM      7  C5  OXE d   1      -0.621  -0.017   0.869  0.00  0.00    -0.002 A 
ATOM      8  C6  OXE d   1       0.325  -0.152  -0.141  0.00  0.00     0.003 A 
ENDROOT
TORSDOF 0
ENDMDL
