MODEL 1
REMARK minimizedAffinity -3.9984355
REMARK minimizedRMSD -1
REMARK  0 active torsions:
REMARK  status: ('A' for Active; 'I' for Inactive)
ROOT
ATOM      1  C2' OXE d   1       0.861  -0.307   2.936  0.00  0.00     0.078 C 
ATOM      2  C1' OXE d   1      -1.814   0.016   2.151  0.00  0.00     0.078 C 
ATOM      3  C1  OXE d   1      -0.780  -0.163   1.068  0.00  0.00    -0.078 A 
ATOM      4  C2  OXE d   1       0.532  -0.274   1.459  0.00  0.00    -0.078 A 
ATOM      5  C3  OXE d   1       1.520  -0.496   0.504  0.00  0.00     0.003 A 
ATOM      6  C4  OXE d   1       1.209  -0.454  -0.860  0.00  0.00    -0.002 A 
ATOM      7  C5  OXE d   1      -0.116  -0.302  -1.282  0.00  0.00    -0.002 A 
ATOM      8  C6  OXE d   1      -1.126  -0.198  -0.331  0.00  0.00     0.003 A 
ENDROOT
TORSDOF 0
ENDMDL
