MODEL 1
REMARK minimizedAffinity -5.55041504
REMARK minimizedRMSD -1
REMARK  0 active torsions:
REMARK  status: ('A' for Active; 'I' for Inactive)
ROOT
ATOM      1  C2' OXE d   1       0.909  -0.021   2.966  0.00  0.00     0.078 C 
ATOM      2  C1' OXE d   1      -1.676   0.594   2.061  0.00  0.00     0.078 C 
ATOM      3  C1  OXE d   1      -0.661   0.147   1.039  0.00  0.00    -0.078 A 
ATOM      4  C2  OXE d   1       0.615  -0.107   1.484  0.00  0.00    -0.078 A 
ATOM      5  C3  OXE d   1       1.576  -0.574   0.592  0.00  0.00     0.003 A 
ATOM      6  C4  OXE d   1       1.298  -0.640  -0.779  0.00  0.00    -0.002 A 
ATOM      7  C5  OXE d   1       0.017  -0.348  -1.259  0.00  0.00    -0.002 A 
ATOM      8  C6  OXE d   1      -0.983   0.006  -0.359  0.00  0.00     0.003 A 
ENDROOT
TORSDOF 0
ENDMDL
