MODEL 1
REMARK minimizedAffinity -2.98166275
REMARK minimizedRMSD -1
REMARK  0 active torsions:
REMARK  status: ('A' for Active; 'I' for Inactive)
ROOT
ATOM      1  C2' OXE d   1      -1.238   0.219   1.369  0.00  0.00     0.078 C 
ATOM      2  C1' OXE d   1       0.135  -0.137  -1.054  0.00  0.00     0.078 C 
ATOM      3  C1  OXE d   1       0.759  -0.701   0.198  0.00  0.00    -0.078 A 
ATOM      4  C2  OXE d   1       0.104  -0.482   1.386  0.00  0.00    -0.078 A 
ATOM      5  C3  OXE d   1       0.608  -1.027   2.563  0.00  0.00     0.003 A 
ATOM      6  C4  OXE d   1       1.854  -1.666   2.571  0.00  0.00    -0.002 A 
ATOM      7  C5  OXE d   1       2.558  -1.865   1.378  0.00  0.00    -0.002 A 
ATOM      8  C6  OXE d   1       2.005  -1.428   0.180  0.00  0.00     0.003 A 
ENDROOT
TORSDOF 0
ENDMDL
