MODEL 1
REMARK minimizedAffinity -2.39032626
REMARK minimizedRMSD -1
REMARK  0 active torsions:
REMARK  status: ('A' for Active; 'I' for Inactive)
ROOT
ATOM      1  C2' OXE d   1      -2.197  -1.299   0.074  0.00  0.00     0.078 C 
ATOM      2  C1' OXE d   1      -0.125   0.029  -1.277  0.00  0.00     0.078 C 
ATOM      3  C1  OXE d   1       0.090  -0.315   0.175  0.00  0.00    -0.078 A 
ATOM      4  C2  OXE d   1      -0.947  -0.923   0.841  0.00  0.00    -0.078 A 
ATOM      5  C3  OXE d   1      -0.782  -1.311   2.168  0.00  0.00     0.003 A 
ATOM      6  C4  OXE d   1       0.373  -0.951   2.873  0.00  0.00    -0.002 A 
ATOM      7  C5  OXE d   1       1.426  -0.296   2.224  0.00  0.00    -0.002 A 
ATOM      8  C6  OXE d   1       1.317  -0.009   0.868  0.00  0.00     0.003 A 
ENDROOT
TORSDOF 0
ENDMDL
