MODEL 1
REMARK minimizedAffinity -2.7704699
REMARK minimizedRMSD -1
REMARK  0 active torsions:
REMARK  status: ('A' for Active; 'I' for Inactive)
ROOT
ATOM      1  C   UNL d   1      -1.150   0.066  -0.265  0.00  0.00     0.172 C 
ATOM      2  N   UNL d   1      -0.570  -0.159   1.037  0.00  0.00    -0.070 N 
ATOM      3  C1  UNL d   1       0.589   0.403   1.503  0.00  0.00    -0.004 A 
ATOM      4  C2  UNL d   1       0.799  -0.062   2.784  0.00  0.00    -0.047 A 
ATOM      5  C3  UNL d   1      -0.270  -0.935   3.097  0.00  0.00    -0.047 A 
ATOM      6  C4  UNL d   1      -1.102  -0.977   1.999  0.00  0.00    -0.004 A 
ENDROOT
TORSDOF 0
ENDMDL
