MODEL 1
REMARK minimizedAffinity -2.10632086
REMARK minimizedRMSD -1
REMARK  0 active torsions:
REMARK  status: ('A' for Active; 'I' for Inactive)
ROOT
ATOM      1  C   UNL d   1       1.497   0.884   0.325  0.00  0.00     0.172 C 
ATOM      2  N   UNL d   1       2.044   2.159  -0.076  0.00  0.00    -0.070 N 
ATOM      3  C1  UNL d   1       3.085   2.808   0.533  0.00  0.00    -0.004 A 
ATOM      4  C2  UNL d   1       3.302   3.988  -0.147  0.00  0.00    -0.047 A 
ATOM      5  C3  UNL d   1       2.357   4.050  -1.199  0.00  0.00    -0.047 A 
ATOM      6  C4  UNL d   1       1.591   2.906  -1.131  0.00  0.00    -0.004 A 
ENDROOT
TORSDOF 0
ENDMDL
