MODEL 1
REMARK minimizedAffinity -1.47306204
REMARK minimizedRMSD -1
REMARK  0 active torsions:
REMARK  status: ('A' for Active; 'I' for Inactive)
ROOT
ATOM      1  C   UNL d   1       1.523   1.022   0.417  0.00  0.00     0.172 C 
ATOM      2  N   UNL d   1       2.125   2.285   0.062  0.00  0.00    -0.070 N 
ATOM      3  C1  UNL d   1       3.273   2.801   0.602  0.00  0.00    -0.004 A 
ATOM      4  C2  UNL d   1       3.512   4.018   0.001  0.00  0.00    -0.047 A 
ATOM      5  C3  UNL d   1       2.471   4.242  -0.932  0.00  0.00    -0.047 A 
ATOM      6  C4  UNL d   1       1.626   3.153  -0.873  0.00  0.00    -0.004 A 
ENDROOT
TORSDOF 0
ENDMDL
