MODEL 1
REMARK minimizedAffinity -3.94343996
REMARK minimizedRMSD -1
REMARK  0 active torsions:
REMARK  status: ('A' for Active; 'I' for Inactive)
ROOT
ATOM      1  C   UNL d   1       1.536   0.770   0.750  0.00  0.00     0.172 C 
ATOM      2  N   UNL d   1       0.521  -0.003   1.427  0.00  0.00    -0.070 N 
ATOM      3  C1  UNL d   1       0.720  -0.791   2.529  0.00  0.00    -0.004 A 
ATOM      4  C2  UNL d   1      -0.490  -1.356   2.868  0.00  0.00    -0.047 A 
ATOM      5  C3  UNL d   1      -1.449  -0.893   1.937  0.00  0.00    -0.047 A 
ATOM      6  C4  UNL d   1      -0.797  -0.058   1.056  0.00  0.00    -0.004 A 
ENDROOT
TORSDOF 0
ENDMDL
