MODEL 1
REMARK minimizedAffinity -2.19416475
REMARK minimizedRMSD -1
REMARK  0 active torsions:
REMARK  status: ('A' for Active; 'I' for Inactive)
ROOT
ATOM      1  C   UNL d   1      -2.767   0.349  -1.308  0.00  0.00     0.172 C 
ATOM      2  N   UNL d   1      -1.688  -0.047  -0.434  0.00  0.00    -0.070 N 
ATOM      3  C1  UNL d   1      -0.361   0.229  -0.629  0.00  0.00    -0.004 A 
ATOM      4  C2  UNL d   1       0.343  -0.318   0.423  0.00  0.00    -0.047 A 
ATOM      5  C3  UNL d   1      -0.594  -0.944   1.279  0.00  0.00    -0.047 A 
ATOM      6  C4  UNL d   1      -1.844  -0.761   0.724  0.00  0.00    -0.004 A 
ENDROOT
TORSDOF 0
ENDMDL
