MODEL 1
REMARK minimizedAffinity -3.35112548
REMARK minimizedRMSD -1
REMARK  0 active torsions:
REMARK  status: ('A' for Active; 'I' for Inactive)
ROOT
ATOM      1  C   UNL d   1      -1.997   0.251   0.130  0.00  0.00     0.172 C 
ATOM      2  N   UNL d   1      -0.726   0.052   0.784  0.00  0.00    -0.070 N 
ATOM      3  C1  UNL d   1       0.503   0.153   0.188  0.00  0.00    -0.004 A 
ATOM      4  C2  UNL d   1       1.459  -0.108   1.146  0.00  0.00    -0.047 A 
ATOM      5  C3  UNL d   1       0.782  -0.376   2.359  0.00  0.00    -0.047 A 
ATOM      6  C4  UNL d   1      -0.570  -0.271   2.106  0.00  0.00    -0.004 A 
ENDROOT
TORSDOF 0
ENDMDL
