MODEL 1
REMARK minimizedAffinity -0.0640587062
REMARK minimizedRMSD -1
REMARK  0 active torsions:
REMARK  status: ('A' for Active; 'I' for Inactive)
ROOT
ATOM      1  C   UNL d   1       1.882   1.541  -1.488  0.00  0.00     0.172 C 
ATOM      2  N   UNL d   1       2.309   0.246  -1.964  0.00  0.00    -0.070 N 
ATOM      3  C1  UNL d   1       1.586  -0.914  -1.878  0.00  0.00    -0.004 A 
ATOM      4  C2  UNL d   1       2.337  -1.922  -2.443  0.00  0.00    -0.047 A 
ATOM      5  C3  UNL d   1       3.553  -1.348  -2.884  0.00  0.00    -0.047 A 
ATOM      6  C4  UNL d   1       3.509  -0.004  -2.575  0.00  0.00    -0.004 A 
ENDROOT
TORSDOF 0
ENDMDL
