MODEL 1
REMARK minimizedAffinity 4.65661335
REMARK minimizedRMSD -1
REMARK  0 active torsions:
REMARK  status: ('A' for Active; 'I' for Inactive)
ROOT
ATOM      1  C   UNL d   1       3.005  -5.950   1.688  0.00  0.00     0.172 C 
ATOM      2  N   UNL d   1       3.681  -5.957   2.964  0.00  0.00    -0.070 N 
ATOM      3  C1  UNL d   1       3.071  -5.958   4.190  0.00  0.00    -0.004 A 
ATOM      4  C2  UNL d   1       4.058  -5.966   5.152  0.00  0.00    -0.047 A 
ATOM      5  C3  UNL d   1       5.304  -5.969   4.481  0.00  0.00    -0.047 A 
ATOM      6  C4  UNL d   1       5.041  -5.964   3.127  0.00  0.00    -0.004 A 
ENDROOT
TORSDOF 0
ENDMDL
