MODEL 1
REMARK minimizedAffinity 3.01036501
REMARK minimizedRMSD -1
REMARK  0 active torsions:
REMARK  status: ('A' for Active; 'I' for Inactive)
ROOT
ATOM      1  C   UNL d   1      -5.919  -5.882   1.117  0.00  0.00     0.172 C 
ATOM      2  N   UNL d   1      -4.522  -5.922   0.753  0.00  0.00    -0.070 N 
ATOM      3  C1  UNL d   1      -4.030  -5.915  -0.525  0.00  0.00    -0.004 A 
ATOM      4  C2  UNL d   1      -2.655  -5.961  -0.448  0.00  0.00    -0.047 A 
ATOM      5  C3  UNL d   1      -2.308  -5.998   0.923  0.00  0.00    -0.047 A 
ATOM      6  C4  UNL d   1      -3.484  -5.973   1.644  0.00  0.00    -0.004 A 
ENDROOT
TORSDOF 0
ENDMDL
