MODEL 1
REMARK minimizedAffinity 0.544620395
REMARK minimizedRMSD -1
REMARK  0 active torsions:
REMARK  status: ('A' for Active; 'I' for Inactive)
ROOT
ATOM      1  C   UNL d   1       2.252   0.446  -1.564  0.00  0.00     0.172 C 
ATOM      2  N   UNL d   1       2.534  -0.819  -2.200  0.00  0.00    -0.070 N 
ATOM      3  C1  UNL d   1       3.777  -1.286  -2.532  0.00  0.00    -0.004 A 
ATOM      4  C2  UNL d   1       3.621  -2.524  -3.116  0.00  0.00    -0.047 A 
ATOM      5  C3  UNL d   1       2.236  -2.811  -3.137  0.00  0.00    -0.047 A 
ATOM      6  C4  UNL d   1       1.586  -1.739  -2.563  0.00  0.00    -0.004 A 
ENDROOT
TORSDOF 0
ENDMDL
