MODEL 1
REMARK minimizedAffinity -2.32850552
REMARK minimizedRMSD -1
REMARK  0 active torsions:
REMARK  status: ('A' for Active; 'I' for Inactive)
ROOT
ATOM      1  C   UNL d   1      -2.655   1.506   4.134  0.00  0.00     0.172 C 
ATOM      2  N   UNL d   1      -4.015   1.991   4.129  0.00  0.00    -0.070 N 
ATOM      3  C1  UNL d   1      -4.759   2.270   3.013  0.00  0.00    -0.004 A 
ATOM      4  C2  UNL d   1      -5.998   2.706   3.430  0.00  0.00    -0.047 A 
ATOM      5  C3  UNL d   1      -5.999   2.688   4.845  0.00  0.00    -0.047 A 
ATOM      6  C4  UNL d   1      -4.759   2.242   5.251  0.00  0.00    -0.004 A 
ENDROOT
TORSDOF 0
ENDMDL
