MODEL 1
REMARK minimizedAffinity -1.31339681
REMARK minimizedRMSD -1
REMARK  0 active torsions:
REMARK  status: ('A' for Active; 'I' for Inactive)
ROOT
ATOM      1  C   UNL d   1      -5.998  -5.999   0.849  0.00  0.00     0.172 C 
ATOM      2  N   UNL d   1      -4.872  -5.149   1.158  0.00  0.00    -0.070 N 
ATOM      3  C1  UNL d   1      -4.922  -3.793   1.340  0.00  0.00    -0.004 A 
ATOM      4  C2  UNL d   1      -3.645  -3.357   1.617  0.00  0.00    -0.047 A 
ATOM      5  C3  UNL d   1      -2.798  -4.490   1.601  0.00  0.00    -0.047 A 
ATOM      6  C4  UNL d   1      -3.584  -5.586   1.315  0.00  0.00    -0.004 A 
ENDROOT
TORSDOF 0
ENDMDL
