MODEL 1
REMARK minimizedAffinity -2.3569181
REMARK minimizedRMSD -1
REMARK  0 active torsions:
REMARK  status: ('A' for Active; 'I' for Inactive)
ROOT
ATOM      1  C   UNL d   1      -1.470  -5.620   1.983  0.00  0.00     0.172 C 
ATOM      2  N   UNL d   1      -2.687  -5.171   1.349  0.00  0.00    -0.070 N 
ATOM      3  C1  UNL d   1      -3.060  -3.866   1.171  0.00  0.00    -0.004 A 
ATOM      4  C2  UNL d   1      -4.280  -3.859   0.529  0.00  0.00    -0.047 A 
ATOM      5  C3  UNL d   1      -4.653  -5.207   0.314  0.00  0.00    -0.047 A 
ATOM      6  C4  UNL d   1      -3.649  -5.998   0.831  0.00  0.00    -0.004 A 
ENDROOT
TORSDOF 0
ENDMDL
