MODEL 1
REMARK minimizedAffinity -0.464985907
REMARK minimizedRMSD -1
REMARK  0 active torsions:
REMARK  status: ('A' for Active; 'I' for Inactive)
ROOT
ATOM      1  C   UNL d   1      -5.262  -3.746   1.083  0.00  0.00     0.172 C 
ATOM      2  N   UNL d   1      -4.026  -4.413   0.748  0.00  0.00    -0.070 N 
ATOM      3  C1  UNL d   1      -2.783  -3.839   0.749  0.00  0.00    -0.004 A 
ATOM      4  C2  UNL d   1      -1.872  -4.803   0.375  0.00  0.00    -0.047 A 
ATOM      5  C3  UNL d   1      -2.592  -5.997   0.139  0.00  0.00    -0.047 A 
ATOM      6  C4  UNL d   1      -3.924  -5.728   0.378  0.00  0.00    -0.004 A 
ENDROOT
TORSDOF 0
ENDMDL
