MODEL 1
REMARK minimizedAffinity 2.99839449
REMARK minimizedRMSD -1
REMARK  0 active torsions:
REMARK  status: ('A' for Active; 'I' for Inactive)
ROOT
ATOM      1  C   UNL d   1      -2.846   1.222   5.561  0.00  0.00     0.172 C 
ATOM      2  N   UNL d   1      -1.586   1.690   5.033  0.00  0.00    -0.070 N 
ATOM      3  C1  UNL d   1      -0.859   2.744   5.518  0.00  0.00    -0.004 A 
ATOM      4  C2  UNL d   1       0.274   2.866   4.744  0.00  0.00    -0.047 A 
ATOM      5  C3  UNL d   1       0.227   1.851   3.759  0.00  0.00    -0.047 A 
ATOM      6  C4  UNL d   1      -0.936   1.138   3.962  0.00  0.00    -0.004 A 
ENDROOT
TORSDOF 0
ENDMDL
