MODEL 1
REMARK minimizedAffinity -1.2906127
REMARK minimizedRMSD -1
REMARK  0 active torsions:
REMARK  status: ('A' for Active; 'I' for Inactive)
ROOT
ATOM      1  C   UNL d   1       0.023  -4.695   2.622  0.00  0.00     0.172 C 
ATOM      2  N   UNL d   1       1.321  -5.106   3.104  0.00  0.00    -0.070 N 
ATOM      3  C1  UNL d   1       2.261  -5.789   2.380  0.00  0.00    -0.004 A 
ATOM      4  C2  UNL d   1       3.356  -5.989   3.194  0.00  0.00    -0.047 A 
ATOM      5  C3  UNL d   1       3.062  -5.407   4.450  0.00  0.00    -0.047 A 
ATOM      6  C4  UNL d   1       1.796  -4.867   4.367  0.00  0.00    -0.004 A 
ENDROOT
TORSDOF 0
ENDMDL
