MODEL 1
REMARK minimizedAffinity 1.78125703
REMARK minimizedRMSD -1
REMARK  0 active torsions:
REMARK  status: ('A' for Active; 'I' for Inactive)
ROOT
ATOM      1  C   UNL d   1      -1.692  -5.837   1.903  0.00  0.00     0.172 C 
ATOM      2  N   UNL d   1      -2.932  -5.260   1.440  0.00  0.00    -0.070 N 
ATOM      3  C1  UNL d   1      -3.193  -3.921   1.319  0.00  0.00    -0.004 A 
ATOM      4  C2  UNL d   1      -4.481  -3.783   0.846  0.00  0.00    -0.047 A 
ATOM      5  C3  UNL d   1      -5.012  -5.084   0.679  0.00  0.00    -0.047 A 
ATOM      6  C4  UNL d   1      -4.032  -5.979   1.054  0.00  0.00    -0.004 A 
ENDROOT
TORSDOF 0
ENDMDL
