MODEL 1
REMARK minimizedAffinity -2.09447861
REMARK minimizedRMSD -1
REMARK  0 active torsions:
REMARK  status: ('A' for Active; 'I' for Inactive)
ROOT
ATOM      1  C4' PXY d   1       5.654  -2.253   1.591  0.00  0.00     0.077 C 
ATOM      2  C1' PXY d   1       5.982  -5.982   5.996  0.00  0.00     0.077 C 
ATOM      3  C1  PXY d   1       5.890  -4.996   4.848  0.00  0.00    -0.082 A 
ATOM      4  C2  PXY d   1       5.998  -5.430   3.603  0.00  0.00     0.003 A 
ATOM      5  C3  PXY d   1       5.948  -4.547   2.554  0.00  0.00     0.003 A 
ATOM      6  C4  PXY d   1       5.733  -3.214   2.780  0.00  0.00    -0.082 A 
ATOM      7  C5  PXY d   1       5.610  -2.766   4.048  0.00  0.00     0.003 A 
ATOM      8  C6  PXY d   1       5.705  -3.672   5.100  0.00  0.00     0.003 A 
ENDROOT
TORSDOF 0
ENDMDL
