MODEL 1
REMARK minimizedAffinity -3.25834394
REMARK minimizedRMSD -1
REMARK  0 active torsions:
REMARK  status: ('A' for Active; 'I' for Inactive)
ROOT
ATOM      1  C4' PXY d   1       5.998  -2.020   1.908  0.00  0.00     0.077 C 
ATOM      2  C1' PXY d   1       5.058  -5.994   6.000  0.00  0.00     0.077 C 
ATOM      3  C1  PXY d   1       5.297  -4.943   4.933  0.00  0.00    -0.082 A 
ATOM      4  C2  PXY d   1       5.666  -5.316   3.719  0.00  0.00     0.003 A 
ATOM      5  C3  PXY d   1       5.917  -4.378   2.751  0.00  0.00     0.003 A 
ATOM      6  C4  PXY d   1       5.737  -3.046   3.014  0.00  0.00    -0.082 A 
ATOM      7  C5  PXY d   1       5.349  -2.658   4.247  0.00  0.00     0.003 A 
ATOM      8  C6  PXY d   1       5.139  -3.624   5.227  0.00  0.00     0.003 A 
ENDROOT
TORSDOF 0
ENDMDL
