MODEL 1
REMARK minimizedAffinity -2.9370625
REMARK minimizedRMSD -1
REMARK  0 active torsions:
REMARK  status: ('A' for Active; 'I' for Inactive)
ROOT
ATOM      1  C4' PXY d   1       6.000  -4.984   0.509  0.00  0.00     0.077 C 
ATOM      2  C1' PXY d   1       5.779  -2.163   5.550  0.00  0.00     0.077 C 
ATOM      3  C1  PXY d   1       5.841  -2.914   4.234  0.00  0.00    -0.082 A 
ATOM      4  C2  PXY d   1       5.974  -2.240   3.103  0.00  0.00     0.003 A 
ATOM      5  C3  PXY d   1       6.000  -2.901   1.901  0.00  0.00     0.003 A 
ATOM      6  C4  PXY d   1       5.942  -4.268   1.861  0.00  0.00    -0.082 A 
ATOM      7  C5  PXY d   1       5.817  -4.963   3.012  0.00  0.00     0.003 A 
ATOM      8  C6  PXY d   1       5.752  -4.271   4.218  0.00  0.00     0.003 A 
ENDROOT
TORSDOF 0
ENDMDL
