MODEL 1
REMARK minimizedAffinity -1.48272157
REMARK minimizedRMSD -1
REMARK  0 active torsions:
REMARK  status: ('A' for Active; 'I' for Inactive)
ROOT
ATOM      1  C4' PXY d   1       5.168  -5.999   5.977  0.00  0.00     0.077 C 
ATOM      2  C1' PXY d   1       5.997  -3.043   1.079  0.00  0.00     0.077 C 
ATOM      3  C1  PXY d   1       5.778  -3.829   2.357  0.00  0.00    -0.082 A 
ATOM      4  C2  PXY d   1       5.380  -3.201   3.451  0.00  0.00     0.003 A 
ATOM      5  C3  PXY d   1       5.208  -3.891   4.623  0.00  0.00     0.003 A 
ATOM      6  C4  PXY d   1       5.393  -5.247   4.662  0.00  0.00    -0.082 A 
ATOM      7  C5  PXY d   1       5.788  -5.897   3.547  0.00  0.00     0.003 A 
ATOM      8  C6  PXY d   1       5.998  -5.171   2.378  0.00  0.00     0.003 A 
ENDROOT
TORSDOF 0
ENDMDL
