MODEL 1
REMARK minimizedAffinity -2.97874546
REMARK minimizedRMSD -1
REMARK  0 active torsions:
REMARK  status: ('A' for Active; 'I' for Inactive)
ROOT
ATOM      1  C4' PXY d   1       6.000  -4.907   0.946  0.00  0.00     0.077 C 
ATOM      2  C1' PXY d   1       5.836  -1.904   5.883  0.00  0.00     0.077 C 
ATOM      3  C1  PXY d   1       5.874  -2.681   4.582  0.00  0.00    -0.082 A 
ATOM      4  C2  PXY d   1       5.821  -4.003   4.608  0.00  0.00     0.003 A 
ATOM      5  C3  PXY d   1       5.887  -4.723   3.442  0.00  0.00     0.003 A 
ATOM      6  C4  PXY d   1       5.954  -4.081   2.235  0.00  0.00    -0.082 A 
ATOM      7  C5  PXY d   1       5.998  -2.732   2.199  0.00  0.00     0.003 A 
ATOM      8  C6  PXY d   1       5.972  -2.021   3.396  0.00  0.00     0.003 A 
ENDROOT
TORSDOF 0
ENDMDL
