MODEL 1
REMARK minimizedAffinity -3.58024812
REMARK minimizedRMSD -1
REMARK  0 active torsions:
REMARK  status: ('A' for Active; 'I' for Inactive)
ROOT
ATOM      1  C4' PXY d   1       4.901  -5.966   6.000  0.00  0.00     0.077 C 
ATOM      2  C1' PXY d   1       6.000  -1.997   1.943  0.00  0.00     0.077 C 
ATOM      3  C1  PXY d   1       5.717  -3.030   3.016  0.00  0.00    -0.082 A 
ATOM      4  C2  PXY d   1       5.631  -4.309   2.687  0.00  0.00     0.003 A 
ATOM      5  C3  PXY d   1       5.344  -5.253   3.639  0.00  0.00     0.003 A 
ATOM      6  C4  PXY d   1       5.195  -4.890   4.951  0.00  0.00    -0.082 A 
ATOM      7  C5  PXY d   1       5.291  -3.589   5.297  0.00  0.00     0.003 A 
ATOM      8  C6  PXY d   1       5.543  -2.641   4.309  0.00  0.00     0.003 A 
ENDROOT
TORSDOF 0
ENDMDL
