MODEL 1
REMARK minimizedAffinity 0.738894105
REMARK minimizedRMSD -1
REMARK  0 active torsions:
REMARK  status: ('A' for Active; 'I' for Inactive)
ROOT
ATOM      1  C4' PXY d   1       5.979  -3.474   0.416  0.00  0.00     0.077 C 
ATOM      2  C1' PXY d   1       5.991  -5.274   5.909  0.00  0.00     0.077 C 
ATOM      3  C1  PXY d   1       5.982  -4.791   4.472  0.00  0.00    -0.082 A 
ATOM      4  C2  PXY d   1       5.975  -5.672   3.486  0.00  0.00     0.003 A 
ATOM      5  C3  PXY d   1       6.000  -5.253   2.181  0.00  0.00     0.003 A 
ATOM      6  C4  PXY d   1       5.978  -3.917   1.882  0.00  0.00    -0.082 A 
ATOM      7  C5  PXY d   1       5.974  -3.011   2.883  0.00  0.00     0.003 A 
ATOM      8  C6  PXY d   1       5.991  -3.457   4.201  0.00  0.00     0.003 A 
ENDROOT
TORSDOF 0
ENDMDL
