MODEL 1
REMARK minimizedAffinity -0.95576638
REMARK minimizedRMSD -1
REMARK  0 active torsions:
REMARK  status: ('A' for Active; 'I' for Inactive)
ROOT
ATOM      1  C4' PXY d   1       5.984  -1.808   2.275  0.00  0.00     0.077 C 
ATOM      2  C1' PXY d   1       4.582  -6.000   6.000  0.00  0.00     0.077 C 
ATOM      3  C1  PXY d   1       4.940  -4.893   5.028  0.00  0.00    -0.082 A 
ATOM      4  C2  PXY d   1       5.516  -5.195   3.876  0.00  0.00     0.003 A 
ATOM      5  C3  PXY d   1       5.876  -4.204   2.999  0.00  0.00     0.003 A 
ATOM      6  C4  PXY d   1       5.596  -2.894   3.282  0.00  0.00    -0.082 A 
ATOM      7  C5  PXY d   1       4.999  -2.578   4.451  0.00  0.00     0.003 A 
ATOM      8  C6  PXY d   1       4.679  -3.596   5.345  0.00  0.00     0.003 A 
ENDROOT
TORSDOF 0
ENDMDL
