MODEL 1
REMARK minimizedAffinity -1.00444365
REMARK minimizedRMSD -1
REMARK  0 active torsions:
REMARK  status: ('A' for Active; 'I' for Inactive)
ROOT
ATOM      1  C4' PXY d   1       5.998  -5.343   1.135  0.00  0.00     0.077 C 
ATOM      2  C1' PXY d   1       5.880  -2.219   5.997  0.00  0.00     0.077 C 
ATOM      3  C1  PXY d   1       5.905  -3.028   4.715  0.00  0.00    -0.082 A 
ATOM      4  C2  PXY d   1       5.921  -4.349   4.776  0.00  0.00     0.003 A 
ATOM      5  C3  PXY d   1       5.977  -5.096   3.628  0.00  0.00     0.003 A 
ATOM      6  C4  PXY d   1       5.962  -4.485   2.403  0.00  0.00    -0.082 A 
ATOM      7  C5  PXY d   1       5.935  -3.138   2.332  0.00  0.00     0.003 A 
ATOM      8  C6  PXY d   1       5.921  -2.397   3.510  0.00  0.00     0.003 A 
ENDROOT
TORSDOF 0
ENDMDL
