MODEL 1
REMARK minimizedAffinity -2.53286314
REMARK minimizedRMSD -1
REMARK  0 active torsions:
REMARK  status: ('A' for Active; 'I' for Inactive)
ROOT
ATOM      1  C4' PXY d   1       5.999  -5.996   1.470  0.00  0.00     0.077 C 
ATOM      2  C1' PXY d   1       4.916  -2.570   5.998  0.00  0.00     0.077 C 
ATOM      3  C1  PXY d   1       5.199  -3.459   4.802  0.00  0.00    -0.082 A 
ATOM      4  C2  PXY d   1       4.986  -4.761   4.890  0.00  0.00     0.003 A 
ATOM      5  C3  PXY d   1       5.266  -5.584   3.830  0.00  0.00     0.003 A 
ATOM      6  C4  PXY d   1       5.719  -5.060   2.648  0.00  0.00    -0.082 A 
ATOM      7  C5  PXY d   1       5.929  -3.730   2.547  0.00  0.00     0.003 A 
ATOM      8  C6  PXY d   1       5.677  -2.918   3.649  0.00  0.00     0.003 A 
ENDROOT
TORSDOF 0
ENDMDL
