MODEL 1
REMARK minimizedAffinity -0.81589824
REMARK minimizedRMSD -1
REMARK  0 active torsions:
REMARK  status: ('A' for Active; 'I' for Inactive)
ROOT
ATOM      1  C4' PXY d   1       4.755  -5.983   6.000  0.00  0.00     0.077 C 
ATOM      2  C1' PXY d   1       5.958  -1.583   2.450  0.00  0.00     0.077 C 
ATOM      3  C1  PXY d   1       5.642  -2.728   3.391  0.00  0.00    -0.082 A 
ATOM      4  C2  PXY d   1       5.999  -3.960   3.065  0.00  0.00     0.003 A 
ATOM      5  C3  PXY d   1       5.693  -5.012   3.889  0.00  0.00     0.003 A 
ATOM      6  C4  PXY d   1       5.062  -4.794   5.085  0.00  0.00    -0.082 A 
ATOM      7  C5  PXY d   1       4.704  -3.539   5.429  0.00  0.00     0.003 A 
ATOM      8  C6  PXY d   1       4.987  -2.490   4.560  0.00  0.00     0.003 A 
ENDROOT
TORSDOF 0
ENDMDL
