MODEL 1
REMARK minimizedAffinity -3.62441325
REMARK minimizedRMSD -1
REMARK  0 active torsions:
REMARK  status: ('A' for Active; 'I' for Inactive)
ROOT
ATOM      1  C4' PXY d   1       5.998  -2.205   1.506  0.00  0.00     0.077 C 
ATOM      2  C1' PXY d   1       4.537  -5.534   6.000  0.00  0.00     0.077 C 
ATOM      3  C1  PXY d   1       4.913  -4.652   4.826  0.00  0.00    -0.082 A 
ATOM      4  C2  PXY d   1       5.277  -5.206   3.681  0.00  0.00     0.003 A 
ATOM      5  C3  PXY d   1       5.651  -4.423   2.620  0.00  0.00     0.003 A 
ATOM      6  C4  PXY d   1       5.601  -3.058   2.714  0.00  0.00    -0.082 A 
ATOM      7  C5  PXY d   1       5.221  -2.485   3.876  0.00  0.00     0.003 A 
ATOM      8  C6  PXY d   1       4.885  -3.297   4.955  0.00  0.00     0.003 A 
ENDROOT
TORSDOF 0
ENDMDL
