MODEL 1
REMARK minimizedAffinity -2.30561709
REMARK minimizedRMSD -1
REMARK  0 active torsions:
REMARK  status: ('A' for Active; 'I' for Inactive)
ROOT
ATOM      1  C4' PXY d   1       6.000  -4.500   0.743  0.00  0.00     0.077 C 
ATOM      2  C1' PXY d   1       5.114  -2.251   5.994  0.00  0.00     0.077 C 
ATOM      3  C1  PXY d   1       5.345  -2.829   4.612  0.00  0.00    -0.082 A 
ATOM      4  C2  PXY d   1       5.116  -4.114   4.394  0.00  0.00     0.003 A 
ATOM      5  C3  PXY d   1       5.350  -4.660   3.158  0.00  0.00     0.003 A 
ATOM      6  C4  PXY d   1       5.772  -3.871   2.121  0.00  0.00    -0.082 A 
ATOM      7  C5  PXY d   1       5.997  -2.557   2.333  0.00  0.00     0.003 A 
ATOM      8  C6  PXY d   1       5.793  -2.031   3.605  0.00  0.00     0.003 A 
ENDROOT
TORSDOF 0
ENDMDL
