MODEL 1
REMARK minimizedAffinity -2.87634611
REMARK minimizedRMSD -1
REMARK  0 active torsions:
REMARK  status: ('A' for Active; 'I' for Inactive)
ROOT
ATOM      1  C4' PXY d   1       5.998  -5.870   1.053  0.00  0.00     0.077 C 
ATOM      2  C1' PXY d   1       4.868  -3.097   5.997  0.00  0.00     0.077 C 
ATOM      3  C1  PXY d   1       5.169  -3.835   4.707  0.00  0.00    -0.082 A 
ATOM      4  C2  PXY d   1       5.363  -3.150   3.592  0.00  0.00     0.003 A 
ATOM      5  C3  PXY d   1       5.604  -3.802   2.411  0.00  0.00     0.003 A 
ATOM      6  C4  PXY d   1       5.701  -5.167   2.380  0.00  0.00    -0.082 A 
ATOM      7  C5  PXY d   1       5.514  -5.873   3.516  0.00  0.00     0.003 A 
ATOM      8  C6  PXY d   1       5.229  -5.194   4.697  0.00  0.00     0.003 A 
ENDROOT
TORSDOF 0
ENDMDL
