MODEL 1
REMARK minimizedAffinity -1.99787176
REMARK minimizedRMSD -1
REMARK  0 active torsions:
REMARK  status: ('A' for Active; 'I' for Inactive)
ROOT
ATOM      1  C4' PXY d   1       6.000  -5.934   1.144  0.00  0.00     0.077 C 
ATOM      2  C1' PXY d   1       5.838  -2.803   6.000  0.00  0.00     0.077 C 
ATOM      3  C1  PXY d   1       5.875  -3.614   4.720  0.00  0.00    -0.082 A 
ATOM      4  C2  PXY d   1       5.884  -4.936   4.783  0.00  0.00     0.003 A 
ATOM      5  C3  PXY d   1       5.950  -5.684   3.636  0.00  0.00     0.003 A 
ATOM      6  C4  PXY d   1       5.953  -5.075   2.410  0.00  0.00    -0.082 A 
ATOM      7  C5  PXY d   1       5.933  -3.727   2.337  0.00  0.00     0.003 A 
ATOM      8  C6  PXY d   1       5.908  -2.985   3.514  0.00  0.00     0.003 A 
ENDROOT
TORSDOF 0
ENDMDL
