MODEL 1
REMARK minimizedAffinity -3.0100503
REMARK minimizedRMSD -1
REMARK  0 active torsions:
REMARK  status: ('A' for Active; 'I' for Inactive)
ROOT
ATOM      1  C4' PXY d   1       5.655  -2.198   5.998  0.00  0.00     0.077 C 
ATOM      2  C1' PXY d   1       5.999  -5.827   1.512  0.00  0.00     0.077 C 
ATOM      3  C1  PXY d   1       5.902  -4.884   2.695  0.00  0.00    -0.082 A 
ATOM      4  C2  PXY d   1       5.999  -3.579   2.501  0.00  0.00     0.003 A 
ATOM      5  C3  PXY d   1       5.946  -2.714   3.564  0.00  0.00     0.003 A 
ATOM      6  C4  PXY d   1       5.738  -3.186   4.832  0.00  0.00    -0.082 A 
ATOM      7  C5  PXY d   1       5.627  -4.516   5.037  0.00  0.00     0.003 A 
ATOM      8  C6  PXY d   1       5.725  -5.380   3.950  0.00  0.00     0.003 A 
ENDROOT
TORSDOF 0
ENDMDL
