MODEL 1
REMARK minimizedAffinity -3.54559445
REMARK minimizedRMSD -1
REMARK  0 active torsions:
REMARK  status: ('A' for Active; 'I' for Inactive)
ROOT
ATOM      1  C4' PXY d   1       5.000  -5.667   5.952  0.00  0.00     0.077 C 
ATOM      2  C1' PXY d   1       5.999  -1.540   2.029  0.00  0.00     0.077 C 
ATOM      3  C1  PXY d   1       5.739  -2.614   3.068  0.00  0.00    -0.082 A 
ATOM      4  C2  PXY d   1       5.977  -3.881   2.772  0.00  0.00     0.003 A 
ATOM      5  C3  PXY d   1       5.717  -4.868   3.688  0.00  0.00     0.003 A 
ATOM      6  C4  PXY d   1       5.258  -4.549   4.938  0.00  0.00    -0.082 A 
ATOM      7  C5  PXY d   1       5.022  -3.257   5.251  0.00  0.00     0.003 A 
ATOM      8  C6  PXY d   1       5.254  -2.275   4.293  0.00  0.00     0.003 A 
ENDROOT
TORSDOF 0
ENDMDL
