MODEL 1
REMARK minimizedAffinity -2.4874332
REMARK minimizedRMSD -1
REMARK  0 active torsions:
REMARK  status: ('A' for Active; 'I' for Inactive)
ROOT
ATOM      1  C4' PXY d   1       5.921  -2.250   1.592  0.00  0.00     0.077 C 
ATOM      2  C1' PXY d   1       3.379  -4.993   6.000  0.00  0.00     0.077 C 
ATOM      3  C1  PXY d   1       4.043  -4.262   4.850  0.00  0.00    -0.082 A 
ATOM      4  C2  PXY d   1       4.173  -4.865   3.679  0.00  0.00     0.003 A 
ATOM      5  C3  PXY d   1       4.799  -4.231   2.637  0.00  0.00     0.003 A 
ATOM      6  C4  PXY d   1       5.250  -2.946   2.779  0.00  0.00    -0.082 A 
ATOM      7  C5  PXY d   1       5.111  -2.319   3.967  0.00  0.00     0.003 A 
ATOM      8  C6  PXY d   1       4.510  -2.996   5.024  0.00  0.00     0.003 A 
ENDROOT
TORSDOF 0
ENDMDL
