MODEL 1
REMARK minimizedAffinity 1.23561394
REMARK minimizedRMSD -1
REMARK  0 active torsions:
REMARK  status: ('A' for Active; 'I' for Inactive)
ROOT
ATOM      1  C4' PXY d   1       5.999  -0.866   5.891  0.00  0.00     0.077 C 
ATOM      2  C1' PXY d   1       3.346  -5.999   5.716  0.00  0.00     0.077 C 
ATOM      3  C1  PXY d   1       4.032  -4.648   5.755  0.00  0.00    -0.082 A 
ATOM      4  C2  PXY d   1       5.344  -4.584   5.920  0.00  0.00     0.003 A 
ATOM      5  C3  PXY d   1       5.976  -3.370   5.990  0.00  0.00     0.003 A 
ATOM      6  C4  PXY d   1       5.266  -2.209   5.836  0.00  0.00    -0.082 A 
ATOM      7  C5  PXY d   1       3.929  -2.266   5.657  0.00  0.00     0.003 A 
ATOM      8  C6  PXY d   1       3.300  -3.507   5.631  0.00  0.00     0.003 A 
ENDROOT
TORSDOF 0
ENDMDL
