MODEL 1
REMARK minimizedAffinity -6.01405048
REMARK minimizedRMSD -1
REMARK  0 active torsions:
REMARK  status: ('A' for Active; 'I' for Inactive)
ROOT
ATOM      1  C2' OXE d   1      -0.291   0.843  -1.303  0.00  0.00     0.078 C 
ATOM      2  C1' OXE d   1       1.036  -0.068   0.997  0.00  0.00     0.078 C 
ATOM      3  C1  OXE d   1      -0.318  -0.656   0.686  0.00  0.00    -0.078 A 
ATOM      4  C2  OXE d   1      -0.981  -0.170  -0.415  0.00  0.00    -0.078 A 
ATOM      5  C3  OXE d   1      -2.208  -0.717  -0.778  0.00  0.00     0.003 A 
ATOM      6  C4  OXE d   1      -2.844  -1.647   0.054  0.00  0.00    -0.002 A 
ATOM      7  C5  OXE d   1      -2.204  -2.125   1.202  0.00  0.00    -0.002 A 
ATOM      8  C6  OXE d   1      -0.926  -1.673   1.509  0.00  0.00     0.003 A 
ENDROOT
TORSDOF 0
ENDMDL
