MODEL 1
REMARK minimizedAffinity -1.93420386
REMARK minimizedRMSD -1
REMARK  0 active torsions:
REMARK  status: ('A' for Active; 'I' for Inactive)
ROOT
ATOM      1  C2' OXE d   1      -2.545  -0.776   0.344  0.00  0.00     0.078 C 
ATOM      2  C1' OXE d   1      -1.025  -2.255   2.183  0.00  0.00     0.078 C 
ATOM      3  C1  OXE d   1      -0.328  -1.162   1.412  0.00  0.00    -0.078 A 
ATOM      4  C2  OXE d   1      -1.068  -0.474   0.480  0.00  0.00    -0.078 A 
ATOM      5  C3  OXE d   1      -0.489   0.580  -0.219  0.00  0.00     0.003 A 
ATOM      6  C4  OXE d   1       0.880   0.846  -0.094  0.00  0.00    -0.002 A 
ATOM      7  C5  OXE d   1       1.662   0.131   0.819  0.00  0.00    -0.002 A 
ATOM      8  C6  OXE d   1       1.065  -0.845   1.609  0.00  0.00     0.003 A 
ENDROOT
TORSDOF 0
ENDMDL
