MODEL 1
REMARK minimizedAffinity -3.08234477
REMARK minimizedRMSD -1
REMARK  0 active torsions:
REMARK  status: ('A' for Active; 'I' for Inactive)
ROOT
ATOM      1  C2' OXE d   1      -1.062  -1.643   1.774  0.00  0.00     0.078 C 
ATOM      2  C1' OXE d   1       0.890  -0.054   0.532  0.00  0.00     0.078 C 
ATOM      3  C1  OXE d   1      -0.320  -0.443  -0.279  0.00  0.00    -0.078 A 
ATOM      4  C2  OXE d   1      -1.248  -1.260   0.321  0.00  0.00    -0.078 A 
ATOM      5  C3  OXE d   1      -2.409  -1.604  -0.364  0.00  0.00     0.003 A 
ATOM      6  C4  OXE d   1      -2.568  -1.254  -1.710  0.00  0.00    -0.002 A 
ATOM      7  C5  OXE d   1      -1.616  -0.456  -2.353  0.00  0.00    -0.002 A 
ATOM      8  C6  OXE d   1      -0.509  -0.007  -1.641  0.00  0.00     0.003 A 
ENDROOT
TORSDOF 0
ENDMDL
