MODEL 1
REMARK minimizedAffinity -4.92723322
REMARK minimizedRMSD -1
REMARK  0 active torsions:
REMARK  status: ('A' for Active; 'I' for Inactive)
ROOT
ATOM      1  C2' OXE d   1      -3.285  -0.834  -0.526  0.00  0.00     0.078 C 
ATOM      2  C1' OXE d   1      -1.812  -0.205  -2.832  0.00  0.00     0.078 C 
ATOM      3  C1  OXE d   1      -1.056  -0.367  -1.537  0.00  0.00    -0.078 A 
ATOM      4  C2  OXE d   1      -1.790  -0.629  -0.405  0.00  0.00    -0.078 A 
ATOM      5  C3  OXE d   1      -1.137  -0.841   0.806  0.00  0.00     0.003 A 
ATOM      6  C4  OXE d   1       0.244  -0.640   0.912  0.00  0.00    -0.002 A 
ATOM      7  C5  OXE d   1       1.005  -0.334  -0.221  0.00  0.00    -0.002 A 
ATOM      8  C6  OXE d   1       0.378  -0.236  -1.458  0.00  0.00     0.003 A 
ENDROOT
TORSDOF 0
ENDMDL
