MODEL 1
REMARK minimizedAffinity -4.30863762
REMARK minimizedRMSD -1
REMARK  0 active torsions:
REMARK  status: ('A' for Active; 'I' for Inactive)
ROOT
ATOM      1  C2' OXE d   1      -0.771  -0.116  -2.586  0.00  0.00     0.078 C 
ATOM      2  C1' OXE d   1       0.526   0.825  -0.281  0.00  0.00     0.078 C 
ATOM      3  C1  OXE d   1      -0.704  -0.028  -0.097  0.00  0.00    -0.078 A 
ATOM      4  C2  OXE d   1      -1.359  -0.446  -1.231  0.00  0.00    -0.078 A 
ATOM      5  C3  OXE d   1      -2.467  -1.281  -1.119  0.00  0.00     0.003 A 
ATOM      6  C4  OXE d   1      -3.011  -1.573   0.138  0.00  0.00    -0.002 A 
ATOM      7  C5  OXE d   1      -2.382  -1.124   1.305  0.00  0.00    -0.002 A 
ATOM      8  C6  OXE d   1      -1.207  -0.388   1.206  0.00  0.00     0.003 A 
ENDROOT
TORSDOF 0
ENDMDL
