MODEL 1
REMARK minimizedAffinity -1.18181908
REMARK minimizedRMSD -1
REMARK  0 active torsions:
REMARK  status: ('A' for Active; 'I' for Inactive)
ROOT
ATOM      1  C2' OXE d   1      -2.432  -1.284  -1.048  0.00  0.00     0.078 C 
ATOM      2  C1' OXE d   1      -2.038  -1.123   1.727  0.00  0.00     0.078 C 
ATOM      3  C1  OXE d   1      -0.940  -0.610   0.829  0.00  0.00    -0.078 A 
ATOM      4  C2  OXE d   1      -1.121  -0.736  -0.527  0.00  0.00    -0.078 A 
ATOM      5  C3  OXE d   1      -0.163  -0.229  -1.400  0.00  0.00     0.003 A 
ATOM      6  C4  OXE d   1       1.051   0.268  -0.910  0.00  0.00    -0.002 A 
ATOM      7  C5  OXE d   1       1.272   0.368   0.467  0.00  0.00    -0.002 A 
ATOM      8  C6  OXE d   1       0.272  -0.027   1.349  0.00  0.00     0.003 A 
ENDROOT
TORSDOF 0
ENDMDL
