MODEL 1
REMARK minimizedAffinity -4.72258997
REMARK minimizedRMSD -1
REMARK  0 active torsions:
REMARK  status: ('A' for Active; 'I' for Inactive)
ROOT
ATOM      1  C2' OXE d   1       1.273   0.011  -0.319  0.00  0.00     0.078 C 
ATOM      2  C1' OXE d   1      -0.065   0.248  -2.776  0.00  0.00     0.078 C 
ATOM      3  C1  OXE d   1      -0.876  -0.154  -1.569  0.00  0.00    -0.078 A 
ATOM      4  C2  OXE d   1      -0.204  -0.313  -0.380  0.00  0.00    -0.078 A 
ATOM      5  C3  OXE d   1      -0.913  -0.629   0.775  0.00  0.00     0.003 A 
ATOM      6  C4  OXE d   1      -2.277  -0.936   0.708  0.00  0.00    -0.002 A 
ATOM      7  C5  OXE d   1      -2.972  -0.820  -0.500  0.00  0.00    -0.002 A 
ATOM      8  C6  OXE d   1      -2.297  -0.389  -1.637  0.00  0.00     0.003 A 
ENDROOT
TORSDOF 0
ENDMDL
