MODEL 1
REMARK minimizedAffinity -5.61761284
REMARK minimizedRMSD -1
REMARK  0 active torsions:
REMARK  status: ('A' for Active; 'I' for Inactive)
ROOT
ATOM      1  C2' OXE d   1       0.957  -0.093   0.122  0.00  0.00     0.078 C 
ATOM      2  C1' OXE d   1      -0.767  -1.740   1.603  0.00  0.00     0.078 C 
ATOM      3  C1  OXE d   1      -1.352  -0.970   0.446  0.00  0.00    -0.078 A 
ATOM      4  C2  OXE d   1      -0.512  -0.130  -0.244  0.00  0.00    -0.078 A 
ATOM      5  C3  OXE d   1      -0.987   0.562  -1.353  0.00  0.00     0.003 A 
ATOM      6  C4  OXE d   1      -2.349   0.530  -1.679  0.00  0.00    -0.002 A 
ATOM      7  C5  OXE d   1      -3.230  -0.288  -0.965  0.00  0.00    -0.002 A 
ATOM      8  C6  OXE d   1      -2.741  -1.075   0.072  0.00  0.00     0.003 A 
ENDROOT
TORSDOF 0
ENDMDL
