MODEL 1
REMARK minimizedAffinity -4.5236311
REMARK minimizedRMSD -1
REMARK  0 active torsions:
REMARK  status: ('A' for Active; 'I' for Inactive)
ROOT
ATOM      1  C2' OXE d   1      -0.540   2.146  -0.795  0.00  0.00     0.078 C 
ATOM      2  C1' OXE d   1       2.112   1.395  -0.264  0.00  0.00     0.078 C 
ATOM      3  C1  OXE d   1       1.012   0.494   0.238  0.00  0.00    -0.078 A 
ATOM      4  C2  OXE d   1      -0.284   0.894   0.015  0.00  0.00    -0.078 A 
ATOM      5  C3  OXE d   1      -1.336   0.072   0.409  0.00  0.00     0.003 A 
ATOM      6  C4  OXE d   1      -1.091  -1.080   1.166  0.00  0.00    -0.002 A 
ATOM      7  C5  OXE d   1       0.220  -1.484   1.440  0.00  0.00    -0.002 A 
ATOM      8  C6  OXE d   1       1.282  -0.732   0.947  0.00  0.00     0.003 A 
ENDROOT
TORSDOF 0
ENDMDL
