MODEL 1
REMARK minimizedAffinity -4.55077696
REMARK minimizedRMSD -1
REMARK  0 active torsions:
REMARK  status: ('A' for Active; 'I' for Inactive)
ROOT
ATOM      1  C2' OXE d   1      -2.762  -1.108  -0.482  0.00  0.00     0.078 C 
ATOM      2  C1' OXE d   1      -1.099  -1.796   1.672  0.00  0.00     0.078 C 
ATOM      3  C1  OXE d   1      -0.536  -0.881   0.614  0.00  0.00    -0.078 A 
ATOM      4  C2  OXE d   1      -1.341  -0.587  -0.461  0.00  0.00    -0.078 A 
ATOM      5  C3  OXE d   1      -0.891   0.296  -1.438  0.00  0.00     0.003 A 
ATOM      6  C4  OXE d   1       0.428   0.765  -1.416  0.00  0.00    -0.002 A 
ATOM      7  C5  OXE d   1       1.278   0.446  -0.351  0.00  0.00    -0.002 A 
ATOM      8  C6  OXE d   1       0.798  -0.339   0.691  0.00  0.00     0.003 A 
ENDROOT
TORSDOF 0
ENDMDL
