MODEL 1
REMARK minimizedAffinity 0.143860474
REMARK minimizedRMSD -1
REMARK  0 active torsions:
REMARK  status: ('A' for Active; 'I' for Inactive)
ROOT
ATOM      1  C2' OXE d   1      -0.853  -1.990   2.236  0.00  0.00     0.078 C 
ATOM      2  C1' OXE d   1      -2.538  -0.798   0.333  0.00  0.00     0.078 C 
ATOM      3  C1  OXE d   1      -1.069  -0.465   0.278  0.00  0.00    -0.078 A 
ATOM      4  C2  OXE d   1      -0.259  -1.015   1.242  0.00  0.00    -0.078 A 
ATOM      5  C3  OXE d   1       1.113  -0.784   1.204  0.00  0.00     0.003 A 
ATOM      6  C4  OXE d   1       1.654   0.126   0.287  0.00  0.00    -0.002 A 
ATOM      7  C5  OXE d   1       0.840   0.729  -0.678  0.00  0.00    -0.002 A 
ATOM      8  C6  OXE d   1      -0.513   0.412  -0.723  0.00  0.00     0.003 A 
ENDROOT
TORSDOF 0
ENDMDL
