MODEL 1
REMARK minimizedAffinity -4.63521004
REMARK minimizedRMSD -1
REMARK  0 active torsions:
REMARK  status: ('A' for Active; 'I' for Inactive)
ROOT
ATOM      1  C2' OXE d   1      -1.134   0.807  -1.536  0.00  0.00     0.078 C 
ATOM      2  C1' OXE d   1       0.624   0.458   0.625  0.00  0.00     0.078 C 
ATOM      3  C1  OXE d   1      -0.600  -0.420   0.565  0.00  0.00    -0.078 A 
ATOM      4  C2  OXE d   1      -1.479  -0.211  -0.470  0.00  0.00    -0.078 A 
ATOM      5  C3  OXE d   1      -2.597  -1.030  -0.602  0.00  0.00     0.003 A 
ATOM      6  C4  OXE d   1      -2.914  -1.962   0.393  0.00  0.00    -0.002 A 
ATOM      7  C5  OXE d   1      -2.053  -2.164   1.477  0.00  0.00    -0.002 A 
ATOM      8  C6  OXE d   1      -0.873  -1.433   1.556  0.00  0.00     0.003 A 
ENDROOT
TORSDOF 0
ENDMDL
