MODEL 1
REMARK minimizedAffinity -3.34893012
REMARK minimizedRMSD -1
REMARK  0 active torsions:
REMARK  status: ('A' for Active; 'I' for Inactive)
ROOT
ATOM      1  C2' OXE d   1       0.099   0.582  -1.499  0.00  0.00     0.078 C 
ATOM      2  C1' OXE d   1       0.211  -0.999   0.817  0.00  0.00     0.078 C 
ATOM      3  C1  OXE d   1       1.087   0.228   0.760  0.00  0.00    -0.078 A 
ATOM      4  C2  OXE d   1       1.060   0.970  -0.396  0.00  0.00    -0.078 A 
ATOM      5  C3  OXE d   1       1.807   2.141  -0.480  0.00  0.00     0.003 A 
ATOM      6  C4  OXE d   1       2.701   2.487   0.540  0.00  0.00    -0.002 A 
ATOM      7  C5  OXE d   1       2.773   1.723   1.710  0.00  0.00    -0.002 A 
ATOM      8  C6  OXE d   1       1.943   0.617   1.853  0.00  0.00     0.003 A 
ENDROOT
TORSDOF 0
ENDMDL
