MODEL 1
REMARK minimizedAffinity -2.74579382
REMARK minimizedRMSD -1
REMARK  0 active torsions:
REMARK  status: ('A' for Active; 'I' for Inactive)
ROOT
ATOM      1  C2' OXE d   1      -2.976  -0.640  -0.023  0.00  0.00     0.078 C 
ATOM      2  C1' OXE d   1      -1.139  -1.407   1.956  0.00  0.00     0.078 C 
ATOM      3  C1  OXE d   1      -0.599  -0.744   0.714  0.00  0.00    -0.078 A 
ATOM      4  C2  OXE d   1      -1.500  -0.414  -0.269  0.00  0.00    -0.078 A 
ATOM      5  C3  OXE d   1      -1.061   0.250  -1.412  0.00  0.00     0.003 A 
ATOM      6  C4  OXE d   1       0.307   0.446  -1.636  0.00  0.00    -0.002 A 
ATOM      7  C5  OXE d   1       1.246   0.081  -0.664  0.00  0.00    -0.002 A 
ATOM      8  C6  OXE d   1       0.806  -0.475   0.532  0.00  0.00     0.003 A 
ENDROOT
TORSDOF 0
ENDMDL
