MODEL 1
REMARK minimizedAffinity -1.65210199
REMARK minimizedRMSD -1
REMARK  0 active torsions:
REMARK  status: ('A' for Active; 'I' for Inactive)
ROOT
ATOM      1  C2' OXE d   1       0.322   0.678  -1.014  0.00  0.00     0.078 C 
ATOM      2  C1' OXE d   1       1.650  -0.717   1.028  0.00  0.00     0.078 C 
ATOM      3  C1  OXE d   1       1.857   0.775   0.946  0.00  0.00    -0.078 A 
ATOM      4  C2  OXE d   1       1.241   1.442  -0.085  0.00  0.00    -0.078 A 
ATOM      5  C3  OXE d   1       1.355   2.827  -0.175  0.00  0.00     0.003 A 
ATOM      6  C4  OXE d   1       2.215   3.524   0.682  0.00  0.00    -0.002 A 
ATOM      7  C5  OXE d   1       2.884   2.858   1.714  0.00  0.00    -0.002 A 
ATOM      8  C6  OXE d   1       2.683   1.492   1.885  0.00  0.00     0.003 A 
ENDROOT
TORSDOF 0
ENDMDL
