MODEL 1
REMARK minimizedAffinity -3.91340137
REMARK minimizedRMSD -1
REMARK  0 active torsions:
REMARK  status: ('A' for Active; 'I' for Inactive)
ROOT
ATOM      1  C2' OXE d   1      -3.073  -0.533  -0.700  0.00  0.00     0.078 C 
ATOM      2  C1' OXE d   1      -1.467   0.651  -2.674  0.00  0.00     0.078 C 
ATOM      3  C1  OXE d   1      -0.810   0.258  -1.375  0.00  0.00    -0.078 A 
ATOM      4  C2  OXE d   1      -1.613  -0.278  -0.397  0.00  0.00    -0.078 A 
ATOM      5  C3  OXE d   1      -1.047  -0.708   0.800  0.00  0.00     0.003 A 
ATOM      6  C4  OXE d   1       0.303  -0.459   1.076  0.00  0.00    -0.002 A 
ATOM      7  C5  OXE d   1       1.130   0.122   0.109  0.00  0.00    -0.002 A 
ATOM      8  C6  OXE d   1       0.600   0.447  -1.135  0.00  0.00     0.003 A 
ENDROOT
TORSDOF 0
ENDMDL
