MODEL 1
REMARK minimizedAffinity -4.09706593
REMARK minimizedRMSD -1
REMARK  0 active torsions:
REMARK  status: ('A' for Active; 'I' for Inactive)
ROOT
ATOM      1  C2' OXE d   1       1.301  -0.224   0.123  0.00  0.00     0.078 C 
ATOM      2  C1' OXE d   1      -0.531  -1.457   1.856  0.00  0.00     0.078 C 
ATOM      3  C1  OXE d   1      -1.078  -0.751   0.641  0.00  0.00    -0.078 A 
ATOM      4  C2  OXE d   1      -0.179  -0.111  -0.177  0.00  0.00    -0.078 A 
ATOM      5  C3  OXE d   1      -0.624   0.509  -1.341  0.00  0.00     0.003 A 
ATOM      6  C4  OXE d   1      -1.995   0.618  -1.605  0.00  0.00    -0.002 A 
ATOM      7  C5  OXE d   1      -2.931   0.007  -0.764  0.00  0.00    -0.002 A 
ATOM      8  C6  OXE d   1      -2.488  -0.716   0.337  0.00  0.00     0.003 A 
ENDROOT
TORSDOF 0
ENDMDL
