MODEL 1
REMARK minimizedAffinity -4.38550663
REMARK minimizedRMSD -1
REMARK  0 active torsions:
REMARK  status: ('A' for Active; 'I' for Inactive)
ROOT
ATOM      1  C2' OXE d   1      -2.617  -0.390   0.392  0.00  0.00     0.078 C 
ATOM      2  C1' OXE d   1      -1.070  -1.651   2.366  0.00  0.00     0.078 C 
ATOM      3  C1  OXE d   1      -0.345  -0.927   1.259  0.00  0.00    -0.078 A 
ATOM      4  C2  OXE d   1      -1.109  -0.353   0.272  0.00  0.00    -0.078 A 
ATOM      5  C3  OXE d   1      -0.492   0.373  -0.743  0.00  0.00     0.003 A 
ATOM      6  C4  OXE d   1       0.904   0.394  -0.851  0.00  0.00    -0.002 A 
ATOM      7  C5  OXE d   1       1.701  -0.219   0.122  0.00  0.00    -0.002 A 
ATOM      8  C6  OXE d   1       1.094  -0.846   1.204  0.00  0.00     0.003 A 
ENDROOT
TORSDOF 0
ENDMDL
