MODEL 1
REMARK minimizedAffinity 3.98505044
REMARK minimizedRMSD -1
REMARK  0 active torsions:
REMARK  status: ('A' for Active; 'I' for Inactive)
ROOT
ATOM      1  C1  DEN d   1      -0.318   0.136  -1.694  0.00  0.00     0.130 A 
ATOM      2  C2  DEN d   1      -0.290   0.161  -0.235  0.00  0.00    -0.031 A 
ATOM      3  C3  DEN d   1      -1.313   1.122   0.225  0.00  0.00     0.027 A 
ATOM      4  C4  DEN d   1      -2.932   2.562  -1.174  0.00  0.00     0.027 A 
ATOM      5  C5  DEN d   1      -3.321   2.891  -2.453  0.00  0.00    -0.003 A 
ATOM      6  C6  DEN d   1      -2.719   2.356  -3.561  0.00  0.00     0.001 A 
ATOM      7  C7  DEN d   1      -1.723   1.427  -3.410  0.00  0.00     0.017 A 
ATOM      8  C8  DEN d   1      -1.320   1.095  -2.123  0.00  0.00    -0.094 A 
ATOM      9  C9  DEN d   1      -1.950   1.638  -1.016  0.00  0.00    -0.072 A 
ENDROOT
TORSDOF 0
ENDMDL
