MODEL 1
REMARK minimizedAffinity -1.9623245
REMARK minimizedRMSD -1
REMARK  0 active torsions:
REMARK  status: ('A' for Active; 'I' for Inactive)
ROOT
ATOM      1  C1  DEN d   1       4.007  -4.173  -2.048  0.00  0.00     0.130 A 
ATOM      2  C2  DEN d   1       3.000  -5.112  -1.562  0.00  0.00    -0.031 A 
ATOM      3  C3  DEN d   1       2.619  -5.994  -2.683  0.00  0.00     0.027 A 
ATOM      4  C4  DEN d   1       3.489  -6.000  -5.111  0.00  0.00     0.027 A 
ATOM      5  C5  DEN d   1       4.340  -5.381  -6.000  0.00  0.00    -0.003 A 
ATOM      6  C6  DEN d   1       5.109  -4.304  -5.646  0.00  0.00     0.001 A 
ATOM      7  C7  DEN d   1       5.075  -3.840  -4.357  0.00  0.00     0.017 A 
ATOM      8  C8  DEN d   1       4.213  -4.454  -3.457  0.00  0.00    -0.094 A 
ATOM      9  C9  DEN d   1       3.454  -5.549  -3.831  0.00  0.00    -0.072 A 
ENDROOT
TORSDOF 0
ENDMDL
