MODEL 1
REMARK minimizedAffinity 16.2062511
REMARK minimizedRMSD -1
REMARK  0 active torsions:
REMARK  status: ('A' for Active; 'I' for Inactive)
ROOT
ATOM      1  C1  DEN d   1      -1.354   2.253   0.393  0.00  0.00     0.130 A 
ATOM      2  C2  DEN d   1      -1.152   3.694   0.517  0.00  0.00    -0.031 A 
ATOM      3  C3  DEN d   1       0.297   3.963   0.414  0.00  0.00     0.027 A 
ATOM      4  C4  DEN d   1       2.235   2.296   0.070  0.00  0.00     0.027 A 
ATOM      5  C5  DEN d   1       2.559   0.966  -0.080  0.00  0.00    -0.003 A 
ATOM      6  C6  DEN d   1       1.612  -0.024  -0.048  0.00  0.00     0.001 A 
ATOM      7  C7  DEN d   1       0.290   0.306   0.091  0.00  0.00     0.017 A 
ATOM      8  C8  DEN d   1      -0.043   1.645   0.250  0.00  0.00    -0.094 A 
ATOM      9  C9  DEN d   1       0.927   2.631   0.204  0.00  0.00    -0.072 A 
ENDROOT
TORSDOF 0
ENDMDL
