MODEL 1
REMARK minimizedAffinity 10.4900589
REMARK minimizedRMSD -1
REMARK  0 active torsions:
REMARK  status: ('A' for Active; 'I' for Inactive)
ROOT
ATOM      1  C1  DEN d   1      -1.164   0.396  -0.091  0.00  0.00     0.130 A 
ATOM      2  C2  DEN d   1      -0.765  -0.921   0.396  0.00  0.00    -0.031 A 
ATOM      3  C3  DEN d   1       0.671  -0.868   0.734  0.00  0.00     0.027 A 
ATOM      4  C4  DEN d   1       2.308   1.117   0.556  0.00  0.00     0.027 A 
ATOM      5  C5  DEN d   1       2.434   2.438   0.185  0.00  0.00    -0.003 A 
ATOM      6  C6  DEN d   1       1.388   3.155  -0.331  0.00  0.00     0.001 A 
ATOM      7  C7  DEN d   1       0.156   2.568  -0.449  0.00  0.00     0.017 A 
ATOM      8  C8  DEN d   1       0.022   1.235  -0.084  0.00  0.00    -0.094 A 
ATOM      9  C9  DEN d   1       1.089   0.530   0.447  0.00  0.00    -0.072 A 
ENDROOT
TORSDOF 0
ENDMDL
