MODEL 1
REMARK minimizedAffinity -3.90041494
REMARK minimizedRMSD -1
REMARK  0 active torsions:
REMARK  status: ('A' for Active; 'I' for Inactive)
ROOT
ATOM      1  C1  DEN d   1       3.490  -3.971  -5.873  0.00  0.00     0.130 A 
ATOM      2  C2  DEN d   1       4.164  -4.853  -4.924  0.00  0.00    -0.031 A 
ATOM      3  C3  DEN d   1       4.771  -4.014  -3.872  0.00  0.00     0.027 A 
ATOM      4  C4  DEN d   1       4.730  -1.447  -3.619  0.00  0.00     0.027 A 
ATOM      5  C5  DEN d   1       4.292  -0.270  -4.185  0.00  0.00    -0.003 A 
ATOM      6  C6  DEN d   1       3.591  -0.243  -5.361  0.00  0.00     0.001 A 
ATOM      7  C7  DEN d   1       3.268  -1.418  -5.987  0.00  0.00     0.017 A 
ATOM      8  C8  DEN d   1       3.713  -2.608  -5.427  0.00  0.00    -0.094 A 
ATOM      9  C9  DEN d   1       4.410  -2.616  -4.230  0.00  0.00    -0.072 A 
ENDROOT
TORSDOF 0
ENDMDL
