MODEL 1
REMARK minimizedAffinity 10.1207876
REMARK minimizedRMSD -1
REMARK  0 active torsions:
REMARK  status: ('A' for Active; 'I' for Inactive)
ROOT
ATOM      1  C1  DEN d   1      -0.165   0.479  -0.020  0.00  0.00     0.130 A 
ATOM      2  C2  DEN d   1      -0.046   1.849  -0.511  0.00  0.00    -0.031 A 
ATOM      3  C3  DEN d   1       1.018   2.521   0.262  0.00  0.00     0.027 A 
ATOM      4  C4  DEN d   1       2.490   1.575   2.157  0.00  0.00     0.027 A 
ATOM      5  C5  DEN d   1       2.749   0.464   2.929  0.00  0.00    -0.003 A 
ATOM      6  C6  DEN d   1       2.038  -0.699   2.796  0.00  0.00     0.001 A 
ATOM      7  C7  DEN d   1       1.063  -0.793   1.839  0.00  0.00     0.017 A 
ATOM      8  C8  DEN d   1       0.791   0.325   1.062  0.00  0.00    -0.094 A 
ATOM      9  C9  DEN d   1       1.528   1.488   1.203  0.00  0.00    -0.072 A 
ENDROOT
TORSDOF 0
ENDMDL
