MODEL 1
REMARK minimizedAffinity -1.34751272
REMARK minimizedRMSD -1
REMARK  0 active torsions:
REMARK  status: ('A' for Active; 'I' for Inactive)
ROOT
ATOM      1  C1  DEN d   1       3.842  -2.134  -3.735  0.00  0.00     0.130 A 
ATOM      2  C2  DEN d   1       4.316  -1.399  -4.904  0.00  0.00    -0.031 A 
ATOM      3  C3  DEN d   1       4.525  -2.367  -5.999  0.00  0.00     0.027 A 
ATOM      4  C4  DEN d   1       4.158  -4.920  -5.999  0.00  0.00     0.027 A 
ATOM      5  C5  DEN d   1       3.775  -5.999  -5.233  0.00  0.00    -0.003 A 
ATOM      6  C6  DEN d   1       3.423  -5.871  -3.916  0.00  0.00     0.001 A 
ATOM      7  C7  DEN d   1       3.403  -4.630  -3.336  0.00  0.00     0.017 A 
ATOM      8  C8  DEN d   1       3.795  -3.539  -4.099  0.00  0.00    -0.094 A 
ATOM      9  C9  DEN d   1       4.136  -3.687  -5.433  0.00  0.00    -0.072 A 
ENDROOT
TORSDOF 0
ENDMDL
