MODEL 1
REMARK minimizedAffinity 7.58568859
REMARK minimizedRMSD -1
REMARK  0 active torsions:
REMARK  status: ('A' for Active; 'I' for Inactive)
ROOT
ATOM      1  C1  DEN d   1      -1.342  -0.333   0.439  0.00  0.00     0.130 A 
ATOM      2  C2  DEN d   1      -0.721  -1.565   0.916  0.00  0.00    -0.031 A 
ATOM      3  C3  DEN d   1       0.716  -1.300   1.127  0.00  0.00     0.027 A 
ATOM      4  C4  DEN d   1       2.032   0.889   0.767  0.00  0.00     0.027 A 
ATOM      5  C5  DEN d   1       1.937   2.202   0.360  0.00  0.00    -0.003 A 
ATOM      6  C6  DEN d   1       0.760   2.748  -0.077  0.00  0.00     0.001 A 
ATOM      7  C7  DEN d   1      -0.382   1.990  -0.076  0.00  0.00     0.017 A 
ATOM      8  C8  DEN d   1      -0.293   0.664   0.326  0.00  0.00    -0.094 A 
ATOM      9  C9  DEN d   1       0.905   0.134   0.777  0.00  0.00    -0.072 A 
ENDROOT
TORSDOF 0
ENDMDL
