MODEL 1
REMARK minimizedAffinity -5.10375595
REMARK minimizedRMSD -1
REMARK  1 active torsions:
REMARK  status: ('A' for Active; 'I' for Inactive)
REMARK    1  A    between atoms: C1_2  and  C2_3 
ROOT
ATOM      1  C2  UNL d   1      -0.970  -0.085   1.393  0.00  0.00    -0.077 A 
ATOM      2  C3  UNL d   1      -1.997   0.116   0.459  0.00  0.00     0.002 A 
ATOM      3  C4  UNL d   1      -1.717   0.678  -0.788  0.00  0.00     0.002 A 
ATOM      4  C5  UNL d   1      -0.412   1.041  -1.114  0.00  0.00    -0.004 A 
ATOM      5  C6  UNL d   1       0.615   0.847  -0.191  0.00  0.00     0.002 A 
ATOM      6  C7  UNL d   1       0.338   0.286   1.056  0.00  0.00     0.002 A 
ENDROOT
BRANCH   1   7
ATOM      7  C1  UNL d   1      -1.262  -0.736   2.719  0.00  0.00     0.055 C 
ATOM      8  C   UNL d   1      -0.484  -0.071   3.846  0.00  0.00     0.019 C 
ENDBRANCH   1   7
TORSDOF 1
ENDMDL
