MODEL 1
REMARK minimizedAffinity -3.75901413
REMARK minimizedRMSD -1
REMARK  1 active torsions:
REMARK  status: ('A' for Active; 'I' for Inactive)
REMARK    1  A    between atoms: C1_2  and  C2_3 
ROOT
ATOM      1  C2  UNL d   1      -0.463   0.190   0.079  0.00  0.00    -0.077 A 
ATOM      2  C3  UNL d   1      -1.794   0.175   0.522  0.00  0.00     0.002 A 
ATOM      3  C4  UNL d   1      -2.098  -0.207   1.830  0.00  0.00     0.002 A 
ATOM      4  C5  UNL d   1      -1.079  -0.572   2.707  0.00  0.00    -0.004 A 
ATOM      5  C6  UNL d   1       0.247  -0.562   2.275  0.00  0.00     0.002 A 
ATOM      6  C7  UNL d   1       0.554  -0.182   0.968  0.00  0.00     0.002 A 
ENDROOT
BRANCH   1   7
ATOM      7  C1  UNL d   1      -0.128   0.648  -1.316  0.00  0.00     0.055 C 
ATOM      8  C   UNL d   1       0.553  -0.455  -2.112  0.00  0.00     0.019 C 
ENDBRANCH   1   7
TORSDOF 1
ENDMDL
