MODEL 1
REMARK minimizedAffinity -2.11463332
REMARK minimizedRMSD -1
REMARK  1 active torsions:
REMARK  status: ('A' for Active; 'I' for Inactive)
REMARK    1  A    between atoms: C1_2  and  C2_3 
ROOT
ATOM      1  C2  UNL d   1       0.399   0.507  -1.437  0.00  0.00    -0.077 A 
ATOM      2  C3  UNL d   1       1.422   0.514  -0.478  0.00  0.00     0.002 A 
ATOM      3  C4  UNL d   1       1.113   0.525   0.883  0.00  0.00     0.002 A 
ATOM      4  C5  UNL d   1      -0.217   0.524   1.298  0.00  0.00    -0.004 A 
ATOM      5  C6  UNL d   1      -1.242   0.519   0.352  0.00  0.00     0.002 A 
ATOM      6  C7  UNL d   1      -0.935   0.510  -1.010  0.00  0.00     0.002 A 
ENDROOT
BRANCH   1   7
ATOM      7  C1  UNL d   1       0.730   0.446  -2.906  0.00  0.00     0.055 C 
ATOM      8  C   UNL d   1       0.958  -0.988  -3.363  0.00  0.00     0.019 C 
ENDBRANCH   1   7
TORSDOF 1
ENDMDL
