MODEL 1
REMARK minimizedAffinity -4.68176651
REMARK minimizedRMSD -1
REMARK  1 active torsions:
REMARK  status: ('A' for Active; 'I' for Inactive)
REMARK    1  A    between atoms: C1_2  and  C2_3 
ROOT
ATOM      1  C2  UNL d   1       0.154   0.233   1.435  0.00  0.00    -0.077 A 
ATOM      2  C3  UNL d   1       1.512   0.255   1.086  0.00  0.00     0.002 A 
ATOM      3  C4  UNL d   1       1.895   0.374  -0.252  0.00  0.00     0.002 A 
ATOM      4  C5  UNL d   1       0.928   0.478  -1.249  0.00  0.00    -0.004 A 
ATOM      5  C6  UNL d   1      -0.425   0.456  -0.911  0.00  0.00     0.002 A 
ATOM      6  C7  UNL d   1      -0.810   0.335   0.425  0.00  0.00     0.002 A 
ENDROOT
BRANCH   1   7
ATOM      7  C1  UNL d   1      -0.260   0.154   2.881  0.00  0.00     0.055 C 
ATOM      8  C   UNL d   1      -0.935  -1.174   3.192  0.00  0.00     0.019 C 
ENDBRANCH   1   7
TORSDOF 1
ENDMDL
