MODEL 1
REMARK minimizedAffinity -2.78011823
REMARK minimizedRMSD -1
REMARK  1 active torsions:
REMARK  status: ('A' for Active; 'I' for Inactive)
REMARK    1  A    between atoms: C1_2  and  C2_3 
ROOT
ATOM      1  C2  UNL d   1       0.312  -0.057   1.650  0.00  0.00    -0.077 A 
ATOM      2  C3  UNL d   1       0.367  -0.049   3.051  0.00  0.00     0.002 A 
ATOM      3  C4  UNL d   1      -0.652  -0.637   3.802  0.00  0.00     0.002 A 
ATOM      4  C5  UNL d   1      -1.732  -1.241   3.162  0.00  0.00    -0.004 A 
ATOM      5  C6  UNL d   1      -1.798  -1.253   1.769  0.00  0.00     0.002 A 
ATOM      6  C7  UNL d   1      -0.780  -0.664   1.017  0.00  0.00     0.002 A 
ENDROOT
BRANCH   1   7
ATOM      7  C1  UNL d   1       1.435   0.533   0.838  0.00  0.00     0.055 C 
ATOM      8  C   UNL d   1       1.097   0.545  -0.646  0.00  0.00     0.019 C 
ENDBRANCH   1   7
TORSDOF 1
ENDMDL
