MODEL 1
REMARK minimizedAffinity -3.9074738
REMARK minimizedRMSD -1
REMARK  1 active torsions:
REMARK  status: ('A' for Active; 'I' for Inactive)
REMARK    1  A    between atoms: C1_2  and  C2_3 
ROOT
ATOM      1  C2  UNL d   1      -0.173  -0.095   2.163  0.00  0.00    -0.077 A 
ATOM      2  C3  UNL d   1       1.063   0.482   1.839  0.00  0.00     0.002 A 
ATOM      3  C4  UNL d   1       1.415   0.696   0.505  0.00  0.00     0.002 A 
ATOM      4  C5  UNL d   1       0.535   0.338  -0.515  0.00  0.00    -0.004 A 
ATOM      5  C6  UNL d   1      -0.695  -0.239  -0.203  0.00  0.00     0.002 A 
ATOM      6  C7  UNL d   1      -1.048  -0.454   1.130  0.00  0.00     0.002 A 
ENDROOT
BRANCH   1   7
ATOM      7  C1  UNL d   1      -0.575  -0.281   3.603  0.00  0.00     0.055 C 
ATOM      8  C   UNL d   1      -1.882  -1.052   3.718  0.00  0.00     0.019 C 
ENDBRANCH   1   7
TORSDOF 1
ENDMDL
