MODEL 1
REMARK minimizedAffinity -2.92839074
REMARK minimizedRMSD -1
REMARK  0 active torsions:
REMARK  status: ('A' for Active; 'I' for Inactive)
ROOT
ATOM      1  C   UNL d   1      -1.547  -0.422  -0.090  0.00  0.00     0.078 C 
ATOM      2  C1  UNL d   1      -0.297   0.273   0.360  0.00  0.00    -0.077 A 
ATOM      3  C2  UNL d   1       0.605  -0.355   1.228  0.00  0.00    -0.001 A 
ATOM      4  C3  UNL d   1       1.760   0.308   1.647  0.00  0.00     0.003 A 
ATOM      5  C4  UNL d   1       2.023   1.602   1.203  0.00  0.00    -0.005 A 
ATOM      6  C5  UNL d   1       1.131   2.236   0.341  0.00  0.00     0.003 A 
ATOM      7  C6  UNL d   1      -0.024   1.575  -0.079  0.00  0.00    -0.001 A 
ENDROOT
TORSDOF 0
ENDMDL
