MODEL 1
REMARK minimizedAffinity -5.04196024
REMARK minimizedRMSD -1
REMARK  0 active torsions:
REMARK  status: ('A' for Active; 'I' for Inactive)
ROOT
ATOM      1  C   UNL d   1      -1.086   0.229  -0.231  0.00  0.00     0.078 C 
ATOM      2  C1  UNL d   1       0.272  -0.279   0.153  0.00  0.00    -0.077 A 
ATOM      3  C2  UNL d   1       0.787  -0.061   1.436  0.00  0.00    -0.001 A 
ATOM      4  C3  UNL d   1       2.057  -0.531   1.776  0.00  0.00     0.003 A 
ATOM      5  C4  UNL d   1       2.822  -1.220   0.838  0.00  0.00    -0.005 A 
ATOM      6  C5  UNL d   1       2.318  -1.440  -0.442  0.00  0.00     0.003 A 
ATOM      7  C6  UNL d   1       1.049  -0.971  -0.784  0.00  0.00    -0.001 A 
ENDROOT
TORSDOF 0
ENDMDL
