MODEL 1
REMARK minimizedAffinity -3.59938908
REMARK minimizedRMSD -1
REMARK  0 active torsions:
REMARK  status: ('A' for Active; 'I' for Inactive)
ROOT
ATOM      1  C   UNL d   1      -5.938  -0.981  -0.333  0.00  0.00     0.078 C 
ATOM      2  C1  UNL d   1      -4.779  -0.222   0.241  0.00  0.00    -0.077 A 
ATOM      3  C2  UNL d   1      -4.523  -0.227   1.617  0.00  0.00    -0.001 A 
ATOM      4  C3  UNL d   1      -3.446   0.492   2.138  0.00  0.00     0.003 A 
ATOM      5  C4  UNL d   1      -2.617   1.223   1.289  0.00  0.00    -0.005 A 
ATOM      6  C5  UNL d   1      -2.865   1.236  -0.082  0.00  0.00     0.003 A 
ATOM      7  C6  UNL d   1      -3.941   0.517  -0.604  0.00  0.00    -0.001 A 
ENDROOT
TORSDOF 0
ENDMDL
