MODEL 1
REMARK minimizedAffinity -5.86630201
REMARK minimizedRMSD -1
REMARK  0 active torsions:
REMARK  status: ('A' for Active; 'I' for Inactive)
ROOT
ATOM      1  C   UNL d   1      -0.474  -0.035  -0.010  0.00  0.00     0.078 C 
ATOM      2  C1  UNL d   1       1.005   0.159   0.138  0.00  0.00    -0.077 A 
ATOM      3  C2  UNL d   1       1.573   1.438   0.091  0.00  0.00    -0.001 A 
ATOM      4  C3  UNL d   1       2.953   1.602   0.220  0.00  0.00     0.003 A 
ATOM      5  C4  UNL d   1       3.777   0.492   0.395  0.00  0.00    -0.005 A 
ATOM      6  C5  UNL d   1       3.221  -0.785   0.440  0.00  0.00     0.003 A 
ATOM      7  C6  UNL d   1       1.842  -0.951   0.312  0.00  0.00    -0.001 A 
ENDROOT
TORSDOF 0
ENDMDL
