MODEL 1
REMARK minimizedAffinity -1.08691621
REMARK minimizedRMSD -1
REMARK  1 active torsions:
REMARK  status: ('A' for Active; 'I' for Inactive)
REMARK    1  A    between atoms: C1_2  and  C2_3 
ROOT
ATOM      1  C2  UNL d   1       2.580  -0.853   1.102  0.00  0.00    -0.077 A 
ATOM      2  C3  UNL d   1       3.384  -1.288   2.165  0.00  0.00     0.002 A 
ATOM      3  C4  UNL d   1       2.991  -2.373   2.951  0.00  0.00     0.002 A 
ATOM      4  C5  UNL d   1       1.795  -3.035   2.679  0.00  0.00    -0.004 A 
ATOM      5  C6  UNL d   1       0.987  -2.608   1.626  0.00  0.00     0.002 A 
ATOM      6  C7  UNL d   1       1.378  -1.523   0.840  0.00  0.00     0.002 A 
ENDROOT
BRANCH   1   7
ATOM      7  C1  UNL d   1       3.026   0.286   0.223  0.00  0.00     0.055 C 
ATOM      8  C   UNL d   1       2.387   1.599   0.651  0.00  0.00     0.019 C 
ENDBRANCH   1   7
TORSDOF 1
ENDMDL
