MODEL 1
REMARK minimizedAffinity 0.217176899
REMARK minimizedRMSD -1
REMARK  1 active torsions:
REMARK  status: ('A' for Active; 'I' for Inactive)
REMARK    1  A    between atoms: C1_2  and  C2_3 
ROOT
ATOM      1  C2  UNL d   1       1.063  -0.646   1.327  0.00  0.00    -0.077 A 
ATOM      2  C3  UNL d   1      -0.031   0.202   1.107  0.00  0.00     0.002 A 
ATOM      3  C4  UNL d   1      -1.301  -0.330   0.873  0.00  0.00     0.002 A 
ATOM      4  C5  UNL d   1      -1.488  -1.710   0.861  0.00  0.00    -0.004 A 
ATOM      5  C6  UNL d   1      -0.405  -2.562   1.077  0.00  0.00     0.002 A 
ATOM      6  C7  UNL d   1       0.864  -2.032   1.309  0.00  0.00     0.002 A 
ENDROOT
BRANCH   1   7
ATOM      7  C1  UNL d   1       2.424  -0.073   1.628  0.00  0.00     0.055 C 
ATOM      8  C   UNL d   1       2.614   1.282   0.962  0.00  0.00     0.019 C 
ENDBRANCH   1   7
TORSDOF 1
ENDMDL
