MODEL 1
REMARK minimizedAffinity 10.480648
REMARK minimizedRMSD -1
REMARK  1 active torsions:
REMARK  status: ('A' for Active; 'I' for Inactive)
REMARK    1  A    between atoms: C1_2  and  C2_3 
ROOT
ATOM      1  C2  UNL d   1       2.276   2.754   0.761  0.00  0.00    -0.077 A 
ATOM      2  C3  UNL d   1       3.071   1.603   0.854  0.00  0.00     0.002 A 
ATOM      3  C4  UNL d   1       2.653   0.516   1.626  0.00  0.00     0.002 A 
ATOM      4  C5  UNL d   1       1.438   0.569   2.305  0.00  0.00    -0.004 A 
ATOM      5  C6  UNL d   1       0.641   1.710   2.221  0.00  0.00     0.002 A 
ATOM      6  C7  UNL d   1       1.058   2.797   1.451  0.00  0.00     0.002 A 
ENDROOT
BRANCH   1   7
ATOM      7  C1  UNL d   1       2.702   3.907  -0.110  0.00  0.00     0.055 C 
ATOM      8  C   UNL d   1       1.524   4.479  -0.886  0.00  0.00     0.019 C 
ENDBRANCH   1   7
TORSDOF 1
ENDMDL
