MODEL 1
REMARK minimizedAffinity 7.96464109
REMARK minimizedRMSD -1
REMARK  1 active torsions:
REMARK  status: ('A' for Active; 'I' for Inactive)
REMARK    1  A    between atoms: C1_2  and  C2_3 
ROOT
ATOM      1  C2  UNL d   1      -4.087   2.427  -0.623  0.00  0.00    -0.077 A 
ATOM      2  C3  UNL d   1      -5.322   3.052  -0.398  0.00  0.00     0.002 A 
ATOM      3  C4  UNL d   1      -5.964   2.924   0.835  0.00  0.00     0.002 A 
ATOM      4  C5  UNL d   1      -5.377   2.175   1.854  0.00  0.00    -0.004 A 
ATOM      5  C6  UNL d   1      -4.151   1.548   1.639  0.00  0.00     0.002 A 
ATOM      6  C7  UNL d   1      -3.508   1.674   0.407  0.00  0.00     0.002 A 
ENDROOT
BRANCH   1   7
ATOM      7  C1  UNL d   1      -3.369   2.604  -1.935  0.00  0.00     0.055 C 
ATOM      8  C   UNL d   1      -4.025   1.787  -3.039  0.00  0.00     0.019 C 
ENDBRANCH   1   7
TORSDOF 1
ENDMDL
