MODEL 1
REMARK minimizedAffinity 2.75571871
REMARK minimizedRMSD -1
REMARK  1 active torsions:
REMARK  status: ('A' for Active; 'I' for Inactive)
REMARK    1  A    between atoms: C1_2  and  C2_3 
ROOT
ATOM      1  C2  UNL d   1      -4.033   2.722  -0.323  0.00  0.00    -0.077 A 
ATOM      2  C3  UNL d   1      -3.378   2.055   0.722  0.00  0.00     0.002 A 
ATOM      3  C4  UNL d   1      -3.976   1.955   1.980  0.00  0.00     0.002 A 
ATOM      4  C5  UNL d   1      -5.232   2.515   2.203  0.00  0.00    -0.004 A 
ATOM      5  C6  UNL d   1      -5.890   3.182   1.171  0.00  0.00     0.002 A 
ATOM      6  C7  UNL d   1      -5.294   3.284  -0.087  0.00  0.00     0.002 A 
ENDROOT
BRANCH   1   7
ATOM      7  C1  UNL d   1      -3.412   2.788  -1.694  0.00  0.00     0.055 C 
ATOM      8  C   UNL d   1      -3.999   1.732  -2.619  0.00  0.00     0.019 C 
ENDBRANCH   1   7
TORSDOF 1
ENDMDL
