MODEL 1
REMARK minimizedAffinity 2.04379344
REMARK minimizedRMSD -1
REMARK  1 active torsions:
REMARK  status: ('A' for Active; 'I' for Inactive)
REMARK    1  A    between atoms: C1_2  and  C2_3 
ROOT
ATOM      1  C2  UNL d   1       0.329  -0.561   1.415  0.00  0.00    -0.077 A 
ATOM      2  C3  UNL d   1       0.354   0.786   1.804  0.00  0.00     0.002 A 
ATOM      3  C4  UNL d   1       1.560   1.489   1.837  0.00  0.00     0.002 A 
ATOM      4  C5  UNL d   1       2.748   0.855   1.480  0.00  0.00    -0.004 A 
ATOM      5  C6  UNL d   1       2.734  -0.485   1.094  0.00  0.00     0.002 A 
ATOM      6  C7  UNL d   1       1.530  -1.189   1.061  0.00  0.00     0.002 A 
ENDROOT
BRANCH   1   7
ATOM      7  C1  UNL d   1      -0.977  -1.307   1.331  0.00  0.00     0.055 C 
ATOM      8  C   UNL d   1      -0.950  -2.568   2.183  0.00  0.00     0.019 C 
ENDBRANCH   1   7
TORSDOF 1
ENDMDL
