MODEL 1
REMARK minimizedAffinity 8.29207611
REMARK minimizedRMSD -1
REMARK  1 active torsions:
REMARK  status: ('A' for Active; 'I' for Inactive)
REMARK    1  A    between atoms: C1_2  and  C2_3 
ROOT
ATOM      1  C2  UNL d   1       0.648  -1.064   0.951  0.00  0.00    -0.077 A 
ATOM      2  C3  UNL d   1       1.554  -1.701   0.092  0.00  0.00     0.002 A 
ATOM      3  C4  UNL d   1       2.928  -1.504   0.242  0.00  0.00     0.002 A 
ATOM      4  C5  UNL d   1       3.408  -0.673   1.252  0.00  0.00    -0.004 A 
ATOM      5  C6  UNL d   1       2.515  -0.033   2.110  0.00  0.00     0.002 A 
ATOM      6  C7  UNL d   1       1.141  -0.229   1.961  0.00  0.00     0.002 A 
ENDROOT
BRANCH   1   7
ATOM      7  C1  UNL d   1      -0.832  -1.315   0.821  0.00  0.00     0.055 C 
ATOM      8  C   UNL d   1      -1.246  -2.578   1.562  0.00  0.00     0.019 C 
ENDBRANCH   1   7
TORSDOF 1
ENDMDL
