MODEL 1
REMARK minimizedAffinity 13.5778522
REMARK minimizedRMSD -1
REMARK  1 active torsions:
REMARK  status: ('A' for Active; 'I' for Inactive)
REMARK    1  A    between atoms: C1_2  and  C2_3 
ROOT
ATOM      1  C2  UNL d   1       1.887  -1.266   1.235  0.00  0.00    -0.077 A 
ATOM      2  C3  UNL d   1       1.412  -0.092   1.836  0.00  0.00     0.002 A 
ATOM      3  C4  UNL d   1       2.192   1.066   1.838  0.00  0.00     0.002 A 
ATOM      4  C5  UNL d   1       3.449   1.063   1.237  0.00  0.00    -0.004 A 
ATOM      5  C6  UNL d   1       3.932  -0.101   0.639  0.00  0.00     0.002 A 
ATOM      6  C7  UNL d   1       3.154  -1.259   0.637  0.00  0.00     0.002 A 
ENDROOT
BRANCH   1   7
ATOM      7  C1  UNL d   1       1.027  -2.502   1.188  0.00  0.00     0.055 C 
ATOM      8  C   UNL d   1      -0.444  -2.146   1.033  0.00  0.00     0.019 C 
ENDBRANCH   1   7
TORSDOF 1
ENDMDL
