MODEL 1
REMARK minimizedAffinity 3.45607352
REMARK minimizedRMSD -1
REMARK  0 active torsions:
REMARK  status: ('A' for Active; 'I' for Inactive)
ROOT
ATOM      1  C   UNL d   1      -1.769   1.509   0.100  0.00  0.00     0.023 A 
ATOM      2  C1  UNL d   1      -2.558   1.270  -1.025  0.00  0.00     0.003 A 
ATOM      3  C2  UNL d   1      -2.538   0.016  -1.639  0.00  0.00     0.048 A 
ATOM      4  C3  UNL d   1      -1.729  -0.995  -1.122  0.00  0.00     0.023 A 
ATOM      5  C4  UNL d   1      -0.938  -0.760   0.004  0.00  0.00     0.048 A 
ATOM      6  C5  UNL d   1      -0.960   0.496   0.614  0.00  0.00     0.003 A 
ATOM      7  I   UNL d   1      -1.698  -2.862  -2.034  0.00  0.00    -0.146 I 
ENDROOT
TORSDOF 0
ENDMDL
