MODEL 1
REMARK minimizedAffinity 0.295501888
REMARK minimizedRMSD -1
REMARK  0 active torsions:
REMARK  status: ('A' for Active; 'I' for Inactive)
ROOT
ATOM      1  C   UNL d   1      -1.407  -0.599   0.343  0.00  0.00     0.023 A 
ATOM      2  C1  UNL d   1      -0.245  -1.370   0.285  0.00  0.00     0.003 A 
ATOM      3  C2  UNL d   1       1.007  -0.755   0.353  0.00  0.00     0.048 A 
ATOM      4  C3  UNL d   1       1.090   0.631   0.481  0.00  0.00     0.023 A 
ATOM      5  C4  UNL d   1      -0.069   1.406   0.540  0.00  0.00     0.048 A 
ATOM      6  C5  UNL d   1      -1.318   0.787   0.470  0.00  0.00     0.003 A 
ATOM      7  I   UNL d   1       2.952   1.548   0.583  0.00  0.00    -0.146 I 
ENDROOT
TORSDOF 0
ENDMDL
