MODEL 1
REMARK minimizedAffinity -4.32571697
REMARK minimizedRMSD -1
REMARK  0 active torsions:
REMARK  status: ('A' for Active; 'I' for Inactive)
ROOT
ATOM      1  C   UNL d   1       0.849   2.435   1.004  0.00  0.00     0.023 A 
ATOM      2  C1  UNL d   1       1.877   1.504   0.851  0.00  0.00     0.003 A 
ATOM      3  C2  UNL d   1       1.610   0.253   0.292  0.00  0.00     0.048 A 
ATOM      4  C3  UNL d   1       0.313  -0.061  -0.113  0.00  0.00     0.023 A 
ATOM      5  C4  UNL d   1      -0.718   0.867   0.036  0.00  0.00     0.048 A 
ATOM      6  C5  UNL d   1      -0.447   2.117   0.597  0.00  0.00     0.003 A 
ATOM      7  I   UNL d   1      -0.087  -1.923  -0.946  0.00  0.00    -0.146 I 
ENDROOT
TORSDOF 0
ENDMDL
