MODEL 1
REMARK minimizedAffinity -4.2167449
REMARK minimizedRMSD -1
REMARK  0 active torsions:
REMARK  status: ('A' for Active; 'I' for Inactive)
ROOT
ATOM      1  C   UNL d   1       1.330   3.268   0.251  0.00  0.00     0.023 A 
ATOM      2  C1  UNL d   1      -0.001   3.007  -0.075  0.00  0.00     0.003 A 
ATOM      3  C2  UNL d   1      -0.455   1.690  -0.161  0.00  0.00     0.048 A 
ATOM      4  C3  UNL d   1       0.428   0.637   0.080  0.00  0.00     0.023 A 
ATOM      5  C4  UNL d   1       1.760   0.893   0.407  0.00  0.00     0.048 A 
ATOM      6  C5  UNL d   1       2.210   2.213   0.491  0.00  0.00     0.003 A 
ATOM      7  I   UNL d   1      -0.245  -1.325  -0.048  0.00  0.00    -0.146 I 
ENDROOT
TORSDOF 0
ENDMDL
