MODEL 1
REMARK minimizedAffinity -4.77704239
REMARK minimizedRMSD -1
REMARK  0 active torsions:
REMARK  status: ('A' for Active; 'I' for Inactive)
ROOT
ATOM      1  C   UNL d   1       1.701   3.454   0.093  0.00  0.00     0.023 A 
ATOM      2  C1  UNL d   1       2.553   2.357  -0.044  0.00  0.00     0.003 A 
ATOM      3  C2  UNL d   1       2.041   1.060   0.032  0.00  0.00     0.048 A 
ATOM      4  C3  UNL d   1       0.676   0.867   0.243  0.00  0.00     0.023 A 
ATOM      5  C4  UNL d   1      -0.180   1.961   0.379  0.00  0.00     0.048 A 
ATOM      6  C5  UNL d   1       0.337   3.256   0.304  0.00  0.00     0.003 A 
ATOM      7  I   UNL d   1      -0.089  -1.062   0.355  0.00  0.00    -0.146 I 
ENDROOT
TORSDOF 0
ENDMDL
