MODEL 1
REMARK minimizedAffinity -4.41647577
REMARK minimizedRMSD -1
REMARK  0 active torsions:
REMARK  status: ('A' for Active; 'I' for Inactive)
ROOT
ATOM      1  C   UNL d   1       1.318   2.848   0.462  0.00  0.00     0.023 A 
ATOM      2  C1  UNL d   1       2.158   1.736   0.526  0.00  0.00     0.003 A 
ATOM      3  C2  UNL d   1       1.628   0.451   0.397  0.00  0.00     0.048 A 
ATOM      4  C3  UNL d   1       0.257   0.284   0.204  0.00  0.00     0.023 A 
ATOM      5  C4  UNL d   1      -0.587   1.394   0.138  0.00  0.00     0.048 A 
ATOM      6  C5  UNL d   1      -0.053   2.677   0.268  0.00  0.00     0.003 A 
ATOM      7  I   UNL d   1      -0.534  -1.628   0.012  0.00  0.00    -0.146 I 
ENDROOT
TORSDOF 0
ENDMDL
