MODEL 1
REMARK minimizedAffinity -3.97490382
REMARK minimizedRMSD -1
REMARK  0 active torsions:
REMARK  status: ('A' for Active; 'I' for Inactive)
ROOT
ATOM      1  C   UNL d   1       1.690   3.651   0.304  0.00  0.00     0.023 A 
ATOM      2  C1  UNL d   1       0.377   3.342   0.657  0.00  0.00     0.003 A 
ATOM      3  C2  UNL d   1      -0.091   2.033   0.534  0.00  0.00     0.048 A 
ATOM      4  C3  UNL d   1       0.760   1.036   0.057  0.00  0.00     0.023 A 
ATOM      5  C4  UNL d   1       2.075   1.341  -0.298  0.00  0.00     0.048 A 
ATOM      6  C5  UNL d   1       2.538   2.652  -0.173  0.00  0.00     0.003 A 
ATOM      7  I   UNL d   1       0.066  -0.914  -0.128  0.00  0.00    -0.146 I 
ENDROOT
TORSDOF 0
ENDMDL
