MODEL 1
REMARK minimizedAffinity -5.39515591
REMARK minimizedRMSD -1
REMARK  0 active torsions:
REMARK  status: ('A' for Active; 'I' for Inactive)
ROOT
ATOM      1  C   UNL d   1       1.383   2.893   0.318  0.00  0.00     0.023 A 
ATOM      2  C1  UNL d   1       0.030   2.713   0.030  0.00  0.00     0.003 A 
ATOM      3  C2  UNL d   1      -0.480   1.427  -0.157  0.00  0.00     0.048 A 
ATOM      4  C3  UNL d   1       0.368   0.325  -0.053  0.00  0.00     0.023 A 
ATOM      5  C4  UNL d   1       1.722   0.500   0.236  0.00  0.00     0.048 A 
ATOM      6  C5  UNL d   1       2.228   1.788   0.421  0.00  0.00     0.003 A 
ATOM      7  I   UNL d   1      -0.390  -1.591  -0.329  0.00  0.00    -0.146 I 
ENDROOT
TORSDOF 0
ENDMDL
