MODEL 1
REMARK minimizedAffinity -1.37785661
REMARK minimizedRMSD -1
REMARK  0 active torsions:
REMARK  status: ('A' for Active; 'I' for Inactive)
ROOT
ATOM      1  C   UNL d   1      -2.455   0.953   0.926  0.00  0.00     0.023 A 
ATOM      2  C1  UNL d   1      -2.178  -0.395   1.150  0.00  0.00     0.003 A 
ATOM      3  C2  UNL d   1      -0.930  -0.919   0.809  0.00  0.00     0.048 A 
ATOM      4  C3  UNL d   1       0.038  -0.089   0.244  0.00  0.00     0.023 A 
ATOM      5  C4  UNL d   1      -0.234   1.262   0.019  0.00  0.00     0.048 A 
ATOM      6  C5  UNL d   1      -1.484   1.781   0.361  0.00  0.00     0.003 A 
ATOM      7  I   UNL d   1       1.897  -0.866  -0.265  0.00  0.00    -0.146 I 
ENDROOT
TORSDOF 0
ENDMDL
