MODEL 1
REMARK minimizedAffinity -3.43150663
REMARK minimizedRMSD -1
REMARK  0 active torsions:
REMARK  status: ('A' for Active; 'I' for Inactive)
ROOT
ATOM      1  C   UNL d   1       1.618   3.161   1.873  0.00  0.00     0.023 A 
ATOM      2  C1  UNL d   1       2.405   2.074   1.490  0.00  0.00     0.003 A 
ATOM      3  C2  UNL d   1       1.820   0.975   0.859  0.00  0.00     0.048 A 
ATOM      4  C3  UNL d   1       0.448   0.968   0.612  0.00  0.00     0.023 A 
ATOM      5  C4  UNL d   1      -0.344   2.053   0.992  0.00  0.00     0.048 A 
ATOM      6  C5  UNL d   1       0.245   3.150   1.624  0.00  0.00     0.003 A 
ATOM      7  I   UNL d   1      -0.424  -0.668  -0.328  0.00  0.00    -0.146 I 
ENDROOT
TORSDOF 0
ENDMDL
