MODEL 1
REMARK minimizedAffinity -3.97373319
REMARK minimizedRMSD -1
REMARK  0 active torsions:
REMARK  status: ('A' for Active; 'I' for Inactive)
ROOT
ATOM      1  C   UNL d   1       1.005   2.745   0.124  0.00  0.00     0.023 A 
ATOM      2  C1  UNL d   1       2.044   1.814   0.080  0.00  0.00     0.003 A 
ATOM      3  C2  UNL d   1       1.758   0.449   0.024  0.00  0.00     0.048 A 
ATOM      4  C3  UNL d   1       0.431   0.020   0.011  0.00  0.00     0.023 A 
ATOM      5  C4  UNL d   1      -0.611   0.947   0.054  0.00  0.00     0.048 A 
ATOM      6  C5  UNL d   1      -0.321   2.312   0.111  0.00  0.00     0.003 A 
ATOM      7  I   UNL d   1       0.003  -2.012  -0.073  0.00  0.00    -0.146 I 
ENDROOT
TORSDOF 0
ENDMDL
