MODEL 1
REMARK minimizedAffinity -3.25694871
REMARK minimizedRMSD -1
REMARK  0 active torsions:
REMARK  status: ('A' for Active; 'I' for Inactive)
ROOT
ATOM      1  C   UNL d   1       1.030  -0.865   0.681  0.00  0.00     0.023 A 
ATOM      2  C1  UNL d   1      -0.199  -0.212   0.583  0.00  0.00     0.003 A 
ATOM      3  C2  UNL d   1      -0.249   1.183   0.562  0.00  0.00     0.048 A 
ATOM      4  C3  UNL d   1       0.933   1.919   0.639  0.00  0.00     0.023 A 
ATOM      5  C4  UNL d   1       2.165   1.270   0.736  0.00  0.00     0.048 A 
ATOM      6  C5  UNL d   1       2.210  -0.126   0.758  0.00  0.00     0.003 A 
ATOM      7  I   UNL d   1       0.860   3.996   0.608  0.00  0.00    -0.146 I 
ENDROOT
TORSDOF 0
ENDMDL
