MODEL 1
REMARK minimizedAffinity -4.47593641
REMARK minimizedRMSD -1
REMARK  0 active torsions:
REMARK  status: ('A' for Active; 'I' for Inactive)
ROOT
ATOM      1  O1  BZF d   1       2.309  -1.825   0.833  0.00  0.00    -0.204 OA
ATOM      2  C2  BZF d   1       2.368  -1.098  -0.340  0.00  0.00     0.174 A 
ATOM      3  C3  BZF d   1       1.231  -0.398  -0.527  0.00  0.00    -0.012 A 
ATOM      4  C3A BZF d   1       0.446  -0.634   0.646  0.00  0.00    -0.107 A 
ATOM      5  C4  BZF d   1      -0.780  -0.198   1.059  0.00  0.00     0.055 A 
ATOM      6  C5  BZF d   1      -1.292  -0.673   2.224  0.00  0.00    -0.016 A 
ATOM      7  C6  BZF d   1      -0.608  -1.587   2.999  0.00  0.00     0.022 A 
ATOM      8  C7  BZF d   1       0.614  -2.045   2.633  0.00  0.00     0.029 A 
ATOM      9  C7A BZF d   1       1.149  -1.541   1.472  0.00  0.00     0.058 A 
ENDROOT
TORSDOF 0
ENDMDL
