MODEL 1
REMARK minimizedAffinity -0.852773964
REMARK minimizedRMSD -1
REMARK  0 active torsions:
REMARK  status: ('A' for Active; 'I' for Inactive)
ROOT
ATOM      1  O1  BZF d   1      -0.881   0.316   1.044  0.00  0.00    -0.204 OA
ATOM      2  C2  BZF d   1      -0.864   1.103  -0.092  0.00  0.00     0.174 A 
ATOM      3  C3  BZF d   1       0.258   0.886  -0.807  0.00  0.00    -0.012 A 
ATOM      4  C3A BZF d   1       0.945  -0.165  -0.121  0.00  0.00    -0.107 A 
ATOM      5  C4  BZF d   1       2.114  -0.832  -0.354  0.00  0.00     0.055 A 
ATOM      6  C5  BZF d   1       2.539  -1.755   0.548  0.00  0.00    -0.016 A 
ATOM      7  C6  BZF d   1       1.823  -2.032   1.695  0.00  0.00     0.022 A 
ATOM      8  C7  BZF d   1       0.656  -1.401   1.967  0.00  0.00     0.029 A 
ATOM      9  C7A BZF d   1       0.207  -0.491   1.041  0.00  0.00     0.058 A 
ENDROOT
TORSDOF 0
ENDMDL
