MODEL 1
REMARK minimizedAffinity -2.80732965
REMARK minimizedRMSD -1
REMARK  0 active torsions:
REMARK  status: ('A' for Active; 'I' for Inactive)
ROOT
ATOM      1  O1  BZF d   1       0.019   1.500  -0.622  0.00  0.00    -0.204 OA
ATOM      2  C2  BZF d   1      -1.298   1.757  -0.294  0.00  0.00     0.174 A 
ATOM      3  C3  BZF d   1      -1.855   0.692   0.317  0.00  0.00    -0.012 A 
ATOM      4  C3A BZF d   1      -0.796  -0.259   0.457  0.00  0.00    -0.107 A 
ATOM      5  C4  BZF d   1      -0.722  -1.509   1.001  0.00  0.00     0.055 A 
ATOM      6  C5  BZF d   1       0.443  -2.201   0.911  0.00  0.00    -0.016 A 
ATOM      7  C6  BZF d   1       1.552  -1.677   0.280  0.00  0.00     0.022 A 
ATOM      8  C7  BZF d   1       1.529  -0.439  -0.270  0.00  0.00     0.029 A 
ATOM      9  C7A BZF d   1       0.363   0.277  -0.152  0.00  0.00     0.058 A 
ENDROOT
TORSDOF 0
ENDMDL
