MODEL 1
REMARK minimizedAffinity -1.82062733
REMARK minimizedRMSD -1
REMARK  0 active torsions:
REMARK  status: ('A' for Active; 'I' for Inactive)
ROOT
ATOM      1  O1  BZF d   1      -1.295   0.822  -0.005  0.00  0.00    -0.204 OA
ATOM      2  C2  BZF d   1      -1.894   0.248   1.100  0.00  0.00     0.174 A 
ATOM      3  C3  BZF d   1      -1.043  -0.593   1.723  0.00  0.00    -0.012 A 
ATOM      4  C3A BZF d   1       0.193  -0.472   1.012  0.00  0.00    -0.107 A 
ATOM      5  C4  BZF d   1       1.423  -1.045   1.164  0.00  0.00     0.055 A 
ATOM      6  C5  BZF d   1       2.397  -0.769   0.257  0.00  0.00    -0.016 A 
ATOM      7  C6  BZF d   1       2.174   0.071  -0.815  0.00  0.00     0.022 A 
ATOM      8  C7  BZF d   1       0.971   0.667  -1.004  0.00  0.00     0.029 A 
ATOM      9  C7A BZF d   1      -0.005   0.416  -0.071  0.00  0.00     0.058 A 
ENDROOT
TORSDOF 0
ENDMDL
