MODEL 1
REMARK minimizedAffinity -4.48246765
REMARK minimizedRMSD -1
REMARK  0 active torsions:
REMARK  status: ('A' for Active; 'I' for Inactive)
ROOT
ATOM      1  O1  BZF d   1      -2.298   0.887  -0.066  0.00  0.00    -0.204 OA
ATOM      2  C2  BZF d   1      -2.297   1.484  -1.312  0.00  0.00     0.174 A 
ATOM      3  C3  BZF d   1      -1.127   1.267  -1.946  0.00  0.00    -0.012 A 
ATOM      4  C3A BZF d   1      -0.382   0.409  -1.077  0.00  0.00    -0.107 A 
ATOM      5  C4  BZF d   1       0.853  -0.169  -1.160  0.00  0.00     0.055 A 
ATOM      6  C5  BZF d   1       1.315  -0.894  -0.107  0.00  0.00    -0.016 A 
ATOM      7  C6  BZF d   1       0.574  -1.056   1.044  0.00  0.00     0.022 A 
ATOM      8  C7  BZF d   1      -0.658  -0.505   1.172  0.00  0.00     0.029 A 
ATOM      9  C7A BZF d   1      -1.142   0.199   0.097  0.00  0.00     0.058 A 
ENDROOT
TORSDOF 0
ENDMDL
