MODEL 1
REMARK minimizedAffinity -4.3129735
REMARK minimizedRMSD -1
REMARK  0 active torsions:
REMARK  status: ('A' for Active; 'I' for Inactive)
ROOT
ATOM      1  O1  BZF d   1       1.668  -1.784   1.273  0.00  0.00    -0.204 OA
ATOM      2  C2  BZF d   1       2.309  -1.612   0.061  0.00  0.00     0.174 A 
ATOM      3  C3  BZF d   1       1.634  -0.741  -0.717  0.00  0.00    -0.012 A 
ATOM      4  C3A BZF d   1       0.551  -0.273   0.093  0.00  0.00    -0.107 A 
ATOM      5  C4  BZF d   1      -0.461   0.620  -0.117  0.00  0.00     0.055 A 
ATOM      6  C5  BZF d   1      -1.398   0.796   0.852  0.00  0.00    -0.016 A 
ATOM      7  C6  BZF d   1      -1.357   0.092   2.038  0.00  0.00     0.022 A 
ATOM      8  C7  BZF d   1      -0.370  -0.801   2.293  0.00  0.00     0.029 A 
ATOM      9  C7A BZF d   1       0.597  -0.956   1.330  0.00  0.00     0.058 A 
ENDROOT
TORSDOF 0
ENDMDL
