MODEL 1
REMARK minimizedAffinity -1.22084296
REMARK minimizedRMSD -1
REMARK  0 active torsions:
REMARK  status: ('A' for Active; 'I' for Inactive)
ROOT
ATOM      1  O1  BZF d   1      -2.861  -0.001  -2.085  0.00  0.00    -0.204 OA
ATOM      2  C2  BZF d   1      -2.602   0.804  -3.177  0.00  0.00     0.174 A 
ATOM      3  C3  BZF d   1      -1.531   1.590  -2.949  0.00  0.00    -0.012 A 
ATOM      4  C3A BZF d   1      -1.037   1.190  -1.667  0.00  0.00    -0.107 A 
ATOM      5  C4  BZF d   1       0.019   1.593  -0.900  0.00  0.00     0.055 A 
ATOM      6  C5  BZF d   1       0.182   1.052   0.336  0.00  0.00    -0.016 A 
ATOM      7  C6  BZF d   1      -0.694   0.111   0.838  0.00  0.00     0.022 A 
ATOM      8  C7  BZF d   1      -1.753  -0.324   0.112  0.00  0.00     0.029 A 
ATOM      9  C7A BZF d   1      -1.901   0.197  -1.150  0.00  0.00     0.058 A 
ENDROOT
TORSDOF 0
ENDMDL
