MODEL 1
REMARK minimizedAffinity -5.73497009
REMARK minimizedRMSD -1
REMARK  0 active torsions:
REMARK  status: ('A' for Active; 'I' for Inactive)
ROOT
ATOM      1  O1  BZF d   1      -0.329  -1.286   0.174  0.00  0.00    -0.204 OA
ATOM      2  C2  BZF d   1       0.983  -0.949  -0.096  0.00  0.00     0.174 A 
ATOM      3  C3  BZF d   1       1.044   0.160  -0.862  0.00  0.00    -0.012 A 
ATOM      4  C3A BZF d   1      -0.312   0.592  -1.006  0.00  0.00    -0.107 A 
ATOM      5  C4  BZF d   1      -0.898   1.648  -1.645  0.00  0.00     0.055 A 
ATOM      6  C5  BZF d   1      -2.254   1.743  -1.656  0.00  0.00    -0.016 A 
ATOM      7  C6  BZF d   1      -3.053   0.800  -1.044  0.00  0.00     0.022 A 
ATOM      8  C7  BZF d   1      -2.517  -0.262  -0.393  0.00  0.00     0.029 A 
ATOM      9  C7A BZF d   1      -1.147  -0.343  -0.352  0.00  0.00     0.058 A 
ENDROOT
TORSDOF 0
ENDMDL
