MODEL 1
REMARK minimizedAffinity 6.64231873
REMARK minimizedRMSD -1
REMARK  0 active torsions:
REMARK  status: ('A' for Active; 'I' for Inactive)
ROOT
ATOM      1  O1  BZF d   1      -1.865  -0.162  -0.640  0.00  0.00    -0.204 OA
ATOM      2  C2  BZF d   1      -2.530  -0.886   0.331  0.00  0.00     0.174 A 
ATOM      3  C3  BZF d   1      -3.825  -1.059  -0.003  0.00  0.00    -0.012 A 
ATOM      4  C3A BZF d   1      -3.958  -0.481  -1.305  0.00  0.00    -0.107 A 
ATOM      5  C4  BZF d   1      -5.004  -0.355  -2.174  0.00  0.00     0.055 A 
ATOM      6  C5  BZF d   1      -4.820   0.327  -3.335  0.00  0.00    -0.016 A 
ATOM      7  C6  BZF d   1      -3.607   0.900  -3.656  0.00  0.00     0.022 A 
ATOM      8  C7  BZF d   1      -2.539   0.798  -2.828  0.00  0.00     0.029 A 
ATOM      9  C7A BZF d   1      -2.712   0.081  -1.669  0.00  0.00     0.058 A 
ENDROOT
TORSDOF 0
ENDMDL
