MODEL 1
REMARK minimizedAffinity 7.40160894
REMARK minimizedRMSD -1
REMARK  0 active torsions:
REMARK  status: ('A' for Active; 'I' for Inactive)
ROOT
ATOM      1  O1  BZF d   1      -2.782  -4.349  -0.012  0.00  0.00    -0.204 OA
ATOM      2  C2  BZF d   1      -3.268  -4.169   1.269  0.00  0.00     0.174 A 
ATOM      3  C3  BZF d   1      -4.558  -4.554   1.349  0.00  0.00    -0.012 A 
ATOM      4  C3A BZF d   1      -4.873  -5.089   0.060  0.00  0.00    -0.107 A 
ATOM      5  C4  BZF d   1      -5.998  -5.645  -0.477  0.00  0.00     0.055 A 
ATOM      6  C5  BZF d   1      -5.999  -6.000  -1.789  0.00  0.00    -0.016 A 
ATOM      7  C6  BZF d   1      -4.895  -5.807  -2.594  0.00  0.00     0.022 A 
ATOM      8  C7  BZF d   1      -3.754  -5.264  -2.105  0.00  0.00     0.029 A 
ATOM      9  C7A BZF d   1      -3.739  -4.935  -0.771  0.00  0.00     0.058 A 
ENDROOT
TORSDOF 0
ENDMDL
