MODEL 1
REMARK minimizedAffinity 4.74584293
REMARK minimizedRMSD -1
REMARK  0 active torsions:
REMARK  status: ('A' for Active; 'I' for Inactive)
ROOT
ATOM      1  O1  BZF d   1      -4.312  -5.068  -2.061  0.00  0.00    -0.204 OA
ATOM      2  C2  BZF d   1      -5.500  -5.769  -2.138  0.00  0.00     0.174 A 
ATOM      3  C3  BZF d   1      -6.000  -6.000  -0.907  0.00  0.00    -0.012 A 
ATOM      4  C3A BZF d   1      -5.113  -5.326  -0.008  0.00  0.00    -0.107 A 
ATOM      5  C4  BZF d   1      -5.088  -5.175   1.349  0.00  0.00     0.055 A 
ATOM      6  C5  BZF d   1      -4.044  -4.519   1.921  0.00  0.00    -0.016 A 
ATOM      7  C6  BZF d   1      -3.008  -4.007   1.168  0.00  0.00     0.022 A 
ATOM      8  C7  BZF d   1      -2.991  -4.127  -0.182  0.00  0.00     0.029 A 
ATOM      9  C7A BZF d   1      -4.061  -4.761  -0.766  0.00  0.00     0.058 A 
ENDROOT
TORSDOF 0
ENDMDL
