MODEL 1
REMARK minimizedAffinity 3.17092037
REMARK minimizedRMSD -1
REMARK  0 active torsions:
REMARK  status: ('A' for Active; 'I' for Inactive)
ROOT
ATOM      1  O1  BZF d   1       0.131  -0.999   3.216  0.00  0.00    -0.204 OA
ATOM      2  C2  BZF d   1       0.897  -1.688   4.137  0.00  0.00     0.174 A 
ATOM      3  C3  BZF d   1       2.100  -2.004   3.617  0.00  0.00    -0.012 A 
ATOM      4  C3A BZF d   1       2.121  -1.399   2.321  0.00  0.00    -0.107 A 
ATOM      5  C4  BZF d   1       3.053  -1.345   1.325  0.00  0.00     0.055 A 
ATOM      6  C5  BZF d   1       2.734  -0.736   0.153  0.00  0.00    -0.016 A 
ATOM      7  C6  BZF d   1       1.491  -0.176  -0.059  0.00  0.00     0.022 A 
ATOM      8  C7  BZF d   1       0.535  -0.200   0.901  0.00  0.00     0.029 A 
ATOM      9  C7A BZF d   1       0.866  -0.786   2.099  0.00  0.00     0.058 A 
ENDROOT
TORSDOF 0
ENDMDL
