MODEL 1
REMARK minimizedAffinity 8.73122597
REMARK minimizedRMSD -1
REMARK  0 active torsions:
REMARK  status: ('A' for Active; 'I' for Inactive)
ROOT
ATOM      1  O1  BZF d   1      -0.897  -4.246  -0.697  0.00  0.00    -0.204 OA
ATOM      2  C2  BZF d   1      -2.018  -4.978  -0.355  0.00  0.00     0.174 A 
ATOM      3  C3  BZF d   1      -2.722  -4.352   0.610  0.00  0.00    -0.012 A 
ATOM      4  C3A BZF d   1      -2.045  -3.110   0.824  0.00  0.00    -0.107 A 
ATOM      5  C4  BZF d   1      -2.273  -2.046   1.650  0.00  0.00     0.055 A 
ATOM      6  C5  BZF d   1      -1.382  -1.021   1.668  0.00  0.00    -0.016 A 
ATOM      7  C6  BZF d   1      -0.250  -1.028   0.879  0.00  0.00     0.022 A 
ATOM      8  C7  BZF d   1       0.017  -2.059   0.040  0.00  0.00     0.029 A 
ATOM      9  C7A BZF d   1      -0.899  -3.082  -0.005  0.00  0.00     0.058 A 
ENDROOT
TORSDOF 0
ENDMDL
