MODEL 1
REMARK minimizedAffinity -2.53105855
REMARK minimizedRMSD -1
REMARK  0 active torsions:
REMARK  status: ('A' for Active; 'I' for Inactive)
ROOT
ATOM      1  O1  BZF d   1       0.779   1.073  -0.269  0.00  0.00    -0.204 OA
ATOM      2  C2  BZF d   1       1.866   1.181  -1.114  0.00  0.00     0.174 A 
ATOM      3  C3  BZF d   1       2.795   0.248  -0.822  0.00  0.00    -0.012 A 
ATOM      4  C3A BZF d   1       2.214  -0.549   0.215  0.00  0.00    -0.107 A 
ATOM      5  C4  BZF d   1       2.644  -1.641   0.912  0.00  0.00     0.055 A 
ATOM      6  C5  BZF d   1       1.867  -2.136   1.911  0.00  0.00    -0.016 A 
ATOM      7  C6  BZF d   1       0.657  -1.561   2.242  0.00  0.00     0.022 A 
ATOM      8  C7  BZF d   1       0.186  -0.479   1.575  0.00  0.00     0.029 A 
ATOM      9  C7A BZF d   1       0.954   0.003   0.544  0.00  0.00     0.058 A 
ENDROOT
TORSDOF 0
ENDMDL
