MODEL 1
REMARK minimizedAffinity -6.64255381
REMARK minimizedRMSD -1
REMARK  0 active torsions:
REMARK  status: ('A' for Active; 'I' for Inactive)
ROOT
ATOM      1  O1  BZF d   1       0.062   0.495   0.119  0.00  0.00    -0.204 OA
ATOM      2  C2  BZF d   1      -1.023   1.086   0.738  0.00  0.00     0.174 A 
ATOM      3  C3  BZF d   1      -1.478   0.313   1.745  0.00  0.00    -0.012 A 
ATOM      4  C3A BZF d   1      -0.567  -0.788   1.816  0.00  0.00    -0.107 A 
ATOM      5  C4  BZF d   1      -0.480  -1.884   2.626  0.00  0.00     0.055 A 
ATOM      6  C5  BZF d   1       0.486  -2.808   2.386  0.00  0.00    -0.016 A 
ATOM      7  C6  BZF d   1       1.378  -2.671   1.343  0.00  0.00     0.022 A 
ATOM      8  C7  BZF d   1       1.335  -1.599   0.515  0.00  0.00     0.029 A 
ATOM      9  C7A BZF d   1       0.380  -0.647   0.776  0.00  0.00     0.058 A 
ENDROOT
TORSDOF 0
ENDMDL
