MODEL 1
REMARK minimizedAffinity -1.65446436
REMARK minimizedRMSD -1
REMARK  0 active torsions:
REMARK  status: ('A' for Active; 'I' for Inactive)
ROOT
ATOM      1  O1  BZF d   1      -2.492   0.988  -2.571  0.00  0.00    -0.204 OA
ATOM      2  C2  BZF d   1      -1.639   1.939  -3.098  0.00  0.00     0.174 A 
ATOM      3  C3  BZF d   1      -0.673   2.258  -2.213  0.00  0.00    -0.012 A 
ATOM      4  C3A BZF d   1      -0.884   1.389  -1.095  0.00  0.00    -0.107 A 
ATOM      5  C4  BZF d   1      -0.237   1.216   0.095  0.00  0.00     0.055 A 
ATOM      6  C5  BZF d   1      -0.741   0.335   0.998  0.00  0.00    -0.016 A 
ATOM      7  C6  BZF d   1      -1.890  -0.386   0.747  0.00  0.00     0.022 A 
ATOM      8  C7  BZF d   1      -2.564  -0.252  -0.422  0.00  0.00     0.029 A 
ATOM      9  C7A BZF d   1      -2.039   0.614  -1.350  0.00  0.00     0.058 A 
ENDROOT
TORSDOF 0
ENDMDL
