MODEL 1
REMARK minimizedAffinity 3.4158895
REMARK minimizedRMSD -1
REMARK  1 active torsions:
REMARK  status: ('A' for Active; 'I' for Inactive)
REMARK    1  A    between atoms: C1_2  and  C2_3 
ROOT
ATOM      1  C2  UNL d   1      -3.158   0.726   3.410  0.00  0.00    -0.076 A 
ATOM      2  C3  UNL d   1      -3.740  -0.132   4.360  0.00  0.00     0.004 A 
ATOM      3  C4  UNL d   1      -5.097  -0.446   4.307  0.00  0.00    -0.003 A 
ATOM      4  C5  UNL d   1      -5.894   0.092   3.303  0.00  0.00     0.000 A 
ATOM      5  C6  UNL d   1      -5.331   0.932   2.343  0.00  0.00     0.000 A 
ATOM      6  C7  UNL d   1      -3.961   1.245   2.372  0.00  0.00    -0.073 A 
ATOM      7  C8  UNL d   1      -3.407   2.161   1.315  0.00  0.00     0.078 C 
ENDROOT
BRANCH   1   8
ATOM      8  C1  UNL d   1      -1.687   1.052   3.534  0.00  0.00     0.053 C 
ATOM      9  C   UNL d   1      -1.433   2.280   4.394  0.00  0.00     0.018 C 
ENDBRANCH   1   8
TORSDOF 1
ENDMDL
