MODEL 1
REMARK minimizedAffinity 7.9826355
REMARK minimizedRMSD -1
REMARK  1 active torsions:
REMARK  status: ('A' for Active; 'I' for Inactive)
REMARK    1  A    between atoms: C1_2  and  C2_3 
ROOT
ATOM      1  C2  UNL d   1       1.350  -0.050  -2.421  0.00  0.00    -0.076 A 
ATOM      2  C3  UNL d   1       0.789  -1.325  -2.237  0.00  0.00     0.004 A 
ATOM      3  C4  UNL d   1       1.428  -2.285  -1.454  0.00  0.00    -0.003 A 
ATOM      4  C5  UNL d   1       2.639  -1.984  -0.841  0.00  0.00     0.000 A 
ATOM      5  C6  UNL d   1       3.202  -0.717  -0.997  0.00  0.00     0.000 A 
ATOM      6  C7  UNL d   1       2.562   0.267  -1.770  0.00  0.00    -0.073 A 
ATOM      7  C8  UNL d   1       3.217   1.614  -1.910  0.00  0.00     0.078 C 
ENDROOT
BRANCH   1   8
ATOM      8  C1  UNL d   1       0.625   0.941  -3.303  0.00  0.00     0.053 C 
ATOM      9  C   UNL d   1       0.951   0.755  -4.777  0.00  0.00     0.018 C 
ENDBRANCH   1   8
TORSDOF 1
ENDMDL
