MODEL 1
REMARK minimizedAffinity 8.14922714
REMARK minimizedRMSD -1
REMARK  1 active torsions:
REMARK  status: ('A' for Active; 'I' for Inactive)
REMARK    1  A    between atoms: C1_2  and  C2_3 
ROOT
ATOM      1  C2  UNL d   1       1.327   1.825  -2.777  0.00  0.00    -0.076 A 
ATOM      2  C3  UNL d   1       2.245   0.762  -2.833  0.00  0.00     0.004 A 
ATOM      3  C4  UNL d   1       1.906  -0.504  -2.359  0.00  0.00    -0.003 A 
ATOM      4  C5  UNL d   1       0.643  -0.728  -1.822  0.00  0.00     0.000 A 
ATOM      5  C6  UNL d   1      -0.286   0.311  -1.774  0.00  0.00     0.000 A 
ATOM      6  C7  UNL d   1       0.034   1.589  -2.262  0.00  0.00    -0.073 A 
ATOM      7  C8  UNL d   1      -1.004   2.674  -2.180  0.00  0.00     0.078 C 
ENDROOT
BRANCH   1   8
ATOM      8  C1  UNL d   1       1.760   3.184  -3.281  0.00  0.00     0.053 C 
ATOM      9  C   UNL d   1       2.923   3.756  -2.486  0.00  0.00     0.018 C 
ENDBRANCH   1   8
TORSDOF 1
ENDMDL
