MODEL 1
REMARK minimizedAffinity 13.2896338
REMARK minimizedRMSD -1
REMARK  1 active torsions:
REMARK  status: ('A' for Active; 'I' for Inactive)
REMARK    1  A    between atoms: C1_2  and  C2_3 
ROOT
ATOM      1  C2  UNL d   1       1.533  -0.439  -2.608  0.00  0.00    -0.076 A 
ATOM      2  C3  UNL d   1       0.768  -0.721  -3.753  0.00  0.00     0.004 A 
ATOM      3  C4  UNL d   1       0.579  -2.032  -4.185  0.00  0.00    -0.003 A 
ATOM      4  C5  UNL d   1       1.151  -3.084  -3.478  0.00  0.00     0.000 A 
ATOM      5  C6  UNL d   1       1.899  -2.825  -2.330  0.00  0.00     0.000 A 
ATOM      6  C7  UNL d   1       2.085  -1.509  -1.872  0.00  0.00    -0.073 A 
ATOM      7  C8  UNL d   1       2.906  -1.287  -0.631  0.00  0.00     0.078 C 
ENDROOT
BRANCH   1   8
ATOM      8  C1  UNL d   1       1.726   1.004  -2.202  0.00  0.00     0.053 C 
ATOM      9  C   UNL d   1       0.741   1.939  -2.887  0.00  0.00     0.018 C 
ENDBRANCH   1   8
TORSDOF 1
ENDMDL
