MODEL 1
REMARK minimizedAffinity 5.80598927
REMARK minimizedRMSD -1
REMARK  1 active torsions:
REMARK  status: ('A' for Active; 'I' for Inactive)
REMARK    1  A    between atoms: C1_2  and  C2_3 
ROOT
ATOM      1  C2  UNL d   1       3.842   5.966   2.198  0.00  0.00    -0.076 A 
ATOM      2  C3  UNL d   1       3.221   5.993   3.459  0.00  0.00     0.004 A 
ATOM      3  C4  UNL d   1       3.976   6.000   4.630  0.00  0.00    -0.003 A 
ATOM      4  C5  UNL d   1       5.365   5.980   4.560  0.00  0.00     0.000 A 
ATOM      5  C6  UNL d   1       5.998   5.970   3.317  0.00  0.00     0.000 A 
ATOM      6  C7  UNL d   1       5.251   5.980   2.126  0.00  0.00    -0.073 A 
ATOM      7  C8  UNL d   1       5.986   5.963   0.814  0.00  0.00     0.078 C 
ENDROOT
BRANCH   1   8
ATOM      8  C1  UNL d   1       2.971   5.932   0.962  0.00  0.00     0.053 C 
ATOM      9  C   UNL d   1       3.614   5.167  -0.184  0.00  0.00     0.018 C 
ENDBRANCH   1   8
TORSDOF 1
ENDMDL
