MODEL 1
REMARK minimizedAffinity 7.47066021
REMARK minimizedRMSD -1
REMARK  1 active torsions:
REMARK  status: ('A' for Active; 'I' for Inactive)
REMARK    1  A    between atoms: C1_2  and  C2_3 
ROOT
ATOM      1  C2  UNL d   1      -2.772   3.272   2.303  0.00  0.00    -0.076 A 
ATOM      2  C3  UNL d   1      -3.834   3.092   1.399  0.00  0.00     0.004 A 
ATOM      3  C4  UNL d   1      -4.804   4.077   1.226  0.00  0.00    -0.003 A 
ATOM      4  C5  UNL d   1      -4.728   5.260   1.953  0.00  0.00     0.000 A 
ATOM      5  C6  UNL d   1      -3.673   5.463   2.841  0.00  0.00     0.000 A 
ATOM      6  C7  UNL d   1      -2.677   4.487   3.016  0.00  0.00    -0.073 A 
ATOM      7  C8  UNL d   1      -1.564   4.756   3.991  0.00  0.00     0.078 C 
ENDROOT
BRANCH   1   8
ATOM      8  C1  UNL d   1      -1.765   2.157   2.469  0.00  0.00     0.053 C 
ATOM      9  C   UNL d   1      -2.419   0.824   2.796  0.00  0.00     0.018 C 
ENDBRANCH   1   8
TORSDOF 1
ENDMDL
