MODEL 1
REMARK minimizedAffinity 15.0179739
REMARK minimizedRMSD -1
REMARK  1 active torsions:
REMARK  status: ('A' for Active; 'I' for Inactive)
REMARK    1  A    between atoms: C1_2  and  C2_3 
ROOT
ATOM      1  C2  UNL d   1      -1.763   0.396   1.093  0.00  0.00    -0.076 A 
ATOM      2  C3  UNL d   1      -1.200   1.500   1.756  0.00  0.00     0.004 A 
ATOM      3  C4  UNL d   1      -1.407   1.700   3.120  0.00  0.00    -0.003 A 
ATOM      4  C5  UNL d   1      -2.180   0.799   3.843  0.00  0.00     0.000 A 
ATOM      5  C6  UNL d   1      -2.732  -0.311   3.205  0.00  0.00     0.000 A 
ATOM      6  C7  UNL d   1      -2.520  -0.537   1.834  0.00  0.00    -0.073 A 
ATOM      7  C8  UNL d   1      -3.144  -1.747   1.196  0.00  0.00     0.078 C 
ENDROOT
BRANCH   1   8
ATOM      8  C1  UNL d   1      -1.527   0.246  -0.393  0.00  0.00     0.053 C 
ATOM      9  C   UNL d   1      -0.134   0.692  -0.810  0.00  0.00     0.018 C 
ENDBRANCH   1   8
TORSDOF 1
ENDMDL
