MODEL 1
REMARK minimizedAffinity 11.2040939
REMARK minimizedRMSD -1
REMARK  1 active torsions:
REMARK  status: ('A' for Active; 'I' for Inactive)
REMARK    1  A    between atoms: C1_2  and  C2_3 
ROOT
ATOM      1  C2  UNL d   1      -1.442   0.401   0.074  0.00  0.00    -0.076 A 
ATOM      2  C3  UNL d   1      -0.950   1.098   1.192  0.00  0.00     0.004 A 
ATOM      3  C4  UNL d   1      -1.416   0.815   2.475  0.00  0.00    -0.003 A 
ATOM      4  C5  UNL d   1      -2.380  -0.169   2.661  0.00  0.00     0.000 A 
ATOM      5  C6  UNL d   1      -2.866  -0.882   1.566  0.00  0.00     0.000 A 
ATOM      6  C7  UNL d   1      -2.396  -0.621   0.267  0.00  0.00    -0.073 A 
ATOM      7  C8  UNL d   1      -2.959  -1.416  -0.878  0.00  0.00     0.078 C 
ENDROOT
BRANCH   1   8
ATOM      8  C1  UNL d   1      -0.920   0.770  -1.296  0.00  0.00     0.053 C 
ATOM      9  C   UNL d   1       0.354   0.020  -1.655  0.00  0.00     0.018 C 
ENDBRANCH   1   8
TORSDOF 1
ENDMDL
