MODEL 1
REMARK minimizedAffinity 11.374033
REMARK minimizedRMSD -1
REMARK  1 active torsions:
REMARK  status: ('A' for Active; 'I' for Inactive)
REMARK    1  A    between atoms: C1_2  and  C2_3 
ROOT
ATOM      1  C2  UNL d   1      -1.754   1.130   2.912  0.00  0.00    -0.076 A 
ATOM      2  C3  UNL d   1      -1.352   1.405   1.594  0.00  0.00     0.004 A 
ATOM      3  C4  UNL d   1      -1.765   0.598   0.535  0.00  0.00    -0.003 A 
ATOM      4  C5  UNL d   1      -2.589  -0.496   0.777  0.00  0.00     0.000 A 
ATOM      5  C6  UNL d   1      -3.012  -0.773   2.077  0.00  0.00     0.000 A 
ATOM      6  C7  UNL d   1      -2.618   0.040   3.153  0.00  0.00    -0.073 A 
ATOM      7  C8  UNL d   1      -3.099  -0.309   4.535  0.00  0.00     0.078 C 
ENDROOT
BRANCH   1   8
ATOM      8  C1  UNL d   1      -1.253   2.024   4.024  0.00  0.00     0.053 C 
ATOM      9  C   UNL d   1      -1.712   3.465   3.865  0.00  0.00     0.018 C 
ENDBRANCH   1   8
TORSDOF 1
ENDMDL
