MODEL 1
REMARK minimizedAffinity 11.6639528
REMARK minimizedRMSD -1
REMARK  1 active torsions:
REMARK  status: ('A' for Active; 'I' for Inactive)
REMARK    1  A    between atoms: C1_2  and  C2_3 
ROOT
ATOM      1  C2  UNL d   1      -2.476   3.267   2.939  0.00  0.00    -0.076 A 
ATOM      2  C3  UNL d   1      -3.368   3.211   1.853  0.00  0.00     0.004 A 
ATOM      3  C4  UNL d   1      -4.237   4.266   1.583  0.00  0.00    -0.003 A 
ATOM      4  C5  UNL d   1      -4.229   5.396   2.394  0.00  0.00     0.000 A 
ATOM      5  C6  UNL d   1      -3.339   5.476   3.464  0.00  0.00     0.000 A 
ATOM      6  C7  UNL d   1      -2.445   4.428   3.741  0.00  0.00    -0.073 A 
ATOM      7  C8  UNL d   1      -1.511   4.566   4.912  0.00  0.00     0.078 C 
ENDROOT
BRANCH   1   8
ATOM      8  C1  UNL d   1      -1.576   2.081   3.200  0.00  0.00     0.053 C 
ATOM      9  C   UNL d   1      -2.144   0.785   2.643  0.00  0.00     0.018 C 
ENDBRANCH   1   8
TORSDOF 1
ENDMDL
