MODEL 1
REMARK minimizedAffinity 7.48403788
REMARK minimizedRMSD -1
REMARK  1 active torsions:
REMARK  status: ('A' for Active; 'I' for Inactive)
REMARK    1  A    between atoms: C1_2  and  C2_3 
ROOT
ATOM      1  C2  UNL d   1       1.751   1.675  -2.925  0.00  0.00    -0.076 A 
ATOM      2  C3  UNL d   1       2.197   1.113  -1.716  0.00  0.00     0.004 A 
ATOM      3  C4  UNL d   1       1.924  -0.216  -1.399  0.00  0.00    -0.003 A 
ATOM      4  C5  UNL d   1       1.200  -1.005  -2.286  0.00  0.00     0.000 A 
ATOM      5  C6  UNL d   1       0.764  -0.469  -3.497  0.00  0.00     0.000 A 
ATOM      6  C7  UNL d   1       1.046   0.864  -3.840  0.00  0.00    -0.073 A 
ATOM      7  C8  UNL d   1       0.546   1.392  -5.157  0.00  0.00     0.078 C 
ENDROOT
BRANCH   1   8
ATOM      8  C1  UNL d   1       2.054   3.130  -3.203  0.00  0.00     0.053 C 
ATOM      9  C   UNL d   1       3.134   3.685  -2.287  0.00  0.00     0.018 C 
ENDBRANCH   1   8
TORSDOF 1
ENDMDL
