MODEL 1
REMARK minimizedAffinity 11.4494734
REMARK minimizedRMSD -1
REMARK  1 active torsions:
REMARK  status: ('A' for Active; 'I' for Inactive)
REMARK    1  A    between atoms: C1_2  and  C2_3 
ROOT
ATOM      1  C2  UNL d   1      -1.770   1.524   3.918  0.00  0.00    -0.076 A 
ATOM      2  C3  UNL d   1      -2.507   1.276   5.089  0.00  0.00     0.004 A 
ATOM      3  C4  UNL d   1      -3.207   0.082   5.256  0.00  0.00    -0.003 A 
ATOM      4  C5  UNL d   1      -3.182  -0.883   4.255  0.00  0.00     0.000 A 
ATOM      5  C6  UNL d   1      -2.441  -0.660   3.094  0.00  0.00     0.000 A 
ATOM      6  C7  UNL d   1      -1.716   0.531   2.917  0.00  0.00    -0.073 A 
ATOM      7  C8  UNL d   1      -0.940   0.720   1.642  0.00  0.00     0.078 C 
ENDROOT
BRANCH   1   8
ATOM      8  C1  UNL d   1      -1.052   2.848   3.781  0.00  0.00     0.053 C 
ATOM      9  C   UNL d   1      -1.548   3.885   4.776  0.00  0.00     0.018 C 
ENDBRANCH   1   8
TORSDOF 1
ENDMDL
