MODEL 1
REMARK minimizedAffinity -3.12810326
REMARK minimizedRMSD -1
REMARK  0 active torsions:
REMARK  status: ('A' for Active; 'I' for Inactive)
ROOT
ATOM      1  C   UNL d   1      -0.981  -0.472   0.543  0.00  0.00     0.172 C 
ATOM      2  N   UNL d   1       0.199  -0.575   1.369  0.00  0.00    -0.070 N 
ATOM      3  C1  UNL d   1       1.399   0.038   1.127  0.00  0.00    -0.004 A 
ATOM      4  C2  UNL d   1       2.263  -0.309   2.143  0.00  0.00    -0.047 A 
ATOM      5  C3  UNL d   1       1.558  -1.161   3.026  0.00  0.00    -0.047 A 
ATOM      6  C4  UNL d   1       0.283  -1.309   2.523  0.00  0.00    -0.004 A 
ENDROOT
TORSDOF 0
ENDMDL
