MODEL 1
REMARK minimizedAffinity -3.62102365
REMARK minimizedRMSD -1
REMARK  0 active torsions:
REMARK  status: ('A' for Active; 'I' for Inactive)
ROOT
ATOM      1  C   UNL d   1       0.019   0.794  -0.727  0.00  0.00     0.172 C 
ATOM      2  N   UNL d   1       0.334   0.204   0.553  0.00  0.00    -0.070 N 
ATOM      3  C1  UNL d   1      -0.470  -0.653   1.256  0.00  0.00    -0.004 A 
ATOM      4  C2  UNL d   1       0.188  -0.989   2.420  0.00  0.00    -0.047 A 
ATOM      5  C3  UNL d   1       1.429  -0.310   2.416  0.00  0.00    -0.047 A 
ATOM      6  C4  UNL d   1       1.494   0.421   1.249  0.00  0.00    -0.004 A 
ENDROOT
TORSDOF 0
ENDMDL
