MODEL 1
REMARK minimizedAffinity -3.05367255
REMARK minimizedRMSD -1
REMARK  0 active torsions:
REMARK  status: ('A' for Active; 'I' for Inactive)
ROOT
ATOM      1  C   UNL d   1       1.975  -1.659   2.190  0.00  0.00     0.172 C 
ATOM      2  N   UNL d   1       0.867  -0.944   1.602  0.00  0.00    -0.070 N 
ATOM      3  C1  UNL d   1       0.854  -0.377   0.356  0.00  0.00    -0.004 A 
ATOM      4  C2  UNL d   1      -0.380   0.208   0.171  0.00  0.00    -0.047 A 
ATOM      5  C3  UNL d   1      -1.135  -0.015   1.347  0.00  0.00    -0.047 A 
ATOM      6  C4  UNL d   1      -0.339  -0.730   2.216  0.00  0.00    -0.004 A 
ENDROOT
TORSDOF 0
ENDMDL
