MODEL 1
REMARK minimizedAffinity -3.07001305
REMARK minimizedRMSD -1
REMARK  0 active torsions:
REMARK  status: ('A' for Active; 'I' for Inactive)
ROOT
ATOM      1  C   UNL d   1       1.475  -0.857   2.496  0.00  0.00     0.172 C 
ATOM      2  N   UNL d   1       0.679  -0.536   1.334  0.00  0.00    -0.070 N 
ATOM      3  C1  UNL d   1       1.149  -0.411   0.054  0.00  0.00    -0.004 A 
ATOM      4  C2  UNL d   1       0.081  -0.100  -0.760  0.00  0.00    -0.047 A 
ATOM      5  C3  UNL d   1      -1.070  -0.035   0.060  0.00  0.00    -0.047 A 
ATOM      6  C4  UNL d   1      -0.672  -0.309   1.351  0.00  0.00    -0.004 A 
ENDROOT
TORSDOF 0
ENDMDL
