MODEL 1
REMARK minimizedAffinity -0.448294282
REMARK minimizedRMSD -1
REMARK  0 active torsions:
REMARK  status: ('A' for Active; 'I' for Inactive)
ROOT
ATOM      1  C   UNL d   1       1.807  -1.462  -0.357  0.00  0.00     0.172 C 
ATOM      2  N   UNL d   1       0.800  -1.017   0.578  0.00  0.00    -0.070 N 
ATOM      3  C1  UNL d   1      -0.194  -0.114   0.311  0.00  0.00    -0.004 A 
ATOM      4  C2  UNL d   1      -0.943   0.040   1.458  0.00  0.00    -0.047 A 
ATOM      5  C3  UNL d   1      -0.379  -0.799   2.448  0.00  0.00    -0.047 A 
ATOM      6  C4  UNL d   1       0.699  -1.442   1.877  0.00  0.00    -0.004 A 
ENDROOT
TORSDOF 0
ENDMDL
