MODEL 1
REMARK minimizedAffinity -2.12011743
REMARK minimizedRMSD -1
REMARK  0 active torsions:
REMARK  status: ('A' for Active; 'I' for Inactive)
ROOT
ATOM      1  C   UNL d   1      -0.414   2.837  -2.157  0.00  0.00     0.172 C 
ATOM      2  N   UNL d   1      -0.449   1.505  -1.601  0.00  0.00    -0.070 N 
ATOM      3  C1  UNL d   1      -1.518   0.650  -1.643  0.00  0.00    -0.004 A 
ATOM      4  C2  UNL d   1      -1.152  -0.516  -1.006  0.00  0.00    -0.047 A 
ATOM      5  C3  UNL d   1       0.184  -0.356  -0.565  0.00  0.00    -0.047 A 
ATOM      6  C4  UNL d   1       0.594   0.904  -0.947  0.00  0.00    -0.004 A 
ENDROOT
TORSDOF 0
ENDMDL
