MODEL 1
REMARK minimizedAffinity -2.41581154
REMARK minimizedRMSD -1
REMARK  0 active torsions:
REMARK  status: ('A' for Active; 'I' for Inactive)
ROOT
ATOM      1  C   UNL d   1      -0.085  -0.159  -0.854  0.00  0.00     0.172 C 
ATOM      2  N   UNL d   1       0.220  -0.529   0.508  0.00  0.00    -0.070 N 
ATOM      3  C1  UNL d   1      -0.574  -0.290   1.598  0.00  0.00    -0.004 A 
ATOM      4  C2  UNL d   1       0.069  -0.794   2.707  0.00  0.00    -0.047 A 
ATOM      5  C3  UNL d   1       1.292  -1.355   2.270  0.00  0.00    -0.047 A 
ATOM      6  C4  UNL d   1       1.360  -1.177   0.904  0.00  0.00    -0.004 A 
ENDROOT
TORSDOF 0
ENDMDL
