MODEL 1
REMARK minimizedAffinity -2.87150264
REMARK minimizedRMSD -1
REMARK  0 active torsions:
REMARK  status: ('A' for Active; 'I' for Inactive)
ROOT
ATOM      1  C   UNL d   1      -1.459  -0.363   0.271  0.00  0.00     0.172 C 
ATOM      2  N   UNL d   1      -0.145  -0.800   0.678  0.00  0.00    -0.070 N 
ATOM      3  C1  UNL d   1       1.009  -0.640  -0.042  0.00  0.00    -0.004 A 
ATOM      4  C2  UNL d   1       2.041  -1.189   0.686  0.00  0.00    -0.047 A 
ATOM      5  C3  UNL d   1       1.490  -1.698   1.886  0.00  0.00    -0.047 A 
ATOM      6  C4  UNL d   1       0.135  -1.444   1.855  0.00  0.00    -0.004 A 
ENDROOT
TORSDOF 0
ENDMDL
