MODEL 1
REMARK minimizedAffinity 4.426126
REMARK minimizedRMSD -1
REMARK  1 active torsions:
REMARK  status: ('A' for Active; 'I' for Inactive)
REMARK    1  A    between atoms: N_2  and  C1_3 
ROOT
ATOM      1  C1  UNL d   1      -5.999   1.769  -3.377  0.00  0.00     0.143 A 
ATOM      2  C2  UNL d   1      -5.972   2.447  -4.600  0.00  0.00    -0.057 A 
ATOM      3  C3  UNL d   1      -5.987   1.752  -5.816  0.00  0.00     0.033 A 
ATOM      4  C4  UNL d   1      -5.999   0.361  -5.828  0.00  0.00    -0.042 A 
ATOM      5  C5  UNL d   1      -6.000  -0.334  -4.624  0.00  0.00     0.033 A 
ATOM      6  C6  UNL d   1      -5.992   0.366  -3.414  0.00  0.00    -0.057 A 
ENDROOT
BRANCH   1   7
ATOM      7  N   UNL d   1      -5.887   2.401  -2.135  0.00  0.00    -0.732 N 
ATOM      8  C   UNL d   1      -4.880   3.416  -1.913  0.00  0.00     0.284 C 
ATOM      9  H3  UNL d   1      -6.793   2.617  -1.726  0.00  0.00     0.395 HD
ENDBRANCH   1   7
TORSDOF 1
ENDMDL
