MODEL 1
REMARK minimizedAffinity 6.90871859
REMARK minimizedRMSD -1
REMARK  1 active torsions:
REMARK  status: ('A' for Active; 'I' for Inactive)
REMARK    1  A    between atoms: N_2  and  C1_3 
ROOT
ATOM      1  C1  UNL d   1       0.924   4.415  -3.892  0.00  0.00     0.143 A 
ATOM      2  C2  UNL d   1       1.508   5.059  -4.988  0.00  0.00    -0.057 A 
ATOM      3  C3  UNL d   1       0.723   5.626  -5.999  0.00  0.00     0.033 A 
ATOM      4  C4  UNL d   1      -0.664   5.533  -5.947  0.00  0.00    -0.042 A 
ATOM      5  C5  UNL d   1      -1.265   4.875  -4.879  0.00  0.00     0.033 A 
ATOM      6  C6  UNL d   1      -0.476   4.317  -3.869  0.00  0.00    -0.057 A 
ENDROOT
BRANCH   1   7
ATOM      7  N   UNL d   1       1.652   3.746  -2.905  0.00  0.00    -0.732 N 
ATOM      8  C   UNL d   1       1.123   2.553  -2.280  0.00  0.00     0.284 C 
ATOM      9  H3  UNL d   1       2.645   3.697  -3.121  0.00  0.00     0.395 HD
ENDBRANCH   1   7
TORSDOF 1
ENDMDL
