MODEL 1
REMARK minimizedAffinity 3.19669747
REMARK minimizedRMSD -1
REMARK  1 active torsions:
REMARK  status: ('A' for Active; 'I' for Inactive)
REMARK    1  A    between atoms: N_2  and  C1_3 
ROOT
ATOM      1  C1  UNL d   1      -3.090  -0.790   2.768  0.00  0.00     0.143 A 
ATOM      2  C2  UNL d   1      -4.239  -0.033   2.517  0.00  0.00    -0.057 A 
ATOM      3  C3  UNL d   1      -5.079  -0.325   1.435  0.00  0.00     0.033 A 
ATOM      4  C4  UNL d   1      -4.767  -1.365   0.566  0.00  0.00    -0.042 A 
ATOM      5  C5  UNL d   1      -3.616  -2.115   0.781  0.00  0.00     0.033 A 
ATOM      6  C6  UNL d   1      -2.785  -1.823   1.867  0.00  0.00    -0.057 A 
ENDROOT
BRANCH   1   7
ATOM      7  N   UNL d   1      -2.163  -0.488   3.768  0.00  0.00    -0.732 N 
ATOM      8  C   UNL d   1      -2.589  -0.314   5.140  0.00  0.00     0.284 C 
ATOM      9  H3  UNL d   1      -1.296  -1.011   3.666  0.00  0.00     0.395 HD
ENDBRANCH   1   7
TORSDOF 1
ENDMDL
