MODEL 1
REMARK minimizedAffinity 2.6198287
REMARK minimizedRMSD -1
REMARK  1 active torsions:
REMARK  status: ('A' for Active; 'I' for Inactive)
REMARK    1  A    between atoms: N_2  and  C1_3 
ROOT
ATOM      1  C1  UNL d   1      -3.841  -5.912  -4.806  0.00  0.00     0.143 A 
ATOM      2  C2  UNL d   1      -3.065  -5.993  -5.967  0.00  0.00    -0.057 A 
ATOM      3  C3  UNL d   1      -1.679  -5.799  -5.929  0.00  0.00     0.033 A 
ATOM      4  C4  UNL d   1      -1.047  -5.491  -4.729  0.00  0.00    -0.042 A 
ATOM      5  C5  UNL d   1      -1.802  -5.381  -3.566  0.00  0.00     0.033 A 
ATOM      6  C6  UNL d   1      -3.185  -5.582  -3.610  0.00  0.00    -0.057 A 
ENDROOT
BRANCH   1   7
ATOM      7  N   UNL d   1      -5.236  -5.998  -4.795  0.00  0.00    -0.732 N 
ATOM      8  C   UNL d   1      -6.000  -5.732  -5.995  0.00  0.00     0.284 C 
ATOM      9  H3  UNL d   1      -5.572  -6.792  -4.255  0.00  0.00     0.395 HD
ENDBRANCH   1   7
TORSDOF 1
ENDMDL
