MODEL 1
REMARK minimizedAffinity -0.657011628
REMARK minimizedRMSD -1
REMARK  1 active torsions:
REMARK  status: ('A' for Active; 'I' for Inactive)
REMARK    1  A    between atoms: N_2  and  C1_3 
ROOT
ATOM      1  C1  UNL d   1       0.732   4.146  -3.923  0.00  0.00     0.143 A 
ATOM      2  C2  UNL d   1      -0.658   4.143  -3.767  0.00  0.00    -0.057 A 
ATOM      3  C3  UNL d   1      -1.497   4.734  -4.720  0.00  0.00     0.033 A 
ATOM      4  C4  UNL d   1      -0.956   5.367  -5.835  0.00  0.00    -0.042 A 
ATOM      5  C5  UNL d   1       0.425   5.403  -5.997  0.00  0.00     0.033 A 
ATOM      6  C6  UNL d   1       1.256   4.805  -5.046  0.00  0.00    -0.057 A 
ENDROOT
BRANCH   1   7
ATOM      7  N   UNL d   1       1.623   3.661  -2.962  0.00  0.00    -0.732 N 
ATOM      8  C   UNL d   1       1.213   2.636  -2.027  0.00  0.00     0.284 C 
ATOM      9  H3  UNL d   1       2.563   3.535  -3.333  0.00  0.00     0.395 HD
ENDBRANCH   1   7
TORSDOF 1
ENDMDL
