MODEL 1
REMARK minimizedAffinity 5.40132284
REMARK minimizedRMSD -1
REMARK  1 active torsions:
REMARK  status: ('A' for Active; 'I' for Inactive)
REMARK    1  A    between atoms: N_2  and  C1_3 
ROOT
ATOM      1  C1  UNL d   1       1.154   4.452  -3.753  0.00  0.00     0.143 A 
ATOM      2  C2  UNL d   1      -0.234   4.627  -3.767  0.00  0.00    -0.057 A 
ATOM      3  C3  UNL d   1      -0.887   5.167  -4.882  0.00  0.00     0.033 A 
ATOM      4  C4  UNL d   1      -0.157   5.569  -5.995  0.00  0.00    -0.042 A 
ATOM      5  C5  UNL d   1       1.226   5.428  -5.994  0.00  0.00     0.033 A 
ATOM      6  C6  UNL d   1       1.872   4.882  -4.880  0.00  0.00    -0.057 A 
ENDROOT
BRANCH   1   7
ATOM      7  N   UNL d   1       1.872   4.013  -2.638  0.00  0.00    -0.732 N 
ATOM      8  C   UNL d   1       1.641   2.696  -2.085  0.00  0.00     0.284 C 
ATOM      9  H3  UNL d   1       2.852   4.282  -2.676  0.00  0.00     0.395 HD
ENDBRANCH   1   7
TORSDOF 1
ENDMDL
