MODEL 1
REMARK minimizedAffinity 0.696633816
REMARK minimizedRMSD -1
REMARK  1 active torsions:
REMARK  status: ('A' for Active; 'I' for Inactive)
REMARK    1  A    between atoms: N_2  and  C1_3 
ROOT
ATOM      1  C1  UNL d   1       0.603   4.267  -3.980  0.00  0.00     0.143 A 
ATOM      2  C2  UNL d   1      -0.786   4.400  -3.875  0.00  0.00    -0.057 A 
ATOM      3  C3  UNL d   1      -1.520   5.118  -4.826  0.00  0.00     0.033 A 
ATOM      4  C4  UNL d   1      -0.873   5.743  -5.887  0.00  0.00    -0.042 A 
ATOM      5  C5  UNL d   1       0.510   5.646  -5.997  0.00  0.00     0.033 A 
ATOM      6  C6  UNL d   1       1.237   4.921  -5.048  0.00  0.00    -0.057 A 
ENDROOT
BRANCH   1   7
ATOM      7  N   UNL d   1       1.400   3.649  -3.013  0.00  0.00    -0.732 N 
ATOM      8  C   UNL d   1       0.904   2.514  -2.264  0.00  0.00     0.284 C 
ATOM      9  H3  UNL d   1       2.370   3.560  -3.309  0.00  0.00     0.395 HD
ENDBRANCH   1   7
TORSDOF 1
ENDMDL
