MODEL 1
REMARK minimizedAffinity -0.665561914
REMARK minimizedRMSD -1
REMARK  1 active torsions:
REMARK  status: ('A' for Active; 'I' for Inactive)
REMARK    1  A    between atoms: N_2  and  C1_3 
ROOT
ATOM      1  C1  UNL d   1      -5.983   1.024  -3.621  0.00  0.00     0.143 A 
ATOM      2  C2  UNL d   1      -5.999   0.590  -4.951  0.00  0.00    -0.057 A 
ATOM      3  C3  UNL d   1      -6.000  -0.774  -5.269  0.00  0.00     0.033 A 
ATOM      4  C4  UNL d   1      -5.955  -1.730  -4.260  0.00  0.00    -0.042 A 
ATOM      5  C5  UNL d   1      -5.913  -1.321  -2.932  0.00  0.00     0.033 A 
ATOM      6  C6  UNL d   1      -5.919   0.042  -2.620  0.00  0.00    -0.057 A 
ENDROOT
BRANCH   1   7
ATOM      7  N   UNL d   1      -5.881   2.365  -3.242  0.00  0.00    -0.732 N 
ATOM      8  C   UNL d   1      -5.930   2.742  -1.846  0.00  0.00     0.284 C 
ATOM      9  H3  UNL d   1      -5.185   2.870  -3.785  0.00  0.00     0.395 HD
ENDBRANCH   1   7
TORSDOF 1
ENDMDL
