MODEL 1
REMARK minimizedAffinity 0.387304306
REMARK minimizedRMSD -1
REMARK  1 active torsions:
REMARK  status: ('A' for Active; 'I' for Inactive)
REMARK    1  A    between atoms: N_2  and  C1_3 
ROOT
ATOM      1  C1  UNL d   1       1.012   4.405  -3.814  0.00  0.00     0.143 A 
ATOM      2  C2  UNL d   1      -0.361   4.666  -3.760  0.00  0.00    -0.057 A 
ATOM      3  C3  UNL d   1      -1.018   5.319  -4.810  0.00  0.00     0.033 A 
ATOM      4  C4  UNL d   1      -0.305   5.748  -5.925  0.00  0.00    -0.042 A 
ATOM      5  C5  UNL d   1       1.065   5.521  -5.989  0.00  0.00     0.033 A 
ATOM      6  C6  UNL d   1       1.714   4.863  -4.940  0.00  0.00    -0.057 A 
ENDROOT
BRANCH   1   7
ATOM      7  N   UNL d   1       1.740   3.848  -2.760  0.00  0.00    -0.732 N 
ATOM      8  C   UNL d   1       1.144   2.850  -1.898  0.00  0.00     0.284 C 
ATOM      9  H3  UNL d   1       2.706   3.654  -3.015  0.00  0.00     0.395 HD
ENDBRANCH   1   7
TORSDOF 1
ENDMDL
