MODEL 1
REMARK minimizedAffinity 0.778814971
REMARK minimizedRMSD -1
REMARK  1 active torsions:
REMARK  status: ('A' for Active; 'I' for Inactive)
REMARK    1  A    between atoms: N_2  and  C1_3 
ROOT
ATOM      1  C1  UNL d   1       0.813   4.550  -3.662  0.00  0.00     0.143 A 
ATOM      2  C2  UNL d   1       1.558   4.500  -4.844  0.00  0.00    -0.057 A 
ATOM      3  C3  UNL d   1       1.134   5.168  -5.999  0.00  0.00     0.033 A 
ATOM      4  C4  UNL d   1      -0.063   5.877  -6.000  0.00  0.00    -0.042 A 
ATOM      5  C5  UNL d   1      -0.833   5.919  -4.843  0.00  0.00     0.033 A 
ATOM      6  C6  UNL d   1      -0.400   5.256  -3.691  0.00  0.00    -0.057 A 
ENDROOT
BRANCH   1   7
ATOM      7  N   UNL d   1       1.131   3.826  -2.510  0.00  0.00    -0.732 N 
ATOM      8  C   UNL d   1       1.509   2.432  -2.597  0.00  0.00     0.284 C 
ATOM      9  H3  UNL d   1       1.688   4.368  -1.853  0.00  0.00     0.395 HD
ENDBRANCH   1   7
TORSDOF 1
ENDMDL
