MODEL 1
REMARK minimizedAffinity 6.78209352
REMARK minimizedRMSD -1
REMARK  1 active torsions:
REMARK  status: ('A' for Active; 'I' for Inactive)
REMARK    1  A    between atoms: N_2  and  C1_3 
ROOT
ATOM      1  C1  UNL d   1       1.110   4.157  -3.968  0.00  0.00     0.143 A 
ATOM      2  C2  UNL d   1       1.623   4.904  -5.034  0.00  0.00    -0.057 A 
ATOM      3  C3  UNL d   1       0.778   5.475  -5.993  0.00  0.00     0.033 A 
ATOM      4  C4  UNL d   1      -0.598   5.284  -5.919  0.00  0.00    -0.042 A 
ATOM      5  C5  UNL d   1      -1.128   4.525  -4.882  0.00  0.00     0.033 A 
ATOM      6  C6  UNL d   1      -0.280   3.963  -3.924  0.00  0.00    -0.057 A 
ENDROOT
BRANCH   1   7
ATOM      7  N   UNL d   1       1.904   3.482  -3.038  0.00  0.00    -0.732 N 
ATOM      8  C   UNL d   1       1.608   2.113  -2.673  0.00  0.00     0.284 C 
ATOM      9  H3  UNL d   1       2.895   3.674  -3.161  0.00  0.00     0.395 HD
ENDBRANCH   1   7
TORSDOF 1
ENDMDL
