MODEL 1
REMARK minimizedAffinity 10.2338305
REMARK minimizedRMSD -1
REMARK  1 active torsions:
REMARK  status: ('A' for Active; 'I' for Inactive)
REMARK    1  A    between atoms: N_2  and  C1_3 
ROOT
ATOM      1  C1  UNL d   1      -0.871  -1.941   2.126  0.00  0.00     0.143 A 
ATOM      2  C2  UNL d   1      -1.884  -2.495   1.335  0.00  0.00    -0.057 A 
ATOM      3  C3  UNL d   1      -1.633  -3.583   0.491  0.00  0.00     0.033 A 
ATOM      4  C4  UNL d   1      -0.353  -4.121   0.401  0.00  0.00    -0.042 A 
ATOM      5  C5  UNL d   1       0.675  -3.570   1.159  0.00  0.00     0.033 A 
ATOM      6  C6  UNL d   1       0.416  -2.488   2.005  0.00  0.00    -0.057 A 
ENDROOT
BRANCH   1   7
ATOM      7  N   UNL d   1      -1.035  -0.797   2.911  0.00  0.00    -0.732 N 
ATOM      8  C   UNL d   1      -1.769   0.343   2.407  0.00  0.00     0.284 C 
ATOM      9  H3  UNL d   1      -1.227  -1.018   3.885  0.00  0.00     0.395 HD
ENDBRANCH   1   7
TORSDOF 1
ENDMDL
