MODEL 1
REMARK minimizedAffinity 6.80096674
REMARK minimizedRMSD -1
REMARK  1 active torsions:
REMARK  status: ('A' for Active; 'I' for Inactive)
REMARK    1  A    between atoms: N_2  and  C1_3 
ROOT
ATOM      1  C1  UNL d   1       2.799  -0.066   1.128  0.00  0.00     0.143 A 
ATOM      2  C2  UNL d   1       2.028   1.090   1.285  0.00  0.00    -0.057 A 
ATOM      3  C3  UNL d   1       1.467   1.743   0.180  0.00  0.00     0.033 A 
ATOM      4  C4  UNL d   1       1.692   1.266  -1.106  0.00  0.00    -0.042 A 
ATOM      5  C5  UNL d   1       2.476   0.132  -1.287  0.00  0.00     0.033 A 
ATOM      6  C6  UNL d   1       3.029  -0.519  -0.180  0.00  0.00    -0.057 A 
ENDROOT
BRANCH   1   7
ATOM      7  N   UNL d   1       3.466  -0.704   2.178  0.00  0.00    -0.732 N 
ATOM      8  C   UNL d   1       2.848  -1.808   2.881  0.00  0.00     0.284 C 
ATOM      9  H3  UNL d   1       4.456  -0.836   1.985  0.00  0.00     0.395 HD
ENDBRANCH   1   7
TORSDOF 1
ENDMDL
