MODEL 1
REMARK minimizedAffinity -0.580528021
REMARK minimizedRMSD -1
REMARK  1 active torsions:
REMARK  status: ('A' for Active; 'I' for Inactive)
REMARK    1  A    between atoms: N_2  and  C1_3 
ROOT
ATOM      1  C1  UNL d   1      -5.543   2.954  -1.946  0.00  0.00     0.143 A 
ATOM      2  C2  UNL d   1      -4.771   4.120  -1.975  0.00  0.00    -0.057 A 
ATOM      3  C3  UNL d   1      -4.427   4.793  -0.797  0.00  0.00     0.033 A 
ATOM      4  C4  UNL d   1      -4.876   4.326   0.434  0.00  0.00    -0.042 A 
ATOM      5  C5  UNL d   1      -5.666   3.183   0.485  0.00  0.00     0.033 A 
ATOM      6  C6  UNL d   1      -6.000   2.511  -0.695  0.00  0.00    -0.057 A 
ENDROOT
BRANCH   1   7
ATOM      7  N   UNL d   1      -6.000   2.294  -3.090  0.00  0.00    -0.732 N 
ATOM      8  C   UNL d   1      -5.936   0.852  -3.184  0.00  0.00     0.284 C 
ATOM      9  H3  UNL d   1      -6.861   2.697  -3.453  0.00  0.00     0.395 HD
ENDBRANCH   1   7
TORSDOF 1
ENDMDL
