MODEL 1
REMARK minimizedAffinity 1.7786963
REMARK minimizedRMSD -1
REMARK  1 active torsions:
REMARK  status: ('A' for Active; 'I' for Inactive)
REMARK    1  A    between atoms: N_2  and  C1_3 
ROOT
ATOM      1  C1  UNL d   1       0.006   3.825  -4.039  0.00  0.00     0.143 A 
ATOM      2  C2  UNL d   1       1.166   4.535  -4.366  0.00  0.00    -0.057 A 
ATOM      3  C3  UNL d   1       1.129   5.621  -5.249  0.00  0.00     0.033 A 
ATOM      4  C4  UNL d   1      -0.070   5.999  -5.845  0.00  0.00    -0.042 A 
ATOM      5  C5  UNL d   1      -1.231   5.292  -5.555  0.00  0.00     0.033 A 
ATOM      6  C6  UNL d   1      -1.188   4.213  -4.667  0.00  0.00    -0.057 A 
ENDROOT
BRANCH   1   7
ATOM      7  N   UNL d   1      -0.005   2.675  -3.245  0.00  0.00    -0.732 N 
ATOM      8  C   UNL d   1       1.015   2.463  -2.241  0.00  0.00     0.284 C 
ATOM      9  H3  UNL d   1      -0.943   2.419  -2.946  0.00  0.00     0.395 HD
ENDBRANCH   1   7
TORSDOF 1
ENDMDL
