MODEL 1
REMARK minimizedAffinity 4.26607037
REMARK minimizedRMSD -1
REMARK  1 active torsions:
REMARK  status: ('A' for Active; 'I' for Inactive)
REMARK    1  A    between atoms: N_2  and  C1_3 
ROOT
ATOM      1  C1  UNL d   1      -2.983  -0.442   3.215  0.00  0.00     0.143 A 
ATOM      2  C2  UNL d   1      -2.486  -1.378   2.302  0.00  0.00    -0.057 A 
ATOM      3  C3  UNL d   1      -3.221  -1.746   1.168  0.00  0.00     0.033 A 
ATOM      4  C4  UNL d   1      -4.481  -1.203   0.942  0.00  0.00    -0.042 A 
ATOM      5  C5  UNL d   1      -5.005  -0.289   1.849  0.00  0.00     0.033 A 
ATOM      6  C6  UNL d   1      -4.264   0.079   2.976  0.00  0.00    -0.057 A 
ENDROOT
BRANCH   1   7
ATOM      7  N   UNL d   1      -2.344  -0.108   4.412  0.00  0.00    -0.732 N 
ATOM      8  C   UNL d   1      -3.087  -0.049   5.652  0.00  0.00     0.284 C 
ATOM      9  H3  UNL d   1      -1.427  -0.542   4.497  0.00  0.00     0.395 HD
ENDBRANCH   1   7
TORSDOF 1
ENDMDL
