MODEL 1
REMARK minimizedAffinity 1.06207454
REMARK minimizedRMSD -1
REMARK  0 active torsions:
REMARK  status: ('A' for Active; 'I' for Inactive)
ROOT
ATOM      1  C   UNL d   1       2.308  -1.828   1.406  0.00  0.00     0.172 C 
ATOM      2  N   UNL d   1       1.099  -1.334   2.023  0.00  0.00    -0.070 N 
ATOM      3  C1  UNL d   1      -0.175  -1.727   1.711  0.00  0.00    -0.004 A 
ATOM      4  C2  UNL d   1      -1.043  -1.026   2.519  0.00  0.00    -0.047 A 
ATOM      5  C3  UNL d   1      -0.264  -0.182   3.345  0.00  0.00    -0.047 A 
ATOM      6  C4  UNL d   1       1.059  -0.392   3.017  0.00  0.00    -0.004 A 
ENDROOT
TORSDOF 0
ENDMDL
