MODEL 1
REMARK minimizedAffinity 1.3020227
REMARK minimizedRMSD -1
REMARK  0 active torsions:
REMARK  status: ('A' for Active; 'I' for Inactive)
ROOT
ATOM      1  C   UNL d   1       1.801  -0.619  -1.905  0.00  0.00     0.172 C 
ATOM      2  N   UNL d   1       2.055  -1.351  -0.686  0.00  0.00    -0.070 N 
ATOM      3  C1  UNL d   1       1.767  -0.918   0.580  0.00  0.00    -0.004 A 
ATOM      4  C2  UNL d   1       2.160  -1.902   1.462  0.00  0.00    -0.047 A 
ATOM      5  C3  UNL d   1       2.705  -2.962   0.699  0.00  0.00    -0.047 A 
ATOM      6  C4  UNL d   1       2.628  -2.594  -0.628  0.00  0.00    -0.004 A 
ENDROOT
TORSDOF 0
ENDMDL
