MODEL 1
REMARK minimizedAffinity 6.00072622
REMARK minimizedRMSD -1
REMARK  0 active torsions:
REMARK  status: ('A' for Active; 'I' for Inactive)
ROOT
ATOM      1  C   UNL d   1       0.243  -0.778   3.707  0.00  0.00     0.172 C 
ATOM      2  N   UNL d   1       1.169  -1.293   2.726  0.00  0.00    -0.070 N 
ATOM      3  C1  UNL d   1       2.078  -2.296   2.935  0.00  0.00    -0.004 A 
ATOM      4  C2  UNL d   1       2.768  -2.491   1.758  0.00  0.00    -0.047 A 
ATOM      5  C3  UNL d   1       2.258  -1.573   0.810  0.00  0.00    -0.047 A 
ATOM      6  C4  UNL d   1       1.269  -0.844   1.435  0.00  0.00    -0.004 A 
ENDROOT
TORSDOF 0
ENDMDL
