MODEL 1
REMARK minimizedAffinity -1.11357653
REMARK minimizedRMSD -1
REMARK  0 active torsions:
REMARK  status: ('A' for Active; 'I' for Inactive)
ROOT
ATOM      1  C   UNL d   1       1.670  -1.258  -0.838  0.00  0.00     0.172 C 
ATOM      2  N   UNL d   1       1.647  -1.445   0.594  0.00  0.00    -0.070 N 
ATOM      3  C1  UNL d   1       2.567  -2.151   1.322  0.00  0.00    -0.004 A 
ATOM      4  C2  UNL d   1       2.193  -2.092   2.647  0.00  0.00    -0.047 A 
ATOM      5  C3  UNL d   1       1.006  -1.324   2.718  0.00  0.00    -0.047 A 
ATOM      6  C4  UNL d   1       0.691  -0.936   1.433  0.00  0.00    -0.004 A 
ENDROOT
TORSDOF 0
ENDMDL
