MODEL 1
REMARK minimizedAffinity 3.93361402
REMARK minimizedRMSD -1
REMARK  0 active torsions:
REMARK  status: ('A' for Active; 'I' for Inactive)
ROOT
ATOM      1  C   UNL d   1       2.539  -0.950  -0.486  0.00  0.00     0.172 C 
ATOM      2  N   UNL d   1       2.310   0.449  -0.761  0.00  0.00    -0.070 N 
ATOM      3  C1  UNL d   1       1.859   0.967  -1.946  0.00  0.00    -0.004 A 
ATOM      4  C2  UNL d   1       1.773   2.335  -1.803  0.00  0.00    -0.047 A 
ATOM      5  C3  UNL d   1       2.187   2.651  -0.487  0.00  0.00    -0.047 A 
ATOM      6  C4  UNL d   1       2.514   1.465   0.136  0.00  0.00    -0.004 A 
ENDROOT
TORSDOF 0
ENDMDL
