MODEL 1
REMARK minimizedAffinity 6.82184029
REMARK minimizedRMSD -1
REMARK  0 active torsions:
REMARK  status: ('A' for Active; 'I' for Inactive)
ROOT
ATOM      1  C   UNL d   1      -2.425   0.316   3.072  0.00  0.00     0.172 C 
ATOM      2  N   UNL d   1      -1.285  -0.518   2.772  0.00  0.00    -0.070 N 
ATOM      3  C1  UNL d   1      -1.187  -1.389   1.720  0.00  0.00    -0.004 A 
ATOM      4  C2  UNL d   1       0.051  -1.991   1.784  0.00  0.00    -0.047 A 
ATOM      5  C3  UNL d   1       0.720  -1.465   2.914  0.00  0.00    -0.047 A 
ATOM      6  C4  UNL d   1      -0.130  -0.555   3.508  0.00  0.00    -0.004 A 
ENDROOT
TORSDOF 0
ENDMDL
