MODEL 1
REMARK minimizedAffinity 1.44804883
REMARK minimizedRMSD -1
REMARK  0 active torsions:
REMARK  status: ('A' for Active; 'I' for Inactive)
ROOT
ATOM      1  C   UNL d   1       2.147  -2.168   0.545  0.00  0.00     0.172 C 
ATOM      2  N   UNL d   1       1.283  -1.504   1.492  0.00  0.00    -0.070 N 
ATOM      3  C1  UNL d   1      -0.082  -1.607   1.536  0.00  0.00    -0.004 A 
ATOM      4  C2  UNL d   1      -0.531  -0.826   2.579  0.00  0.00    -0.047 A 
ATOM      5  C3  UNL d   1       0.603  -0.231   3.181  0.00  0.00    -0.047 A 
ATOM      6  C4  UNL d   1       1.713  -0.668   2.489  0.00  0.00    -0.004 A 
ENDROOT
TORSDOF 0
ENDMDL
