MODEL 1
REMARK minimizedAffinity 2.87021375
REMARK minimizedRMSD -1
REMARK  0 active torsions:
REMARK  status: ('A' for Active; 'I' for Inactive)
ROOT
ATOM      1  C   UNL d   1       0.463  -1.388   2.107  0.00  0.00     0.172 C 
ATOM      2  N   UNL d   1       1.252  -1.520   0.905  0.00  0.00    -0.070 N 
ATOM      3  C1  UNL d   1       0.833  -1.214  -0.362  0.00  0.00    -0.004 A 
ATOM      4  C2  UNL d   1       1.875  -1.476  -1.226  0.00  0.00    -0.047 A 
ATOM      5  C3  UNL d   1       2.956  -1.958  -0.451  0.00  0.00    -0.047 A 
ATOM      6  C4  UNL d   1       2.544  -1.974   0.865  0.00  0.00    -0.004 A 
ENDROOT
TORSDOF 0
ENDMDL
