MODEL 1
REMARK minimizedAffinity -1.41896594
REMARK minimizedRMSD -1
REMARK  0 active torsions:
REMARK  status: ('A' for Active; 'I' for Inactive)
ROOT
ATOM      1  C   UNL d   1       2.310  -1.181  -0.791  0.00  0.00     0.172 C 
ATOM      2  N   UNL d   1       2.363   0.186  -1.252  0.00  0.00    -0.070 N 
ATOM      3  C1  UNL d   1       2.407   0.586  -2.561  0.00  0.00    -0.004 A 
ATOM      4  C2  UNL d   1       2.449   1.963  -2.581  0.00  0.00    -0.047 A 
ATOM      5  C3  UNL d   1       2.430   2.407  -1.237  0.00  0.00    -0.047 A 
ATOM      6  C4  UNL d   1       2.377   1.286  -0.435  0.00  0.00    -0.004 A 
ENDROOT
TORSDOF 0
ENDMDL
