MODEL 1
REMARK minimizedAffinity -3.37439346
REMARK minimizedRMSD -1
REMARK  0 active torsions:
REMARK  status: ('A' for Active; 'I' for Inactive)
ROOT
ATOM      1  C   UNL d   1       0.005  -0.254   0.592  0.00  0.00     0.078 C 
ATOM      2  C1  UNL d   1       0.306  -1.247  -0.491  0.00  0.00    -0.077 A 
ATOM      3  C2  UNL d   1      -0.619  -1.507  -1.509  0.00  0.00    -0.001 A 
ATOM      4  C3  UNL d   1      -0.330  -2.441  -2.505  0.00  0.00     0.003 A 
ATOM      5  C4  UNL d   1       0.885  -3.124  -2.492  0.00  0.00    -0.005 A 
ATOM      6  C5  UNL d   1       1.811  -2.874  -1.481  0.00  0.00     0.003 A 
ATOM      7  C6  UNL d   1       1.523  -1.940  -0.485  0.00  0.00    -0.001 A 
ENDROOT
TORSDOF 0
ENDMDL
