MODEL 1
REMARK minimizedAffinity -4.07850456
REMARK minimizedRMSD -1
REMARK  0 active torsions:
REMARK  status: ('A' for Active; 'I' for Inactive)
ROOT
ATOM      1  C   UNL d   1       0.015   3.716  -1.453  0.00  0.00     0.078 C 
ATOM      2  C1  UNL d   1      -0.570   2.888  -0.348  0.00  0.00    -0.077 A 
ATOM      3  C2  UNL d   1      -1.290   3.483   0.696  0.00  0.00    -0.001 A 
ATOM      4  C3  UNL d   1      -1.820   2.701   1.723  0.00  0.00     0.003 A 
ATOM      5  C4  UNL d   1      -1.636   1.320   1.717  0.00  0.00    -0.005 A 
ATOM      6  C5  UNL d   1      -0.920   0.719   0.685  0.00  0.00     0.003 A 
ATOM      7  C6  UNL d   1      -0.388   1.499  -0.343  0.00  0.00    -0.001 A 
ENDROOT
TORSDOF 0
ENDMDL
