MODEL 1
REMARK minimizedAffinity -3.16495872
REMARK minimizedRMSD -1
REMARK  0 active torsions:
REMARK  status: ('A' for Active; 'I' for Inactive)
ROOT
ATOM      1  C   UNL d   1       0.447  -1.235  -0.700  0.00  0.00     0.078 C 
ATOM      2  C1  UNL d   1      -0.208  -0.411   0.368  0.00  0.00    -0.077 A 
ATOM      3  C2  UNL d   1      -0.150   0.988   0.338  0.00  0.00    -0.001 A 
ATOM      4  C3  UNL d   1      -0.756   1.741   1.344  0.00  0.00     0.003 A 
ATOM      5  C4  UNL d   1      -1.422   1.105   2.390  0.00  0.00    -0.005 A 
ATOM      6  C5  UNL d   1      -1.483  -0.286   2.430  0.00  0.00     0.003 A 
ATOM      7  C6  UNL d   1      -0.878  -1.042   1.424  0.00  0.00    -0.001 A 
ENDROOT
TORSDOF 0
ENDMDL
