MODEL 1
REMARK minimizedAffinity -3.55805707
REMARK minimizedRMSD -1
REMARK  0 active torsions:
REMARK  status: ('A' for Active; 'I' for Inactive)
ROOT
ATOM      1  C   UNL d   1      -0.154  -0.309   1.345  0.00  0.00     0.078 C 
ATOM      2  C1  UNL d   1       0.060   1.073   0.802  0.00  0.00    -0.077 A 
ATOM      3  C2  UNL d   1      -0.364   2.201   1.514  0.00  0.00    -0.001 A 
ATOM      4  C3  UNL d   1      -0.167   3.481   0.992  0.00  0.00     0.003 A 
ATOM      5  C4  UNL d   1       0.454   3.644  -0.245  0.00  0.00    -0.005 A 
ATOM      6  C5  UNL d   1       0.877   2.527  -0.962  0.00  0.00     0.003 A 
ATOM      7  C6  UNL d   1       0.681   1.247  -0.441  0.00  0.00    -0.001 A 
ENDROOT
TORSDOF 0
ENDMDL
