MODEL 1
REMARK minimizedAffinity -3.46532845
REMARK minimizedRMSD -1
REMARK  0 active torsions:
REMARK  status: ('A' for Active; 'I' for Inactive)
ROOT
ATOM      1  C   UNL d   1       0.326  -0.552  -0.435  0.00  0.00     0.078 C 
ATOM      2  C1  UNL d   1      -0.042   0.738   0.236  0.00  0.00    -0.077 A 
ATOM      3  C2  UNL d   1       0.317   1.970  -0.324  0.00  0.00    -0.001 A 
ATOM      4  C3  UNL d   1      -0.024   3.163   0.316  0.00  0.00     0.003 A 
ATOM      5  C4  UNL d   1      -0.724   3.135   1.521  0.00  0.00    -0.005 A 
ATOM      6  C5  UNL d   1      -1.083   1.914   2.087  0.00  0.00     0.003 A 
ATOM      7  C6  UNL d   1      -0.743   0.720   1.448  0.00  0.00    -0.001 A 
ENDROOT
TORSDOF 0
ENDMDL
