MODEL 1
REMARK minimizedAffinity -2.5681541
REMARK minimizedRMSD -1
REMARK  0 active torsions:
REMARK  status: ('A' for Active; 'I' for Inactive)
ROOT
ATOM      1  C   UNL d   1       0.464  -0.028   0.021  0.00  0.00     0.078 C 
ATOM      2  C1  UNL d   1       0.478  -1.161  -0.962  0.00  0.00    -0.077 A 
ATOM      3  C2  UNL d   1       0.227  -0.939  -2.321  0.00  0.00    -0.001 A 
ATOM      4  C3  UNL d   1       0.234  -2.004  -3.223  0.00  0.00     0.003 A 
ATOM      5  C4  UNL d   1       0.490  -3.299  -2.776  0.00  0.00    -0.005 A 
ATOM      6  C5  UNL d   1       0.739  -3.529  -1.424  0.00  0.00     0.003 A 
ATOM      7  C6  UNL d   1       0.732  -2.466  -0.521  0.00  0.00    -0.001 A 
ENDROOT
TORSDOF 0
ENDMDL
