MODEL 1
REMARK minimizedAffinity -2.34592438
REMARK minimizedRMSD -1
REMARK  0 active torsions:
REMARK  status: ('A' for Active; 'I' for Inactive)
ROOT
ATOM      1  C   UNL d   1       0.859  -1.677  -0.759  0.00  0.00     0.078 C 
ATOM      2  C1  UNL d   1       0.187  -0.816   0.269  0.00  0.00    -0.077 A 
ATOM      3  C2  UNL d   1      -0.100  -1.309   1.548  0.00  0.00    -0.001 A 
ATOM      4  C3  UNL d   1      -0.734  -0.500   2.491  0.00  0.00     0.003 A 
ATOM      5  C4  UNL d   1      -1.087   0.809   2.166  0.00  0.00    -0.005 A 
ATOM      6  C5  UNL d   1      -0.807   1.308   0.896  0.00  0.00     0.003 A 
ATOM      7  C6  UNL d   1      -0.173   0.500  -0.049  0.00  0.00    -0.001 A 
ENDROOT
TORSDOF 0
ENDMDL
