MODEL 1
REMARK minimizedAffinity -5.29840517
REMARK minimizedRMSD -1
REMARK  0 active torsions:
REMARK  status: ('A' for Active; 'I' for Inactive)
ROOT
ATOM      1  C   UNL d   1       0.396  -0.853  -0.118  0.00  0.00     0.078 C 
ATOM      2  C1  UNL d   1       0.076   0.557   0.277  0.00  0.00    -0.077 A 
ATOM      3  C2  UNL d   1      -0.552   0.840   1.496  0.00  0.00    -0.001 A 
ATOM      4  C3  UNL d   1      -0.853   2.158   1.846  0.00  0.00     0.003 A 
ATOM      5  C4  UNL d   1      -0.531   3.202   0.982  0.00  0.00    -0.005 A 
ATOM      6  C5  UNL d   1       0.092   2.930  -0.234  0.00  0.00     0.003 A 
ATOM      7  C6  UNL d   1       0.394   1.614  -0.586  0.00  0.00    -0.001 A 
ENDROOT
TORSDOF 0
ENDMDL
