MODEL 1
REMARK minimizedAffinity -2.84339428
REMARK minimizedRMSD -1
REMARK  0 active torsions:
REMARK  status: ('A' for Active; 'I' for Inactive)
ROOT
ATOM      1  C   UNL d   1       0.737  -0.767  -0.764  0.00  0.00     0.078 C 
ATOM      2  C1  UNL d   1       0.172   0.340   0.074  0.00  0.00    -0.077 A 
ATOM      3  C2  UNL d   1       0.286   1.677  -0.326  0.00  0.00    -0.001 A 
ATOM      4  C3  UNL d   1      -0.236   2.699   0.469  0.00  0.00     0.003 A 
ATOM      5  C4  UNL d   1      -0.875   2.394   1.669  0.00  0.00    -0.005 A 
ATOM      6  C5  UNL d   1      -0.992   1.067   2.076  0.00  0.00     0.003 A 
ATOM      7  C6  UNL d   1      -0.470   0.044   1.283  0.00  0.00    -0.001 A 
ENDROOT
TORSDOF 0
ENDMDL
