MODEL 1
REMARK minimizedAffinity -2.7088449
REMARK minimizedRMSD -1
REMARK  0 active torsions:
REMARK  status: ('A' for Active; 'I' for Inactive)
ROOT
ATOM      1  C   UNL d   1       0.666  -0.763  -0.813  0.00  0.00     0.078 C 
ATOM      2  C1  UNL d   1      -0.059   0.103   0.174  0.00  0.00    -0.077 A 
ATOM      3  C2  UNL d   1      -0.046   1.499   0.055  0.00  0.00    -0.001 A 
ATOM      4  C3  UNL d   1      -0.717   2.293   0.986  0.00  0.00     0.003 A 
ATOM      5  C4  UNL d   1      -1.406   1.701   2.043  0.00  0.00    -0.005 A 
ATOM      6  C5  UNL d   1      -1.423   0.314   2.170  0.00  0.00     0.003 A 
ATOM      7  C6  UNL d   1      -0.752  -0.482   1.240  0.00  0.00    -0.001 A 
ENDROOT
TORSDOF 0
ENDMDL
