MODEL 1
REMARK minimizedAffinity -3.54060388
REMARK minimizedRMSD -1
REMARK  0 active torsions:
REMARK  status: ('A' for Active; 'I' for Inactive)
ROOT
ATOM      1  C   UNL d   1       1.035  -0.998  -0.627  0.00  0.00     0.078 C 
ATOM      2  C1  UNL d   1       0.425   0.127   0.155  0.00  0.00    -0.077 A 
ATOM      3  C2  UNL d   1       0.581   1.457  -0.255  0.00  0.00    -0.001 A 
ATOM      4  C3  UNL d   1       0.016   2.495   0.487  0.00  0.00     0.003 A 
ATOM      5  C4  UNL d   1      -0.707   2.215   1.645  0.00  0.00    -0.005 A 
ATOM      6  C5  UNL d   1      -0.865   0.895   2.062  0.00  0.00     0.003 A 
ATOM      7  C6  UNL d   1      -0.301  -0.145   1.321  0.00  0.00    -0.001 A 
ENDROOT
TORSDOF 0
ENDMDL
