MODEL 1
REMARK minimizedAffinity -4.82617521
REMARK minimizedRMSD -1
REMARK  0 active torsions:
REMARK  status: ('A' for Active; 'I' for Inactive)
ROOT
ATOM      1  C   UNL d   1      -0.052  -0.287   1.026  0.00  0.00     0.078 C 
ATOM      2  C1  UNL d   1       0.152  -1.222  -0.129  0.00  0.00    -0.077 A 
ATOM      3  C2  UNL d   1      -0.901  -1.534  -0.998  0.00  0.00    -0.001 A 
ATOM      4  C3  UNL d   1      -0.700  -2.413  -2.063  0.00  0.00     0.003 A 
ATOM      5  C4  UNL d   1       0.552  -2.988  -2.269  0.00  0.00    -0.005 A 
ATOM      6  C5  UNL d   1       1.605  -2.685  -1.408  0.00  0.00     0.003 A 
ATOM      7  C6  UNL d   1       1.406  -1.806  -0.343  0.00  0.00    -0.001 A 
ENDROOT
TORSDOF 0
ENDMDL
