MODEL 1
REMARK minimizedAffinity -3.25511551
REMARK minimizedRMSD -1
REMARK  0 active torsions:
REMARK  status: ('A' for Active; 'I' for Inactive)
ROOT
ATOM      1  C   UNL d   1       1.496  -0.226  -0.818  0.00  0.00     0.078 C 
ATOM      2  C1  UNL d   1       0.876  -1.492  -1.330  0.00  0.00    -0.077 A 
ATOM      3  C2  UNL d   1       0.934  -2.676  -0.583  0.00  0.00    -0.001 A 
ATOM      4  C3  UNL d   1       0.361  -3.850  -1.076  0.00  0.00     0.003 A 
ATOM      5  C4  UNL d   1      -0.272  -3.852  -2.317  0.00  0.00    -0.005 A 
ATOM      6  C5  UNL d   1      -0.332  -2.679  -3.068  0.00  0.00     0.003 A 
ATOM      7  C6  UNL d   1       0.240  -1.505  -2.577  0.00  0.00    -0.001 A 
ENDROOT
TORSDOF 0
ENDMDL
