MODEL 1
REMARK minimizedAffinity -3.40257144
REMARK minimizedRMSD -1
REMARK  0 active torsions:
REMARK  status: ('A' for Active; 'I' for Inactive)
ROOT
ATOM      1  C   UNL d   1       0.374  -0.063   0.326  0.00  0.00     0.078 C 
ATOM      2  C1  UNL d   1       0.429  -1.183  -0.670  0.00  0.00    -0.077 A 
ATOM      3  C2  UNL d   1      -0.619  -1.397  -1.574  0.00  0.00    -0.001 A 
ATOM      4  C3  UNL d   1      -0.558  -2.449  -2.489  0.00  0.00     0.003 A 
ATOM      5  C4  UNL d   1       0.547  -3.297  -2.508  0.00  0.00    -0.005 A 
ATOM      6  C5  UNL d   1       1.594  -3.093  -1.611  0.00  0.00     0.003 A 
ATOM      7  C6  UNL d   1       1.535  -2.042  -0.695  0.00  0.00    -0.001 A 
ENDROOT
TORSDOF 0
ENDMDL
