MODEL 1
REMARK minimizedAffinity -2.22900248
REMARK minimizedRMSD -1
REMARK  0 active torsions:
REMARK  status: ('A' for Active; 'I' for Inactive)
ROOT
ATOM      1  C   UNL d   1       0.389  -0.561  -0.119  0.00  0.00     0.078 C 
ATOM      2  C1  UNL d   1      -0.029   0.820   0.292  0.00  0.00    -0.077 A 
ATOM      3  C2  UNL d   1       0.273   1.931  -0.504  0.00  0.00    -0.001 A 
ATOM      4  C3  UNL d   1      -0.114   3.211  -0.105  0.00  0.00     0.003 A 
ATOM      5  C4  UNL d   1      -0.804   3.392   1.092  0.00  0.00    -0.005 A 
ATOM      6  C5  UNL d   1      -1.107   2.292   1.892  0.00  0.00     0.003 A 
ATOM      7  C6  UNL d   1      -0.721   1.011   1.494  0.00  0.00    -0.001 A 
ENDROOT
TORSDOF 0
ENDMDL
