MODEL 1
REMARK minimizedAffinity -2.0575273
REMARK minimizedRMSD -1
REMARK  1 active torsions:
REMARK  status: ('A' for Active; 'I' for Inactive)
REMARK    1  A    between atoms: C1_2  and  C2_3 
ROOT
ATOM      1  C2  UNL d   1      -5.882   3.099  -3.815  0.00  0.00    -0.077 A 
ATOM      2  C3  UNL d   1      -5.708   4.358  -3.223  0.00  0.00     0.002 A 
ATOM      3  C4  UNL d   1      -5.650   5.508  -4.012  0.00  0.00     0.002 A 
ATOM      4  C5  UNL d   1      -5.770   5.412  -5.396  0.00  0.00    -0.004 A 
ATOM      5  C6  UNL d   1      -5.941   4.165  -5.996  0.00  0.00     0.002 A 
ATOM      6  C7  UNL d   1      -5.997   3.014  -5.209  0.00  0.00     0.002 A 
ENDROOT
BRANCH   1   7
ATOM      7  C1  UNL d   1      -5.994   1.863  -2.962  0.00  0.00     0.055 C 
ATOM      8  C   UNL d   1      -5.869   2.197  -1.483  0.00  0.00     0.019 C 
ENDBRANCH   1   7
TORSDOF 1
ENDMDL
