MODEL 1
REMARK minimizedAffinity -4.65226126
REMARK minimizedRMSD -1
REMARK  1 active torsions:
REMARK  status: ('A' for Active; 'I' for Inactive)
REMARK    1  A    between atoms: C1_2  and  C2_3 
ROOT
ATOM      1  C2  UNL d   1      -4.676   3.412  -2.994  0.00  0.00    -0.077 A 
ATOM      2  C3  UNL d   1      -4.306   3.060  -4.300  0.00  0.00     0.002 A 
ATOM      3  C4  UNL d   1      -4.776   3.795  -5.390  0.00  0.00     0.002 A 
ATOM      4  C5  UNL d   1      -5.615   4.889  -5.186  0.00  0.00    -0.004 A 
ATOM      5  C6  UNL d   1      -5.990   5.246  -3.891  0.00  0.00     0.002 A 
ATOM      6  C7  UNL d   1      -5.522   4.512  -2.801  0.00  0.00     0.002 A 
ENDROOT
BRANCH   1   7
ATOM      7  C1  UNL d   1      -4.131   2.651  -1.814  0.00  0.00     0.055 C 
ATOM      8  C   UNL d   1      -5.245   2.211  -0.877  0.00  0.00     0.019 C 
ENDBRANCH   1   7
TORSDOF 1
ENDMDL
