MODEL 1
REMARK minimizedAffinity -3.88478184
REMARK minimizedRMSD -1
REMARK  1 active torsions:
REMARK  status: ('A' for Active; 'I' for Inactive)
REMARK    1  A    between atoms: C1_2  and  C2_3 
ROOT
ATOM      1  C2  UNL d   1      -5.519   4.376  -3.691  0.00  0.00    -0.077 A 
ATOM      2  C3  UNL d   1      -4.619   4.548  -2.630  0.00  0.00     0.002 A 
ATOM      3  C4  UNL d   1      -4.179   3.448  -1.892  0.00  0.00     0.002 A 
ATOM      4  C5  UNL d   1      -4.630   2.168  -2.209  0.00  0.00    -0.004 A 
ATOM      5  C6  UNL d   1      -5.527   1.987  -3.260  0.00  0.00     0.002 A 
ATOM      6  C7  UNL d   1      -5.969   3.086  -3.999  0.00  0.00     0.002 A 
ENDROOT
BRANCH   1   7
ATOM      7  C1  UNL d   1      -5.956   5.555  -4.519  0.00  0.00     0.055 C 
ATOM      8  C   UNL d   1      -5.998   5.207  -6.000  0.00  0.00     0.019 C 
ENDBRANCH   1   7
TORSDOF 1
ENDMDL
