MODEL 1
REMARK minimizedAffinity 8.08456612
REMARK minimizedRMSD -1
REMARK  1 active torsions:
REMARK  status: ('A' for Active; 'I' for Inactive)
REMARK    1  A    between atoms: C1_2  and  C2_3 
ROOT
ATOM      1  C2  UNL d   1      -0.970   3.556   0.913  0.00  0.00    -0.077 A 
ATOM      2  C3  UNL d   1      -0.612   4.400  -0.148  0.00  0.00     0.002 A 
ATOM      3  C4  UNL d   1      -1.279   5.611  -0.343  0.00  0.00     0.002 A 
ATOM      4  C5  UNL d   1      -2.304   5.990   0.521  0.00  0.00    -0.004 A 
ATOM      5  C6  UNL d   1      -2.669   5.157   1.578  0.00  0.00     0.002 A 
ATOM      6  C7  UNL d   1      -2.004   3.946   1.773  0.00  0.00     0.002 A 
ENDROOT
BRANCH   1   7
ATOM      7  C1  UNL d   1      -0.219   2.272   1.154  0.00  0.00     0.055 C 
ATOM      8  C   UNL d   1       0.079   1.552  -0.153  0.00  0.00     0.019 C 
ENDBRANCH   1   7
TORSDOF 1
ENDMDL
