MODEL 1
REMARK minimizedAffinity -4.96460676
REMARK minimizedRMSD -1
REMARK  1 active torsions:
REMARK  status: ('A' for Active; 'I' for Inactive)
REMARK    1  A    between atoms: C1_2  and  C2_3 
ROOT
ATOM      1  C2  UNL d   1      -5.181   2.256  -4.511  0.00  0.00    -0.077 A 
ATOM      2  C3  UNL d   1      -5.994   1.153  -4.806  0.00  0.00     0.002 A 
ATOM      3  C4  UNL d   1      -5.470   0.052  -5.487  0.00  0.00     0.002 A 
ATOM      4  C5  UNL d   1      -4.132   0.042  -5.874  0.00  0.00    -0.004 A 
ATOM      5  C6  UNL d   1      -3.316   1.136  -5.587  0.00  0.00     0.002 A 
ATOM      6  C7  UNL d   1      -3.838   2.238  -4.908  0.00  0.00     0.002 A 
ENDROOT
BRANCH   1   7
ATOM      7  C1  UNL d   1      -5.731   3.424  -3.733  0.00  0.00     0.055 C 
ATOM      8  C   UNL d   1      -5.971   3.055  -2.277  0.00  0.00     0.019 C 
ENDBRANCH   1   7
TORSDOF 1
ENDMDL
