MODEL 1
REMARK minimizedAffinity -0.821742892
REMARK minimizedRMSD -1
REMARK  1 active torsions:
REMARK  status: ('A' for Active; 'I' for Inactive)
REMARK    1  A    between atoms: C1_2  and  C2_3 
ROOT
ATOM      1  C2  UNL d   1      -4.203  -3.581  -1.177  0.00  0.00    -0.073 A 
ATOM      2  C3  UNL d   1      -2.995  -4.245  -1.414  0.00  0.00    -0.002 A 
ATOM      3  C4  UNL d   1      -2.712  -5.447  -0.764  0.00  0.00     0.004 A 
ATOM      4  C5  UNL d   1      -3.635  -6.000   0.123  0.00  0.00    -0.004 A 
ATOM      5  C6  UNL d   1      -4.854  -5.357   0.364  0.00  0.00    -0.075 A 
ATOM      6  C7  UNL d   1      -5.857  -5.938   1.317  0.00  0.00     0.076 C 
ATOM      7  C8  UNL d   1      -5.130  -4.149  -0.291  0.00  0.00     0.001 A 
ENDROOT
BRANCH   1   8
ATOM      8  C1  UNL d   1      -4.516  -2.286  -1.882  0.00  0.00     0.053 C 
ATOM      9  C   UNL d   1      -3.776  -2.163  -3.204  0.00  0.00     0.018 C 
ENDBRANCH   1   8
TORSDOF 1
ENDMDL
