MODEL 1
REMARK minimizedAffinity 11.0028172
REMARK minimizedRMSD -1
REMARK  1 active torsions:
REMARK  status: ('A' for Active; 'I' for Inactive)
REMARK    1  A    between atoms: C1_2  and  C2_3 
ROOT
ATOM      1  C2  UNL d   1       0.073   1.268   1.593  0.00  0.00    -0.073 A 
ATOM      2  C3  UNL d   1       0.295   2.268   0.639  0.00  0.00    -0.002 A 
ATOM      3  C4  UNL d   1      -0.643   3.285   0.453  0.00  0.00     0.004 A 
ATOM      4  C5  UNL d   1      -1.807   3.316   1.220  0.00  0.00    -0.004 A 
ATOM      5  C6  UNL d   1      -2.041   2.332   2.186  0.00  0.00    -0.075 A 
ATOM      6  C7  UNL d   1      -3.289   2.350   3.019  0.00  0.00     0.076 C 
ATOM      7  C8  UNL d   1      -1.096   1.313   2.366  0.00  0.00     0.001 A 
ENDROOT
BRANCH   1   8
ATOM      8  C1  UNL d   1       1.085   0.172   1.802  0.00  0.00     0.053 C 
ATOM      9  C   UNL d   1       0.625  -0.839   2.841  0.00  0.00     0.018 C 
ENDBRANCH   1   8
TORSDOF 1
ENDMDL
