MODEL 1
REMARK minimizedAffinity -1.36443353
REMARK minimizedRMSD -1
REMARK  1 active torsions:
REMARK  status: ('A' for Active; 'I' for Inactive)
REMARK    1  A    between atoms: C1_2  and  C2_3 
ROOT
ATOM      1  C2  UNL d   1      -2.303   1.279   1.991  0.00  0.00    -0.073 A 
ATOM      2  C3  UNL d   1      -2.596  -0.061   1.710  0.00  0.00    -0.002 A 
ATOM      3  C4  UNL d   1      -1.632  -0.886   1.130  0.00  0.00     0.004 A 
ATOM      4  C5  UNL d   1      -0.365  -0.383   0.831  0.00  0.00    -0.004 A 
ATOM      5  C6  UNL d   1      -0.050   0.949   1.114  0.00  0.00    -0.075 A 
ATOM      6  C7  UNL d   1       1.307   1.506   0.797  0.00  0.00     0.076 C 
ATOM      7  C8  UNL d   1      -1.025   1.773   1.695  0.00  0.00     0.001 A 
ENDROOT
BRANCH   1   8
ATOM      8  C1  UNL d   1      -3.339   2.172   2.624  0.00  0.00     0.053 C 
ATOM      9  C   UNL d   1      -4.381   1.379   3.395  0.00  0.00     0.018 C 
ENDBRANCH   1   8
TORSDOF 1
ENDMDL
