MODEL 1
REMARK minimizedAffinity 2.10563302
REMARK minimizedRMSD -1
REMARK  1 active torsions:
REMARK  status: ('A' for Active; 'I' for Inactive)
REMARK    1  A    between atoms: C1_2  and  C2_3 
ROOT
ATOM      1  C2  UNL d   1      -2.260   0.349   2.003  0.00  0.00    -0.073 A 
ATOM      2  C3  UNL d   1      -2.124   1.590   1.372  0.00  0.00    -0.002 A 
ATOM      3  C4  UNL d   1      -0.915   1.950   0.775  0.00  0.00     0.004 A 
ATOM      4  C5  UNL d   1       0.167   1.070   0.797  0.00  0.00    -0.004 A 
ATOM      5  C6  UNL d   1       0.048  -0.180   1.413  0.00  0.00    -0.075 A 
ATOM      6  C7  UNL d   1       1.204  -1.136   1.447  0.00  0.00     0.076 C 
ATOM      7  C8  UNL d   1      -1.169  -0.532   2.012  0.00  0.00     0.001 A 
ENDROOT
BRANCH   1   8
ATOM      8  C1  UNL d   1      -3.565  -0.047   2.643  0.00  0.00     0.053 C 
ATOM      9  C   UNL d   1      -3.366  -1.036   3.781  0.00  0.00     0.018 C 
ENDBRANCH   1   8
TORSDOF 1
ENDMDL
