MODEL 1
REMARK minimizedAffinity 4.71537733
REMARK minimizedRMSD -1
REMARK  1 active torsions:
REMARK  status: ('A' for Active; 'I' for Inactive)
REMARK    1  A    between atoms: C1_2  and  C2_3 
ROOT
ATOM      1  C2  UNL d   1      -1.877  -0.157   1.007  0.00  0.00    -0.073 A 
ATOM      2  C3  UNL d   1      -2.162   1.186   1.278  0.00  0.00    -0.002 A 
ATOM      3  C4  UNL d   1      -1.127   2.101   1.474  0.00  0.00     0.004 A 
ATOM      4  C5  UNL d   1       0.202   1.685   1.394  0.00  0.00    -0.004 A 
ATOM      5  C6  UNL d   1       0.508   0.350   1.112  0.00  0.00    -0.075 A 
ATOM      6  C7  UNL d   1       1.932  -0.114   1.024  0.00  0.00     0.076 C 
ATOM      7  C8  UNL d   1      -0.537  -0.564   0.919  0.00  0.00     0.001 A 
ENDROOT
BRANCH   1   8
ATOM      8  C1  UNL d   1      -2.991  -1.148   0.789  0.00  0.00     0.053 C 
ATOM      9  C   UNL d   1      -3.206  -1.448  -0.686  0.00  0.00     0.018 C 
ENDBRANCH   1   8
TORSDOF 1
ENDMDL
