MODEL 1
REMARK minimizedAffinity 6.02888346
REMARK minimizedRMSD -1
REMARK  1 active torsions:
REMARK  status: ('A' for Active; 'I' for Inactive)
REMARK    1  A    between atoms: C1_2  and  C2_3 
ROOT
ATOM      1  C2  UNL d   1      -1.117   1.801   1.897  0.00  0.00    -0.073 A 
ATOM      2  C3  UNL d   1      -0.024   2.159   1.099  0.00  0.00    -0.002 A 
ATOM      3  C4  UNL d   1       1.079   1.312   0.991  0.00  0.00     0.004 A 
ATOM      4  C5  UNL d   1       1.099   0.095   1.674  0.00  0.00    -0.004 A 
ATOM      5  C6  UNL d   1       0.012  -0.287   2.467  0.00  0.00    -0.075 A 
ATOM      6  C7  UNL d   1       0.018  -1.591   3.209  0.00  0.00     0.076 C 
ATOM      7  C8  UNL d   1      -1.091   0.571   2.572  0.00  0.00     0.001 A 
ENDROOT
BRANCH   1   8
ATOM      8  C1  UNL d   1      -2.313   2.710   2.011  0.00  0.00     0.053 C 
ATOM      9  C   UNL d   1      -3.224   2.311   3.161  0.00  0.00     0.018 C 
ENDBRANCH   1   8
TORSDOF 1
ENDMDL
