MODEL 1
REMARK minimizedAffinity 1.22941232
REMARK minimizedRMSD -1
REMARK  1 active torsions:
REMARK  status: ('A' for Active; 'I' for Inactive)
REMARK    1  A    between atoms: C1_2  and  C2_3 
ROOT
ATOM      1  C2  UNL d   1      -3.779  -3.667  -1.572  0.00  0.00    -0.073 A 
ATOM      2  C3  UNL d   1      -3.316  -3.926  -2.867  0.00  0.00    -0.002 A 
ATOM      3  C4  UNL d   1      -3.282  -2.907  -3.820  0.00  0.00     0.004 A 
ATOM      4  C5  UNL d   1      -3.702  -1.619  -3.487  0.00  0.00    -0.004 A 
ATOM      5  C6  UNL d   1      -4.157  -1.338  -2.195  0.00  0.00    -0.075 A 
ATOM      6  C7  UNL d   1      -4.615   0.041  -1.821  0.00  0.00     0.076 C 
ATOM      7  C8  UNL d   1      -4.191  -2.368  -1.244  0.00  0.00     0.001 A 
ENDROOT
BRANCH   1   8
ATOM      8  C1  UNL d   1      -3.812  -4.763  -0.538  0.00  0.00     0.053 C 
ATOM      9  C   UNL d   1      -3.043  -5.995  -0.988  0.00  0.00     0.018 C 
ENDBRANCH   1   8
TORSDOF 1
ENDMDL
