MODEL 1
REMARK minimizedAffinity 3.17069125
REMARK minimizedRMSD -1
REMARK  1 active torsions:
REMARK  status: ('A' for Active; 'I' for Inactive)
REMARK    1  A    between atoms: C1_2  and  C2_3 
ROOT
ATOM      1  C2  UNL d   1      -1.630   0.133   1.435  0.00  0.00    -0.073 A 
ATOM      2  C3  UNL d   1      -1.580   1.493   1.758  0.00  0.00    -0.002 A 
ATOM      3  C4  UNL d   1      -0.376   2.193   1.677  0.00  0.00     0.004 A 
ATOM      4  C5  UNL d   1       0.788   1.543   1.266  0.00  0.00    -0.004 A 
ATOM      5  C6  UNL d   1       0.756   0.187   0.927  0.00  0.00    -0.075 A 
ATOM      6  C7  UNL d   1       1.999  -0.527   0.484  0.00  0.00     0.076 C 
ATOM      7  C8  UNL d   1      -0.457  -0.510   1.013  0.00  0.00     0.001 A 
ENDROOT
BRANCH   1   8
ATOM      8  C1  UNL d   1      -2.930  -0.626   1.514  0.00  0.00     0.053 C 
ATOM      9  C   UNL d   1      -3.713  -0.284   2.772  0.00  0.00     0.018 C 
ENDBRANCH   1   8
TORSDOF 1
ENDMDL
