MODEL 1
REMARK minimizedAffinity -1.24555826
REMARK minimizedRMSD -1
REMARK  1 active torsions:
REMARK  status: ('A' for Active; 'I' for Inactive)
REMARK    1  A    between atoms: C1_2  and  C2_3 
ROOT
ATOM      1  C2  UNL d   1       0.795   0.829   0.844  0.00  0.00    -0.073 A 
ATOM      2  C3  UNL d   1       0.544   2.197   0.996  0.00  0.00    -0.002 A 
ATOM      3  C4  UNL d   1      -0.685   2.638   1.487  0.00  0.00     0.004 A 
ATOM      4  C5  UNL d   1      -1.672   1.718   1.837  0.00  0.00    -0.004 A 
ATOM      5  C6  UNL d   1      -1.437   0.345   1.704  0.00  0.00    -0.075 A 
ATOM      6  C7  UNL d   1      -2.489  -0.658   2.074  0.00  0.00     0.076 C 
ATOM      7  C8  UNL d   1      -0.200  -0.090   1.208  0.00  0.00     0.001 A 
ENDROOT
BRANCH   1   8
ATOM      8  C1  UNL d   1       2.123   0.347   0.320  0.00  0.00     0.053 C 
ATOM      9  C   UNL d   1       2.495   1.018  -0.993  0.00  0.00     0.018 C 
ENDBRANCH   1   8
TORSDOF 1
ENDMDL
