MODEL 1
REMARK minimizedAffinity -2.67507315
REMARK minimizedRMSD -1
REMARK  1 active torsions:
REMARK  status: ('A' for Active; 'I' for Inactive)
REMARK    1  A    between atoms: C1_2  and  C2_3 
ROOT
ATOM      1  C2  UNL d   1      -0.196   0.912   1.308  0.00  0.00    -0.073 A 
ATOM      2  C3  UNL d   1       0.497   0.684   2.502  0.00  0.00    -0.002 A 
ATOM      3  C4  UNL d   1       1.881   0.508   2.492  0.00  0.00     0.004 A 
ATOM      4  C5  UNL d   1       2.587   0.564   1.290  0.00  0.00    -0.004 A 
ATOM      5  C6  UNL d   1       1.914   0.802   0.087  0.00  0.00    -0.075 A 
ATOM      6  C7  UNL d   1       2.658   0.863  -1.214  0.00  0.00     0.076 C 
ATOM      7  C8  UNL d   1       0.523   0.975   0.106  0.00  0.00     0.001 A 
ENDROOT
BRANCH   1   8
ATOM      8  C1  UNL d   1      -1.690   1.109   1.315  0.00  0.00     0.053 C 
ATOM      9  C   UNL d   1      -2.113   2.222   2.261  0.00  0.00     0.018 C 
ENDBRANCH   1   8
TORSDOF 1
ENDMDL
