MODEL 1
REMARK minimizedAffinity 12.2857895
REMARK minimizedRMSD -1
REMARK  0 active torsions:
REMARK  status: ('A' for Active; 'I' for Inactive)
ROOT
ATOM      1  C   UNL d   1       4.238   5.569   0.580  0.00  0.00    -0.002 A 
ATOM      2  C1  UNL d   1       5.411   4.835   0.686  0.00  0.00     0.010 A 
ATOM      3  C2  UNL d   1       5.935   4.509   1.938  0.00  0.00     0.041 A 
ATOM      4  C3  UNL d   1       5.253   4.937   3.094  0.00  0.00    -0.075 A 
ATOM      5  S   UNL d   1       5.708   4.654   4.733  0.00  0.00     0.015 SA
ATOM      6  C4  UNL d   1       4.356   5.501   5.332  0.00  0.00     0.022 A 
ATOM      7  C5  UNL d   1       3.566   5.995   4.321  0.00  0.00     0.026 A 
ATOM      8  C6  UNL d   1       4.070   5.677   3.014  0.00  0.00    -0.082 A 
ATOM      9  C7  UNL d   1       3.565   5.992   1.730  0.00  0.00     0.045 A 
ENDROOT
TORSDOF 0
ENDMDL
