MODEL 1
REMARK minimizedAffinity 10.737855
REMARK minimizedRMSD -1
REMARK  0 active torsions:
REMARK  status: ('A' for Active; 'I' for Inactive)
ROOT
ATOM      1  C   UNL d   1       1.057   1.152  -3.139  0.00  0.00    -0.002 A 
ATOM      2  C1  UNL d   1       2.215   1.662  -2.571  0.00  0.00     0.010 A 
ATOM      3  C2  UNL d   1       2.992   0.878  -1.716  0.00  0.00     0.041 A 
ATOM      4  C3  UNL d   1       2.581  -0.441  -1.440  0.00  0.00    -0.075 A 
ATOM      5  S   UNL d   1       3.374  -1.586  -0.424  0.00  0.00     0.015 SA
ATOM      6  C4  UNL d   1       2.194  -2.779  -0.721  0.00  0.00     0.022 A 
ATOM      7  C5  UNL d   1       1.211  -2.332  -1.572  0.00  0.00     0.026 A 
ATOM      8  C6  UNL d   1       1.419  -0.978  -2.001  0.00  0.00    -0.082 A 
ATOM      9  C7  UNL d   1       0.653  -0.157  -2.864  0.00  0.00     0.045 A 
ENDROOT
TORSDOF 0
ENDMDL
