MODEL 1
REMARK minimizedAffinity 15.8038425
REMARK minimizedRMSD -1
REMARK  0 active torsions:
REMARK  status: ('A' for Active; 'I' for Inactive)
ROOT
ATOM      1  C   UNL d   1      -2.081  -0.087  -0.345  0.00  0.00    -0.002 A 
ATOM      2  C1  UNL d   1      -2.807  -1.123   0.225  0.00  0.00     0.010 A 
ATOM      3  C2  UNL d   1      -3.040  -1.155   1.601  0.00  0.00     0.041 A 
ATOM      4  C3  UNL d   1      -2.529  -0.115   2.403  0.00  0.00    -0.075 A 
ATOM      5  S   UNL d   1      -2.691   0.056   4.111  0.00  0.00     0.015 SA
ATOM      6  C4  UNL d   1      -1.801   1.510   4.125  0.00  0.00     0.022 A 
ATOM      7  C5  UNL d   1      -1.383   1.870   2.866  0.00  0.00     0.026 A 
ATOM      8  C6  UNL d   1      -1.795   0.940   1.853  0.00  0.00    -0.082 A 
ATOM      9  C7  UNL d   1      -1.575   0.942   0.454  0.00  0.00     0.045 A 
ENDROOT
TORSDOF 0
ENDMDL
