MODEL 1
REMARK minimizedAffinity 10.7171917
REMARK minimizedRMSD -1
REMARK  0 active torsions:
REMARK  status: ('A' for Active; 'I' for Inactive)
ROOT
ATOM      1  C   UNL d   1      -2.102   1.132   2.414  0.00  0.00    -0.002 A 
ATOM      2  C1  UNL d   1      -1.374   1.908   3.305  0.00  0.00     0.010 A 
ATOM      3  C2  UNL d   1      -1.690   3.254   3.497  0.00  0.00     0.041 A 
ATOM      4  C3  UNL d   1      -2.762   3.812   2.774  0.00  0.00    -0.075 A 
ATOM      5  S   UNL d   1      -3.331   5.438   2.847  0.00  0.00     0.015 SA
ATOM      6  C4  UNL d   1      -4.555   5.141   1.699  0.00  0.00     0.022 A 
ATOM      7  C5  UNL d   1      -4.544   3.839   1.259  0.00  0.00     0.026 A 
ATOM      8  C6  UNL d   1      -3.511   3.051   1.872  0.00  0.00    -0.082 A 
ATOM      9  C7  UNL d   1      -3.165   1.689   1.698  0.00  0.00     0.045 A 
ENDROOT
TORSDOF 0
ENDMDL
