MODEL 1
REMARK minimizedAffinity 15.4373007
REMARK minimizedRMSD -1
REMARK  0 active torsions:
REMARK  status: ('A' for Active; 'I' for Inactive)
ROOT
ATOM      1  C   UNL d   1      -2.088  -0.434   2.755  0.00  0.00    -0.002 A 
ATOM      2  C1  UNL d   1      -2.844  -0.709   3.886  0.00  0.00     0.010 A 
ATOM      3  C2  UNL d   1      -3.002   0.254   4.886  0.00  0.00     0.041 A 
ATOM      4  C3  UNL d   1      -2.383   1.509   4.727  0.00  0.00    -0.075 A 
ATOM      5  S   UNL d   1      -2.440   2.842   5.820  0.00  0.00     0.015 SA
ATOM      6  C4  UNL d   1      -1.463   3.807   4.810  0.00  0.00     0.022 A 
ATOM      7  C5  UNL d   1      -1.094   3.145   3.664  0.00  0.00     0.026 A 
ATOM      8  C6  UNL d   1      -1.619   1.810   3.596  0.00  0.00    -0.082 A 
ATOM      9  C7  UNL d   1      -1.476   0.813   2.601  0.00  0.00     0.045 A 
ENDROOT
TORSDOF 0
ENDMDL
