MODEL 1
REMARK minimizedAffinity 5.02161741
REMARK minimizedRMSD -1
REMARK  0 active torsions:
REMARK  status: ('A' for Active; 'I' for Inactive)
ROOT
ATOM      1  C   UNL d   1      -2.899   1.632   1.538  0.00  0.00    -0.002 A 
ATOM      2  C1  UNL d   1      -1.957   1.249   2.483  0.00  0.00     0.010 A 
ATOM      3  C2  UNL d   1      -2.349   0.592   3.650  0.00  0.00     0.041 A 
ATOM      4  C3  UNL d   1      -3.717   0.321   3.853  0.00  0.00    -0.075 A 
ATOM      5  S   UNL d   1      -4.429  -0.474   5.207  0.00  0.00     0.015 SA
ATOM      6  C4  UNL d   1      -6.000  -0.325   4.563  0.00  0.00     0.022 A 
ATOM      7  C5  UNL d   1      -6.000   0.313   3.345  0.00  0.00     0.026 A 
ATOM      8  C6  UNL d   1      -4.684   0.696   2.916  0.00  0.00    -0.082 A 
ATOM      9  C7  UNL d   1      -4.254   1.362   1.743  0.00  0.00     0.045 A 
ENDROOT
TORSDOF 0
ENDMDL
