MODEL 1
REMARK minimizedAffinity 8.01144409
REMARK minimizedRMSD -1
REMARK  0 active torsions:
REMARK  status: ('A' for Active; 'I' for Inactive)
ROOT
ATOM      1  C   UNL d   1       4.167   5.669   4.514  0.00  0.00    -0.002 A 
ATOM      2  C1  UNL d   1       5.460   5.188   4.366  0.00  0.00     0.010 A 
ATOM      3  C2  UNL d   1       5.994   4.968   3.095  0.00  0.00     0.041 A 
ATOM      4  C3  UNL d   1       5.200   5.242   1.965  0.00  0.00    -0.075 A 
ATOM      5  S   UNL d   1       5.644   5.049   0.310  0.00  0.00     0.015 SA
ATOM      6  C4  UNL d   1       4.128   5.601  -0.239  0.00  0.00     0.022 A 
ATOM      7  C5  UNL d   1       3.291   5.929   0.801  0.00  0.00     0.026 A 
ATOM      8  C6  UNL d   1       3.895   5.728   2.089  0.00  0.00    -0.082 A 
ATOM      9  C7  UNL d   1       3.382   5.941   3.391  0.00  0.00     0.045 A 
ENDROOT
TORSDOF 0
ENDMDL
