MODEL 1
REMARK minimizedAffinity 12.4715538
REMARK minimizedRMSD -1
REMARK  0 active torsions:
REMARK  status: ('A' for Active; 'I' for Inactive)
ROOT
ATOM      1  C   UNL d   1      -1.574   1.781   3.430  0.00  0.00    -0.002 A 
ATOM      2  C1  UNL d   1      -2.480   0.732   3.514  0.00  0.00     0.010 A 
ATOM      3  C2  UNL d   1      -2.735  -0.077   2.405  0.00  0.00     0.041 A 
ATOM      4  C3  UNL d   1      -2.057   0.188   1.198  0.00  0.00    -0.075 A 
ATOM      5  S   UNL d   1      -2.210  -0.671  -0.289  0.00  0.00     0.015 SA
ATOM      6  C4  UNL d   1      -1.076   0.333  -1.071  0.00  0.00     0.022 A 
ATOM      7  C5  UNL d   1      -0.583   1.305  -0.233  0.00  0.00     0.026 A 
ATOM      8  C6  UNL d   1      -1.140   1.237   1.089  0.00  0.00    -0.082 A 
ATOM      9  C7  UNL d   1      -0.904   2.039   2.231  0.00  0.00     0.045 A 
ENDROOT
TORSDOF 0
ENDMDL
