MODEL 1
REMARK minimizedAffinity 2.27301383
REMARK minimizedRMSD -1
REMARK  0 active torsions:
REMARK  status: ('A' for Active; 'I' for Inactive)
ROOT
ATOM      1  C   UNL d   1       5.280   5.895   5.583  0.00  0.00    -0.002 A 
ATOM      2  C1  UNL d   1       3.893   5.915   5.567  0.00  0.00     0.010 A 
ATOM      3  C2  UNL d   1       3.197   5.932   4.357  0.00  0.00     0.041 A 
ATOM      4  C3  UNL d   1       3.926   5.927   3.151  0.00  0.00    -0.075 A 
ATOM      5  S   UNL d   1       3.287   5.943   1.550  0.00  0.00     0.015 SA
ATOM      6  C4  UNL d   1       4.840   5.923   0.850  0.00  0.00     0.022 A 
ATOM      7  C5  UNL d   1       5.834   5.904   1.800  0.00  0.00     0.026 A 
ATOM      8  C6  UNL d   1       5.323   5.905   3.142  0.00  0.00    -0.082 A 
ATOM      9  C7  UNL d   1       6.000   5.890   4.385  0.00  0.00     0.045 A 
ENDROOT
TORSDOF 0
ENDMDL
