MODEL 1
REMARK minimizedAffinity 2.22648335
REMARK minimizedRMSD -1
REMARK  0 active torsions:
REMARK  status: ('A' for Active; 'I' for Inactive)
ROOT
ATOM      1  C   UNL d   1       4.565   5.380   0.324  0.00  0.00    -0.002 A 
ATOM      2  C1  UNL d   1       5.488   4.345   0.374  0.00  0.00     0.010 A 
ATOM      3  C2  UNL d   1       5.981   3.892   1.600  0.00  0.00     0.041 A 
ATOM      4  C3  UNL d   1       5.525   4.502   2.785  0.00  0.00    -0.075 A 
ATOM      5  S   UNL d   1       5.988   4.112   4.399  0.00  0.00     0.015 SA
ATOM      6  C4  UNL d   1       4.971   5.309   5.060  0.00  0.00     0.022 A 
ATOM      7  C5  UNL d   1       4.287   5.999   4.087  0.00  0.00     0.026 A 
ATOM      8  C6  UNL d   1       4.595   5.545   2.760  0.00  0.00    -0.082 A 
ATOM      9  C7  UNL d   1       4.114   5.982   1.502  0.00  0.00     0.045 A 
ENDROOT
TORSDOF 0
ENDMDL
