MODEL 1
REMARK minimizedAffinity 4.30516863
REMARK minimizedRMSD -1
REMARK  0 active torsions:
REMARK  status: ('A' for Active; 'I' for Inactive)
ROOT
ATOM      1  C   UNL d   1       3.576   5.930   0.492  0.00  0.00    -0.002 A 
ATOM      2  C1  UNL d   1       4.958   5.954   0.359  0.00  0.00     0.010 A 
ATOM      3  C2  UNL d   1       5.780   5.969   1.487  0.00  0.00     0.041 A 
ATOM      4  C3  UNL d   1       5.185   5.958   2.764  0.00  0.00    -0.075 A 
ATOM      5  S   UNL d   1       5.993   5.972   4.287  0.00  0.00     0.015 SA
ATOM      6  C4  UNL d   1       4.524   5.945   5.151  0.00  0.00     0.022 A 
ATOM      7  C5  UNL d   1       3.434   5.926   4.313  0.00  0.00     0.026 A 
ATOM      8  C6  UNL d   1       3.797   5.932   2.924  0.00  0.00    -0.082 A 
ATOM      9  C7  UNL d   1       2.990   5.918   1.760  0.00  0.00     0.045 A 
ENDROOT
TORSDOF 0
ENDMDL
