MODEL 1
REMARK minimizedAffinity 1.47955441
REMARK minimizedRMSD -1
REMARK  0 active torsions:
REMARK  status: ('A' for Active; 'I' for Inactive)
ROOT
ATOM      1  C   UNL d   1       5.456   4.345   0.522  0.00  0.00    -0.002 A 
ATOM      2  C1  UNL d   1       4.587   5.427   0.557  0.00  0.00     0.010 A 
ATOM      3  C2  UNL d   1       4.213   5.999   1.775  0.00  0.00     0.041 A 
ATOM      4  C3  UNL d   1       4.733   5.462   2.968  0.00  0.00    -0.075 A 
ATOM      5  S   UNL d   1       4.416   5.999   4.575  0.00  0.00     0.015 SA
ATOM      6  C4  UNL d   1       5.427   4.806   5.254  0.00  0.00     0.022 A 
ATOM      7  C5  UNL d   1       6.000   4.008   4.292  0.00  0.00     0.026 A 
ATOM      8  C6  UNL d   1       5.610   4.373   2.959  0.00  0.00    -0.082 A 
ATOM      9  C7  UNL d   1       5.969   3.815   1.709  0.00  0.00     0.045 A 
ENDROOT
TORSDOF 0
ENDMDL
