MODEL 1
REMARK minimizedAffinity 15.2443419
REMARK minimizedRMSD -1
REMARK  0 active torsions:
REMARK  status: ('A' for Active; 'I' for Inactive)
ROOT
ATOM      1  C   UNL d   1      -3.357   5.367   2.822  0.00  0.00    -0.002 A 
ATOM      2  C1  UNL d   1      -4.277   4.863   1.914  0.00  0.00     0.010 A 
ATOM      3  C2  UNL d   1      -4.248   3.517   1.546  0.00  0.00     0.041 A 
ATOM      4  C3  UNL d   1      -3.271   2.676   2.114  0.00  0.00    -0.075 A 
ATOM      5  S   UNL d   1      -3.045   0.993   1.813  0.00  0.00     0.015 SA
ATOM      6  C4  UNL d   1      -1.722   0.903   2.884  0.00  0.00     0.022 A 
ATOM      7  C5  UNL d   1      -1.445   2.118   3.465  0.00  0.00     0.026 A 
ATOM      8  C6  UNL d   1      -2.334   3.160   3.031  0.00  0.00    -0.082 A 
ATOM      9  C7  UNL d   1      -2.388   4.530   3.383  0.00  0.00     0.045 A 
ENDROOT
TORSDOF 0
ENDMDL
