MODEL 1
REMARK minimizedAffinity 10.144249
REMARK minimizedRMSD -1
REMARK  1 active torsions:
REMARK  status: ('A' for Active; 'I' for Inactive)
REMARK    1  A    between atoms: C1_2  and  C2_3 
ROOT
ATOM      1  C2  UNL d   1      -2.927   0.294   1.512  0.00  0.00    -0.077 A 
ATOM      2  C3  UNL d   1      -2.079  -0.788   1.241  0.00  0.00     0.002 A 
ATOM      3  C4  UNL d   1      -1.177  -1.238   2.206  0.00  0.00     0.002 A 
ATOM      4  C5  UNL d   1      -1.117  -0.614   3.451  0.00  0.00    -0.004 A 
ATOM      5  C6  UNL d   1      -1.955   0.465   3.729  0.00  0.00     0.002 A 
ATOM      6  C7  UNL d   1      -2.857   0.917   2.765  0.00  0.00     0.002 A 
ENDROOT
BRANCH   1   7
ATOM      7  C1  UNL d   1      -3.936   0.749   0.489  0.00  0.00     0.055 C 
ATOM      8  C   UNL d   1      -5.297   0.114   0.734  0.00  0.00     0.019 C 
ENDBRANCH   1   7
TORSDOF 1
ENDMDL
