MODEL 1
REMARK minimizedAffinity 12.6760006
REMARK minimizedRMSD -1
REMARK  1 active torsions:
REMARK  status: ('A' for Active; 'I' for Inactive)
REMARK    1  A    between atoms: C1_2  and  C2_3 
ROOT
ATOM      1  C2  UNL d   1      -1.735   0.197   3.695  0.00  0.00    -0.077 A 
ATOM      2  C3  UNL d   1      -1.713  -0.185   5.044  0.00  0.00     0.002 A 
ATOM      3  C4  UNL d   1      -2.466   0.515   5.988  0.00  0.00     0.002 A 
ATOM      4  C5  UNL d   1      -3.249   1.598   5.594  0.00  0.00    -0.004 A 
ATOM      5  C6  UNL d   1      -3.276   1.987   4.255  0.00  0.00     0.002 A 
ATOM      6  C7  UNL d   1      -2.523   1.289   3.310  0.00  0.00     0.002 A 
ENDROOT
BRANCH   1   7
ATOM      7  C1  UNL d   1      -0.963  -0.588   2.667  0.00  0.00     0.055 C 
ATOM      8  C   UNL d   1      -1.802  -1.718   2.087  0.00  0.00     0.019 C 
ENDBRANCH   1   7
TORSDOF 1
ENDMDL
