MODEL 1
REMARK minimizedAffinity 8.80056477
REMARK minimizedRMSD -1
REMARK  1 active torsions:
REMARK  status: ('A' for Active; 'I' for Inactive)
REMARK    1  A    between atoms: C1_2  and  C2_3 
ROOT
ATOM      1  C2  UNL d   1      -3.493   2.242   5.213  0.00  0.00    -0.077 A 
ATOM      2  C3  UNL d   1      -3.541   2.220   3.812  0.00  0.00     0.002 A 
ATOM      3  C4  UNL d   1      -2.625   1.456   3.086  0.00  0.00     0.002 A 
ATOM      4  C5  UNL d   1      -1.657   0.707   3.751  0.00  0.00    -0.004 A 
ATOM      5  C6  UNL d   1      -1.600   0.724   5.144  0.00  0.00     0.002 A 
ATOM      6  C7  UNL d   1      -2.514   1.487   5.872  0.00  0.00     0.002 A 
ENDROOT
BRANCH   1   7
ATOM      7  C1  UNL d   1      -4.511   3.026   5.999  0.00  0.00     0.055 C 
ATOM      8  C   UNL d   1      -4.197   4.515   5.982  0.00  0.00     0.019 C 
ENDBRANCH   1   7
TORSDOF 1
ENDMDL
