MODEL 1
REMARK minimizedAffinity 8.82188797
REMARK minimizedRMSD -1
REMARK  1 active torsions:
REMARK  status: ('A' for Active; 'I' for Inactive)
REMARK    1  A    between atoms: C1_2  and  C2_3 
ROOT
ATOM      1  C2  UNL d   1      -3.454   0.897   3.578  0.00  0.00    -0.077 A 
ATOM      2  C3  UNL d   1      -4.627   0.534   2.902  0.00  0.00     0.002 A 
ATOM      3  C4  UNL d   1      -4.592  -0.431   1.895  0.00  0.00     0.002 A 
ATOM      4  C5  UNL d   1      -3.387  -1.045   1.558  0.00  0.00    -0.004 A 
ATOM      5  C6  UNL d   1      -2.214  -0.690   2.223  0.00  0.00     0.002 A 
ATOM      6  C7  UNL d   1      -2.247   0.276   3.229  0.00  0.00     0.002 A 
ENDROOT
BRANCH   1   7
ATOM      7  C1  UNL d   1      -3.498   1.903   4.699  0.00  0.00     0.055 C 
ATOM      8  C   UNL d   1      -4.917   2.095   5.215  0.00  0.00     0.019 C 
ENDBRANCH   1   7
TORSDOF 1
ENDMDL
