MODEL 1
REMARK minimizedAffinity 15.699626
REMARK minimizedRMSD -1
REMARK  1 active torsions:
REMARK  status: ('A' for Active; 'I' for Inactive)
REMARK    1  A    between atoms: C1_2  and  C2_3 
ROOT
ATOM      1  C2  UNL d   1       3.566  -4.889  -1.094  0.00  0.00    -0.077 A 
ATOM      2  C3  UNL d   1       4.214  -3.646  -1.093  0.00  0.00     0.002 A 
ATOM      3  C4  UNL d   1       5.424  -3.481  -0.417  0.00  0.00     0.002 A 
ATOM      4  C5  UNL d   1       5.999  -4.556   0.258  0.00  0.00    -0.004 A 
ATOM      5  C6  UNL d   1       5.361  -5.796   0.264  0.00  0.00     0.002 A 
ATOM      6  C7  UNL d   1       4.151  -5.962  -0.410  0.00  0.00     0.002 A 
ENDROOT
BRANCH   1   7
ATOM      7  C1  UNL d   1       2.285  -5.081  -1.864  0.00  0.00     0.055 C 
ATOM      8  C   UNL d   1       2.550  -5.674  -3.240  0.00  0.00     0.019 C 
ENDBRANCH   1   7
TORSDOF 1
ENDMDL
