MODEL 1
REMARK minimizedAffinity 7.86912251
REMARK minimizedRMSD -1
REMARK  1 active torsions:
REMARK  status: ('A' for Active; 'I' for Inactive)
REMARK    1  A    between atoms: C1_2  and  C2_3 
ROOT
ATOM      1  C2  UNL d   1      -2.642  -1.845   0.461  0.00  0.00    -0.077 A 
ATOM      2  C3  UNL d   1      -2.034  -1.832  -0.803  0.00  0.00     0.002 A 
ATOM      3  C4  UNL d   1      -2.775  -1.502  -1.939  0.00  0.00     0.002 A 
ATOM      4  C5  UNL d   1      -4.125  -1.178  -1.824  0.00  0.00    -0.004 A 
ATOM      5  C6  UNL d   1      -4.739  -1.189  -0.572  0.00  0.00     0.002 A 
ATOM      6  C7  UNL d   1      -4.000  -1.520   0.565  0.00  0.00     0.002 A 
ENDROOT
BRANCH   1   7
ATOM      7  C1  UNL d   1      -1.833  -2.153   1.694  0.00  0.00     0.055 C 
ATOM      8  C   UNL d   1      -0.889  -1.009   2.036  0.00  0.00     0.019 C 
ENDBRANCH   1   7
TORSDOF 1
ENDMDL
