MODEL 1
REMARK minimizedAffinity 8.69814777
REMARK minimizedRMSD -1
REMARK  1 active torsions:
REMARK  status: ('A' for Active; 'I' for Inactive)
REMARK    1  A    between atoms: C1_2  and  C2_3 
ROOT
ATOM      1  C2  UNL d   1      -2.610   0.468   3.556  0.00  0.00    -0.077 A 
ATOM      2  C3  UNL d   1      -3.700  -0.028   2.827  0.00  0.00     0.002 A 
ATOM      3  C4  UNL d   1      -3.499  -0.944   1.792  0.00  0.00     0.002 A 
ATOM      4  C5  UNL d   1      -2.212  -1.375   1.481  0.00  0.00    -0.004 A 
ATOM      5  C6  UNL d   1      -1.121  -0.886   2.198  0.00  0.00     0.002 A 
ATOM      6  C7  UNL d   1      -1.319   0.031   3.232  0.00  0.00     0.002 A 
ENDROOT
BRANCH   1   7
ATOM      7  C1  UNL d   1      -2.828   1.418   4.704  0.00  0.00     0.055 C 
ATOM      8  C   UNL d   1      -4.230   1.278   5.280  0.00  0.00     0.019 C 
ENDBRANCH   1   7
TORSDOF 1
ENDMDL
