MODEL 1
REMARK minimizedAffinity -1.45606172
REMARK minimizedRMSD -1
REMARK  1 active torsions:
REMARK  status: ('A' for Active; 'I' for Inactive)
REMARK    1  A    between atoms: C1_2  and  C2_3 
ROOT
ATOM      1  C2  UNL d   1      -4.829   1.137   4.716  0.00  0.00    -0.077 A 
ATOM      2  C3  UNL d   1      -3.434   1.121   4.575  0.00  0.00     0.002 A 
ATOM      3  C4  UNL d   1      -2.851   0.727   3.370  0.00  0.00     0.002 A 
ATOM      4  C5  UNL d   1      -3.654   0.350   2.295  0.00  0.00    -0.004 A 
ATOM      5  C6  UNL d   1      -5.042   0.360   2.426  0.00  0.00     0.002 A 
ATOM      6  C7  UNL d   1      -5.627   0.752   3.631  0.00  0.00     0.002 A 
ENDROOT
BRANCH   1   7
ATOM      7  C1  UNL d   1      -5.462   1.609   5.999  0.00  0.00     0.055 C 
ATOM      8  C   UNL d   1      -5.652   3.118   6.000  0.00  0.00     0.019 C 
ENDBRANCH   1   7
TORSDOF 1
ENDMDL
