MODEL 1
REMARK minimizedAffinity 9.79777431
REMARK minimizedRMSD -1
REMARK  1 active torsions:
REMARK  status: ('A' for Active; 'I' for Inactive)
REMARK    1  A    between atoms: C1_2  and  C2_3 
ROOT
ATOM      1  C2  UNL d   1      -2.767   5.527  -5.001  0.00  0.00    -0.077 A 
ATOM      2  C3  UNL d   1      -1.874   6.000  -4.029  0.00  0.00     0.002 A 
ATOM      3  C4  UNL d   1      -0.537   5.598  -4.043  0.00  0.00     0.002 A 
ATOM      4  C5  UNL d   1      -0.080   4.726  -5.029  0.00  0.00    -0.004 A 
ATOM      5  C6  UNL d   1      -0.961   4.249  -5.999  0.00  0.00     0.002 A 
ATOM      6  C7  UNL d   1      -2.298   4.648  -5.985  0.00  0.00     0.002 A 
ENDROOT
BRANCH   1   7
ATOM      7  C1  UNL d   1      -4.198   5.998  -5.016  0.00  0.00     0.055 C 
ATOM      8  C   UNL d   1      -5.021   5.303  -3.941  0.00  0.00     0.019 C 
ENDBRANCH   1   7
TORSDOF 1
ENDMDL
