MODEL 1
REMARK minimizedAffinity -1.97021842
REMARK minimizedRMSD -1
REMARK  1 active torsions:
REMARK  status: ('A' for Active; 'I' for Inactive)
REMARK    1  A    between atoms: C1_2  and  C2_3 
ROOT
ATOM      1  C2  UNL d   1      -0.795   1.325  -0.914  0.00  0.00    -0.081 A 
ATOM      2  C3  UNL d   1       0.466   1.115  -1.487  0.00  0.00     0.006 A 
ATOM      3  C4  UNL d   1       1.385   0.256  -0.881  0.00  0.00     0.002 A 
ATOM      4  C5  UNL d   1       1.057  -0.413   0.303  0.00  0.00    -0.080 A 
ATOM      5  C6  UNL d   1       2.024  -1.362   0.947  0.00  0.00     0.076 C 
ATOM      6  C7  UNL d   1      -0.195  -0.190   0.885  0.00  0.00     0.002 A 
ATOM      7  C8  UNL d   1      -1.114   0.669   0.280  0.00  0.00     0.006 A 
ENDROOT
BRANCH   1   8
ATOM      8  C1  UNL d   1      -1.812   2.201  -1.599  0.00  0.00     0.054 C 
ATOM      9  C   UNL d   1      -1.366   2.571  -3.006  0.00  0.00     0.018 C 
ENDBRANCH   1   8
TORSDOF 1
ENDMDL
