MODEL 1
REMARK minimizedAffinity -3.35800242
REMARK minimizedRMSD -1
REMARK  1 active torsions:
REMARK  status: ('A' for Active; 'I' for Inactive)
REMARK    1  A    between atoms: C1_2  and  C2_3 
ROOT
ATOM      1  C2  UNL d   1      -0.358   0.500   0.239  0.00  0.00    -0.081 A 
ATOM      2  C3  UNL d   1      -0.976   0.054   1.414  0.00  0.00     0.006 A 
ATOM      3  C4  UNL d   1      -0.398  -0.965   2.175  0.00  0.00     0.002 A 
ATOM      4  C5  UNL d   1       0.811  -1.548   1.779  0.00  0.00    -0.080 A 
ATOM      5  C6  UNL d   1       1.457  -2.621   2.603  0.00  0.00     0.076 C 
ATOM      6  C7  UNL d   1       1.419  -1.114   0.597  0.00  0.00     0.002 A 
ATOM      7  C8  UNL d   1       0.841  -0.096  -0.165  0.00  0.00     0.006 A 
ENDROOT
BRANCH   1   8
ATOM      8  C1  UNL d   1      -0.946   1.643  -0.549  0.00  0.00     0.054 C 
ATOM      9  C   UNL d   1      -1.859   1.139  -1.658  0.00  0.00     0.018 C 
ENDBRANCH   1   8
TORSDOF 1
ENDMDL
