MODEL 1
REMARK minimizedAffinity -0.166306347
REMARK minimizedRMSD -1
REMARK  1 active torsions:
REMARK  status: ('A' for Active; 'I' for Inactive)
REMARK    1  A    between atoms: C1_2  and  C2_3 
ROOT
ATOM      1  C2  UNL d   1       1.104  -1.154   0.616  0.00  0.00    -0.081 A 
ATOM      2  C3  UNL d   1      -0.092  -0.558   1.034  0.00  0.00     0.006 A 
ATOM      3  C4  UNL d   1      -0.662   0.481   0.294  0.00  0.00     0.002 A 
ATOM      4  C5  UNL d   1      -0.050   0.935  -0.879  0.00  0.00    -0.080 A 
ATOM      5  C6  UNL d   1      -0.667   2.030  -1.698  0.00  0.00     0.076 C 
ATOM      6  C7  UNL d   1       1.154   0.351  -1.288  0.00  0.00     0.002 A 
ATOM      7  C8  UNL d   1       1.724  -0.687  -0.548  0.00  0.00     0.006 A 
ENDROOT
BRANCH   1   8
ATOM      8  C1  UNL d   1       1.687  -2.318   1.376  0.00  0.00     0.054 C 
ATOM      9  C   UNL d   1       0.915  -2.582   2.661  0.00  0.00     0.018 C 
ENDBRANCH   1   8
TORSDOF 1
ENDMDL
