MODEL 1
REMARK minimizedAffinity -6.35899305
REMARK minimizedRMSD -1
REMARK  1 active torsions:
REMARK  status: ('A' for Active; 'I' for Inactive)
REMARK    1  A    between atoms: C1_2  and  C2_3 
ROOT
ATOM      1  C2  UNL d   1      -0.456   0.785  -0.238  0.00  0.00    -0.081 A 
ATOM      2  C3  UNL d   1       0.886   0.538  -0.553  0.00  0.00     0.006 A 
ATOM      3  C4  UNL d   1       1.520  -0.619  -0.095  0.00  0.00     0.002 A 
ATOM      4  C5  UNL d   1       0.821  -1.553   0.678  0.00  0.00    -0.080 A 
ATOM      5  C6  UNL d   1       1.481  -2.814   1.150  0.00  0.00     0.076 C 
ATOM      6  C7  UNL d   1      -0.515  -1.298   1.008  0.00  0.00     0.002 A 
ATOM      7  C8  UNL d   1      -1.149  -0.141   0.551  0.00  0.00     0.006 A 
ENDROOT
BRANCH   1   8
ATOM      8  C1  UNL d   1      -1.161   2.000  -0.784  0.00  0.00     0.054 C 
ATOM      9  C   UNL d   1      -1.964   1.660  -2.031  0.00  0.00     0.018 C 
ENDBRANCH   1   8
TORSDOF 1
ENDMDL
