MODEL 1
REMARK minimizedAffinity -2.81680608
REMARK minimizedRMSD -1
REMARK  1 active torsions:
REMARK  status: ('A' for Active; 'I' for Inactive)
REMARK    1  A    between atoms: C1_2  and  C2_3 
ROOT
ATOM      1  C2  UNL d   1      -0.212   1.278  -0.348  0.00  0.00    -0.081 A 
ATOM      2  C3  UNL d   1      -1.073   1.892   0.569  0.00  0.00     0.006 A 
ATOM      3  C4  UNL d   1      -2.404   2.145   0.231  0.00  0.00     0.002 A 
ATOM      4  C5  UNL d   1      -2.899   1.782  -1.026  0.00  0.00    -0.080 A 
ATOM      5  C6  UNL d   1      -4.334   2.021  -1.391  0.00  0.00     0.076 C 
ATOM      6  C7  UNL d   1      -2.034   1.184  -1.949  0.00  0.00     0.002 A 
ATOM      7  C8  UNL d   1      -0.702   0.932  -1.612  0.00  0.00     0.006 A 
ENDROOT
BRANCH   1   8
ATOM      8  C1  UNL d   1       1.207   0.945   0.036  0.00  0.00     0.054 C 
ATOM      9  C   UNL d   1       1.369  -0.541   0.322  0.00  0.00     0.018 C 
ENDBRANCH   1   8
TORSDOF 1
ENDMDL
