MODEL 1
REMARK minimizedAffinity -3.12992144
REMARK minimizedRMSD -1
REMARK  1 active torsions:
REMARK  status: ('A' for Active; 'I' for Inactive)
REMARK    1  A    between atoms: C1_2  and  C2_3 
ROOT
ATOM      1  C2  UNL d   1      -0.893   1.339  -1.069  0.00  0.00    -0.081 A 
ATOM      2  C3  UNL d   1       0.069   1.836  -0.181  0.00  0.00     0.006 A 
ATOM      3  C4  UNL d   1       1.084   1.005   0.300  0.00  0.00     0.002 A 
ATOM      4  C5  UNL d   1       1.157  -0.333  -0.104  0.00  0.00    -0.080 A 
ATOM      5  C6  UNL d   1       2.259  -1.227   0.381  0.00  0.00     0.076 C 
ATOM      6  C7  UNL d   1       0.186  -0.833  -0.977  0.00  0.00     0.002 A 
ATOM      7  C8  UNL d   1      -0.829  -0.003  -1.459  0.00  0.00     0.006 A 
ENDROOT
BRANCH   1   8
ATOM      8  C1  UNL d   1      -1.951   2.249  -1.641  0.00  0.00     0.054 C 
ATOM      9  C   UNL d   1      -2.731   1.562  -2.752  0.00  0.00     0.018 C 
ENDBRANCH   1   8
TORSDOF 1
ENDMDL
