MODEL 1
REMARK minimizedAffinity -3.67898393
REMARK minimizedRMSD -1
REMARK  1 active torsions:
REMARK  status: ('A' for Active; 'I' for Inactive)
REMARK    1  A    between atoms: C1_2  and  C2_3 
ROOT
ATOM      1  C2  UNL d   1       0.441  -1.134   1.680  0.00  0.00    -0.081 A 
ATOM      2  C3  UNL d   1       1.281  -0.867   0.592  0.00  0.00     0.006 A 
ATOM      3  C4  UNL d   1       0.947   0.125  -0.334  0.00  0.00     0.002 A 
ATOM      4  C5  UNL d   1      -0.228   0.869  -0.183  0.00  0.00    -0.080 A 
ATOM      5  C6  UNL d   1      -0.583   1.957  -1.153  0.00  0.00     0.076 C 
ATOM      6  C7  UNL d   1      -1.076   0.590   0.894  0.00  0.00     0.002 A 
ATOM      7  C8  UNL d   1      -0.742  -0.401   1.820  0.00  0.00     0.006 A 
ENDROOT
BRANCH   1   8
ATOM      8  C1  UNL d   1       0.831  -2.158   2.716  0.00  0.00     0.054 C 
ATOM      9  C   UNL d   1       0.014  -1.995   3.989  0.00  0.00     0.018 C 
ENDBRANCH   1   8
TORSDOF 1
ENDMDL
