MODEL 1
REMARK minimizedAffinity -2.70598054
REMARK minimizedRMSD -1
REMARK  0 active torsions:
REMARK  status: ('A' for Active; 'I' for Inactive)
ROOT
ATOM      1  C   UNL d   1      -0.707   0.826  -0.534  0.00  0.00     0.172 C 
ATOM      2  N   UNL d   1      -1.939   1.019   0.195  0.00  0.00    -0.070 N 
ATOM      3  C1  UNL d   1      -3.201   0.863  -0.314  0.00  0.00    -0.004 A 
ATOM      4  C2  UNL d   1      -4.099   1.138   0.694  0.00  0.00    -0.047 A 
ATOM      5  C3  UNL d   1      -3.352   1.471   1.849  0.00  0.00    -0.047 A 
ATOM      6  C4  UNL d   1      -2.017   1.390   1.511  0.00  0.00    -0.004 A 
ENDROOT
TORSDOF 0
ENDMDL
