MODEL 1
REMARK minimizedAffinity 0.217982337
REMARK minimizedRMSD -1
REMARK  0 active torsions:
REMARK  status: ('A' for Active; 'I' for Inactive)
ROOT
ATOM      1  C   UNL d   1       2.132   1.741   0.361  0.00  0.00     0.172 C 
ATOM      2  N   UNL d   1       2.435   0.346   0.584  0.00  0.00    -0.070 N 
ATOM      3  C1  UNL d   1       3.265  -0.144   1.556  0.00  0.00    -0.004 A 
ATOM      4  C2  UNL d   1       3.289  -1.517   1.437  0.00  0.00    -0.047 A 
ATOM      5  C3  UNL d   1       2.445  -1.863   0.355  0.00  0.00    -0.047 A 
ATOM      6  C4  UNL d   1       1.930  -0.691  -0.155  0.00  0.00    -0.004 A 
ENDROOT
TORSDOF 0
ENDMDL
