MODEL 1
REMARK minimizedAffinity -3.32153463
REMARK minimizedRMSD -1
REMARK  0 active torsions:
REMARK  status: ('A' for Active; 'I' for Inactive)
ROOT
ATOM      1  C   UNL d   1      -0.352   0.124   0.034  0.00  0.00     0.172 C 
ATOM      2  N   UNL d   1      -1.505   0.823   0.553  0.00  0.00    -0.070 N 
ATOM      3  C1  UNL d   1      -2.372   0.342   1.497  0.00  0.00    -0.004 A 
ATOM      4  C2  UNL d   1      -3.331   1.306   1.719  0.00  0.00    -0.047 A 
ATOM      5  C3  UNL d   1      -3.031   2.404   0.878  0.00  0.00    -0.047 A 
ATOM      6  C4  UNL d   1      -1.896   2.078   0.167  0.00  0.00    -0.004 A 
ENDROOT
TORSDOF 0
ENDMDL
