MODEL 1
REMARK minimizedAffinity -3.08861184
REMARK minimizedRMSD -1
REMARK  0 active torsions:
REMARK  status: ('A' for Active; 'I' for Inactive)
ROOT
ATOM      1  C   UNL d   1      -0.748   1.477  -0.735  0.00  0.00     0.172 C 
ATOM      2  N   UNL d   1       0.176   0.438  -0.342  0.00  0.00    -0.070 N 
ATOM      3  C1  UNL d   1       0.147  -0.861  -0.773  0.00  0.00    -0.004 A 
ATOM      4  C2  UNL d   1       1.191  -1.529  -0.171  0.00  0.00    -0.047 A 
ATOM      5  C3  UNL d   1       1.871  -0.599   0.651  0.00  0.00    -0.047 A 
ATOM      6  C4  UNL d   1       1.221   0.611   0.526  0.00  0.00    -0.004 A 
ENDROOT
TORSDOF 0
ENDMDL
