MODEL 1
REMARK minimizedAffinity -3.01436877
REMARK minimizedRMSD -1
REMARK  0 active torsions:
REMARK  status: ('A' for Active; 'I' for Inactive)
ROOT
ATOM      1  C   UNL d   1       1.854  -1.504   0.093  0.00  0.00     0.172 C 
ATOM      2  N   UNL d   1       0.881  -0.479  -0.205  0.00  0.00    -0.070 N 
ATOM      3  C1  UNL d   1       1.118   0.869  -0.207  0.00  0.00    -0.004 A 
ATOM      4  C2  UNL d   1      -0.060   1.504  -0.539  0.00  0.00    -0.047 A 
ATOM      5  C3  UNL d   1      -1.038   0.501  -0.742  0.00  0.00    -0.047 A 
ATOM      6  C4  UNL d   1      -0.428  -0.717  -0.529  0.00  0.00    -0.004 A 
ENDROOT
TORSDOF 0
ENDMDL
