MODEL 1
REMARK minimizedAffinity -3.35219312
REMARK minimizedRMSD -1
REMARK  0 active torsions:
REMARK  status: ('A' for Active; 'I' for Inactive)
ROOT
ATOM      1  C   UNL d   1       0.146  -0.085  -0.094  0.00  0.00     0.172 C 
ATOM      2  N   UNL d   1       1.551   0.248  -0.113  0.00  0.00    -0.070 N 
ATOM      3  C1  UNL d   1       2.583  -0.651  -0.160  0.00  0.00    -0.004 A 
ATOM      4  C2  UNL d   1       3.763   0.061  -0.164  0.00  0.00    -0.047 A 
ATOM      5  C3  UNL d   1       3.429   1.435  -0.116  0.00  0.00    -0.047 A 
ATOM      6  C4  UNL d   1       2.053   1.522  -0.085  0.00  0.00    -0.004 A 
ENDROOT
TORSDOF 0
ENDMDL
