MODEL 1
REMARK minimizedAffinity -3.99185491
REMARK minimizedRMSD -1
REMARK  0 active torsions:
REMARK  status: ('A' for Active; 'I' for Inactive)
ROOT
ATOM      1  C   UNL d   1      -0.784   0.570  -0.113  0.00  0.00     0.172 C 
ATOM      2  N   UNL d   1       0.413  -0.195   0.146  0.00  0.00    -0.070 N 
ATOM      3  C1  UNL d   1       0.617  -1.503  -0.206  0.00  0.00    -0.004 A 
ATOM      4  C2  UNL d   1       1.878  -1.862   0.217  0.00  0.00    -0.047 A 
ATOM      5  C3  UNL d   1       2.453  -0.731   0.845  0.00  0.00    -0.047 A 
ATOM      6  C4  UNL d   1       1.524   0.287   0.787  0.00  0.00    -0.004 A 
ENDROOT
TORSDOF 0
ENDMDL
