MODEL 1
REMARK minimizedAffinity -2.89917636
REMARK minimizedRMSD -1
REMARK  0 active torsions:
REMARK  status: ('A' for Active; 'I' for Inactive)
ROOT
ATOM      1  C   UNL d   1      -0.741   0.377  -0.597  0.00  0.00     0.172 C 
ATOM      2  N   UNL d   1       0.492  -0.041   0.027  0.00  0.00    -0.070 N 
ATOM      3  C1  UNL d   1       1.076  -1.272  -0.103  0.00  0.00    -0.004 A 
ATOM      4  C2  UNL d   1       2.234  -1.272   0.644  0.00  0.00    -0.047 A 
ATOM      5  C3  UNL d   1       2.349   0.004   1.246  0.00  0.00    -0.047 A 
ATOM      6  C4  UNL d   1       1.258   0.746   0.847  0.00  0.00    -0.004 A 
ENDROOT
TORSDOF 0
ENDMDL
