MODEL 1
REMARK minimizedAffinity -2.61650157
REMARK minimizedRMSD -1
REMARK  0 active torsions:
REMARK  status: ('A' for Active; 'I' for Inactive)
ROOT
ATOM      1  C   UNL d   1      -1.032   0.646  -0.125  0.00  0.00     0.172 C 
ATOM      2  N   UNL d   1       0.138  -0.193  -0.015  0.00  0.00    -0.070 N 
ATOM      3  C1  UNL d   1       0.973  -0.261   1.069  0.00  0.00    -0.004 A 
ATOM      4  C2  UNL d   1       1.965  -1.173   0.781  0.00  0.00    -0.047 A 
ATOM      5  C3  UNL d   1       1.719  -1.670  -0.521  0.00  0.00    -0.047 A 
ATOM      6  C4  UNL d   1       0.582  -1.046  -0.990  0.00  0.00    -0.004 A 
ENDROOT
TORSDOF 0
ENDMDL
