MODEL 1
REMARK minimizedAffinity -3.41150403
REMARK minimizedRMSD -1
REMARK  0 active torsions:
REMARK  status: ('A' for Active; 'I' for Inactive)
ROOT
ATOM      1  C   UNL d   1      -0.286  -1.571  -0.709  0.00  0.00     0.172 C 
ATOM      2  N   UNL d   1       0.869  -0.969  -0.087  0.00  0.00    -0.070 N 
ATOM      3  C1  UNL d   1       0.910   0.274   0.488  0.00  0.00    -0.004 A 
ATOM      4  C2  UNL d   1       2.187   0.476   0.966  0.00  0.00    -0.047 A 
ATOM      5  C3  UNL d   1       2.940  -0.684   0.667  0.00  0.00    -0.047 A 
ATOM      6  C4  UNL d   1       2.100  -1.563   0.015  0.00  0.00    -0.004 A 
ENDROOT
TORSDOF 0
ENDMDL
