MODEL 1
REMARK minimizedAffinity -3.00846672
REMARK minimizedRMSD -1
REMARK  0 active torsions:
REMARK  status: ('A' for Active; 'I' for Inactive)
ROOT
ATOM      1  C   UNL d   1       2.820  -1.266   1.488  0.00  0.00     0.172 C 
ATOM      2  N   UNL d   1       1.738  -0.928   0.593  0.00  0.00    -0.070 N 
ATOM      3  C1  UNL d   1       0.983   0.213   0.648  0.00  0.00    -0.004 A 
ATOM      4  C2  UNL d   1       0.061   0.159  -0.374  0.00  0.00    -0.047 A 
ATOM      5  C3  UNL d   1       0.268  -1.057  -1.068  0.00  0.00    -0.047 A 
ATOM      6  C4  UNL d   1       1.312  -1.710  -0.448  0.00  0.00    -0.004 A 
ENDROOT
TORSDOF 0
ENDMDL
