MODEL 1
REMARK minimizedAffinity 1.63564432
REMARK minimizedRMSD -1
REMARK  0 active torsions:
REMARK  status: ('A' for Active; 'I' for Inactive)
ROOT
ATOM      1  C   UNL d   1       0.034   0.298   1.312  0.00  0.00     0.020 A 
ATOM      2  C1  UNL d   1       1.266  -0.001   1.893  0.00  0.00     0.020 A 
ATOM      3  C2  UNL d   1       1.363  -1.025   2.837  0.00  0.00     0.034 A 
ATOM      4  C3  UNL d   1       0.226  -1.754   3.203  0.00  0.00     0.017 A 
ATOM      5  C4  UNL d   1      -1.010  -1.453   2.620  0.00  0.00     0.017 A 
ATOM      6  C5  UNL d   1      -1.101  -0.427   1.675  0.00  0.00     0.034 A 
ATOM      7 Cl   UNL d   1      -2.457  -2.309   3.021  0.00  0.00    -0.070 Cl
ATOM      8 Cl1  UNL d   1       0.419  -3.007   4.377  0.00  0.00    -0.070 Cl
ENDROOT
TORSDOF 0
ENDMDL
