MODEL 1
REMARK minimizedAffinity 0.658682823
REMARK minimizedRMSD -1
REMARK  0 active torsions:
REMARK  status: ('A' for Active; 'I' for Inactive)
ROOT
ATOM      1  C   UNL d   1       1.141  -1.883   4.048  0.00  0.00     0.020 A 
ATOM      2  C1  UNL d   1       1.746  -1.200   2.994  0.00  0.00     0.020 A 
ATOM      3  C2  UNL d   1       0.961  -0.632   1.988  0.00  0.00     0.034 A 
ATOM      4  C3  UNL d   1      -0.434  -0.746   2.035  0.00  0.00     0.017 A 
ATOM      5  C4  UNL d   1      -1.040  -1.432   3.093  0.00  0.00     0.017 A 
ATOM      6  C5  UNL d   1      -0.249  -1.999   4.098  0.00  0.00     0.034 A 
ATOM      7 Cl   UNL d   1      -2.754  -1.615   3.219  0.00  0.00    -0.070 Cl
ATOM      8 Cl1  UNL d   1      -1.342  -0.019   0.758  0.00  0.00    -0.070 Cl
ENDROOT
TORSDOF 0
ENDMDL
