MODEL 1
REMARK minimizedAffinity -3.47071528
REMARK minimizedRMSD -1
REMARK  0 active torsions:
REMARK  status: ('A' for Active; 'I' for Inactive)
ROOT
ATOM      1  C   UNL d   1       0.085   0.284   1.413  0.00  0.00     0.020 A 
ATOM      2  C1  UNL d   1       1.291  -0.096   2.001  0.00  0.00     0.020 A 
ATOM      3  C2  UNL d   1       1.301  -1.053   3.018  0.00  0.00     0.034 A 
ATOM      4  C3  UNL d   1       0.103  -1.633   3.451  0.00  0.00     0.017 A 
ATOM      5  C4  UNL d   1      -1.107  -1.251   2.861  0.00  0.00     0.017 A 
ATOM      6  C5  UNL d   1      -1.112  -0.292   1.843  0.00  0.00     0.034 A 
ATOM      7 Cl   UNL d   1      -2.625  -1.922   3.342  0.00  0.00    -0.070 Cl
ATOM      8 Cl1  UNL d   1       0.191  -2.809   4.713  0.00  0.00    -0.070 Cl
ENDROOT
TORSDOF 0
ENDMDL
