MODEL 1
REMARK minimizedAffinity 1.53271329
REMARK minimizedRMSD -1
REMARK  0 active torsions:
REMARK  status: ('A' for Active; 'I' for Inactive)
ROOT
ATOM      1  C   UNL d   1      -1.539  -2.137   4.508  0.00  0.00     0.020 A 
ATOM      2  C1  UNL d   1      -2.043  -1.559   3.343  0.00  0.00     0.020 A 
ATOM      3  C2  UNL d   1      -1.174  -0.959   2.430  0.00  0.00     0.034 A 
ATOM      4  C3  UNL d   1       0.203  -0.934   2.680  0.00  0.00     0.017 A 
ATOM      5  C4  UNL d   1       0.708  -1.514   3.850  0.00  0.00     0.017 A 
ATOM      6  C5  UNL d   1      -0.167  -2.114   4.761  0.00  0.00     0.034 A 
ATOM      7 Cl   UNL d   1       2.394  -1.523   4.227  0.00  0.00    -0.070 Cl
ATOM      8 Cl1  UNL d   1       1.220  -0.175   1.507  0.00  0.00    -0.070 Cl
ENDROOT
TORSDOF 0
ENDMDL
