MODEL 1
REMARK minimizedAffinity 3.79098439
REMARK minimizedRMSD -1
REMARK  0 active torsions:
REMARK  status: ('A' for Active; 'I' for Inactive)
ROOT
ATOM      1  C   UNL d   1       1.752  -2.430   3.821  0.00  0.00     0.020 A 
ATOM      2  C1  UNL d   1       1.992  -1.259   3.103  0.00  0.00     0.020 A 
ATOM      3  C2  UNL d   1       0.925  -0.551   2.545  0.00  0.00     0.034 A 
ATOM      4  C3  UNL d   1      -0.386  -1.014   2.703  0.00  0.00     0.017 A 
ATOM      5  C4  UNL d   1      -0.626  -2.190   3.423  0.00  0.00     0.017 A 
ATOM      6  C5  UNL d   1       0.446  -2.895   3.980  0.00  0.00     0.034 A 
ATOM      7 Cl   UNL d   1      -2.216  -2.824   3.660  0.00  0.00    -0.070 Cl
ATOM      8 Cl1  UNL d   1      -1.657  -0.089   1.986  0.00  0.00    -0.070 Cl
ENDROOT
TORSDOF 0
ENDMDL
