MODEL 1
REMARK minimizedAffinity 4.11569071
REMARK minimizedRMSD -1
REMARK  0 active torsions:
REMARK  status: ('A' for Active; 'I' for Inactive)
ROOT
ATOM      1  C   UNL d   1       0.848  -2.325   3.670  0.00  0.00     0.020 A 
ATOM      2  C1  UNL d   1       1.331  -1.152   3.093  0.00  0.00     0.020 A 
ATOM      3  C2  UNL d   1       0.452  -0.276   2.452  0.00  0.00     0.034 A 
ATOM      4  C3  UNL d   1      -0.914  -0.572   2.386  0.00  0.00     0.017 A 
ATOM      5  C4  UNL d   1      -1.398  -1.751   2.966  0.00  0.00     0.017 A 
ATOM      6  C5  UNL d   1      -0.514  -2.624   3.606  0.00  0.00     0.034 A 
ATOM      7 Cl   UNL d   1      -3.071  -2.185   2.926  0.00  0.00    -0.070 Cl
ATOM      8 Cl1  UNL d   1      -1.944   0.556   1.579  0.00  0.00    -0.070 Cl
ENDROOT
TORSDOF 0
ENDMDL
