MODEL 1
REMARK minimizedAffinity 5.5504899
REMARK minimizedRMSD -1
REMARK  0 active torsions:
REMARK  status: ('A' for Active; 'I' for Inactive)
ROOT
ATOM      1  C   UNL d   1      -3.831  -1.519  -1.502  0.00  0.00     0.020 A 
ATOM      2  C1  UNL d   1      -3.023  -2.386  -0.767  0.00  0.00     0.020 A 
ATOM      3  C2  UNL d   1      -3.126  -3.766  -0.957  0.00  0.00     0.034 A 
ATOM      4  C3  UNL d   1      -4.039  -4.282  -1.884  0.00  0.00     0.017 A 
ATOM      5  C4  UNL d   1      -4.850  -3.411  -2.621  0.00  0.00     0.017 A 
ATOM      6  C5  UNL d   1      -4.743  -2.031  -2.426  0.00  0.00     0.034 A 
ATOM      7 Cl   UNL d   1      -6.000  -3.974  -3.782  0.00  0.00    -0.070 Cl
ATOM      8 Cl1  UNL d   1      -4.113  -5.999  -2.068  0.00  0.00    -0.070 Cl
ENDROOT
TORSDOF 0
ENDMDL
