MODEL 1
REMARK minimizedAffinity 6.13660336
REMARK minimizedRMSD -1
REMARK  0 active torsions:
REMARK  status: ('A' for Active; 'I' for Inactive)
ROOT
ATOM      1  C   UNL d   1      -2.499   1.674  -0.204  0.00  0.00     0.020 A 
ATOM      2  C1  UNL d   1      -2.983   0.850  -1.219  0.00  0.00     0.020 A 
ATOM      3  C2  UNL d   1      -2.689  -0.515  -1.210  0.00  0.00     0.034 A 
ATOM      4  C3  UNL d   1      -1.908  -1.060  -0.184  0.00  0.00     0.017 A 
ATOM      5  C4  UNL d   1      -1.422  -0.232   0.834  0.00  0.00     0.017 A 
ATOM      6  C5  UNL d   1      -1.721   1.134   0.821  0.00  0.00     0.034 A 
ATOM      7 Cl   UNL d   1      -0.452  -0.831   2.133  0.00  0.00    -0.070 Cl
ATOM      8 Cl1  UNL d   1      -1.582  -2.756  -0.237  0.00  0.00    -0.070 Cl
ENDROOT
TORSDOF 0
ENDMDL
