MODEL 1
REMARK minimizedAffinity 1.31525278
REMARK minimizedRMSD -1
REMARK  0 active torsions:
REMARK  status: ('A' for Active; 'I' for Inactive)
ROOT
ATOM      1  C   UNL d   1       4.351   2.325   3.241  0.00  0.00     0.020 A 
ATOM      2  C1  UNL d   1       3.550   2.089   2.124  0.00  0.00     0.020 A 
ATOM      3  C2  UNL d   1       2.753   0.944   2.065  0.00  0.00     0.034 A 
ATOM      4  C3  UNL d   1       2.756   0.029   3.125  0.00  0.00     0.017 A 
ATOM      5  C4  UNL d   1       3.560   0.266   4.245  0.00  0.00     0.017 A 
ATOM      6  C5  UNL d   1       4.356   1.415   4.299  0.00  0.00     0.034 A 
ATOM      7 Cl   UNL d   1       3.617  -0.816   5.592  0.00  0.00    -0.070 Cl
ATOM      8 Cl1  UNL d   1       1.746  -1.366   2.985  0.00  0.00    -0.070 Cl
ENDROOT
TORSDOF 0
ENDMDL
