MODEL 1
REMARK minimizedAffinity 4.4145155
REMARK minimizedRMSD -1
REMARK  0 active torsions:
REMARK  status: ('A' for Active; 'I' for Inactive)
ROOT
ATOM      1  C   UNL d   1       0.014  -6.000  -5.230  0.00  0.00     0.020 A 
ATOM      2  C1  UNL d   1       1.402  -5.878  -5.180  0.00  0.00     0.020 A 
ATOM      3  C2  UNL d   1       2.008  -5.236  -4.098  0.00  0.00     0.034 A 
ATOM      4  C3  UNL d   1       1.225  -4.713  -3.062  0.00  0.00     0.017 A 
ATOM      5  C4  UNL d   1      -0.168  -4.836  -3.113  0.00  0.00     0.017 A 
ATOM      6  C5  UNL d   1      -0.769  -5.480  -4.199  0.00  0.00     0.034 A 
ATOM      7 Cl   UNL d   1      -1.200  -4.216  -1.873  0.00  0.00    -0.070 Cl
ATOM      8 Cl1  UNL d   1       2.041  -3.932  -1.754  0.00  0.00    -0.070 Cl
ENDROOT
TORSDOF 0
ENDMDL
