MODEL 1
REMARK minimizedAffinity 5.58967257
REMARK minimizedRMSD -1
REMARK  1 active torsions:
REMARK  status: ('A' for Active; 'I' for Inactive)
REMARK    1  A    between atoms: N_2  and  C1_3 
ROOT
ATOM      1  C1  UNL d   1      -0.329  -1.954   2.681  0.00  0.00     0.143 A 
ATOM      2  C2  UNL d   1       1.038  -2.105   2.938  0.00  0.00    -0.057 A 
ATOM      3  C3  UNL d   1       1.493  -2.843   4.037  0.00  0.00     0.033 A 
ATOM      4  C4  UNL d   1       0.586  -3.421   4.918  0.00  0.00    -0.042 A 
ATOM      5  C5  UNL d   1      -0.778  -3.263   4.697  0.00  0.00     0.033 A 
ATOM      6  C6  UNL d   1      -1.226  -2.531   3.594  0.00  0.00    -0.057 A 
ENDROOT
BRANCH   1   7
ATOM      7  N   UNL d   1      -0.845  -1.151   1.661  0.00  0.00    -0.732 N 
ATOM      8  C   UNL d   1       0.019  -0.635   0.621  0.00  0.00     0.284 C 
ATOM      9  H3  UNL d   1      -1.748  -1.479   1.327  0.00  0.00     0.395 HD
ENDBRANCH   1   7
TORSDOF 1
ENDMDL
