MODEL 1
REMARK minimizedAffinity 7.05821753
REMARK minimizedRMSD -1
REMARK  1 active torsions:
REMARK  status: ('A' for Active; 'I' for Inactive)
REMARK    1  A    between atoms: N_2  and  C1_3 
ROOT
ATOM      1  C1  UNL d   1      -2.810  -0.479  -1.124  0.00  0.00     0.143 A 
ATOM      2  C2  UNL d   1      -2.015  -1.463  -0.526  0.00  0.00    -0.057 A 
ATOM      3  C3  UNL d   1      -0.877  -1.124   0.216  0.00  0.00     0.033 A 
ATOM      4  C4  UNL d   1      -0.497   0.207   0.349  0.00  0.00    -0.042 A 
ATOM      5  C5  UNL d   1      -1.258   1.200  -0.258  0.00  0.00     0.033 A 
ATOM      6  C6  UNL d   1      -2.397   0.856  -0.992  0.00  0.00    -0.057 A 
ENDROOT
BRANCH   1   7
ATOM      7  N   UNL d   1      -3.897  -0.758  -1.957  0.00  0.00    -0.732 N 
ATOM      8  C   UNL d   1      -5.230  -0.322  -1.599  0.00  0.00     0.284 C 
ATOM      9  H3  UNL d   1      -3.672  -0.641  -2.942  0.00  0.00     0.395 HD
ENDBRANCH   1   7
TORSDOF 1
ENDMDL
