MODEL 1
REMARK minimizedAffinity -0.161475286
REMARK minimizedRMSD -1
REMARK  1 active torsions:
REMARK  status: ('A' for Active; 'I' for Inactive)
REMARK    1  A    between atoms: N_2  and  C1_3 
ROOT
ATOM      1  C1  UNL d   1      -1.749  -5.282  -5.285  0.00  0.00     0.143 A 
ATOM      2  C2  UNL d   1      -2.901  -5.999  -5.624  0.00  0.00    -0.057 A 
ATOM      3  C3  UNL d   1      -4.083  -5.344  -5.992  0.00  0.00     0.033 A 
ATOM      4  C4  UNL d   1      -4.141  -3.954  -6.000  0.00  0.00    -0.042 A 
ATOM      5  C5  UNL d   1      -3.015  -3.221  -5.643  0.00  0.00     0.033 A 
ATOM      6  C6  UNL d   1      -1.836  -3.881  -5.283  0.00  0.00    -0.057 A 
ENDROOT
BRANCH   1   7
ATOM      7  N   UNL d   1      -0.574  -5.874  -4.816  0.00  0.00    -0.732 N 
ATOM      8  C   UNL d   1      -0.309  -5.961  -3.396  0.00  0.00     0.284 C 
ATOM      9  H3  UNL d   1      -0.326  -6.712  -5.338  0.00  0.00     0.395 HD
ENDBRANCH   1   7
TORSDOF 1
ENDMDL
