MODEL 1
REMARK minimizedAffinity 10.5262785
REMARK minimizedRMSD -1
REMARK  1 active torsions:
REMARK  status: ('A' for Active; 'I' for Inactive)
REMARK    1  A    between atoms: N_2  and  C1_3 
ROOT
ATOM      1  C1  UNL d   1       3.762  -0.738   1.503  0.00  0.00     0.143 A 
ATOM      2  C2  UNL d   1       2.770  -1.653   1.134  0.00  0.00    -0.057 A 
ATOM      3  C3  UNL d   1       1.559  -1.224   0.577  0.00  0.00     0.033 A 
ATOM      4  C4  UNL d   1       1.307   0.133   0.404  0.00  0.00    -0.042 A 
ATOM      5  C5  UNL d   1       2.269   1.061   0.787  0.00  0.00     0.033 A 
ATOM      6  C6  UNL d   1       3.479   0.627   1.337  0.00  0.00    -0.057 A 
ENDROOT
BRANCH   1   7
ATOM      7  N   UNL d   1       4.947  -1.095   2.152  0.00  0.00    -0.732 N 
ATOM      8  C   UNL d   1       6.000  -1.785   1.439  0.00  0.00     0.284 C 
ATOM      9  H3  UNL d   1       5.278  -0.369   2.783  0.00  0.00     0.395 HD
ENDBRANCH   1   7
TORSDOF 1
ENDMDL
