MODEL 1
REMARK minimizedAffinity 0.354096979
REMARK minimizedRMSD -1
REMARK  1 active torsions:
REMARK  status: ('A' for Active; 'I' for Inactive)
REMARK    1  A    between atoms: N_2  and  C1_3 
ROOT
ATOM      1  C1  UNL d   1      -1.321  -5.102  -4.343  0.00  0.00     0.143 A 
ATOM      2  C2  UNL d   1      -2.396  -5.998  -4.304  0.00  0.00    -0.057 A 
ATOM      3  C3  UNL d   1      -3.523  -5.815  -5.114  0.00  0.00     0.033 A 
ATOM      4  C4  UNL d   1      -3.609  -4.714  -5.959  0.00  0.00    -0.042 A 
ATOM      5  C5  UNL d   1      -2.564  -3.797  -5.996  0.00  0.00     0.033 A 
ATOM      6  C6  UNL d   1      -1.437  -3.989  -5.190  0.00  0.00    -0.057 A 
ENDROOT
BRANCH   1   7
ATOM      7  N   UNL d   1      -0.216  -5.176  -3.491  0.00  0.00    -0.732 N 
ATOM      8  C   UNL d   1      -0.357  -5.684  -2.144  0.00  0.00     0.284 C 
ATOM      9  H3  UNL d   1       0.623  -5.494  -3.970  0.00  0.00     0.395 HD
ENDBRANCH   1   7
TORSDOF 1
ENDMDL
