MODEL 1
REMARK minimizedAffinity 8.14438438
REMARK minimizedRMSD -1
REMARK  1 active torsions:
REMARK  status: ('A' for Active; 'I' for Inactive)
REMARK    1  A    between atoms: N_2  and  C1_3 
ROOT
ATOM      1  C1  UNL d   1      -3.154  -4.906  -5.405  0.00  0.00     0.143 A 
ATOM      2  C2  UNL d   1      -2.813  -4.287  -4.197  0.00  0.00    -0.057 A 
ATOM      3  C3  UNL d   1      -1.561  -4.491  -3.605  0.00  0.00     0.033 A 
ATOM      4  C4  UNL d   1      -0.635  -5.344  -4.197  0.00  0.00    -0.042 A 
ATOM      5  C5  UNL d   1      -0.962  -5.989  -5.385  0.00  0.00     0.033 A 
ATOM      6  C6  UNL d   1      -2.211  -5.776  -5.975  0.00  0.00    -0.057 A 
ENDROOT
BRANCH   1   7
ATOM      7  N   UNL d   1      -4.418  -4.820  -5.993  0.00  0.00    -0.732 N 
ATOM      8  C   UNL d   1      -5.307  -5.962  -6.000  0.00  0.00     0.284 C 
ATOM      9  H3  UNL d   1      -4.880  -3.936  -5.795  0.00  0.00     0.395 HD
ENDBRANCH   1   7
TORSDOF 1
ENDMDL
