MODEL 1
REMARK minimizedAffinity -0.21144177
REMARK minimizedRMSD -1
REMARK  1 active torsions:
REMARK  status: ('A' for Active; 'I' for Inactive)
REMARK    1  A    between atoms: N_2  and  C1_3 
ROOT
ATOM      1  C1  UNL d   1      -1.625  -4.981  -4.974  0.00  0.00     0.143 A 
ATOM      2  C2  UNL d   1      -1.982  -3.734  -5.497  0.00  0.00    -0.057 A 
ATOM      3  C3  UNL d   1      -3.270  -3.494  -5.990  0.00  0.00     0.033 A 
ATOM      4  C4  UNL d   1      -4.219  -4.511  -5.995  0.00  0.00    -0.042 A 
ATOM      5  C5  UNL d   1      -3.880  -5.766  -5.503  0.00  0.00     0.033 A 
ATOM      6  C6  UNL d   1      -2.594  -5.997  -5.006  0.00  0.00    -0.057 A 
ENDROOT
BRANCH   1   7
ATOM      7  N   UNL d   1      -0.332  -5.311  -4.560  0.00  0.00    -0.732 N 
ATOM      8  C   UNL d   1      -0.112  -5.987  -3.299  0.00  0.00     0.284 C 
ATOM      9  H3  UNL d   1       0.244  -5.657  -5.323  0.00  0.00     0.395 HD
ENDBRANCH   1   7
TORSDOF 1
ENDMDL
