MODEL 1
REMARK minimizedAffinity 1.43422973
REMARK minimizedRMSD -1
REMARK  1 active torsions:
REMARK  status: ('A' for Active; 'I' for Inactive)
REMARK    1  A    between atoms: N_2  and  C1_3 
ROOT
ATOM      1  C1  UNL d   1      -2.618   3.527  -2.277  0.00  0.00     0.143 A 
ATOM      2  C2  UNL d   1      -2.293   4.092  -3.515  0.00  0.00    -0.057 A 
ATOM      3  C3  UNL d   1      -0.999   3.993  -4.040  0.00  0.00     0.033 A 
ATOM      4  C4  UNL d   1       0.003   3.349  -3.322  0.00  0.00    -0.042 A 
ATOM      5  C5  UNL d   1      -0.292   2.801  -2.078  0.00  0.00     0.033 A 
ATOM      6  C6  UNL d   1      -1.587   2.898  -1.561  0.00  0.00    -0.057 A 
ENDROOT
BRANCH   1   7
ATOM      7  N   UNL d   1      -3.861   3.677  -1.656  0.00  0.00    -0.732 N 
ATOM      8  C   UNL d   1      -4.180   4.887  -0.928  0.00  0.00     0.284 C 
ATOM      9  H3  UNL d   1      -4.625   3.321  -2.225  0.00  0.00     0.395 HD
ENDBRANCH   1   7
TORSDOF 1
ENDMDL
