MODEL 1
REMARK minimizedAffinity 2.38864899
REMARK minimizedRMSD -1
REMARK  1 active torsions:
REMARK  status: ('A' for Active; 'I' for Inactive)
REMARK    1  A    between atoms: N_2  and  C1_3 
ROOT
ATOM      1  C1  UNL d   1      -1.962  -5.321  -5.225  0.00  0.00     0.143 A 
ATOM      2  C2  UNL d   1      -3.116  -5.998  -5.636  0.00  0.00    -0.057 A 
ATOM      3  C3  UNL d   1      -4.275  -5.302  -6.000  0.00  0.00     0.033 A 
ATOM      4  C4  UNL d   1      -4.310  -3.913  -5.931  0.00  0.00    -0.042 A 
ATOM      5  C5  UNL d   1      -3.184  -3.221  -5.501  0.00  0.00     0.033 A 
ATOM      6  C6  UNL d   1      -2.027  -3.921  -5.146  0.00  0.00    -0.057 A 
ENDROOT
BRANCH   1   7
ATOM      7  N   UNL d   1      -0.811  -5.960  -4.756  0.00  0.00    -0.732 N 
ATOM      8  C   UNL d   1      -0.492  -5.960  -3.345  0.00  0.00     0.284 C 
ATOM      9  H3  UNL d   1      -0.644  -6.849  -5.221  0.00  0.00     0.395 HD
ENDBRANCH   1   7
TORSDOF 1
ENDMDL
