MODEL 1
REMARK minimizedAffinity -0.817386627
REMARK minimizedRMSD -1
REMARK  1 active torsions:
REMARK  status: ('A' for Active; 'I' for Inactive)
REMARK    1  A    between atoms: N_2  and  C1_3 
ROOT
ATOM      1  C1  UNL d   1      -3.527  -4.608  -5.344  0.00  0.00     0.143 A 
ATOM      2  C2  UNL d   1      -2.353  -4.993  -6.000  0.00  0.00    -0.057 A 
ATOM      3  C3  UNL d   1      -1.152  -5.162  -5.300  0.00  0.00     0.033 A 
ATOM      4  C4  UNL d   1      -1.098  -4.919  -3.931  0.00  0.00    -0.042 A 
ATOM      5  C5  UNL d   1      -2.247  -4.511  -3.263  0.00  0.00     0.033 A 
ATOM      6  C6  UNL d   1      -3.444  -4.351  -3.967  0.00  0.00    -0.057 A 
ENDROOT
BRANCH   1   7
ATOM      7  N   UNL d   1      -4.728  -4.328  -6.000  0.00  0.00    -0.732 N 
ATOM      8  C   UNL d   1      -5.284  -2.992  -5.982  0.00  0.00     0.284 C 
ATOM      9  H3  UNL d   1      -4.796  -4.795  -6.902  0.00  0.00     0.395 HD
ENDBRANCH   1   7
TORSDOF 1
ENDMDL
