MODEL 1
REMARK minimizedAffinity 1.65014446
REMARK minimizedRMSD -1
REMARK  1 active torsions:
REMARK  status: ('A' for Active; 'I' for Inactive)
REMARK    1  A    between atoms: N_2  and  C1_3 
ROOT
ATOM      1  C1  UNL d   1      -1.064  -1.880   2.872  0.00  0.00     0.143 A 
ATOM      2  C2  UNL d   1      -1.039  -0.735   2.068  0.00  0.00    -0.057 A 
ATOM      3  C3  UNL d   1      -0.319  -0.706   0.868  0.00  0.00     0.033 A 
ATOM      4  C4  UNL d   1       0.415  -1.816   0.463  0.00  0.00    -0.042 A 
ATOM      5  C5  UNL d   1       0.424  -2.957   1.258  0.00  0.00     0.033 A 
ATOM      6  C6  UNL d   1      -0.302  -2.982   2.452  0.00  0.00    -0.057 A 
ENDROOT
BRANCH   1   7
ATOM      7  N   UNL d   1      -1.680  -1.938   4.124  0.00  0.00    -0.732 N 
ATOM      8  C   UNL d   1      -2.851  -1.136   4.407  0.00  0.00     0.284 C 
ATOM      9  H3  UNL d   1      -1.727  -2.886   4.490  0.00  0.00     0.395 HD
ENDBRANCH   1   7
TORSDOF 1
ENDMDL
