MODEL 1
REMARK minimizedAffinity 7.34047079
REMARK minimizedRMSD -1
REMARK  1 active torsions:
REMARK  status: ('A' for Active; 'I' for Inactive)
REMARK    1  A    between atoms: N_2  and  C1_3 
ROOT
ATOM      1  C1  UNL d   1      -2.853  -0.273  -1.040  0.00  0.00     0.143 A 
ATOM      2  C2  UNL d   1      -1.884  -1.096  -0.456  0.00  0.00    -0.057 A 
ATOM      3  C3  UNL d   1      -0.804  -0.556   0.254  0.00  0.00     0.033 A 
ATOM      4  C4  UNL d   1      -0.658   0.823   0.367  0.00  0.00    -0.042 A 
ATOM      5  C5  UNL d   1      -1.596   1.661  -0.227  0.00  0.00     0.033 A 
ATOM      6  C6  UNL d   1      -2.675   1.115  -0.929  0.00  0.00    -0.057 A 
ENDROOT
BRANCH   1   7
ATOM      7  N   UNL d   1      -3.895  -0.746  -1.841  0.00  0.00    -0.732 N 
ATOM      8  C   UNL d   1      -5.274  -0.497  -1.480  0.00  0.00     0.284 C 
ATOM      9  H3  UNL d   1      -3.700  -0.641  -2.834  0.00  0.00     0.395 HD
ENDBRANCH   1   7
TORSDOF 1
ENDMDL
