MODEL 1
REMARK minimizedAffinity 3.18884063
REMARK minimizedRMSD -1
REMARK  1 active torsions:
REMARK  status: ('A' for Active; 'I' for Inactive)
REMARK    1  A    between atoms: N_2  and  C1_3 
ROOT
ATOM      1  C1  UNL d   1       0.795   1.102  -0.258  0.00  0.00     0.143 A 
ATOM      2  C2  UNL d   1       1.085   0.133  -1.225  0.00  0.00    -0.057 A 
ATOM      3  C3  UNL d   1       1.626  -1.108  -0.869  0.00  0.00     0.033 A 
ATOM      4  C4  UNL d   1       1.916  -1.392   0.461  0.00  0.00    -0.042 A 
ATOM      5  C5  UNL d   1       1.660  -0.435   1.436  0.00  0.00     0.033 A 
ATOM      6  C6  UNL d   1       1.113   0.801   1.076  0.00  0.00    -0.057 A 
ENDROOT
BRANCH   1   7
ATOM      7  N   UNL d   1       0.349   2.391  -0.558  0.00  0.00    -0.732 N 
ATOM      8  C   UNL d   1       0.914   3.542   0.113  0.00  0.00     0.284 C 
ATOM      9  H3  UNL d   1       0.193   2.526  -1.555  0.00  0.00     0.395 HD
ENDBRANCH   1   7
TORSDOF 1
ENDMDL
