MODEL 1
REMARK minimizedAffinity 5.89689159
REMARK minimizedRMSD -1
REMARK  1 active torsions:
REMARK  status: ('A' for Active; 'I' for Inactive)
REMARK    1  A    between atoms: N_2  and  C1_3 
ROOT
ATOM      1  C1  UNL d   1       1.189   0.614   0.584  0.00  0.00     0.143 A 
ATOM      2  C2  UNL d   1       0.789   1.927   0.851  0.00  0.00    -0.057 A 
ATOM      3  C3  UNL d   1       0.087   2.679  -0.099  0.00  0.00     0.033 A 
ATOM      4  C4  UNL d   1      -0.202   2.139  -1.348  0.00  0.00    -0.042 A 
ATOM      5  C5  UNL d   1       0.208   0.844  -1.644  0.00  0.00     0.033 A 
ATOM      6  C6  UNL d   1       0.903   0.095  -0.689  0.00  0.00    -0.057 A 
ENDROOT
BRANCH   1   7
ATOM      7  N   UNL d   1       1.975  -0.151   1.450  0.00  0.00    -0.732 N 
ATOM      8  C   UNL d   1       1.983  -1.595   1.357  0.00  0.00     0.284 C 
ATOM      9  H3  UNL d   1       2.892   0.261   1.607  0.00  0.00     0.395 HD
ENDBRANCH   1   7
TORSDOF 1
ENDMDL
