MODEL 1
REMARK minimizedAffinity 4.74923658
REMARK minimizedRMSD -1
REMARK  1 active torsions:
REMARK  status: ('A' for Active; 'I' for Inactive)
REMARK    1  A    between atoms: N_2  and  C1_3 
ROOT
ATOM      1  C1  UNL d   1      -2.738   3.132  -4.961  0.00  0.00     0.143 A 
ATOM      2  C2  UNL d   1      -2.134   2.339  -5.943  0.00  0.00    -0.057 A 
ATOM      3  C3  UNL d   1      -1.685   1.045  -5.657  0.00  0.00     0.033 A 
ATOM      4  C4  UNL d   1      -1.806   0.529  -4.371  0.00  0.00    -0.042 A 
ATOM      5  C5  UNL d   1      -2.381   1.308  -3.373  0.00  0.00     0.033 A 
ATOM      6  C6  UNL d   1      -2.833   2.598  -3.667  0.00  0.00    -0.057 A 
ENDROOT
BRANCH   1   7
ATOM      7  N   UNL d   1      -3.116   4.462  -5.159  0.00  0.00    -0.732 N 
ATOM      8  C   UNL d   1      -4.510   4.818  -5.312  0.00  0.00     0.284 C 
ATOM      9  H3  UNL d   1      -2.583   5.107  -4.580  0.00  0.00     0.395 HD
ENDBRANCH   1   7
TORSDOF 1
ENDMDL
