MODEL 1
REMARK minimizedAffinity 2.7841928
REMARK minimizedRMSD -1
REMARK  1 active torsions:
REMARK  status: ('A' for Active; 'I' for Inactive)
REMARK    1  A    between atoms: N_2  and  C1_3 
ROOT
ATOM      1  C1  UNL d   1      -2.045   2.755  -4.870  0.00  0.00     0.143 A 
ATOM      2  C2  UNL d   1      -1.090   1.999  -5.559  0.00  0.00    -0.057 A 
ATOM      3  C3  UNL d   1      -0.422   0.935  -4.941  0.00  0.00     0.033 A 
ATOM      4  C4  UNL d   1      -0.677   0.626  -3.609  0.00  0.00    -0.042 A 
ATOM      5  C5  UNL d   1      -1.603   1.380  -2.897  0.00  0.00     0.033 A 
ATOM      6  C6  UNL d   1      -2.272   2.437  -3.522  0.00  0.00    -0.057 A 
ENDROOT
BRANCH   1   7
ATOM      7  N   UNL d   1      -2.671   3.886  -5.399  0.00  0.00    -0.732 N 
ATOM      8  C   UNL d   1      -2.998   5.012  -4.550  0.00  0.00     0.284 C 
ATOM      9  H3  UNL d   1      -2.299   4.146  -6.309  0.00  0.00     0.395 HD
ENDBRANCH   1   7
TORSDOF 1
ENDMDL
