MODEL 1
REMARK minimizedAffinity 7.4277091
REMARK minimizedRMSD -1
REMARK  1 active torsions:
REMARK  status: ('A' for Active; 'I' for Inactive)
REMARK    1  A    between atoms: N_2  and  C1_3 
ROOT
ATOM      1  C1  UNL d   1       3.466  -1.423   2.624  0.00  0.00     0.143 A 
ATOM      2  C2  UNL d   1       3.414  -0.314   3.475  0.00  0.00    -0.057 A 
ATOM      3  C3  UNL d   1       4.023  -0.338   4.736  0.00  0.00     0.033 A 
ATOM      4  C4  UNL d   1       4.672  -1.485   5.180  0.00  0.00    -0.042 A 
ATOM      5  C5  UNL d   1       4.714  -2.607   4.360  0.00  0.00     0.033 A 
ATOM      6  C6  UNL d   1       4.110  -2.575   3.100  0.00  0.00    -0.057 A 
ENDROOT
BRANCH   1   7
ATOM      7  N   UNL d   1       2.796  -1.496   1.400  0.00  0.00    -0.732 N 
ATOM      8  C   UNL d   1       1.451  -0.979   1.263  0.00  0.00     0.284 C 
ATOM      9  H3  UNL d   1       3.404  -1.285   0.611  0.00  0.00     0.395 HD
ENDBRANCH   1   7
TORSDOF 1
ENDMDL
