MODEL 1
REMARK minimizedAffinity 8.26467133
REMARK minimizedRMSD -1
REMARK  1 active torsions:
REMARK  status: ('A' for Active; 'I' for Inactive)
REMARK    1  A    between atoms: N_2  and  C1_3 
ROOT
ATOM      1  C1  UNL d   1       0.456   3.697  -0.360  0.00  0.00     0.143 A 
ATOM      2  C2  UNL d   1      -0.182   2.562  -0.871  0.00  0.00    -0.057 A 
ATOM      3  C3  UNL d   1       0.096   1.285  -0.367  0.00  0.00     0.033 A 
ATOM      4  C4  UNL d   1       1.041   1.118   0.640  0.00  0.00    -0.042 A 
ATOM      5  C5  UNL d   1       1.705   2.229   1.145  0.00  0.00     0.033 A 
ATOM      6  C6  UNL d   1       1.419   3.503   0.643  0.00  0.00    -0.057 A 
ENDROOT
BRANCH   1   7
ATOM      7  N   UNL d   1       0.296   4.982  -0.885  0.00  0.00    -0.732 N 
ATOM      8  C   UNL d   1       1.449   5.777  -1.251  0.00  0.00     0.284 C 
ATOM      9  H3  UNL d   1      -0.474   5.037  -1.547  0.00  0.00     0.395 HD
ENDBRANCH   1   7
TORSDOF 1
ENDMDL
