MODEL 1
REMARK minimizedAffinity -0.469502002
REMARK minimizedRMSD -1
REMARK  1 active torsions:
REMARK  status: ('A' for Active; 'I' for Inactive)
REMARK    1  A    between atoms: N_2  and  C1_3 
ROOT
ATOM      1  C1  UNL d   1      -5.367   2.503  -4.779  0.00  0.00     0.143 A 
ATOM      2  C2  UNL d   1      -5.998   3.443  -5.602  0.00  0.00    -0.057 A 
ATOM      3  C3  UNL d   1      -5.344   4.615  -5.999  0.00  0.00     0.033 A 
ATOM      4  C4  UNL d   1      -4.053   4.883  -5.556  0.00  0.00    -0.042 A 
ATOM      5  C5  UNL d   1      -3.416   3.975  -4.717  0.00  0.00     0.033 A 
ATOM      6  C6  UNL d   1      -4.072   2.803  -4.329  0.00  0.00    -0.057 A 
ENDROOT
BRANCH   1   7
ATOM      7  N   UNL d   1      -6.000   1.367  -4.269  0.00  0.00    -0.732 N 
ATOM      8  C   UNL d   1      -5.626   0.832  -2.977  0.00  0.00     0.284 C 
ATOM      9  H3  UNL d   1      -7.002   1.368  -4.444  0.00  0.00     0.395 HD
ENDBRANCH   1   7
TORSDOF 1
ENDMDL
