MODEL 1
REMARK minimizedAffinity -0.0631171837
REMARK minimizedRMSD -1
REMARK  1 active torsions:
REMARK  status: ('A' for Active; 'I' for Inactive)
REMARK    1  A    between atoms: N_2  and  C1_3 
ROOT
ATOM      1  C1  UNL d   1      -3.557   2.992   0.738  0.00  0.00     0.143 A 
ATOM      2  C2  UNL d   1      -3.524   4.354   1.059  0.00  0.00    -0.057 A 
ATOM      3  C3  UNL d   1      -4.702   5.069   1.308  0.00  0.00     0.033 A 
ATOM      4  C4  UNL d   1      -5.938   4.440   1.212  0.00  0.00    -0.042 A 
ATOM      5  C5  UNL d   1      -5.996   3.094   0.869  0.00  0.00     0.033 A 
ATOM      6  C6  UNL d   1      -4.816   2.383   0.628  0.00  0.00    -0.057 A 
ENDROOT
BRANCH   1   7
ATOM      7  N   UNL d   1      -2.428   2.250   0.382  0.00  0.00    -0.732 N 
ATOM      8  C   UNL d   1      -1.262   2.902  -0.174  0.00  0.00     0.284 C 
ATOM      9  H3  UNL d   1      -2.213   1.522   1.059  0.00  0.00     0.395 HD
ENDBRANCH   1   7
TORSDOF 1
ENDMDL
