MODEL 1
REMARK minimizedAffinity -3.48455191
REMARK minimizedRMSD -1
REMARK  2 active torsions:
REMARK  status: ('A' for Active; 'I' for Inactive)
REMARK    1  A    between atoms: C2'_3  and  C1'_4 
REMARK    2  A    between atoms: C1'_4  and  C1_5 
ROOT
ATOM      1  C1  I4B d   1      -1.563   0.052   1.795  0.00  0.00    -0.075 A 
ATOM      2  C2  I4B d   1      -0.230   0.374   1.858  0.00  0.00     0.003 A 
ATOM      3  C3  I4B d   1       0.729  -0.428   1.193  0.00  0.00     0.002 A 
ATOM      4  C4  I4B d   1       0.319  -1.564   0.524  0.00  0.00    -0.004 A 
ATOM      5  C5  I4B d   1      -1.035  -1.876   0.442  0.00  0.00     0.002 A 
ATOM      6  C6  I4B d   1      -1.983  -1.056   1.071  0.00  0.00     0.003 A 
ENDROOT
BRANCH   1   7
ATOM      7  C1' I4B d   1      -2.545   0.903   2.536  0.00  0.00     0.060 C 
BRANCH   7   8
ATOM      8  C2' I4B d   1      -3.783   1.044   1.674  0.00  0.00    -0.013 C 
ATOM      9  C4' I4B d   1      -5.016   0.593   2.413  0.00  0.00     0.013 C 
ATOM     10  C3' I4B d   1      -3.897   2.480   1.258  0.00  0.00     0.013 C 
ENDBRANCH   7   8
ENDBRANCH   1   7
TORSDOF 2
ENDMDL
