MODEL 1
REMARK minimizedAffinity -4.13813591
REMARK minimizedRMSD -1
REMARK  2 active torsions:
REMARK  status: ('A' for Active; 'I' for Inactive)
REMARK    1  A    between atoms: C2'_3  and  C1'_4 
REMARK    2  A    between atoms: C1'_4  and  C1_5 
ROOT
ATOM      1  C1  I4B d   1       0.548  -0.796  -0.307  0.00  0.00    -0.075 A 
ATOM      2  C2  I4B d   1      -0.226  -1.689  -1.005  0.00  0.00     0.003 A 
ATOM      3  C3  I4B d   1      -1.595  -1.851  -0.681  0.00  0.00     0.002 A 
ATOM      4  C4  I4B d   1      -2.132  -1.141   0.374  0.00  0.00    -0.004 A 
ATOM      5  C5  I4B d   1      -1.351  -0.219   1.065  0.00  0.00     0.002 A 
ATOM      6  C6  I4B d   1      -0.006  -0.036   0.715  0.00  0.00     0.003 A 
ENDROOT
BRANCH   1   7
ATOM      7  C1' I4B d   1       1.998  -0.674  -0.654  0.00  0.00     0.060 C 
BRANCH   7   8
ATOM      8  C2' I4B d   1       2.153  -0.984  -2.129  0.00  0.00    -0.013 C 
ATOM      9  C4' I4B d   1       2.209   0.278  -2.948  0.00  0.00     0.013 C 
ATOM     10  C3' I4B d   1       3.401  -1.798  -2.302  0.00  0.00     0.013 C 
ENDBRANCH   7   8
ENDBRANCH   1   7
TORSDOF 2
ENDMDL
