MODEL 1
REMARK minimizedAffinity -5.02202988
REMARK minimizedRMSD -1
REMARK  2 active torsions:
REMARK  status: ('A' for Active; 'I' for Inactive)
REMARK    1  A    between atoms: C2'_3  and  C1'_4 
REMARK    2  A    between atoms: C1'_4  and  C1_5 
ROOT
ATOM      1  C1  I4B d   1      -0.602  -0.154   0.914  0.00  0.00    -0.075 A 
ATOM      2  C2  I4B d   1      -0.391   0.047   2.256  0.00  0.00     0.003 A 
ATOM      3  C3  I4B d   1      -1.470   0.397   3.103  0.00  0.00     0.002 A 
ATOM      4  C4  I4B d   1      -2.726   0.584   2.561  0.00  0.00    -0.004 A 
ATOM      5  C5  I4B d   1      -2.943   0.357   1.205  0.00  0.00     0.002 A 
ATOM      6  C6  I4B d   1      -1.877  -0.026   0.378  0.00  0.00     0.003 A 
ENDROOT
BRANCH   1   7
ATOM      7  C1' I4B d   1       0.566  -0.491   0.043  0.00  0.00     0.060 C 
BRANCH   7   8
ATOM      8  C2' I4B d   1       0.100  -1.486  -1.000  0.00  0.00    -0.013 C 
ATOM      9  C4' I4B d   1       0.359  -0.978  -2.393  0.00  0.00     0.013 C 
ATOM     10  C3' I4B d   1       0.813  -2.782  -0.755  0.00  0.00     0.013 C 
ENDBRANCH   7   8
ENDBRANCH   1   7
TORSDOF 2
ENDMDL
