MODEL 1
REMARK minimizedAffinity -4.56775141
REMARK minimizedRMSD -1
REMARK  2 active torsions:
REMARK  status: ('A' for Active; 'I' for Inactive)
REMARK    1  A    between atoms: C2'_3  and  C1'_4 
REMARK    2  A    between atoms: C1'_4  and  C1_5 
ROOT
ATOM      1  C1  I4B d   1      -0.939  -0.903   1.769  0.00  0.00    -0.075 A 
ATOM      2  C2  I4B d   1      -0.584  -1.235   0.486  0.00  0.00     0.003 A 
ATOM      3  C3  I4B d   1       0.747  -1.617   0.190  0.00  0.00     0.002 A 
ATOM      4  C4  I4B d   1       1.696  -1.604   1.192  0.00  0.00    -0.004 A 
ATOM      5  C5  I4B d   1       1.330  -1.289   2.497  0.00  0.00     0.002 A 
ATOM      6  C6  I4B d   1       0.001  -0.949   2.791  0.00  0.00     0.003 A 
ENDROOT
BRANCH   1   7
ATOM      7  C1' I4B d   1      -2.346  -0.473   2.040  0.00  0.00     0.060 C 
BRANCH   7   8
ATOM      8  C2' I4B d   1      -2.904   0.126   0.765  0.00  0.00    -0.013 C 
ATOM      9  C4' I4B d   1      -4.400  -0.031   0.699  0.00  0.00     0.013 C 
ATOM     10  C3' I4B d   1      -2.508   1.572   0.722  0.00  0.00     0.013 C 
ENDBRANCH   7   8
ENDBRANCH   1   7
TORSDOF 2
ENDMDL
