MODEL 1
REMARK minimizedAffinity -0.965744138
REMARK minimizedRMSD -1
REMARK  2 active torsions:
REMARK  status: ('A' for Active; 'I' for Inactive)
REMARK    1  A    between atoms: C2'_3  and  C1'_4 
REMARK    2  A    between atoms: C1'_4  and  C1_5 
ROOT
ATOM      1  C1  I4B d   1      -0.981  -1.111   0.954  0.00  0.00    -0.075 A 
ATOM      2  C2  I4B d   1      -1.554  -0.907  -0.277  0.00  0.00     0.003 A 
ATOM      3  C3  I4B d   1      -2.692  -0.075  -0.404  0.00  0.00     0.002 A 
ATOM      4  C4  I4B d   1      -3.253   0.488   0.724  0.00  0.00    -0.004 A 
ATOM      5  C5  I4B d   1      -2.658   0.298   1.968  0.00  0.00     0.002 A 
ATOM      6  C6  I4B d   1      -1.508  -0.497   2.083  0.00  0.00     0.003 A 
ENDROOT
BRANCH   1   7
ATOM      7  C1' I4B d   1       0.201  -2.022   1.057  0.00  0.00     0.060 C 
BRANCH   7   8
ATOM      8  C2' I4B d   1       1.225  -1.358   1.955  0.00  0.00    -0.013 C 
ATOM      9  C4' I4B d   1       0.963  -1.672   3.405  0.00  0.00     0.013 C 
ATOM     10  C3' I4B d   1       2.584  -1.832   1.536  0.00  0.00     0.013 C 
ENDBRANCH   7   8
ENDBRANCH   1   7
TORSDOF 2
ENDMDL
