MODEL 1
REMARK minimizedAffinity -2.73971987
REMARK minimizedRMSD -1
REMARK  2 active torsions:
REMARK  status: ('A' for Active; 'I' for Inactive)
REMARK    1  A    between atoms: C2'_3  and  C1'_4 
REMARK    2  A    between atoms: C1'_4  and  C1_5 
ROOT
ATOM      1  C1  I4B d   1      -1.097  -0.477   0.255  0.00  0.00    -0.075 A 
ATOM      2  C2  I4B d   1      -0.635  -0.681   1.532  0.00  0.00     0.003 A 
ATOM      3  C3  I4B d   1      -1.529  -0.635   2.629  0.00  0.00     0.002 A 
ATOM      4  C4  I4B d   1      -2.858  -0.336   2.411  0.00  0.00    -0.004 A 
ATOM      5  C5  I4B d   1      -3.329  -0.152   1.114  0.00  0.00     0.002 A 
ATOM      6  C6  I4B d   1      -2.445  -0.236   0.028  0.00  0.00     0.003 A 
ENDROOT
BRANCH   1   7
ATOM      7  C1' I4B d   1      -0.120  -0.499  -0.877  0.00  0.00     0.060 C 
BRANCH   7   8
ATOM      8  C2' I4B d   1      -0.534  -1.602  -1.830  0.00  0.00    -0.013 C 
ATOM      9  C4' I4B d   1      -0.177  -1.257  -3.252  0.00  0.00     0.013 C 
ATOM     10  C3' I4B d   1       0.139  -2.869  -1.395  0.00  0.00     0.013 C 
ENDBRANCH   7   8
ENDBRANCH   1   7
TORSDOF 2
ENDMDL
