MODEL 1
REMARK minimizedAffinity 12.5371437
REMARK minimizedRMSD -1
REMARK  0 active torsions:
REMARK  status: ('A' for Active; 'I' for Inactive)
ROOT
ATOM      1  N1  IND d   1       0.238   5.078  -2.998  0.00  0.00    -0.196 N 
ATOM      2  C2  IND d   1      -0.745   5.999  -3.227  0.00  0.00     0.054 A 
ATOM      3  C3  IND d   1      -1.636   6.000  -2.209  0.00  0.00    -0.031 A 
ATOM      4  C4  IND d   1      -1.618   4.645  -0.020  0.00  0.00     0.051 A 
ATOM      5  C5  IND d   1      -0.941   3.647   0.624  0.00  0.00    -0.031 A 
ATOM      6  C6  IND d   1       0.188   3.066   0.084  0.00  0.00     0.015 A 
ATOM      7  C7  IND d   1       0.691   3.470  -1.120  0.00  0.00    -0.016 A 
ATOM      8  C8  IND d   1       0.002   4.478  -1.780  0.00  0.00    -0.047 A 
ATOM      9  C9  IND d   1      -1.169   5.042  -1.258  0.00  0.00    -0.096 A 
ATOM     10  HN1 IND d   1       0.894   4.902  -3.525  0.00  0.00     0.298 HD
ENDROOT
TORSDOF 0
ENDMDL
