MODEL 1
REMARK minimizedAffinity 11.7749825
REMARK minimizedRMSD -1
REMARK  0 active torsions:
REMARK  status: ('A' for Active; 'I' for Inactive)
ROOT
ATOM      1  N1  IND d   1       2.141  -0.145   2.670  0.00  0.00    -0.196 N 
ATOM      2  C2  IND d   1       1.998   1.137   3.121  0.00  0.00     0.054 A 
ATOM      3  C3  IND d   1       1.554   1.140   4.398  0.00  0.00    -0.031 A 
ATOM      4  C4  IND d   1       1.092  -0.843   5.973  0.00  0.00     0.051 A 
ATOM      5  C5  IND d   1       1.044  -2.209   6.000  0.00  0.00    -0.031 A 
ATOM      6  C6  IND d   1       1.368  -2.972   4.897  0.00  0.00     0.015 A 
ATOM      7  C7  IND d   1       1.766  -2.395   3.724  0.00  0.00    -0.016 A 
ATOM      8  C8  IND d   1       1.809  -1.009   3.690  0.00  0.00    -0.047 A 
ATOM      9  C9  IND d   1       1.440  -0.228   4.794  0.00  0.00    -0.096 A 
ATOM     10  HN1 IND d   1       2.396  -0.374   1.881  0.00  0.00     0.298 HD
ENDROOT
TORSDOF 0
ENDMDL
