MODEL 1
REMARK minimizedAffinity 10.8843393
REMARK minimizedRMSD -1
REMARK  0 active torsions:
REMARK  status: ('A' for Active; 'I' for Inactive)
ROOT
ATOM      1  N1  IND d   1       0.383   2.614  -0.389  0.00  0.00    -0.196 N 
ATOM      2  C2  IND d   1       0.658   2.984   0.898  0.00  0.00     0.054 A 
ATOM      3  C3  IND d   1       0.245   4.253   1.121  0.00  0.00    -0.031 A 
ATOM      4  C4  IND d   1      -0.996   5.869  -0.452  0.00  0.00     0.051 A 
ATOM      5  C5  IND d   1      -1.436   5.994  -1.740  0.00  0.00    -0.031 A 
ATOM      6  C6  IND d   1      -1.291   4.977  -2.661  0.00  0.00     0.015 A 
ATOM      7  C7  IND d   1      -0.709   3.787  -2.324  0.00  0.00    -0.016 A 
ATOM      8  C8  IND d   1      -0.255   3.660  -1.019  0.00  0.00    -0.047 A 
ATOM      9  C9  IND d   1      -0.361   4.704  -0.091  0.00  0.00    -0.096 A 
ATOM     10  HN1 IND d   1       0.576   1.856  -0.745  0.00  0.00     0.298 HD
ENDROOT
TORSDOF 0
ENDMDL
