MODEL 1
REMARK minimizedAffinity 1.2168622
REMARK minimizedRMSD -1
REMARK  0 active torsions:
REMARK  status: ('A' for Active; 'I' for Inactive)
ROOT
ATOM      1  N1  IND d   1       0.404   3.171  -1.395  0.00  0.00    -0.196 N 
ATOM      2  C2  IND d   1       0.665   2.587  -0.187  0.00  0.00     0.054 A 
ATOM      3  C3  IND d   1      -0.037   3.199   0.793  0.00  0.00    -0.031 A 
ATOM      4  C4  IND d   1      -1.752   5.112   0.626  0.00  0.00     0.051 A 
ATOM      5  C5  IND d   1      -2.297   5.995  -0.263  0.00  0.00    -0.031 A 
ATOM      6  C6  IND d   1      -1.965   5.980  -1.602  0.00  0.00     0.015 A 
ATOM      7  C7  IND d   1      -1.080   5.069  -2.107  0.00  0.00    -0.016 A 
ATOM      8  C8  IND d   1      -0.519   4.175  -1.206  0.00  0.00    -0.047 A 
ATOM      9  C9  IND d   1      -0.820   4.213   0.162  0.00  0.00    -0.096 A 
ATOM     10  HN1 IND d   1       0.757   2.948  -2.147  0.00  0.00     0.298 HD
ENDROOT
TORSDOF 0
ENDMDL
