MODEL 1
REMARK minimizedAffinity 9.79643345
REMARK minimizedRMSD -1
REMARK  0 active torsions:
REMARK  status: ('A' for Active; 'I' for Inactive)
ROOT
ATOM      1  N1  IND d   1      -2.565   4.560  -1.274  0.00  0.00    -0.196 N 
ATOM      2  C2  IND d   1      -1.675   4.895  -2.256  0.00  0.00     0.054 A 
ATOM      3  C3  IND d   1      -2.223   4.696  -3.476  0.00  0.00    -0.031 A 
ATOM      4  C4  IND d   1      -4.599   3.922  -4.094  0.00  0.00     0.051 A 
ATOM      5  C5  IND d   1      -5.761   3.463  -3.540  0.00  0.00    -0.031 A 
ATOM      6  C6  IND d   1      -5.921   3.346  -2.174  0.00  0.00     0.015 A 
ATOM      7  C7  IND d   1      -4.925   3.697  -1.308  0.00  0.00    -0.016 A 
ATOM      8  C8  IND d   1      -3.741   4.157  -1.867  0.00  0.00    -0.047 A 
ATOM      9  C9  IND d   1      -3.558   4.237  -3.254  0.00  0.00    -0.096 A 
ATOM     10  HN1 IND d   1      -2.415   4.595  -0.428  0.00  0.00     0.298 HD
ENDROOT
TORSDOF 0
ENDMDL
