MODEL 1
REMARK minimizedAffinity -1.69519162
REMARK minimizedRMSD -1
REMARK  0 active torsions:
REMARK  status: ('A' for Active; 'I' for Inactive)
ROOT
ATOM      1  N1  IND d   1       1.919   4.152   0.078  0.00  0.00    -0.196 N 
ATOM      2  C2  IND d   1       0.740   4.239  -0.609  0.00  0.00     0.054 A 
ATOM      3  C3  IND d   1      -0.288   3.827   0.167  0.00  0.00    -0.031 A 
ATOM      4  C4  IND d   1      -0.278   3.066   2.626  0.00  0.00     0.051 A 
ATOM      5  C5  IND d   1       0.566   2.786   3.664  0.00  0.00    -0.031 A 
ATOM      6  C6  IND d   1       1.932   2.954   3.558  0.00  0.00     0.015 A 
ATOM      7  C7  IND d   1       2.505   3.420   2.409  0.00  0.00    -0.016 A 
ATOM      8  C8  IND d   1       1.652   3.698   1.351  0.00  0.00    -0.047 A 
ATOM      9  C9  IND d   1       0.269   3.489   1.438  0.00  0.00    -0.096 A 
ATOM     10  HN1 IND d   1       2.696   4.348  -0.233  0.00  0.00     0.298 HD
ENDROOT
TORSDOF 0
ENDMDL
