MODEL 1
REMARK minimizedAffinity 11.7979364
REMARK minimizedRMSD -1
REMARK  0 active torsions:
REMARK  status: ('A' for Active; 'I' for Inactive)
ROOT
ATOM      1  N1  IND d   1      -0.349   2.200  -0.732  0.00  0.00    -0.196 N 
ATOM      2  C2  IND d   1       0.222   2.455   0.483  0.00  0.00     0.054 A 
ATOM      3  C3  IND d   1       0.374   3.787   0.661  0.00  0.00    -0.031 A 
ATOM      4  C4  IND d   1      -0.336   5.733  -0.868  0.00  0.00     0.051 A 
ATOM      5  C5  IND d   1      -0.863   5.997  -2.101  0.00  0.00    -0.031 A 
ATOM      6  C6  IND d   1      -1.255   4.988  -2.957  0.00  0.00     0.015 A 
ATOM      7  C7  IND d   1      -1.146   3.672  -2.606  0.00  0.00    -0.016 A 
ATOM      8  C8  IND d   1      -0.605   3.400  -1.357  0.00  0.00    -0.047 A 
ATOM      9  C9  IND d   1      -0.166   4.418  -0.501  0.00  0.00    -0.096 A 
ATOM     10  HN1 IND d   1      -0.518   1.420  -1.053  0.00  0.00     0.298 HD
ENDROOT
TORSDOF 0
ENDMDL
