MODEL 1
REMARK minimizedAffinity 11.749752
REMARK minimizedRMSD -1
REMARK  0 active torsions:
REMARK  status: ('A' for Active; 'I' for Inactive)
ROOT
ATOM      1  N1  IND d   1      -0.726  -3.499  -1.803  0.00  0.00    -0.196 N 
ATOM      2  C2  IND d   1      -0.357  -4.815  -1.846  0.00  0.00     0.054 A 
ATOM      3  C3  IND d   1       0.781  -5.007  -1.142  0.00  0.00    -0.031 A 
ATOM      4  C4  IND d   1       2.150  -3.326   0.245  0.00  0.00     0.051 A 
ATOM      5  C5  IND d   1       2.228  -1.997   0.557  0.00  0.00    -0.031 A 
ATOM      6  C6  IND d   1       1.305  -1.083   0.090  0.00  0.00     0.015 A 
ATOM      7  C7  IND d   1       0.259  -1.468  -0.699  0.00  0.00    -0.016 A 
ATOM      8  C8  IND d   1       0.180  -2.815  -1.024  0.00  0.00    -0.047 A 
ATOM      9  C9  IND d   1       1.138  -3.740  -0.588  0.00  0.00    -0.096 A 
ATOM     10  HN1 IND d   1      -1.409  -3.156  -2.197  0.00  0.00     0.298 HD
ENDROOT
TORSDOF 0
ENDMDL
