MODEL 1
REMARK minimizedAffinity -4.18093538
REMARK minimizedRMSD -1
REMARK  1 active torsions:
REMARK  status: ('A' for Active; 'I' for Inactive)
REMARK    1  A    between atoms: C1_2  and  C2_3 
ROOT
ATOM      1  C2  UNL d   1       0.194   0.383  -0.095  0.00  0.00    -0.077 A 
ATOM      2  C3  UNL d   1      -0.467  -0.363   0.891  0.00  0.00     0.002 A 
ATOM      3  C4  UNL d   1      -1.778  -0.798   0.687  0.00  0.00     0.002 A 
ATOM      4  C5  UNL d   1      -2.437  -0.496  -0.503  0.00  0.00    -0.004 A 
ATOM      5  C6  UNL d   1      -1.789   0.247  -1.489  0.00  0.00     0.002 A 
ATOM      6  C7  UNL d   1      -0.479   0.683  -1.287  0.00  0.00     0.002 A 
ENDROOT
BRANCH   1   7
ATOM      7  C1  UNL d   1       1.625   0.810   0.102  0.00  0.00     0.055 C 
ATOM      8  C   UNL d   1       1.784   1.643   1.366  0.00  0.00     0.019 C 
ENDBRANCH   1   7
TORSDOF 1
ENDMDL
