MODEL 1
REMARK minimizedAffinity -4.2787981
REMARK minimizedRMSD -1
REMARK  1 active torsions:
REMARK  status: ('A' for Active; 'I' for Inactive)
REMARK    1  A    between atoms: C1_2  and  C2_3 
ROOT
ATOM      1  C2  UNL d   1       0.019  -0.298   0.184  0.00  0.00    -0.077 A 
ATOM      2  C3  UNL d   1      -0.581  -1.134   1.137  0.00  0.00     0.002 A 
ATOM      3  C4  UNL d   1      -1.926  -1.488   1.019  0.00  0.00     0.002 A 
ATOM      4  C5  UNL d   1      -2.681  -1.016  -0.053  0.00  0.00    -0.004 A 
ATOM      5  C6  UNL d   1      -2.094  -0.183  -1.005  0.00  0.00     0.002 A 
ATOM      6  C7  UNL d   1      -0.750   0.174  -0.887  0.00  0.00     0.002 A 
ENDROOT
BRANCH   1   7
ATOM      7  C1  UNL d   1       1.482   0.045   0.283  0.00  0.00     0.055 C 
ATOM      8  C   UNL d   1       1.695   1.352   1.033  0.00  0.00     0.019 C 
ENDBRANCH   1   7
TORSDOF 1
ENDMDL
