MODEL 1
REMARK minimizedAffinity -1.78375328
REMARK minimizedRMSD -1
REMARK  1 active torsions:
REMARK  status: ('A' for Active; 'I' for Inactive)
REMARK    1  A    between atoms: C1_2  and  C2_3 
ROOT
ATOM      1  C2  UNL d   1       1.302   0.948   0.378  0.00  0.00    -0.077 A 
ATOM      2  C3  UNL d   1       0.468   1.247  -0.708  0.00  0.00     0.002 A 
ATOM      3  C4  UNL d   1      -0.544   0.362  -1.086  0.00  0.00     0.002 A 
ATOM      4  C5  UNL d   1      -0.734  -0.824  -0.381  0.00  0.00    -0.004 A 
ATOM      5  C6  UNL d   1       0.091  -1.132   0.700  0.00  0.00     0.002 A 
ATOM      6  C7  UNL d   1       1.104  -0.250   1.078  0.00  0.00     0.002 A 
ENDROOT
BRANCH   1   7
ATOM      7  C1  UNL d   1       2.362   1.923   0.818  0.00  0.00     0.055 C 
ATOM      8  C   UNL d   1       2.346   3.182  -0.037  0.00  0.00     0.019 C 
ENDBRANCH   1   7
TORSDOF 1
ENDMDL
