MODEL 1
REMARK minimizedAffinity -3.84748793
REMARK minimizedRMSD -1
REMARK  1 active torsions:
REMARK  status: ('A' for Active; 'I' for Inactive)
REMARK    1  A    between atoms: C1_2  and  C2_3 
ROOT
ATOM      1  C2  UNL d   1      -0.868  -0.253  -1.317  0.00  0.00    -0.077 A 
ATOM      2  C3  UNL d   1      -2.235  -0.172  -1.016  0.00  0.00     0.002 A 
ATOM      3  C4  UNL d   1      -2.708  -0.571   0.235  0.00  0.00     0.002 A 
ATOM      4  C5  UNL d   1      -1.821  -1.049   1.197  0.00  0.00    -0.004 A 
ATOM      5  C6  UNL d   1      -0.460  -1.135   0.908  0.00  0.00     0.002 A 
ATOM      6  C7  UNL d   1       0.015  -0.738  -0.343  0.00  0.00     0.002 A 
ENDROOT
BRANCH   1   7
ATOM      7  C1  UNL d   1      -0.349   0.223  -2.648  0.00  0.00     0.055 C 
ATOM      8  C   UNL d   1      -1.358   1.125  -3.345  0.00  0.00     0.019 C 
ENDBRANCH   1   7
TORSDOF 1
ENDMDL
