MODEL 1
REMARK minimizedAffinity -2.70316935
REMARK minimizedRMSD -1
REMARK  1 active torsions:
REMARK  status: ('A' for Active; 'I' for Inactive)
REMARK    1  A    between atoms: C1_2  and  C2_3 
ROOT
ATOM      1  C2  UNL d   1       0.014   0.009  -0.020  0.00  0.00    -0.077 A 
ATOM      2  C3  UNL d   1      -0.848  -0.080   1.081  0.00  0.00     0.002 A 
ATOM      3  C4  UNL d   1      -2.222  -0.243   0.891  0.00  0.00     0.002 A 
ATOM      4  C5  UNL d   1      -2.744  -0.322  -0.398  0.00  0.00    -0.004 A 
ATOM      5  C6  UNL d   1      -1.894  -0.232  -1.500  0.00  0.00     0.002 A 
ATOM      6  C7  UNL d   1      -0.521  -0.068  -1.312  0.00  0.00     0.002 A 
ENDROOT
BRANCH   1   7
ATOM      7  C1  UNL d   1       1.502   0.135   0.183  0.00  0.00     0.055 C 
ATOM      8  C   UNL d   1       1.935   1.594   0.213  0.00  0.00     0.019 C 
ENDBRANCH   1   7
TORSDOF 1
ENDMDL
