MODEL 1
REMARK minimizedAffinity -5.16770124
REMARK minimizedRMSD -1
REMARK  1 active torsions:
REMARK  status: ('A' for Active; 'I' for Inactive)
REMARK    1  A    between atoms: C1_2  and  C2_3 
ROOT
ATOM      1  C2  UNL d   1       0.108   0.241  -0.185  0.00  0.00    -0.077 A 
ATOM      2  C3  UNL d   1      -0.572   0.500  -1.383  0.00  0.00     0.002 A 
ATOM      3  C4  UNL d   1      -1.908   0.123  -1.533  0.00  0.00     0.002 A 
ATOM      4  C5  UNL d   1      -2.576  -0.511  -0.487  0.00  0.00    -0.004 A 
ATOM      5  C6  UNL d   1      -1.908  -0.774   0.708  0.00  0.00     0.002 A 
ATOM      6  C7  UNL d   1      -0.572  -0.399   0.859  0.00  0.00     0.002 A 
ENDROOT
BRANCH   1   7
ATOM      7  C1  UNL d   1       1.534   0.691  -0.003  0.00  0.00     0.055 C 
ATOM      8  C   UNL d   1       1.642   1.773   1.061  0.00  0.00     0.019 C 
ENDBRANCH   1   7
TORSDOF 1
ENDMDL
