MODEL 1
REMARK minimizedAffinity -4.60295248
REMARK minimizedRMSD -1
REMARK  1 active torsions:
REMARK  status: ('A' for Active; 'I' for Inactive)
REMARK    1  A    between atoms: C1_2  and  C2_3 
ROOT
ATOM      1  C2  UNL d   1      -0.354  -0.078   0.218  0.00  0.00    -0.077 A 
ATOM      2  C3  UNL d   1      -1.091  -0.908   1.074  0.00  0.00     0.002 A 
ATOM      3  C4  UNL d   1      -2.246  -1.547   0.617  0.00  0.00     0.002 A 
ATOM      4  C5  UNL d   1      -2.672  -1.364  -0.696  0.00  0.00    -0.004 A 
ATOM      5  C6  UNL d   1      -1.947  -0.538  -1.555  0.00  0.00     0.002 A 
ATOM      6  C7  UNL d   1      -0.793   0.101  -1.100  0.00  0.00     0.002 A 
ENDROOT
BRANCH   1   7
ATOM      7  C1  UNL d   1       0.919   0.572   0.693  0.00  0.00     0.055 C 
ATOM      8  C   UNL d   1       2.142  -0.085   0.071  0.00  0.00     0.019 C 
ENDBRANCH   1   7
TORSDOF 1
ENDMDL
