MODEL 1
REMARK minimizedAffinity -4.63967562
REMARK minimizedRMSD -1
REMARK  1 active torsions:
REMARK  status: ('A' for Active; 'I' for Inactive)
REMARK    1  A    between atoms: C1_2  and  C2_3 
ROOT
ATOM      1  C2  UNL d   1      -0.519  -0.008  -0.253  0.00  0.00    -0.077 A 
ATOM      2  C3  UNL d   1       0.724  -0.422  -0.753  0.00  0.00     0.002 A 
ATOM      3  C4  UNL d   1       1.904  -0.051  -0.105  0.00  0.00     0.002 A 
ATOM      4  C5  UNL d   1       1.853   0.730   1.047  0.00  0.00    -0.004 A 
ATOM      5  C6  UNL d   1       0.622   1.148   1.551  0.00  0.00     0.002 A 
ATOM      6  C7  UNL d   1      -0.559   0.780   0.905  0.00  0.00     0.002 A 
ENDROOT
BRANCH   1   7
ATOM      7  C1  UNL d   1      -1.795  -0.448  -0.921  0.00  0.00     0.055 C 
ATOM      8  C   UNL d   1      -2.989  -0.296   0.011  0.00  0.00     0.019 C 
ENDBRANCH   1   7
TORSDOF 1
ENDMDL
