MODEL 1
REMARK minimizedAffinity -4.40945053
REMARK minimizedRMSD -1
REMARK  1 active torsions:
REMARK  status: ('A' for Active; 'I' for Inactive)
REMARK    1  A    between atoms: C1_2  and  C2_3 
ROOT
ATOM      1  C2  UNL d   1       0.879  -0.223   0.611  0.00  0.00    -0.077 A 
ATOM      2  C3  UNL d   1       0.348   0.261  -0.592  0.00  0.00     0.002 A 
ATOM      3  C4  UNL d   1      -1.026   0.202  -0.832  0.00  0.00     0.002 A 
ATOM      4  C5  UNL d   1      -1.880  -0.336   0.128  0.00  0.00    -0.004 A 
ATOM      5  C6  UNL d   1      -1.362  -0.821   1.328  0.00  0.00     0.002 A 
ATOM      6  C7  UNL d   1       0.012  -0.764   1.569  0.00  0.00     0.002 A 
ENDROOT
BRANCH   1   7
ATOM      7  C1  UNL d   1       2.355  -0.115   0.892  0.00  0.00     0.055 C 
ATOM      8  C   UNL d   1       2.853   1.310   0.700  0.00  0.00     0.019 C 
ENDBRANCH   1   7
TORSDOF 1
ENDMDL
