MODEL 1
REMARK minimizedAffinity -5.07756042
REMARK minimizedRMSD -1
REMARK  1 active torsions:
REMARK  status: ('A' for Active; 'I' for Inactive)
REMARK    1  A    between atoms: C1_2  and  C2_3 
ROOT
ATOM      1  C2  UNL d   1       0.190  -0.030   0.291  0.00  0.00    -0.077 A 
ATOM      2  C3  UNL d   1      -0.867  -0.578   1.030  0.00  0.00     0.002 A 
ATOM      3  C4  UNL d   1      -2.162  -0.589   0.510  0.00  0.00     0.002 A 
ATOM      4  C5  UNL d   1      -2.412  -0.055  -0.753  0.00  0.00    -0.004 A 
ATOM      5  C6  UNL d   1      -1.368   0.495  -1.495  0.00  0.00     0.002 A 
ATOM      6  C7  UNL d   1      -0.072   0.507  -0.976  0.00  0.00     0.002 A 
ENDROOT
BRANCH   1   7
ATOM      7  C1  UNL d   1       1.597  -0.062   0.829  0.00  0.00     0.055 C 
ATOM      8  C   UNL d   1       2.276   1.292   0.686  0.00  0.00     0.019 C 
ENDBRANCH   1   7
TORSDOF 1
ENDMDL
