MODEL 1
REMARK minimizedAffinity -3.70918107
REMARK minimizedRMSD -1
REMARK  1 active torsions:
REMARK  status: ('A' for Active; 'I' for Inactive)
REMARK    1  A    between atoms: C1_2  and  C2_3 
ROOT
ATOM      1  C2  UNL d   1      -0.075   0.060  -0.133  0.00  0.00    -0.077 A 
ATOM      2  C3  UNL d   1      -1.346   0.066   0.460  0.00  0.00     0.002 A 
ATOM      3  C4  UNL d   1      -2.468  -0.328  -0.271  0.00  0.00     0.002 A 
ATOM      4  C5  UNL d   1      -2.331  -0.736  -1.596  0.00  0.00    -0.004 A 
ATOM      5  C6  UNL d   1      -1.072  -0.744  -2.195  0.00  0.00     0.002 A 
ATOM      6  C7  UNL d   1       0.051  -0.349  -1.467  0.00  0.00     0.002 A 
ENDROOT
BRANCH   1   7
ATOM      7  C1  UNL d   1       1.143   0.438   0.668  0.00  0.00     0.055 C 
ATOM      8  C   UNL d   1       2.039   1.394  -0.105  0.00  0.00     0.019 C 
ENDBRANCH   1   7
TORSDOF 1
ENDMDL
