MODEL 1
REMARK minimizedAffinity -4.54005861
REMARK minimizedRMSD -1
REMARK  1 active torsions:
REMARK  status: ('A' for Active; 'I' for Inactive)
REMARK    1  A    between atoms: C1_2  and  C2_3 
ROOT
ATOM      1  C2  UNL d   1       0.300   0.381   0.159  0.00  0.00    -0.077 A 
ATOM      2  C3  UNL d   1      -0.441  -0.145   1.227  0.00  0.00     0.002 A 
ATOM      3  C4  UNL d   1      -1.759  -0.566   1.032  0.00  0.00     0.002 A 
ATOM      4  C5  UNL d   1      -2.344  -0.469  -0.229  0.00  0.00    -0.004 A 
ATOM      5  C6  UNL d   1      -1.615   0.055  -1.296  0.00  0.00     0.002 A 
ATOM      6  C7  UNL d   1      -0.299   0.477  -1.103  0.00  0.00     0.002 A 
ENDROOT
BRANCH   1   7
ATOM      7  C1  UNL d   1       1.737   0.789   0.356  0.00  0.00     0.055 C 
ATOM      8  C   UNL d   1       1.842   2.057   1.191  0.00  0.00     0.019 C 
ENDBRANCH   1   7
TORSDOF 1
ENDMDL
