MODEL 1
REMARK minimizedAffinity 12.4197826
REMARK minimizedRMSD -1
REMARK  0 active torsions:
REMARK  status: ('A' for Active; 'I' for Inactive)
ROOT
ATOM      1  C   UNL d   1      -0.685   2.314  -0.547  0.00  0.00     0.020 A 
ATOM      2  C1  UNL d   1      -0.763   2.716  -1.879  0.00  0.00     0.020 A 
ATOM      3  C2  UNL d   1       0.161   2.235  -2.809  0.00  0.00     0.034 A 
ATOM      4  C3  UNL d   1       1.167   1.349  -2.408  0.00  0.00     0.017 A 
ATOM      5  C4  UNL d   1       1.245   0.945  -1.070  0.00  0.00     0.017 A 
ATOM      6  C5  UNL d   1       0.317   1.431  -0.143  0.00  0.00     0.034 A 
ATOM      7 Cl   UNL d   1       2.458  -0.145  -0.499  0.00  0.00    -0.070 Cl
ATOM      8 Cl1  UNL d   1       2.276   0.793  -3.611  0.00  0.00    -0.070 Cl
ENDROOT
TORSDOF 0
ENDMDL
