MODEL 1
REMARK minimizedAffinity 8.31587696
REMARK minimizedRMSD -1
REMARK  0 active torsions:
REMARK  status: ('A' for Active; 'I' for Inactive)
ROOT
ATOM      1  C   UNL d   1      -1.586  -2.665   4.997  0.00  0.00     0.020 A 
ATOM      2  C1  UNL d   1      -2.204  -1.632   5.700  0.00  0.00     0.020 A 
ATOM      3  C2  UNL d   1      -3.566  -1.708   5.999  0.00  0.00     0.034 A 
ATOM      4  C3  UNL d   1      -4.315  -2.820   5.595  0.00  0.00     0.017 A 
ATOM      5  C4  UNL d   1      -3.694  -3.856   4.889  0.00  0.00     0.017 A 
ATOM      6  C5  UNL d   1      -2.330  -3.775   4.592  0.00  0.00     0.034 A 
ATOM      7 Cl   UNL d   1      -4.551  -5.259   4.357  0.00  0.00    -0.070 Cl
ATOM      8 Cl1  UNL d   1      -5.994  -2.847   6.000  0.00  0.00    -0.070 Cl
ENDROOT
TORSDOF 0
ENDMDL
