MODEL 1
REMARK minimizedAffinity 12.5609856
REMARK minimizedRMSD -1
REMARK  0 active torsions:
REMARK  status: ('A' for Active; 'I' for Inactive)
ROOT
ATOM      1  C   UNL d   1      -0.937  -3.629   5.280  0.00  0.00     0.020 A 
ATOM      2  C1  UNL d   1      -1.950  -2.996   6.000  0.00  0.00     0.020 A 
ATOM      3  C2  UNL d   1      -2.221  -1.643   5.783  0.00  0.00     0.034 A 
ATOM      4  C3  UNL d   1      -1.478  -0.919   4.843  0.00  0.00     0.017 A 
ATOM      5  C4  UNL d   1      -0.462  -1.555   4.121  0.00  0.00     0.017 A 
ATOM      6  C5  UNL d   1      -0.195  -2.909   4.343  0.00  0.00     0.034 A 
ATOM      7 Cl   UNL d   1       0.498  -0.727   2.946  0.00  0.00    -0.070 Cl
ATOM      8 Cl1  UNL d   1      -1.867   0.750   4.626  0.00  0.00    -0.070 Cl
ENDROOT
TORSDOF 0
ENDMDL
