MODEL 1
REMARK minimizedAffinity 12.6698408
REMARK minimizedRMSD -1
REMARK  0 active torsions:
REMARK  status: ('A' for Active; 'I' for Inactive)
ROOT
ATOM      1  C   UNL d   1      -0.694  -4.569   5.308  0.00  0.00     0.020 A 
ATOM      2  C1  UNL d   1      -0.039  -3.541   5.985  0.00  0.00     0.020 A 
ATOM      3  C2  UNL d   1      -0.585  -2.256   6.000  0.00  0.00     0.034 A 
ATOM      4  C3  UNL d   1      -1.790  -1.995   5.338  0.00  0.00     0.017 A 
ATOM      5  C4  UNL d   1      -2.447  -3.028   4.659  0.00  0.00     0.017 A 
ATOM      6  C5  UNL d   1      -1.896  -4.313   4.647  0.00  0.00     0.034 A 
ATOM      7 Cl   UNL d   1      -3.938  -2.784   3.819  0.00  0.00    -0.070 Cl
ATOM      8 Cl1  UNL d   1      -2.409  -0.383   5.398  0.00  0.00    -0.070 Cl
ENDROOT
TORSDOF 0
ENDMDL
