MODEL 1
REMARK minimizedAffinity 13.1779118
REMARK minimizedRMSD -1
REMARK  0 active torsions:
REMARK  status: ('A' for Active; 'I' for Inactive)
ROOT
ATOM      1  C   UNL d   1      -4.829  -3.000   5.899  0.00  0.00     0.020 A 
ATOM      2  C1  UNL d   1      -4.792  -4.179   5.156  0.00  0.00     0.020 A 
ATOM      3  C2  UNL d   1      -3.613  -4.564   4.514  0.00  0.00     0.034 A 
ATOM      4  C3  UNL d   1      -2.466  -3.768   4.614  0.00  0.00     0.017 A 
ATOM      5  C4  UNL d   1      -2.504  -2.584   5.359  0.00  0.00     0.017 A 
ATOM      6  C5  UNL d   1      -3.687  -2.204   6.000  0.00  0.00     0.034 A 
ATOM      7 Cl   UNL d   1      -1.129  -1.550   5.528  0.00  0.00    -0.070 Cl
ATOM      8 Cl1  UNL d   1      -1.042  -4.304   3.795  0.00  0.00    -0.070 Cl
ENDROOT
TORSDOF 0
ENDMDL
