MODEL 1
REMARK minimizedAffinity 4.33897734
REMARK minimizedRMSD -1
REMARK  0 active torsions:
REMARK  status: ('A' for Active; 'I' for Inactive)
ROOT
ATOM      1  C   UNL d   1      -1.380   4.859  -4.878  0.00  0.00     0.020 A 
ATOM      2  C1  UNL d   1      -1.440   3.466  -4.869  0.00  0.00     0.020 A 
ATOM      3  C2  UNL d   1      -2.627   2.815  -5.211  0.00  0.00     0.034 A 
ATOM      4  C3  UNL d   1      -3.760   3.558  -5.564  0.00  0.00     0.017 A 
ATOM      5  C4  UNL d   1      -3.699   4.956  -5.573  0.00  0.00     0.017 A 
ATOM      6  C5  UNL d   1      -2.508   5.602  -5.230  0.00  0.00     0.034 A 
ATOM      7 Cl   UNL d   1      -5.055   5.940  -5.998  0.00  0.00    -0.070 Cl
ATOM      8 Cl1  UNL d   1      -5.194   2.687  -5.977  0.00  0.00    -0.070 Cl
ENDROOT
TORSDOF 0
ENDMDL
