MODEL 1
REMARK minimizedAffinity 3.49289465
REMARK minimizedRMSD -1
REMARK  0 active torsions:
REMARK  status: ('A' for Active; 'I' for Inactive)
ROOT
ATOM      1  C   UNL d   1      -2.877   6.000  -4.596  0.00  0.00     0.020 A 
ATOM      2  C1  UNL d   1      -1.530   5.999  -4.955  0.00  0.00     0.020 A 
ATOM      3  C2  UNL d   1      -0.882   4.793  -5.232  0.00  0.00     0.034 A 
ATOM      4  C3  UNL d   1      -1.582   3.584  -5.152  0.00  0.00     0.017 A 
ATOM      5  C4  UNL d   1      -2.934   3.586  -4.793  0.00  0.00     0.017 A 
ATOM      6  C5  UNL d   1      -3.578   4.796  -4.516  0.00  0.00     0.034 A 
ATOM      7 Cl   UNL d   1      -3.864   2.134  -4.673  0.00  0.00    -0.070 Cl
ATOM      8 Cl1  UNL d   1      -0.718   2.131  -5.510  0.00  0.00    -0.070 Cl
ENDROOT
TORSDOF 0
ENDMDL
