MODEL 1
REMARK minimizedAffinity 8.72156048
REMARK minimizedRMSD -1
REMARK  0 active torsions:
REMARK  status: ('A' for Active; 'I' for Inactive)
ROOT
ATOM      1  C   UNL d   1      -2.667   5.996  -4.196  0.00  0.00     0.020 A 
ATOM      2  C1  UNL d   1      -1.301   6.000  -4.477  0.00  0.00     0.020 A 
ATOM      3  C2  UNL d   1      -0.669   4.824  -4.888  0.00  0.00     0.034 A 
ATOM      4  C3  UNL d   1      -1.403   3.640  -5.019  0.00  0.00     0.017 A 
ATOM      5  C4  UNL d   1      -2.774   3.637  -4.737  0.00  0.00     0.017 A 
ATOM      6  C5  UNL d   1      -3.401   4.817  -4.326  0.00  0.00     0.034 A 
ATOM      7 Cl   UNL d   1      -3.746   2.214  -4.876  0.00  0.00    -0.070 Cl
ATOM      8 Cl1  UNL d   1      -0.558   2.223  -5.533  0.00  0.00    -0.070 Cl
ENDROOT
TORSDOF 0
ENDMDL
