MODEL 1
REMARK minimizedAffinity 3.66955495
REMARK minimizedRMSD -1
REMARK  0 active torsions:
REMARK  status: ('A' for Active; 'I' for Inactive)
ROOT
ATOM      1  C   UNL d   1      -3.009   5.423  -6.000  0.00  0.00     0.020 A 
ATOM      2  C1  UNL d   1      -2.084   6.000  -5.131  0.00  0.00     0.020 A 
ATOM      3  C2  UNL d   1      -1.551   5.250  -4.080  0.00  0.00     0.034 A 
ATOM      4  C3  UNL d   1      -1.943   3.919  -3.895  0.00  0.00     0.017 A 
ATOM      5  C4  UNL d   1      -2.871   3.341  -4.768  0.00  0.00     0.017 A 
ATOM      6  C5  UNL d   1      -3.401   4.096  -5.819  0.00  0.00     0.034 A 
ATOM      7 Cl   UNL d   1      -3.403   1.704  -4.604  0.00  0.00    -0.070 Cl
ATOM      8 Cl1  UNL d   1      -1.243   3.052  -2.575  0.00  0.00    -0.070 Cl
ENDROOT
TORSDOF 0
ENDMDL
