MODEL 1
REMARK minimizedAffinity 13.6643133
REMARK minimizedRMSD -1
REMARK  0 active torsions:
REMARK  status: ('A' for Active; 'I' for Inactive)
ROOT
ATOM      1  C   UNL d   1      -0.943   2.173  -0.374  0.00  0.00     0.020 A 
ATOM      2  C1  UNL d   1      -2.278   2.157   0.026  0.00  0.00     0.020 A 
ATOM      3  C2  UNL d   1      -2.629   1.622   1.267  0.00  0.00     0.034 A 
ATOM      4  C3  UNL d   1      -1.643   1.100   2.112  0.00  0.00     0.017 A 
ATOM      5  C4  UNL d   1      -0.303   1.116   1.710  0.00  0.00     0.017 A 
ATOM      6  C5  UNL d   1       0.043   1.653   0.466  0.00  0.00     0.034 A 
ATOM      7 Cl   UNL d   1       0.969   0.490   2.698  0.00  0.00    -0.070 Cl
ATOM      8 Cl1  UNL d   1      -2.149   0.454   3.633  0.00  0.00    -0.070 Cl
ENDROOT
TORSDOF 0
ENDMDL
