MODEL 1
REMARK minimizedAffinity 19.8418846
REMARK minimizedRMSD -1
REMARK  0 active torsions:
REMARK  status: ('A' for Active; 'I' for Inactive)
ROOT
ATOM      1  C   UNL d   1      -2.300   2.207  -0.136  0.00  0.00     0.020 A 
ATOM      2  C1  UNL d   1      -3.372   2.252   0.754  0.00  0.00     0.020 A 
ATOM      3  C2  UNL d   1      -3.212   1.799   2.065  0.00  0.00     0.034 A 
ATOM      4  C3  UNL d   1      -1.977   1.298   2.490  0.00  0.00     0.017 A 
ATOM      5  C4  UNL d   1      -0.900   1.252   1.597  0.00  0.00     0.017 A 
ATOM      6  C5  UNL d   1      -1.066   1.707   0.285  0.00  0.00     0.034 A 
ATOM      7 Cl   UNL d   1       0.654   0.647   2.048  0.00  0.00    -0.070 Cl
ATOM      8 Cl1  UNL d   1      -1.850   0.754   4.126  0.00  0.00    -0.070 Cl
ENDROOT
TORSDOF 0
ENDMDL
