MODEL 1
REMARK minimizedAffinity 11.1102047
REMARK minimizedRMSD -1
REMARK  0 active torsions:
REMARK  status: ('A' for Active; 'I' for Inactive)
ROOT
ATOM      1  C   UNL d   1      -1.131   4.314  -4.376  0.00  0.00     0.020 A 
ATOM      2  C1  UNL d   1      -1.438   2.954  -4.375  0.00  0.00     0.020 A 
ATOM      3  C2  UNL d   1      -2.664   2.515  -4.880  0.00  0.00     0.034 A 
ATOM      4  C3  UNL d   1      -3.587   3.437  -5.387  0.00  0.00     0.017 A 
ATOM      5  C4  UNL d   1      -3.277   4.802  -5.388  0.00  0.00     0.017 A 
ATOM      6  C5  UNL d   1      -2.048   5.236  -4.881  0.00  0.00     0.034 A 
ATOM      7 Cl   UNL d   1      -4.365   5.999  -5.997  0.00  0.00    -0.070 Cl
ATOM      8 Cl1  UNL d   1      -5.083   2.823  -5.996  0.00  0.00    -0.070 Cl
ENDROOT
TORSDOF 0
ENDMDL
