MODEL 1
REMARK minimizedAffinity 0.9549281
REMARK minimizedRMSD -1
REMARK  0 active torsions:
REMARK  status: ('A' for Active; 'I' for Inactive)
ROOT
ATOM      1  C   UNL d   1      -1.143   3.972  -4.879  0.00  0.00     0.020 A 
ATOM      2  C1  UNL d   1      -1.251   5.362  -4.881  0.00  0.00     0.020 A 
ATOM      3  C2  UNL d   1      -2.460   5.968  -5.230  0.00  0.00     0.034 A 
ATOM      4  C3  UNL d   1      -3.566   5.183  -5.578  0.00  0.00     0.017 A 
ATOM      5  C4  UNL d   1      -3.457   3.788  -5.575  0.00  0.00     0.017 A 
ATOM      6  C5  UNL d   1      -2.244   3.187  -5.225  0.00  0.00     0.034 A 
ATOM      7 Cl   UNL d   1      -4.777   2.754  -5.993  0.00  0.00    -0.070 Cl
ATOM      8 Cl1  UNL d   1      -5.029   6.000  -5.999  0.00  0.00    -0.070 Cl
ENDROOT
TORSDOF 0
ENDMDL
