MODEL 1
REMARK minimizedAffinity 6.9471283
REMARK minimizedRMSD -1
REMARK  0 active torsions:
REMARK  status: ('A' for Active; 'I' for Inactive)
ROOT
ATOM      1  C   UNL d   1      -1.052   5.424  -4.117  0.00  0.00     0.020 A 
ATOM      2  C1  UNL d   1      -1.076   4.067  -3.798  0.00  0.00     0.020 A 
ATOM      3  C2  UNL d   1      -2.174   3.284  -4.158  0.00  0.00     0.034 A 
ATOM      4  C3  UNL d   1      -3.254   3.858  -4.840  0.00  0.00     0.017 A 
ATOM      5  C4  UNL d   1      -3.230   5.220  -5.160  0.00  0.00     0.017 A 
ATOM      6  C5  UNL d   1      -2.127   5.999  -4.797  0.00  0.00     0.034 A 
ATOM      7 Cl   UNL d   1      -4.525   5.998  -5.999  0.00  0.00    -0.070 Cl
ATOM      8 Cl1  UNL d   1      -4.580   2.830  -5.254  0.00  0.00    -0.070 Cl
ENDROOT
TORSDOF 0
ENDMDL
