MODEL 1
REMARK minimizedAffinity 13.7613239
REMARK minimizedRMSD -1
REMARK  0 active torsions:
REMARK  status: ('A' for Active; 'I' for Inactive)
ROOT
ATOM      1  C   UNL d   1       1.875  -5.192  -2.274  0.00  0.00     0.020 A 
ATOM      2  C1  UNL d   1       3.005  -6.000  -2.153  0.00  0.00     0.020 A 
ATOM      3  C2  UNL d   1       3.922  -5.768  -1.126  0.00  0.00     0.034 A 
ATOM      4  C3  UNL d   1       3.713  -4.724  -0.217  0.00  0.00     0.017 A 
ATOM      5  C4  UNL d   1       2.578  -3.913  -0.340  0.00  0.00     0.017 A 
ATOM      6  C5  UNL d   1       1.662  -4.151  -1.369  0.00  0.00     0.034 A 
ATOM      7 Cl   UNL d   1       2.251  -2.607   0.744  0.00  0.00    -0.070 Cl
ATOM      8 Cl1  UNL d   1       4.889  -4.495   1.028  0.00  0.00    -0.070 Cl
ENDROOT
TORSDOF 0
ENDMDL
