MODEL 1
REMARK minimizedAffinity 18.9979134
REMARK minimizedRMSD -1
REMARK  0 active torsions:
REMARK  status: ('A' for Active; 'I' for Inactive)
ROOT
ATOM      1  C   UNL d   1      -2.584  -2.627   6.000  0.00  0.00     0.020 A 
ATOM      2  C1  UNL d   1      -1.502  -3.417   5.616  0.00  0.00     0.020 A 
ATOM      3  C2  UNL d   1      -0.468  -2.865   4.857  0.00  0.00     0.034 A 
ATOM      4  C3  UNL d   1      -0.515  -1.518   4.479  0.00  0.00     0.017 A 
ATOM      5  C4  UNL d   1      -1.602  -0.725   4.865  0.00  0.00     0.017 A 
ATOM      6  C5  UNL d   1      -2.634  -1.283   5.625  0.00  0.00     0.034 A 
ATOM      7 Cl   UNL d   1      -1.729   0.945   4.437  0.00  0.00    -0.070 Cl
ATOM      8 Cl1  UNL d   1       0.798  -0.900   3.541  0.00  0.00    -0.070 Cl
ENDROOT
TORSDOF 0
ENDMDL
