MODEL 1
REMARK minimizedAffinity 1.03099036
REMARK minimizedRMSD -1
REMARK  0 active torsions:
REMARK  status: ('A' for Active; 'I' for Inactive)
ROOT
ATOM      1  C   UNL d   1      -5.994   2.294  -5.808  0.00  0.00     0.020 A 
ATOM      2  C1  UNL d   1      -4.988   1.548  -5.195  0.00  0.00     0.020 A 
ATOM      3  C2  UNL d   1      -3.813   2.174  -4.774  0.00  0.00     0.034 A 
ATOM      4  C3  UNL d   1      -3.642   3.550  -4.965  0.00  0.00     0.017 A 
ATOM      5  C4  UNL d   1      -4.652   4.298  -5.580  0.00  0.00     0.017 A 
ATOM      6  C5  UNL d   1      -5.827   3.666  -6.000  0.00  0.00     0.034 A 
ATOM      7 Cl   UNL d   1      -4.513   5.999  -5.849  0.00  0.00    -0.070 Cl
ATOM      8 Cl1  UNL d   1      -2.163   4.259  -4.418  0.00  0.00    -0.070 Cl
ENDROOT
TORSDOF 0
ENDMDL
