MODEL 1
REMARK minimizedAffinity 20.5540886
REMARK minimizedRMSD -1
REMARK  0 active torsions:
REMARK  status: ('A' for Active; 'I' for Inactive)
ROOT
ATOM      1  C   UNL d   1      -4.492   4.870   0.954  0.00  0.00     0.020 A 
ATOM      2  C1  UNL d   1      -3.351   5.228   0.237  0.00  0.00     0.020 A 
ATOM      3  C2  UNL d   1      -2.383   4.267  -0.060  0.00  0.00     0.034 A 
ATOM      4  C3  UNL d   1      -2.553   2.943   0.361  0.00  0.00     0.017 A 
ATOM      5  C4  UNL d   1      -3.699   2.584   1.081  0.00  0.00     0.017 A 
ATOM      6  C5  UNL d   1      -4.665   3.551   1.375  0.00  0.00     0.034 A 
ATOM      7 Cl   UNL d   1      -3.979   0.971   1.633  0.00  0.00    -0.070 Cl
ATOM      8 Cl1  UNL d   1      -1.315   1.806  -0.041  0.00  0.00    -0.070 Cl
ENDROOT
TORSDOF 0
ENDMDL
