MODEL 1
REMARK minimizedAffinity 2.74673176
REMARK minimizedRMSD -1
REMARK  0 active torsions:
REMARK  status: ('A' for Active; 'I' for Inactive)
ROOT
ATOM      1  C   UNL d   1      -5.998   2.013  -5.991  0.00  0.00     0.020 A 
ATOM      2  C1  UNL d   1      -5.065   1.054  -5.598  0.00  0.00     0.020 A 
ATOM      3  C2  UNL d   1      -3.781   1.445  -5.213  0.00  0.00     0.034 A 
ATOM      4  C3  UNL d   1      -3.426   2.798  -5.221  0.00  0.00     0.017 A 
ATOM      5  C4  UNL d   1      -4.362   3.761  -5.615  0.00  0.00     0.017 A 
ATOM      6  C5  UNL d   1      -5.647   3.363  -6.000  0.00  0.00     0.034 A 
ATOM      7 Cl   UNL d   1      -3.997   5.450  -5.650  0.00  0.00    -0.070 Cl
ATOM      8 Cl1  UNL d   1      -1.820   3.210  -4.732  0.00  0.00    -0.070 Cl
ENDROOT
TORSDOF 0
ENDMDL
