MODEL 1
REMARK minimizedAffinity 17.1572952
REMARK minimizedRMSD -1
REMARK  2 active torsions:
REMARK  status: ('A' for Active; 'I' for Inactive)
REMARK    1  A    between atoms: C2'_3  and  C1'_4 
REMARK    2  A    between atoms: C1'_4  and  C1_5 
ROOT
ATOM      1  C1  I4B d   1       4.191   2.411   0.047  0.00  0.00    -0.075 A 
ATOM      2  C2  I4B d   1       4.891   3.245  -0.789  0.00  0.00     0.003 A 
ATOM      3  C3  I4B d   1       5.718   4.261  -0.253  0.00  0.00     0.002 A 
ATOM      4  C4  I4B d   1       5.776   4.440   1.114  0.00  0.00    -0.004 A 
ATOM      5  C5  I4B d   1       5.083   3.579   1.961  0.00  0.00     0.002 A 
ATOM      6  C6  I4B d   1       4.296   2.550   1.425  0.00  0.00     0.003 A 
ENDROOT
BRANCH   1   7
ATOM      7  C1' I4B d   1       3.302   1.369  -0.554  0.00  0.00     0.060 C 
BRANCH   7   8
ATOM      8  C2' I4B d   1       2.476   0.761   0.562  0.00  0.00    -0.013 C 
ATOM      9  C4' I4B d   1       1.081   1.328   0.579  0.00  0.00     0.013 C 
ATOM     10  C3' I4B d   1       2.453  -0.725   0.363  0.00  0.00     0.013 C 
ENDBRANCH   7   8
ENDBRANCH   1   7
TORSDOF 2
ENDMDL
