MODEL 1
REMARK minimizedAffinity -5.51925802
REMARK minimizedRMSD -1
REMARK  2 active torsions:
REMARK  status: ('A' for Active; 'I' for Inactive)
REMARK    1  A    between atoms: C2'_3  and  C1'_4 
REMARK    2  A    between atoms: C1'_4  and  C1_5 
ROOT
ATOM      1  C1  I4B d   1       4.069  -0.089   0.689  0.00  0.00    -0.075 A 
ATOM      2  C2  I4B d   1       5.420   0.133   0.597  0.00  0.00     0.003 A 
ATOM      3  C3  I4B d   1       5.909   1.397   0.187  0.00  0.00     0.002 A 
ATOM      4  C4  I4B d   1       5.016   2.388  -0.167  0.00  0.00    -0.004 A 
ATOM      5  C5  I4B d   1       3.647   2.169  -0.052  0.00  0.00     0.002 A 
ATOM      6  C6  I4B d   1       3.169   0.926   0.391  0.00  0.00     0.003 A 
ENDROOT
BRANCH   1   7
ATOM      7  C1' I4B d   1       3.587  -1.447   1.093  0.00  0.00     0.060 C 
BRANCH   7   8
ATOM      8  C2' I4B d   1       2.115  -1.543   0.744  0.00  0.00    -0.013 C 
ATOM      9  C4' I4B d   1       1.903  -2.363  -0.501  0.00  0.00     0.013 C 
ATOM     10  C3' I4B d   1       1.400  -2.143   1.917  0.00  0.00     0.013 C 
ENDBRANCH   7   8
ENDBRANCH   1   7
TORSDOF 2
ENDMDL
