MODEL 1
REMARK minimizedAffinity 3.7574234
REMARK minimizedRMSD -1
REMARK  2 active torsions:
REMARK  status: ('A' for Active; 'I' for Inactive)
REMARK    1  A    between atoms: C2'_3  and  C1'_4 
REMARK    2  A    between atoms: C1'_4  and  C1_5 
ROOT
ATOM      1  C1  I4B d   1       4.539   2.509  -0.144  0.00  0.00    -0.075 A 
ATOM      2  C2  I4B d   1       4.469   2.367   1.219  0.00  0.00     0.003 A 
ATOM      3  C3  I4B d   1       5.162   3.266   2.066  0.00  0.00     0.002 A 
ATOM      4  C4  I4B d   1       5.948   4.254   1.510  0.00  0.00    -0.004 A 
ATOM      5  C5  I4B d   1       5.999   4.411   0.128  0.00  0.00     0.002 A 
ATOM      6  C6  I4B d   1       5.280   3.541  -0.705  0.00  0.00     0.003 A 
ENDROOT
BRANCH   1   7
ATOM      7  C1' I4B d   1       3.820   1.523  -1.009  0.00  0.00     0.060 C 
BRANCH   7   8
ATOM      8  C2' I4B d   1       2.862   0.743  -0.132  0.00  0.00    -0.013 C 
ATOM      9  C4' I4B d   1       1.540   1.454  -0.003  0.00  0.00     0.013 C 
ATOM     10  C3' I4B d   1       2.688  -0.619  -0.733  0.00  0.00     0.013 C 
ENDBRANCH   7   8
ENDBRANCH   1   7
TORSDOF 2
ENDMDL
