MODEL 1
REMARK minimizedAffinity -0.70002085
REMARK minimizedRMSD -1
REMARK  0 active torsions:
REMARK  status: ('A' for Active; 'I' for Inactive)
ROOT
ATOM      1  C4' PXY d   1       2.171  -0.981   3.088  0.00  0.00     0.077 C 
ATOM      2  C1' PXY d   1      -0.597   0.720  -1.693  0.00  0.00     0.077 C 
ATOM      3  C1  PXY d   1       0.126   0.286  -0.434  0.00  0.00    -0.082 A 
ATOM      4  C2  PXY d   1       1.026  -0.682  -0.497  0.00  0.00     0.003 A 
ATOM      5  C3  PXY d   1       1.667  -1.109   0.637  0.00  0.00     0.003 A 
ATOM      6  C4  PXY d   1       1.422  -0.503   1.841  0.00  0.00    -0.082 A 
ATOM      7  C5  PXY d   1       0.513   0.492   1.912  0.00  0.00     0.003 A 
ATOM      8  C6  PXY d   1      -0.156   0.883   0.756  0.00  0.00     0.003 A 
ENDROOT
TORSDOF 0
ENDMDL
