MODEL 1
REMARK minimizedAffinity 9.95339108
REMARK minimizedRMSD -1
REMARK  0 active torsions:
REMARK  status: ('A' for Active; 'I' for Inactive)
ROOT
ATOM      1  C4' PXY d   1       1.561  -2.354  -0.588  0.00  0.00     0.077 C 
ATOM      2  C1' PXY d   1      -0.370   1.910   2.804  0.00  0.00     0.077 C 
ATOM      3  C1  PXY d   1       0.125   0.792   1.908  0.00  0.00    -0.082 A 
ATOM      4  C2  PXY d   1       1.053  -0.040   2.352  0.00  0.00     0.003 A 
ATOM      5  C3  PXY d   1       1.535  -1.037   1.543  0.00  0.00     0.003 A 
ATOM      6  C4  PXY d   1       1.025  -1.216   0.286  0.00  0.00    -0.082 A 
ATOM      7  C5  PXY d   1       0.070  -0.378  -0.171  0.00  0.00     0.003 A 
ATOM      8  C6  PXY d   1      -0.376   0.653   0.651  0.00  0.00     0.003 A 
ENDROOT
TORSDOF 0
ENDMDL
