MODEL 1
REMARK minimizedAffinity 4.73350477
REMARK minimizedRMSD -1
REMARK  0 active torsions:
REMARK  status: ('A' for Active; 'I' for Inactive)
ROOT
ATOM      1  C4' PXY d   1       1.969  -1.195  -1.582  0.00  0.00     0.077 C 
ATOM      2  C1' PXY d   1      -1.029   1.617   2.482  0.00  0.00     0.077 C 
ATOM      3  C1  PXY d   1      -0.235   0.876   1.425  0.00  0.00    -0.082 A 
ATOM      4  C2  PXY d   1      -0.328   1.245   0.158  0.00  0.00     0.003 A 
ATOM      5  C3  PXY d   1       0.360   0.565  -0.815  0.00  0.00     0.003 A 
ATOM      6  C4  PXY d   1       1.192  -0.469  -0.481  0.00  0.00    -0.082 A 
ATOM      7  C5  PXY d   1       1.300  -0.845   0.811  0.00  0.00     0.003 A 
ATOM      8  C6  PXY d   1       0.563  -0.169   1.779  0.00  0.00     0.003 A 
ENDROOT
TORSDOF 0
ENDMDL
