MODEL 1
REMARK minimizedAffinity 7.26910543
REMARK minimizedRMSD -1
REMARK  0 active torsions:
REMARK  status: ('A' for Active; 'I' for Inactive)
ROOT
ATOM      1  C4' PXY d   1      -0.679   4.226  -2.260  0.00  0.00     0.077 C 
ATOM      2  C1' PXY d   1       0.084   1.275   2.651  0.00  0.00     0.077 C 
ATOM      3  C1  PXY d   1      -0.110   2.039   1.357  0.00  0.00    -0.082 A 
ATOM      4  C2  PXY d   1      -0.290   3.350   1.392  0.00  0.00     0.003 A 
ATOM      5  C3  PXY d   1      -0.499   4.052   0.233  0.00  0.00     0.003 A 
ATOM      6  C4  PXY d   1      -0.470   3.415  -0.978  0.00  0.00    -0.082 A 
ATOM      7  C5  PXY d   1      -0.276   2.080  -1.023  0.00  0.00     0.003 A 
ATOM      8  C6  PXY d   1      -0.107   1.379   0.167  0.00  0.00     0.003 A 
ENDROOT
TORSDOF 0
ENDMDL
