MODEL 1
REMARK minimizedAffinity 9.89262962
REMARK minimizedRMSD -1
REMARK  0 active torsions:
REMARK  status: ('A' for Active; 'I' for Inactive)
ROOT
ATOM      1  C4' PXY d   1      -2.468   3.338   2.107  0.00  0.00     0.077 C 
ATOM      2  C1' PXY d   1       0.523   0.974  -2.238  0.00  0.00     0.077 C 
ATOM      3  C1  PXY d   1      -0.253   1.589  -1.090  0.00  0.00    -0.082 A 
ATOM      4  C2  PXY d   1      -1.528   1.903  -1.256  0.00  0.00     0.003 A 
ATOM      5  C3  PXY d   1      -2.236   2.489  -0.239  0.00  0.00     0.003 A 
ATOM      6  C4  PXY d   1      -1.648   2.707   0.978  0.00  0.00    -0.082 A 
ATOM      7  C5  PXY d   1      -0.351   2.380   1.159  0.00  0.00     0.003 A 
ATOM      8  C6  PXY d   1       0.362   1.823   0.101  0.00  0.00     0.003 A 
ENDROOT
TORSDOF 0
ENDMDL
