MODEL 1
REMARK minimizedAffinity 4.40667057
REMARK minimizedRMSD -1
REMARK  0 active torsions:
REMARK  status: ('A' for Active; 'I' for Inactive)
ROOT
ATOM      1  C4' PXY d   1       0.399   1.873   2.716  0.00  0.00     0.077 C 
ATOM      2  C1' PXY d   1      -2.079   2.651  -2.448  0.00  0.00     0.077 C 
ATOM      3  C1  PXY d   1      -1.435   2.458  -1.090  0.00  0.00    -0.082 A 
ATOM      4  C2  PXY d   1      -0.293   1.797  -0.995  0.00  0.00     0.003 A 
ATOM      5  C3  PXY d   1       0.287   1.585   0.230  0.00  0.00     0.003 A 
ATOM      6  C4  PXY d   1      -0.282   2.101   1.364  0.00  0.00    -0.082 A 
ATOM      7  C5  PXY d   1      -1.442   2.785   1.274  0.00  0.00     0.003 A 
ATOM      8  C6  PXY d   1      -2.035   2.954   0.026  0.00  0.00     0.003 A 
ENDROOT
TORSDOF 0
ENDMDL
