MODEL 1
REMARK minimizedAffinity 8.37804127
REMARK minimizedRMSD -1
REMARK  0 active torsions:
REMARK  status: ('A' for Active; 'I' for Inactive)
ROOT
ATOM      1  C4' PXY d   1      -4.841  -0.446  -1.448  0.00  0.00     0.077 C 
ATOM      2  C1' PXY d   1       0.811   0.764  -1.440  0.00  0.00     0.077 C 
ATOM      3  C1  PXY d   1      -0.668   0.434  -1.447  0.00  0.00    -0.082 A 
ATOM      4  C2  PXY d   1      -1.556   1.412  -1.528  0.00  0.00     0.003 A 
ATOM      5  C3  PXY d   1      -2.898   1.135  -1.503  0.00  0.00     0.003 A 
ATOM      6  C4  PXY d   1      -3.337  -0.161  -1.447  0.00  0.00    -0.082 A 
ATOM      7  C5  PXY d   1      -2.437  -1.165  -1.375  0.00  0.00     0.003 A 
ATOM      8  C6  PXY d   1      -1.080  -0.860  -1.360  0.00  0.00     0.003 A 
ENDROOT
TORSDOF 0
ENDMDL
