MODEL 1
REMARK minimizedAffinity 2.53962135
REMARK minimizedRMSD -1
REMARK  0 active torsions:
REMARK  status: ('A' for Active; 'I' for Inactive)
ROOT
ATOM      1  C4' PXY d   1      -0.257   1.512  -2.006  0.00  0.00     0.077 C 
ATOM      2  C1' PXY d   1       2.359  -3.617  -1.495  0.00  0.00     0.077 C 
ATOM      3  C1  PXY d   1       1.663  -2.278  -1.636  0.00  0.00    -0.082 A 
ATOM      4  C2  PXY d   1       2.369  -1.162  -1.552  0.00  0.00     0.003 A 
ATOM      5  C3  PXY d   1       1.751   0.059  -1.645  0.00  0.00     0.003 A 
ATOM      6  C4  PXY d   1       0.405   0.137  -1.880  0.00  0.00    -0.082 A 
ATOM      7  C5  PXY d   1      -0.321  -0.997  -1.977  0.00  0.00     0.003 A 
ATOM      8  C6  PXY d   1       0.319  -2.225  -1.839  0.00  0.00     0.003 A 
ENDROOT
TORSDOF 0
ENDMDL
