MODEL 1
REMARK minimizedAffinity 7.30512619
REMARK minimizedRMSD -1
REMARK  0 active torsions:
REMARK  status: ('A' for Active; 'I' for Inactive)
ROOT
ATOM      1  C4' PXY d   1       2.346  -5.998  -3.745  0.00  0.00     0.077 C 
ATOM      2  C1' PXY d   1       2.056  -0.877  -1.081  0.00  0.00     0.077 C 
ATOM      3  C1  PXY d   1       2.138  -2.225  -1.769  0.00  0.00    -0.082 A 
ATOM      4  C2  PXY d   1       2.153  -2.285  -3.090  0.00  0.00     0.003 A 
ATOM      5  C3  PXY d   1       2.194  -3.497  -3.729  0.00  0.00     0.003 A 
ATOM      6  C4  PXY d   1       2.274  -4.658  -3.008  0.00  0.00    -0.082 A 
ATOM      7  C5  PXY d   1       2.269  -4.605  -1.659  0.00  0.00     0.003 A 
ATOM      8  C6  PXY d   1       2.185  -3.366  -1.030  0.00  0.00     0.003 A 
ENDROOT
TORSDOF 0
ENDMDL
