MODEL 1
REMARK minimizedAffinity 13.9540472
REMARK minimizedRMSD -1
REMARK  0 active torsions:
REMARK  status: ('A' for Active; 'I' for Inactive)
ROOT
ATOM      1  C4' PXY d   1       2.316   0.064  -0.525  0.00  0.00     0.077 C 
ATOM      2  C1' PXY d   1      -2.185   3.298   1.116  0.00  0.00     0.077 C 
ATOM      3  C1  PXY d   1      -0.997   2.457   0.693  0.00  0.00    -0.082 A 
ATOM      4  C2  PXY d   1      -1.029   1.813  -0.463  0.00  0.00     0.003 A 
ATOM      5  C3  PXY d   1       0.024   1.023  -0.846  0.00  0.00     0.003 A 
ATOM      6  C4  PXY d   1       1.143   0.932  -0.062  0.00  0.00    -0.082 A 
ATOM      7  C5  PXY d   1       1.188   1.594   1.113  0.00  0.00     0.003 A 
ATOM      8  C6  PXY d   1       0.092   2.358   1.503  0.00  0.00     0.003 A 
ENDROOT
TORSDOF 0
ENDMDL
