MODEL 1
REMARK minimizedAffinity 5.52454233
REMARK minimizedRMSD -1
REMARK  0 active torsions:
REMARK  status: ('A' for Active; 'I' for Inactive)
ROOT
ATOM      1  C4' PXY d   1      -2.128   3.235   2.351  0.00  0.00     0.077 C 
ATOM      2  C1' PXY d   1       0.179   1.353  -2.604  0.00  0.00     0.077 C 
ATOM      3  C1  PXY d   1      -0.417   1.839  -1.298  0.00  0.00    -0.082 A 
ATOM      4  C2  PXY d   1      -1.654   2.308  -1.278  0.00  0.00     0.003 A 
ATOM      5  C3  PXY d   1      -2.198   2.781  -0.112  0.00  0.00     0.003 A 
ATOM      6  C4  PXY d   1      -1.488   2.725   1.057  0.00  0.00    -0.082 A 
ATOM      7  C5  PXY d   1      -0.229   2.238   1.047  0.00  0.00     0.003 A 
ATOM      8  C6  PXY d   1       0.320   1.801  -0.155  0.00  0.00     0.003 A 
ENDROOT
TORSDOF 0
ENDMDL
