MODEL 1
REMARK minimizedAffinity 8.35040855
REMARK minimizedRMSD -1
REMARK  0 active torsions:
REMARK  status: ('A' for Active; 'I' for Inactive)
ROOT
ATOM      1  C4' PXY d   1      -2.017  -1.331  -1.904  0.00  0.00     0.077 C 
ATOM      2  C1' PXY d   1       3.729  -1.447  -1.286  0.00  0.00     0.077 C 
ATOM      3  C1  PXY d   1       2.222  -1.403  -1.447  0.00  0.00    -0.082 A 
ATOM      4  C2  PXY d   1       1.495  -2.447  -1.083  0.00  0.00     0.003 A 
ATOM      5  C3  PXY d   1       0.134  -2.437  -1.252  0.00  0.00     0.003 A 
ATOM      6  C4  PXY d   1      -0.494  -1.327  -1.750  0.00  0.00    -0.082 A 
ATOM      7  C5  PXY d   1       0.240  -0.255  -2.115  0.00  0.00     0.003 A 
ATOM      8  C6  PXY d   1       1.624  -0.300  -1.973  0.00  0.00     0.003 A 
ENDROOT
TORSDOF 0
ENDMDL
