MODEL 1
REMARK minimizedAffinity -3.57528186
REMARK minimizedRMSD -1
REMARK  0 active torsions:
REMARK  status: ('A' for Active; 'I' for Inactive)
ROOT
ATOM      1  C4' PXY d   1       0.165   4.237   0.777  0.00  0.00     0.077 C 
ATOM      2  C1' PXY d   1      -0.372  -1.341  -0.643  0.00  0.00     0.077 C 
ATOM      3  C1  PXY d   1      -0.228   0.124  -0.283  0.00  0.00    -0.082 A 
ATOM      4  C2  PXY d   1       0.014   0.469   0.972  0.00  0.00     0.003 A 
ATOM      5  C3  PXY d   1       0.115   1.791   1.320  0.00  0.00     0.003 A 
ATOM      6  C4  PXY d   1       0.021   2.769   0.366  0.00  0.00    -0.082 A 
ATOM      7  C5  PXY d   1      -0.215   2.425  -0.918  0.00  0.00     0.003 A 
ATOM      8  C6  PXY d   1      -0.355   1.079  -1.244  0.00  0.00     0.003 A 
ENDROOT
TORSDOF 0
ENDMDL
