MODEL 1
REMARK minimizedAffinity -0.611117363
REMARK minimizedRMSD -1
REMARK  0 active torsions:
REMARK  status: ('A' for Active; 'I' for Inactive)
ROOT
ATOM      1  C4' PXY d   1       0.006  -0.442   0.704  0.00  0.00     0.077 C 
ATOM      2  C1' PXY d   1       0.857   5.237   0.040  0.00  0.00     0.077 C 
ATOM      3  C1  PXY d   1       0.629   3.747   0.202  0.00  0.00    -0.082 A 
ATOM      4  C2  PXY d   1       0.553   3.225   1.416  0.00  0.00     0.003 A 
ATOM      5  C3  PXY d   1       0.379   1.875   1.581  0.00  0.00     0.003 A 
ATOM      6  C4  PXY d   1       0.227   1.058   0.492  0.00  0.00    -0.082 A 
ATOM      7  C5  PXY d   1       0.292   1.585  -0.749  0.00  0.00     0.003 A 
ATOM      8  C6  PXY d   1       0.510   2.952  -0.895  0.00  0.00     0.003 A 
ENDROOT
TORSDOF 0
ENDMDL
