MODEL 1
REMARK minimizedAffinity 12.6388121
REMARK minimizedRMSD -1
REMARK  0 active torsions:
REMARK  status: ('A' for Active; 'I' for Inactive)
ROOT
ATOM      1  C4' PXY d   1      -2.498  -0.010  -2.976  0.00  0.00     0.077 C 
ATOM      2  C1' PXY d   1      -0.573  -4.512   0.097  0.00  0.00     0.077 C 
ATOM      3  C1  PXY d   1      -1.069  -3.334  -0.718  0.00  0.00    -0.082 A 
ATOM      4  C2  PXY d   1      -1.701  -2.340  -0.115  0.00  0.00     0.003 A 
ATOM      5  C3  PXY d   1      -2.184  -1.282  -0.841  0.00  0.00     0.003 A 
ATOM      6  C4  PXY d   1      -1.972  -1.215  -2.192  0.00  0.00    -0.082 A 
ATOM      7  C5  PXY d   1      -1.319  -2.219  -2.814  0.00  0.00     0.003 A 
ATOM      8  C6  PXY d   1      -0.873  -3.304  -2.064  0.00  0.00     0.003 A 
ENDROOT
TORSDOF 0
ENDMDL
