MODEL 1
REMARK minimizedAffinity 17.267128
REMARK minimizedRMSD -1
REMARK  0 active torsions:
REMARK  status: ('A' for Active; 'I' for Inactive)
ROOT
ATOM      1  C4' PXY d   1      -3.718   0.717  -2.876  0.00  0.00     0.077 C 
ATOM      2  C1' PXY d   1       0.731   3.544  -5.250  0.00  0.00     0.077 C 
ATOM      3  C1  PXY d   1      -0.442   2.814  -4.624  0.00  0.00    -0.082 A 
ATOM      4  C2  PXY d   1      -0.276   1.585  -4.163  0.00  0.00     0.003 A 
ATOM      5  C3  PXY d   1      -1.333   0.899  -3.623  0.00  0.00     0.003 A 
ATOM      6  C4  PXY d   1      -2.560   1.496  -3.507  0.00  0.00    -0.082 A 
ATOM      7  C5  PXY d   1      -2.734   2.753  -3.965  0.00  0.00     0.003 A 
ATOM      8  C6  PXY d   1      -1.659   3.418  -4.547  0.00  0.00     0.003 A 
ENDROOT
TORSDOF 0
ENDMDL
