MODEL 1
REMARK minimizedAffinity 9.05209255
REMARK minimizedRMSD -1
REMARK  0 active torsions:
REMARK  status: ('A' for Active; 'I' for Inactive)
ROOT
ATOM      1  C4' PXY d   1      -2.625   0.461   5.626  0.00  0.00     0.077 C 
ATOM      2  C1' PXY d   1      -1.606  -5.104   4.438  0.00  0.00     0.077 C 
ATOM      3  C1  PXY d   1      -1.868  -3.646   4.762  0.00  0.00    -0.082 A 
ATOM      4  C2  PXY d   1      -2.830  -2.997   4.125  0.00  0.00     0.003 A 
ATOM      5  C3  PXY d   1      -3.059  -1.670   4.383  0.00  0.00     0.003 A 
ATOM      6  C4  PXY d   1      -2.331  -1.014   5.339  0.00  0.00    -0.082 A 
ATOM      7  C5  PXY d   1      -1.355  -1.672   6.000  0.00  0.00     0.003 A 
ATOM      8  C6  PXY d   1      -1.111  -3.008   5.695  0.00  0.00     0.003 A 
ENDROOT
TORSDOF 0
ENDMDL
