MODEL 1
REMARK minimizedAffinity 18.4113083
REMARK minimizedRMSD -1
REMARK  0 active torsions:
REMARK  status: ('A' for Active; 'I' for Inactive)
ROOT
ATOM      1  C4' PXY d   1      -0.607  -5.266   0.764  0.00  0.00     0.077 C 
ATOM      2  C1' PXY d   1      -3.261  -0.136   0.527  0.00  0.00     0.077 C 
ATOM      3  C1  PXY d   1      -2.562  -1.480   0.577  0.00  0.00    -0.082 A 
ATOM      4  C2  PXY d   1      -2.922  -2.372   1.485  0.00  0.00     0.003 A 
ATOM      5  C3  PXY d   1      -2.279  -3.580   1.565  0.00  0.00     0.003 A 
ATOM      6  C4  PXY d   1      -1.292  -3.900   0.671  0.00  0.00    -0.082 A 
ATOM      7  C5  PXY d   1      -0.926  -2.999  -0.266  0.00  0.00     0.003 A 
ATOM      8  C6  PXY d   1      -1.563  -1.763  -0.304  0.00  0.00     0.003 A 
ENDROOT
TORSDOF 0
ENDMDL
