MODEL 1
REMARK minimizedAffinity 12.2546816
REMARK minimizedRMSD -1
REMARK  0 active torsions:
REMARK  status: ('A' for Active; 'I' for Inactive)
ROOT
ATOM      1  C4' PXY d   1       4.387   3.177   3.843  0.00  0.00     0.077 C 
ATOM      2  C1' PXY d   1       4.714   5.592  -1.398  0.00  0.00     0.077 C 
ATOM      3  C1  PXY d   1       4.620   4.950  -0.028  0.00  0.00    -0.082 A 
ATOM      4  C2  PXY d   1       4.964   5.644   1.044  0.00  0.00     0.003 A 
ATOM      5  C3  PXY d   1       4.915   5.069   2.288  0.00  0.00     0.003 A 
ATOM      6  C4  PXY d   1       4.458   3.787   2.441  0.00  0.00    -0.082 A 
ATOM      7  C5  PXY d   1       4.094   3.076   1.353  0.00  0.00     0.003 A 
ATOM      8  C6  PXY d   1       4.191   3.665   0.095  0.00  0.00     0.003 A 
ENDROOT
TORSDOF 0
ENDMDL
