MODEL 1
REMARK minimizedAffinity -0.422082156
REMARK minimizedRMSD -1
REMARK  0 active torsions:
REMARK  status: ('A' for Active; 'I' for Inactive)
ROOT
ATOM      1  C4' PXY d   1      -3.626   0.279   5.988  0.00  0.00     0.077 C 
ATOM      2  C1' PXY d   1      -5.701   5.674   5.990  0.00  0.00     0.077 C 
ATOM      3  C1  PXY d   1      -5.145   4.263   5.984  0.00  0.00    -0.082 A 
ATOM      4  C2  PXY d   1      -5.976   3.234   5.973  0.00  0.00     0.003 A 
ATOM      5  C3  PXY d   1      -5.491   1.951   6.000  0.00  0.00     0.003 A 
ATOM      6  C4  PXY d   1      -4.142   1.720   5.984  0.00  0.00    -0.082 A 
ATOM      7  C5  PXY d   1      -3.288   2.766   5.985  0.00  0.00     0.003 A 
ATOM      8  C6  PXY d   1      -3.800   4.060   6.000  0.00  0.00     0.003 A 
ENDROOT
TORSDOF 0
ENDMDL
