MODEL 1
REMARK minimizedAffinity 10.3163195
REMARK minimizedRMSD -1
REMARK  0 active torsions:
REMARK  status: ('A' for Active; 'I' for Inactive)
ROOT
ATOM      1  C4' PXY d   1      -3.314   0.274  -1.319  0.00  0.00     0.077 C 
ATOM      2  C1' PXY d   1      -0.336  -4.327   0.518  0.00  0.00     0.077 C 
ATOM      3  C1  PXY d   1      -1.127  -3.124   0.043  0.00  0.00    -0.082 A 
ATOM      4  C2  PXY d   1      -0.775  -2.510  -1.075  0.00  0.00     0.003 A 
ATOM      5  C3  PXY d   1      -1.460  -1.402  -1.502  0.00  0.00     0.003 A 
ATOM      6  C4  PXY d   1      -2.550  -0.950  -0.807  0.00  0.00    -0.082 A 
ATOM      7  C5  PXY d   1      -2.922  -1.578   0.329  0.00  0.00     0.003 A 
ATOM      8  C6  PXY d   1      -2.188  -2.676   0.768  0.00  0.00     0.003 A 
ENDROOT
TORSDOF 0
ENDMDL
