MODEL 1
REMARK minimizedAffinity 6.96048307
REMARK minimizedRMSD -1
REMARK  0 active torsions:
REMARK  status: ('A' for Active; 'I' for Inactive)
ROOT
ATOM      1  C4' PXY d   1      -1.457  -5.998   3.746  0.00  0.00     0.077 C 
ATOM      2  C1' PXY d   1      -1.576  -1.793  -0.219  0.00  0.00     0.077 C 
ATOM      3  C1  PXY d   1      -1.548  -2.888   0.830  0.00  0.00    -0.082 A 
ATOM      4  C2  PXY d   1      -0.824  -3.975   0.621  0.00  0.00     0.003 A 
ATOM      5  C3  PXY d   1      -0.813  -4.988   1.545  0.00  0.00     0.003 A 
ATOM      6  C4  PXY d   1      -1.508  -4.864   2.718  0.00  0.00    -0.082 A 
ATOM      7  C5  PXY d   1      -2.240  -3.753   2.943  0.00  0.00     0.003 A 
ATOM      8  C6  PXY d   1      -2.271  -2.754   1.975  0.00  0.00     0.003 A 
ENDROOT
TORSDOF 0
ENDMDL
