MODEL 1
REMARK minimizedAffinity 9.1223774
REMARK minimizedRMSD -1
REMARK  0 active torsions:
REMARK  status: ('A' for Active; 'I' for Inactive)
ROOT
ATOM      1  C4' PXY d   1      -1.504  -1.221  -0.972  0.00  0.00     0.077 C 
ATOM      2  C1' PXY d   1      -0.042  -6.000   1.933  0.00  0.00     0.077 C 
ATOM      3  C1  PXY d   1      -0.435  -4.745   1.179  0.00  0.00    -0.082 A 
ATOM      4  C2  PXY d   1      -0.074  -4.601  -0.085  0.00  0.00     0.003 A 
ATOM      5  C3  PXY d   1      -0.394  -3.458  -0.772  0.00  0.00     0.003 A 
ATOM      6  C4  PXY d   1      -1.137  -2.476  -0.175  0.00  0.00    -0.082 A 
ATOM      7  C5  PXY d   1      -1.519  -2.620   1.112  0.00  0.00     0.003 A 
ATOM      8  C6  PXY d   1      -1.149  -3.769   1.804  0.00  0.00     0.003 A 
ENDROOT
TORSDOF 0
ENDMDL
