MODEL 1
REMARK minimizedAffinity 10.0770493
REMARK minimizedRMSD -1
REMARK  0 active torsions:
REMARK  status: ('A' for Active; 'I' for Inactive)
ROOT
ATOM      1  C4' PXY d   1      -1.489  -3.411   0.478  0.00  0.00     0.077 C 
ATOM      2  C1' PXY d   1      -3.276   1.009  -2.791  0.00  0.00     0.077 C 
ATOM      3  C1  PXY d   1      -2.814  -0.145  -1.923  0.00  0.00    -0.082 A 
ATOM      4  C2  PXY d   1      -1.708  -0.800  -2.240  0.00  0.00     0.003 A 
ATOM      5  C3  PXY d   1      -1.293  -1.866  -1.484  0.00  0.00     0.003 A 
ATOM      6  C4  PXY d   1      -1.988  -2.233  -0.363  0.00  0.00    -0.082 A 
ATOM      7  C5  PXY d   1      -3.111  -1.564  -0.028  0.00  0.00     0.003 A 
ATOM      8  C6  PXY d   1      -3.538  -0.510  -0.831  0.00  0.00     0.003 A 
ENDROOT
TORSDOF 0
ENDMDL
