MODEL 1
REMARK minimizedAffinity 9.92043591
REMARK minimizedRMSD -1
REMARK  0 active torsions:
REMARK  status: ('A' for Active; 'I' for Inactive)
ROOT
ATOM      1  C4' PXY d   1       2.319   0.138  -2.210  0.00  0.00     0.077 C 
ATOM      2  C1' PXY d   1       4.794   4.667   0.392  0.00  0.00     0.077 C 
ATOM      3  C1  PXY d   1       4.137   3.478  -0.280  0.00  0.00    -0.082 A 
ATOM      4  C2  PXY d   1       4.804   2.791  -1.193  0.00  0.00     0.003 A 
ATOM      5  C3  PXY d   1       4.214   1.733  -1.834  0.00  0.00     0.003 A 
ATOM      6  C4  PXY d   1       2.946   1.340  -1.499  0.00  0.00    -0.082 A 
ATOM      7  C5  PXY d   1       2.262   2.029  -0.561  0.00  0.00     0.003 A 
ATOM      8  C6  PXY d   1       2.864   3.126   0.049  0.00  0.00     0.003 A 
ENDROOT
TORSDOF 0
ENDMDL
