MODEL 1
REMARK minimizedAffinity 20.7092667
REMARK minimizedRMSD -1
REMARK  0 active torsions:
REMARK  status: ('A' for Active; 'I' for Inactive)
ROOT
ATOM      1  C4' PXY d   1      -5.435   5.928  -5.350  0.00  0.00     0.077 C 
ATOM      2  C1' PXY d   1      -4.221   5.072   0.236  0.00  0.00     0.077 C 
ATOM      3  C1  PXY d   1      -4.526   5.297  -1.232  0.00  0.00    -0.082 A 
ATOM      4  C2  PXY d   1      -5.695   5.807  -1.586  0.00  0.00     0.003 A 
ATOM      5  C3  PXY d   1      -6.000   5.988  -2.910  0.00  0.00     0.003 A 
ATOM      6  C4  PXY d   1      -5.080   5.692  -3.880  0.00  0.00    -0.082 A 
ATOM      7  C5  PXY d   1      -3.881   5.181  -3.526  0.00  0.00     0.003 A 
ATOM      8  C6  PXY d   1      -3.606   4.967  -2.178  0.00  0.00     0.003 A 
ENDROOT
TORSDOF 0
ENDMDL
