MODEL 1
REMARK minimizedAffinity 4.73376989
REMARK minimizedRMSD -1
REMARK  0 active torsions:
REMARK  status: ('A' for Active; 'I' for Inactive)
ROOT
ATOM      1  C4' PXY d   1      -5.912   3.192   5.995  0.00  0.00     0.077 C 
ATOM      2  C1' PXY d   1      -2.156  -1.202   5.982  0.00  0.00     0.077 C 
ATOM      3  C1  PXY d   1      -3.150  -0.058   5.981  0.00  0.00    -0.082 A 
ATOM      4  C2  PXY d   1      -2.711   1.190   5.969  0.00  0.00     0.003 A 
ATOM      5  C3  PXY d   1      -3.596   2.237   6.000  0.00  0.00     0.003 A 
ATOM      6  C4  PXY d   1      -4.945   2.005   5.988  0.00  0.00    -0.082 A 
ATOM      7  C5  PXY d   1      -5.401   0.735   5.989  0.00  0.00     0.003 A 
ATOM      8  C6  PXY d   1      -4.487  -0.314   5.999  0.00  0.00     0.003 A 
ENDROOT
TORSDOF 0
ENDMDL
