MODEL 1
REMARK minimizedAffinity 6.43447638
REMARK minimizedRMSD -1
REMARK  0 active torsions:
REMARK  status: ('A' for Active; 'I' for Inactive)
ROOT
ATOM      1  C4' PXY d   1      -2.168  -2.938   2.866  0.00  0.00     0.077 C 
ATOM      2  C1' PXY d   1      -1.229  -1.784  -2.720  0.00  0.00     0.077 C 
ATOM      3  C1  PXY d   1      -1.469  -2.098  -1.257  0.00  0.00    -0.082 A 
ATOM      4  C2  PXY d   1      -2.479  -1.525  -0.622  0.00  0.00     0.003 A 
ATOM      5  C3  PXY d   1      -2.691  -1.773   0.710  0.00  0.00     0.003 A 
ATOM      6  C4  PXY d   1      -1.894  -2.658   1.386  0.00  0.00    -0.082 A 
ATOM      7  C5  PXY d   1      -0.868  -3.254   0.742  0.00  0.00     0.003 A 
ATOM      8  C6  PXY d   1      -0.645  -2.958  -0.599  0.00  0.00     0.003 A 
ENDROOT
TORSDOF 0
ENDMDL
