MODEL 1
REMARK minimizedAffinity 7.73219252
REMARK minimizedRMSD -1
REMARK  0 active torsions:
REMARK  status: ('A' for Active; 'I' for Inactive)
ROOT
ATOM      1  C4' PXY d   1      -4.142   3.266  -6.000  0.00  0.00     0.077 C 
ATOM      2  C1' PXY d   1       1.097   2.204  -3.802  0.00  0.00     0.077 C 
ATOM      3  C1  PXY d   1      -0.281   2.472  -4.372  0.00  0.00    -0.082 A 
ATOM      4  C2  PXY d   1      -0.403   3.179  -5.484  0.00  0.00     0.003 A 
ATOM      5  C3  PXY d   1      -1.644   3.458  -5.996  0.00  0.00     0.003 A 
ATOM      6  C4  PXY d   1      -2.770   2.963  -5.393  0.00  0.00    -0.082 A 
ATOM      7  C5  PXY d   1      -2.653   2.231  -4.265  0.00  0.00     0.003 A 
ATOM      8  C6  PXY d   1      -1.387   1.994  -3.738  0.00  0.00     0.003 A 
ENDROOT
TORSDOF 0
ENDMDL
