MODEL 1
REMARK minimizedAffinity 10.9671068
REMARK minimizedRMSD -1
REMARK  0 active torsions:
REMARK  status: ('A' for Active; 'I' for Inactive)
ROOT
ATOM      1  C4' PXY d   1       0.338  -5.992   1.864  0.00  0.00     0.077 C 
ATOM      2  C1' PXY d   1      -1.556  -2.728  -2.514  0.00  0.00     0.077 C 
ATOM      3  C1  PXY d   1      -1.064  -3.594  -1.372  0.00  0.00    -0.082 A 
ATOM      4  C2  PXY d   1      -0.857  -3.053  -0.182  0.00  0.00     0.003 A 
ATOM      5  C3  PXY d   1      -0.382  -3.816   0.854  0.00  0.00     0.003 A 
ATOM      6  C4  PXY d   1      -0.167  -5.157   0.684  0.00  0.00    -0.082 A 
ATOM      7  C5  PXY d   1      -0.386  -5.719  -0.523  0.00  0.00     0.003 A 
ATOM      8  C6  PXY d   1      -0.829  -4.919  -1.573  0.00  0.00     0.003 A 
ENDROOT
TORSDOF 0
ENDMDL
