MODEL 1
REMARK minimizedAffinity 5.76260281
REMARK minimizedRMSD -1
REMARK  0 active torsions:
REMARK  status: ('A' for Active; 'I' for Inactive)
ROOT
ATOM      1  C4' PXY d   1      -0.554   3.680  -5.248  0.00  0.00     0.077 C 
ATOM      2  C1' PXY d   1      -6.000   5.615  -5.358  0.00  0.00     0.077 C 
ATOM      3  C1  PXY d   1      -4.576   5.095  -5.331  0.00  0.00    -0.082 A 
ATOM      4  C2  PXY d   1      -3.649   5.762  -4.662  0.00  0.00     0.003 A 
ATOM      5  C3  PXY d   1      -2.350   5.323  -4.654  0.00  0.00     0.003 A 
ATOM      6  C4  PXY d   1      -2.006   4.162  -5.294  0.00  0.00    -0.082 A 
ATOM      7  C5  PXY d   1      -2.948   3.471  -5.970  0.00  0.00     0.003 A 
ATOM      8  C6  PXY d   1      -4.253   3.955  -6.000  0.00  0.00     0.003 A 
ENDROOT
TORSDOF 0
ENDMDL
