MODEL 1
REMARK minimizedAffinity 15.4400387
REMARK minimizedRMSD -1
REMARK  0 active torsions:
REMARK  status: ('A' for Active; 'I' for Inactive)
ROOT
ATOM      1  C4' PXY d   1       4.374   4.547  -0.195  0.00  0.00     0.077 C 
ATOM      2  C1' PXY d   1       1.461  -0.383  -0.982  0.00  0.00     0.077 C 
ATOM      3  C1  PXY d   1       2.225   0.908  -0.763  0.00  0.00    -0.082 A 
ATOM      4  C2  PXY d   1       2.166   1.866  -1.674  0.00  0.00     0.003 A 
ATOM      5  C3  PXY d   1       2.876   3.027  -1.507  0.00  0.00     0.003 A 
ATOM      6  C4  PXY d   1       3.612   3.231  -0.370  0.00  0.00    -0.082 A 
ATOM      7  C5  PXY d   1       3.669   2.263   0.569  0.00  0.00     0.003 A 
ATOM      8  C6  PXY d   1       2.974   1.075   0.361  0.00  0.00     0.003 A 
ENDROOT
TORSDOF 0
ENDMDL
