MODEL 1
REMARK minimizedAffinity 10.9489546
REMARK minimizedRMSD -1
REMARK  0 active torsions:
REMARK  status: ('A' for Active; 'I' for Inactive)
ROOT
ATOM      1  C4' PXY d   1      -5.965   2.826   5.979  0.00  0.00     0.077 C 
ATOM      2  C1' PXY d   1      -2.396  -1.717   5.786  0.00  0.00     0.077 C 
ATOM      3  C1  PXY d   1      -3.322  -0.518   5.841  0.00  0.00    -0.082 A 
ATOM      4  C2  PXY d   1      -4.625  -0.704   5.977  0.00  0.00     0.003 A 
ATOM      5  C3  PXY d   1      -5.480   0.368   5.996  0.00  0.00     0.003 A 
ATOM      6  C4  PXY d   1      -4.992   1.645   5.929  0.00  0.00    -0.082 A 
ATOM      7  C5  PXY d   1      -3.663   1.843   5.801  0.00  0.00     0.003 A 
ATOM      8  C6  PXY d   1      -2.815   0.741   5.742  0.00  0.00     0.003 A 
ENDROOT
TORSDOF 0
ENDMDL
