MODEL 1
REMARK minimizedAffinity 10.4986496
REMARK minimizedRMSD -1
REMARK  0 active torsions:
REMARK  status: ('A' for Active; 'I' for Inactive)
ROOT
ATOM      1  C4' PXY d   1      -5.618   2.398   5.984  0.00  0.00     0.077 C 
ATOM      2  C1' PXY d   1      -1.489  -1.648   5.957  0.00  0.00     0.077 C 
ATOM      3  C1  PXY d   1      -2.563  -0.578   5.970  0.00  0.00    -0.082 A 
ATOM      4  C2  PXY d   1      -3.838  -0.932   5.965  0.00  0.00     0.003 A 
ATOM      5  C3  PXY d   1      -4.823   0.022   5.944  0.00  0.00     0.003 A 
ATOM      6  C4  PXY d   1      -4.499   1.352   5.981  0.00  0.00    -0.082 A 
ATOM      7  C5  PXY d   1      -3.201   1.721   5.997  0.00  0.00     0.003 A 
ATOM      8  C6  PXY d   1      -2.216   0.737   5.976  0.00  0.00     0.003 A 
ENDROOT
TORSDOF 0
ENDMDL
