MODEL 1
REMARK minimizedAffinity -4.21900415
REMARK minimizedRMSD -1
REMARK  1 active torsions:
REMARK  status: ('A' for Active; 'I' for Inactive)
REMARK    1  A    between atoms: N_2  and  C1_3 
ROOT
ATOM      1  C1  UNL d   1      -0.487  -0.017  -4.252  0.00  0.00     0.143 A 
ATOM      2  C2  UNL d   1       0.553   0.836  -4.634  0.00  0.00    -0.057 A 
ATOM      3  C3  UNL d   1       1.796   0.800  -3.991  0.00  0.00     0.033 A 
ATOM      4  C4  UNL d   1       2.012  -0.074  -2.931  0.00  0.00    -0.042 A 
ATOM      5  C5  UNL d   1       0.984  -0.914  -2.517  0.00  0.00     0.033 A 
ATOM      6  C6  UNL d   1      -0.253  -0.878  -3.167  0.00  0.00    -0.057 A 
ENDROOT
BRANCH   1   7
ATOM      7  N   UNL d   1      -1.776   0.039  -4.786  0.00  0.00    -0.732 N 
ATOM      8  C   UNL d   1      -2.367  -1.125  -5.411  0.00  0.00     0.284 C 
ATOM      9  H3  UNL d   1      -2.418   0.566  -4.198  0.00  0.00     0.395 HD
ENDBRANCH   1   7
TORSDOF 1
ENDMDL
