MODEL 1
REMARK minimizedAffinity -3.99970627
REMARK minimizedRMSD -1
REMARK  1 active torsions:
REMARK  status: ('A' for Active; 'I' for Inactive)
REMARK    1  A    between atoms: N_2  and  C1_3 
ROOT
ATOM      1  C1  UNL d   1      -0.510  -0.090   0.362  0.00  0.00     0.143 A 
ATOM      2  C2  UNL d   1      -1.716  -0.122   1.071  0.00  0.00    -0.057 A 
ATOM      3  C3  UNL d   1      -1.872   0.584   2.270  0.00  0.00     0.033 A 
ATOM      4  C4  UNL d   1      -0.812   1.313   2.798  0.00  0.00    -0.042 A 
ATOM      5  C5  UNL d   1       0.404   1.338   2.124  0.00  0.00     0.033 A 
ATOM      6  C6  UNL d   1       0.552   0.637   0.924  0.00  0.00    -0.057 A 
ENDROOT
BRANCH   1   7
ATOM      7  N   UNL d   1      -0.261  -0.850  -0.784  0.00  0.00    -0.732 N 
ATOM      8  C   UNL d   1       1.007  -0.749  -1.474  0.00  0.00     0.284 C 
ATOM      9  H3  UNL d   1      -0.617  -1.799  -0.705  0.00  0.00     0.395 HD
ENDBRANCH   1   7
TORSDOF 1
ENDMDL
