MODEL 1
REMARK minimizedAffinity -4.70647812
REMARK minimizedRMSD -1
REMARK  1 active torsions:
REMARK  status: ('A' for Active; 'I' for Inactive)
REMARK    1  A    between atoms: N_2  and  C1_3 
ROOT
ATOM      1  C1  UNL d   1       0.029  -0.048   0.443  0.00  0.00     0.143 A 
ATOM      2  C2  UNL d   1      -1.348  -0.073   0.685  0.00  0.00    -0.057 A 
ATOM      3  C3  UNL d   1      -1.912   0.644   1.747  0.00  0.00     0.033 A 
ATOM      4  C4  UNL d   1      -1.101   1.378   2.607  0.00  0.00    -0.042 A 
ATOM      5  C5  UNL d   1       0.274   1.397   2.400  0.00  0.00     0.033 A 
ATOM      6  C6  UNL d   1       0.830   0.684   1.334  0.00  0.00    -0.057 A 
ENDROOT
BRANCH   1   7
ATOM      7  N   UNL d   1       0.661  -0.819  -0.536  0.00  0.00    -0.732 N 
ATOM      8  C   UNL d   1       0.220  -0.766  -1.913  0.00  0.00     0.284 C 
ATOM      9  H3  UNL d   1       1.672  -0.837  -0.424  0.00  0.00     0.395 HD
ENDBRANCH   1   7
TORSDOF 1
ENDMDL
