MODEL 1
REMARK minimizedAffinity -3.60891509
REMARK minimizedRMSD -1
REMARK  1 active torsions:
REMARK  status: ('A' for Active; 'I' for Inactive)
REMARK    1  A    between atoms: N_2  and  C1_3 
ROOT
ATOM      1  C1  UNL d   1       0.102  -0.019   0.745  0.00  0.00     0.143 A 
ATOM      2  C2  UNL d   1       0.788   0.986   1.435  0.00  0.00    -0.057 A 
ATOM      3  C3  UNL d   1       0.150   1.763   2.410  0.00  0.00     0.033 A 
ATOM      4  C4  UNL d   1      -1.197   1.566   2.692  0.00  0.00    -0.042 A 
ATOM      5  C5  UNL d   1      -1.906   0.589   2.001  0.00  0.00     0.033 A 
ATOM      6  C6  UNL d   1      -1.261  -0.188   1.033  0.00  0.00    -0.057 A 
ENDROOT
BRANCH   1   7
ATOM      7  N   UNL d   1       0.654  -0.759  -0.304  0.00  0.00    -0.732 N 
ATOM      8  C   UNL d   1       0.517  -0.311  -1.673  0.00  0.00     0.284 C 
ATOM      9  H3  UNL d   1       1.575  -1.127  -0.077  0.00  0.00     0.395 HD
ENDBRANCH   1   7
TORSDOF 1
ENDMDL
