MODEL 1
REMARK minimizedAffinity -3.73436284
REMARK minimizedRMSD -1
REMARK  1 active torsions:
REMARK  status: ('A' for Active; 'I' for Inactive)
REMARK    1  A    between atoms: N_2  and  C1_3 
ROOT
ATOM      1  C1  UNL d   1      -0.316  -0.111   0.909  0.00  0.00     0.143 A 
ATOM      2  C2  UNL d   1      -1.495  -0.482   1.565  0.00  0.00    -0.057 A 
ATOM      3  C3  UNL d   1      -2.070   0.337   2.544  0.00  0.00     0.033 A 
ATOM      4  C4  UNL d   1      -1.458   1.533   2.906  0.00  0.00    -0.042 A 
ATOM      5  C5  UNL d   1      -0.272   1.910   2.285  0.00  0.00     0.033 A 
ATOM      6  C6  UNL d   1       0.293   1.090   1.304  0.00  0.00    -0.057 A 
ENDROOT
BRANCH   1   7
ATOM      7  N   UNL d   1       0.358  -0.929  -0.001  0.00  0.00    -0.732 N 
ATOM      8  C   UNL d   1       1.673  -1.448   0.307  0.00  0.00     0.284 C 
ATOM      9  H3  UNL d   1      -0.260  -1.601  -0.450  0.00  0.00     0.395 HD
ENDBRANCH   1   7
TORSDOF 1
ENDMDL
