MODEL 1
REMARK minimizedAffinity -4.64815092
REMARK minimizedRMSD -1
REMARK  0 active torsions:
REMARK  status: ('A' for Active; 'I' for Inactive)
ROOT
ATOM      1  C   UNL d   1      -2.609  -1.826   1.895  0.00  0.00     0.023 A 
ATOM      2  C1  UNL d   1      -2.947  -0.474   1.843  0.00  0.00     0.003 A 
ATOM      3  C2  UNL d   1      -2.141   0.422   1.137  0.00  0.00     0.048 A 
ATOM      4  C3  UNL d   1      -0.999  -0.043   0.484  0.00  0.00     0.023 A 
ATOM      5  C4  UNL d   1      -0.658  -1.395   0.533  0.00  0.00     0.048 A 
ATOM      6  C5  UNL d   1      -1.467  -2.286   1.241  0.00  0.00     0.003 A 
ATOM      7  I   UNL d   1       0.202   1.288  -0.568  0.00  0.00    -0.146 I 
ENDROOT
TORSDOF 0
ENDMDL
