MODEL 1
REMARK minimizedAffinity -5.00054312
REMARK minimizedRMSD -1
REMARK  0 active torsions:
REMARK  status: ('A' for Active; 'I' for Inactive)
ROOT
ATOM      1  C   UNL d   1      -2.179  -2.019   1.484  0.00  0.00     0.023 A 
ATOM      2  C1  UNL d   1      -1.101  -2.345   0.661  0.00  0.00     0.003 A 
ATOM      3  C2  UNL d   1      -0.314  -1.333   0.106  0.00  0.00     0.048 A 
ATOM      4  C3  UNL d   1      -0.611   0.002   0.379  0.00  0.00     0.023 A 
ATOM      5  C4  UNL d   1      -1.689   0.332   1.203  0.00  0.00     0.048 A 
ATOM      6  C5  UNL d   1      -2.473  -0.683   1.755  0.00  0.00     0.003 A 
ATOM      7  I   UNL d   1       0.558   1.509  -0.445  0.00  0.00    -0.146 I 
ENDROOT
TORSDOF 0
ENDMDL
