MODEL 1
REMARK minimizedAffinity -4.28406858
REMARK minimizedRMSD -1
REMARK  0 active torsions:
REMARK  status: ('A' for Active; 'I' for Inactive)
ROOT
ATOM      1  C   UNL d   1       0.894  -1.264  -0.016  0.00  0.00     0.023 A 
ATOM      2  C1  UNL d   1       0.372   0.029  -0.042  0.00  0.00     0.003 A 
ATOM      3  C2  UNL d   1      -0.770   0.338   0.700  0.00  0.00     0.048 A 
ATOM      4  C3  UNL d   1      -1.384  -0.650   1.467  0.00  0.00     0.023 A 
ATOM      5  C4  UNL d   1      -0.865  -1.946   1.498  0.00  0.00     0.048 A 
ATOM      6  C5  UNL d   1       0.276  -2.250   0.753  0.00  0.00     0.003 A 
ATOM      7  I   UNL d   1      -3.084  -0.193   2.573  0.00  0.00    -0.146 I 
ENDROOT
TORSDOF 0
ENDMDL
