MODEL 1
REMARK minimizedAffinity 0.974335372
REMARK minimizedRMSD -1
REMARK  0 active torsions:
REMARK  status: ('A' for Active; 'I' for Inactive)
ROOT
ATOM      1  C   UNL d   1      -0.413  -0.627   1.120  0.00  0.00     0.023 A 
ATOM      2  C1  UNL d   1       0.703  -1.230   0.540  0.00  0.00     0.003 A 
ATOM      3  C2  UNL d   1       1.373  -0.598  -0.510  0.00  0.00     0.048 A 
ATOM      4  C3  UNL d   1       0.922   0.637  -0.974  0.00  0.00     0.023 A 
ATOM      5  C4  UNL d   1      -0.194   1.245  -0.395  0.00  0.00     0.048 A 
ATOM      6  C5  UNL d   1      -0.861   0.609   0.653  0.00  0.00     0.003 A 
ATOM      7  I   UNL d   1       1.918   1.580  -2.536  0.00  0.00    -0.146 I 
ENDROOT
TORSDOF 0
ENDMDL
