MODEL 1
REMARK minimizedAffinity -3.69909859
REMARK minimizedRMSD -1
REMARK  0 active torsions:
REMARK  status: ('A' for Active; 'I' for Inactive)
ROOT
ATOM      1  C   UNL d   1      -2.149  -2.570   2.192  0.00  0.00     0.023 A 
ATOM      2  C1  UNL d   1      -0.756  -2.513   2.251  0.00  0.00     0.003 A 
ATOM      3  C2  UNL d   1      -0.063  -1.565   1.495  0.00  0.00     0.048 A 
ATOM      4  C3  UNL d   1      -0.768  -0.677   0.683  0.00  0.00     0.023 A 
ATOM      5  C4  UNL d   1      -2.161  -0.730   0.622  0.00  0.00     0.048 A 
ATOM      6  C5  UNL d   1      -2.851  -1.679   1.379  0.00  0.00     0.003 A 
ATOM      7  I   UNL d   1       0.262   0.734  -0.443  0.00  0.00    -0.146 I 
ENDROOT
TORSDOF 0
ENDMDL
