MODEL 1
REMARK minimizedAffinity -3.41265368
REMARK minimizedRMSD -1
REMARK  0 active torsions:
REMARK  status: ('A' for Active; 'I' for Inactive)
ROOT
ATOM      1  C   UNL d   1      -1.045  -1.951   1.783  0.00  0.00     0.023 A 
ATOM      2  C1  UNL d   1       0.073  -1.927   0.949  0.00  0.00     0.003 A 
ATOM      3  C2  UNL d   1       0.365  -0.783   0.204  0.00  0.00     0.048 A 
ATOM      4  C3  UNL d   1      -0.464   0.335   0.299  0.00  0.00     0.023 A 
ATOM      5  C4  UNL d   1      -1.582   0.316   1.133  0.00  0.00     0.048 A 
ATOM      6  C5  UNL d   1      -1.871  -0.831   1.876  0.00  0.00     0.003 A 
ATOM      7  I   UNL d   1      -0.030   2.039  -0.809  0.00  0.00    -0.146 I 
ENDROOT
TORSDOF 0
ENDMDL
