MODEL 1
REMARK minimizedAffinity -1.94083238
REMARK minimizedRMSD -1
REMARK  0 active torsions:
REMARK  status: ('A' for Active; 'I' for Inactive)
ROOT
ATOM      1  C   UNL d   1      -2.543  -1.838   0.683  0.00  0.00     0.023 A 
ATOM      2  C1  UNL d   1      -1.971  -1.113  -0.362  0.00  0.00     0.003 A 
ATOM      3  C2  UNL d   1      -0.648  -0.676  -0.267  0.00  0.00     0.048 A 
ATOM      4  C3  UNL d   1       0.097  -0.968   0.875  0.00  0.00     0.023 A 
ATOM      5  C4  UNL d   1      -0.472  -1.694   1.923  0.00  0.00     0.048 A 
ATOM      6  C5  UNL d   1      -1.795  -2.129   1.824  0.00  0.00     0.003 A 
ATOM      7  I   UNL d   1       2.066  -0.319   1.018  0.00  0.00    -0.146 I 
ENDROOT
TORSDOF 0
ENDMDL
