MODEL 1
REMARK minimizedAffinity -1.03797662
REMARK minimizedRMSD -1
REMARK  0 active torsions:
REMARK  status: ('A' for Active; 'I' for Inactive)
ROOT
ATOM      1  C   UNL d   1      -0.626  -1.905   1.876  0.00  0.00     0.023 A 
ATOM      2  C1  UNL d   1       0.369  -2.213   0.948  0.00  0.00     0.003 A 
ATOM      3  C2  UNL d   1       0.794  -1.249   0.031  0.00  0.00     0.048 A 
ATOM      4  C3  UNL d   1       0.219   0.021   0.048  0.00  0.00     0.023 A 
ATOM      5  C4  UNL d   1      -0.776   0.335   0.975  0.00  0.00     0.048 A 
ATOM      6  C5  UNL d   1      -1.198  -0.633   1.889  0.00  0.00     0.003 A 
ATOM      7  I   UNL d   1       0.849   1.458  -1.316  0.00  0.00    -0.146 I 
ENDROOT
TORSDOF 0
ENDMDL
