MODEL 1
REMARK minimizedAffinity -1.05420244
REMARK minimizedRMSD -1
REMARK  0 active torsions:
REMARK  status: ('A' for Active; 'I' for Inactive)
ROOT
ATOM      1  C   UNL d   1      -1.400  -2.682   0.955  0.00  0.00     0.023 A 
ATOM      2  C1  UNL d   1      -0.025  -2.534   0.770  0.00  0.00     0.003 A 
ATOM      3  C2  UNL d   1       0.502  -1.296   0.398  0.00  0.00     0.048 A 
ATOM      4  C3  UNL d   1      -0.351  -0.209   0.213  0.00  0.00     0.023 A 
ATOM      5  C4  UNL d   1      -1.727  -0.351   0.397  0.00  0.00     0.048 A 
ATOM      6  C5  UNL d   1      -2.250  -1.591   0.768  0.00  0.00     0.003 A 
ATOM      7  I   UNL d   1       0.432   1.635  -0.340  0.00  0.00    -0.146 I 
ENDROOT
TORSDOF 0
ENDMDL
