MODEL 1
REMARK minimizedAffinity 5.51818419
REMARK minimizedRMSD -1
REMARK  0 active torsions:
REMARK  status: ('A' for Active; 'I' for Inactive)
ROOT
ATOM      1  C   UNL d   1       0.442   2.382  -3.120  0.00  0.00     0.023 A 
ATOM      2  C1  UNL d   1      -0.681   1.849  -2.487  0.00  0.00     0.003 A 
ATOM      3  C2  UNL d   1      -0.528   0.905  -1.469  0.00  0.00     0.048 A 
ATOM      4  C3  UNL d   1       0.751   0.501  -1.088  0.00  0.00     0.023 A 
ATOM      5  C4  UNL d   1       1.878   1.032  -1.718  0.00  0.00     0.048 A 
ATOM      6  C5  UNL d   1       1.720   1.975  -2.736  0.00  0.00     0.003 A 
ATOM      7  I   UNL d   1       0.982  -0.903   0.427  0.00  0.00    -0.146 I 
ENDROOT
TORSDOF 0
ENDMDL
