MODEL 1
REMARK minimizedAffinity -4.18029022
REMARK minimizedRMSD -1
REMARK  0 active torsions:
REMARK  status: ('A' for Active; 'I' for Inactive)
ROOT
ATOM      1  C   UNL d   1      -2.694  -1.950   1.806  0.00  0.00     0.023 A 
ATOM      2  C1  UNL d   1      -1.664  -2.524   1.059  0.00  0.00     0.003 A 
ATOM      3  C2  UNL d   1      -0.747  -1.710   0.392  0.00  0.00     0.048 A 
ATOM      4  C3  UNL d   1      -0.864  -0.323   0.476  0.00  0.00     0.023 A 
ATOM      5  C4  UNL d   1      -1.892   0.256   1.223  0.00  0.00     0.048 A 
ATOM      6  C5  UNL d   1      -2.808  -0.563   1.887  0.00  0.00     0.003 A 
ATOM      7  I   UNL d   1       0.500   0.891  -0.516  0.00  0.00    -0.146 I 
ENDROOT
TORSDOF 0
ENDMDL
