MODEL 1
REMARK minimizedAffinity -0.148609877
REMARK minimizedRMSD -1
REMARK  0 active torsions:
REMARK  status: ('A' for Active; 'I' for Inactive)
ROOT
ATOM      1  C   UNL d   1       1.166  -2.289   1.107  0.00  0.00     0.023 A 
ATOM      2  C1  UNL d   1       1.712  -1.157   0.502  0.00  0.00     0.003 A 
ATOM      3  C2  UNL d   1       0.970   0.025   0.430  0.00  0.00     0.048 A 
ATOM      4  C3  UNL d   1      -0.316   0.067   0.968  0.00  0.00     0.023 A 
ATOM      5  C4  UNL d   1      -0.866  -1.063   1.576  0.00  0.00     0.048 A 
ATOM      6  C5  UNL d   1      -0.121  -2.242   1.643  0.00  0.00     0.003 A 
ATOM      7  I   UNL d   1      -1.421   1.824   0.863  0.00  0.00    -0.146 I 
ENDROOT
TORSDOF 0
ENDMDL
