MODEL 1
REMARK minimizedAffinity 3.32254982
REMARK minimizedRMSD -1
REMARK  1 active torsions:
REMARK  status: ('A' for Active; 'I' for Inactive)
REMARK    1  A    between atoms: C1_2  and  C2_3 
ROOT
ATOM      1  C2  UNL d   1       1.628   2.174   0.431  0.00  0.00    -0.076 A 
ATOM      2  C3  UNL d   1       1.615   3.491   0.924  0.00  0.00     0.004 A 
ATOM      3  C4  UNL d   1       1.354   4.570   0.082  0.00  0.00    -0.003 A 
ATOM      4  C5  UNL d   1       1.101   4.351  -1.267  0.00  0.00     0.000 A 
ATOM      5  C6  UNL d   1       1.092   3.050  -1.771  0.00  0.00     0.000 A 
ATOM      6  C7  UNL d   1       1.338   1.950  -0.932  0.00  0.00    -0.073 A 
ATOM      7  C8  UNL d   1       1.322   0.569  -1.529  0.00  0.00     0.078 C 
ENDROOT
BRANCH   1   8
ATOM      8  C1  UNL d   1       1.945   1.046   1.386  0.00  0.00     0.053 C 
ATOM      9  C   UNL d   1       3.432   0.733   1.447  0.00  0.00     0.018 C 
ENDBRANCH   1   8
TORSDOF 1
ENDMDL
