MODEL 1
REMARK minimizedAffinity -1.94651544
REMARK minimizedRMSD -1
REMARK  1 active torsions:
REMARK  status: ('A' for Active; 'I' for Inactive)
REMARK    1  A    between atoms: C1_2  and  C2_3 
ROOT
ATOM      1  C2  UNL d   1       1.192   2.829  -0.175  0.00  0.00    -0.076 A 
ATOM      2  C3  UNL d   1       0.820   2.718  -1.526  0.00  0.00     0.004 A 
ATOM      3  C4  UNL d   1       0.746   1.473  -2.149  0.00  0.00    -0.003 A 
ATOM      4  C5  UNL d   1       1.042   0.320  -1.432  0.00  0.00     0.000 A 
ATOM      5  C6  UNL d   1       1.395   0.410  -0.086  0.00  0.00     0.000 A 
ATOM      6  C7  UNL d   1       1.459   1.655   0.562  0.00  0.00    -0.073 A 
ATOM      7  C8  UNL d   1       1.851   1.695   2.014  0.00  0.00     0.078 C 
ENDROOT
BRANCH   1   8
ATOM      8  C1  UNL d   1       1.281   4.207   0.441  0.00  0.00     0.053 C 
ATOM      9  C   UNL d   1       1.498   5.296  -0.598  0.00  0.00     0.018 C 
ENDBRANCH   1   8
TORSDOF 1
ENDMDL
