MODEL 1
REMARK minimizedAffinity 6.30146742
REMARK minimizedRMSD -1
REMARK  1 active torsions:
REMARK  status: ('A' for Active; 'I' for Inactive)
REMARK    1  A    between atoms: C1_2  and  C2_3 
ROOT
ATOM      1  C2  UNL d   1       1.249   2.519  -0.090  0.00  0.00    -0.076 A 
ATOM      2  C3  UNL d   1       1.832   1.609   0.809  0.00  0.00     0.004 A 
ATOM      3  C4  UNL d   1       1.984   0.265   0.473  0.00  0.00    -0.003 A 
ATOM      4  C5  UNL d   1       1.556  -0.191  -0.769  0.00  0.00     0.000 A 
ATOM      5  C6  UNL d   1       0.991   0.700  -1.680  0.00  0.00     0.000 A 
ATOM      6  C7  UNL d   1       0.846   2.062  -1.363  0.00  0.00    -0.073 A 
ATOM      7  C8  UNL d   1       0.225   2.978  -2.382  0.00  0.00     0.078 C 
ENDROOT
BRANCH   1   8
ATOM      8  C1  UNL d   1       1.086   3.959   0.340  0.00  0.00     0.053 C 
ATOM      9  C   UNL d   1       1.542   4.941  -0.728  0.00  0.00     0.018 C 
ENDBRANCH   1   8
TORSDOF 1
ENDMDL
