MODEL 1
REMARK minimizedAffinity 0.689022005
REMARK minimizedRMSD -1
REMARK  1 active torsions:
REMARK  status: ('A' for Active; 'I' for Inactive)
REMARK    1  A    between atoms: C1_2  and  C2_3 
ROOT
ATOM      1  C2  UNL d   1       1.564  -0.211  -1.033  0.00  0.00    -0.076 A 
ATOM      2  C3  UNL d   1       1.572   0.112  -2.401  0.00  0.00     0.004 A 
ATOM      3  C4  UNL d   1       1.374   1.423  -2.830  0.00  0.00    -0.003 A 
ATOM      4  C5  UNL d   1       1.167   2.433  -1.897  0.00  0.00     0.000 A 
ATOM      5  C6  UNL d   1       1.174   2.134  -0.535  0.00  0.00     0.000 A 
ATOM      6  C7  UNL d   1       1.387   0.820  -0.086  0.00  0.00    -0.073 A 
ATOM      7  C8  UNL d   1       1.379   0.553   1.395  0.00  0.00     0.078 C 
ENDROOT
BRANCH   1   8
ATOM      8  C1  UNL d   1       1.757  -1.655  -0.629  0.00  0.00     0.053 C 
ATOM      9  C   UNL d   1       0.559  -2.524  -0.982  0.00  0.00     0.018 C 
ENDBRANCH   1   8
TORSDOF 1
ENDMDL
