MODEL 1
REMARK minimizedAffinity 1.44523048
REMARK minimizedRMSD -1
REMARK  1 active torsions:
REMARK  status: ('A' for Active; 'I' for Inactive)
REMARK    1  A    between atoms: C1_2  and  C2_3 
ROOT
ATOM      1  C2  UNL d   1       0.952   3.312  -0.914  0.00  0.00    -0.076 A 
ATOM      2  C3  UNL d   1       0.903   2.462  -2.033  0.00  0.00     0.004 A 
ATOM      3  C4  UNL d   1       1.226   1.111  -1.923  0.00  0.00    -0.003 A 
ATOM      4  C5  UNL d   1       1.603   0.586  -0.692  0.00  0.00     0.000 A 
ATOM      5  C6  UNL d   1       1.640   1.411   0.433  0.00  0.00     0.000 A 
ATOM      6  C7  UNL d   1       1.302   2.772   0.342  0.00  0.00    -0.073 A 
ATOM      7  C8  UNL d   1       1.366   3.616   1.585  0.00  0.00     0.078 C 
ENDROOT
BRANCH   1   8
ATOM      8  C1  UNL d   1       0.618   4.774  -1.100  0.00  0.00     0.053 C 
ATOM      9  C   UNL d   1       1.859   5.646  -1.214  0.00  0.00     0.018 C 
ENDBRANCH   1   8
TORSDOF 1
ENDMDL
