MODEL 1
REMARK minimizedAffinity 9.11170578
REMARK minimizedRMSD -1
REMARK  1 active torsions:
REMARK  status: ('A' for Active; 'I' for Inactive)
REMARK    1  A    between atoms: C1_2  and  C2_3 
ROOT
ATOM      1  C2  UNL d   1       1.499   1.560   0.131  0.00  0.00    -0.076 A 
ATOM      2  C3  UNL d   1       1.093   2.731  -0.531  0.00  0.00     0.004 A 
ATOM      3  C4  UNL d   1       0.748   2.709  -1.882  0.00  0.00    -0.003 A 
ATOM      4  C5  UNL d   1       0.805   1.514  -2.592  0.00  0.00     0.000 A 
ATOM      5  C6  UNL d   1       1.189   0.340  -1.946  0.00  0.00     0.000 A 
ATOM      6  C7  UNL d   1       1.524   0.342  -0.581  0.00  0.00    -0.073 A 
ATOM      7  C8  UNL d   1       1.937  -0.953   0.063  0.00  0.00     0.078 C 
ENDROOT
BRANCH   1   8
ATOM      8  C1  UNL d   1       1.887   1.651   1.590  0.00  0.00     0.053 C 
ATOM      9  C   UNL d   1       1.342   2.902   2.261  0.00  0.00     0.018 C 
ENDBRANCH   1   8
TORSDOF 1
ENDMDL
