MODEL 1
REMARK minimizedAffinity 2.94453502
REMARK minimizedRMSD -1
REMARK  1 active torsions:
REMARK  status: ('A' for Active; 'I' for Inactive)
REMARK    1  A    between atoms: C1_2  and  C2_3 
ROOT
ATOM      1  C2  UNL d   1       0.665   1.378  -0.946  0.00  0.00    -0.076 A 
ATOM      2  C3  UNL d   1       0.827   0.125  -1.561  0.00  0.00     0.004 A 
ATOM      3  C4  UNL d   1       1.445  -0.929  -0.890  0.00  0.00    -0.003 A 
ATOM      4  C5  UNL d   1       1.910  -0.747   0.408  0.00  0.00     0.000 A 
ATOM      5  C6  UNL d   1       1.742   0.485   1.040  0.00  0.00     0.000 A 
ATOM      6  C7  UNL d   1       1.107   1.553   0.383  0.00  0.00    -0.073 A 
ATOM      7  C8  UNL d   1       0.958   2.861   1.110  0.00  0.00     0.078 C 
ENDROOT
BRANCH   1   8
ATOM      8  C1  UNL d   1       0.012   2.492  -1.733  0.00  0.00     0.053 C 
ATOM      9  C   UNL d   1       1.027   3.429  -2.369  0.00  0.00     0.018 C 
ENDBRANCH   1   8
TORSDOF 1
ENDMDL
