MODEL 1
REMARK minimizedAffinity 1.80174243
REMARK minimizedRMSD -1
REMARK  1 active torsions:
REMARK  status: ('A' for Active; 'I' for Inactive)
REMARK    1  A    between atoms: C1_2  and  C2_3 
ROOT
ATOM      1  C2  UNL d   1       1.025   2.160   0.408  0.00  0.00    -0.076 A 
ATOM      2  C3  UNL d   1       0.161   1.884  -0.666  0.00  0.00     0.004 A 
ATOM      3  C4  UNL d   1       0.061   0.598  -1.194  0.00  0.00    -0.003 A 
ATOM      4  C5  UNL d   1       0.822  -0.434  -0.656  0.00  0.00     0.000 A 
ATOM      5  C6  UNL d   1       1.671  -0.182   0.422  0.00  0.00     0.000 A 
ATOM      6  C7  UNL d   1       1.772   1.106   0.976  0.00  0.00    -0.073 A 
ATOM      7  C8  UNL d   1       2.708   1.322   2.134  0.00  0.00     0.078 C 
ENDROOT
BRANCH   1   8
ATOM      8  C1  UNL d   1       1.112   3.580   0.921  0.00  0.00     0.053 C 
ATOM      9  C   UNL d   1       1.333   4.590  -0.195  0.00  0.00     0.018 C 
ENDBRANCH   1   8
TORSDOF 1
ENDMDL
