MODEL 1
REMARK minimizedAffinity 3.61259913
REMARK minimizedRMSD -1
REMARK  1 active torsions:
REMARK  status: ('A' for Active; 'I' for Inactive)
REMARK    1  A    between atoms: C1_2  and  C2_3 
ROOT
ATOM      1  C2  UNL d   1       1.652   0.926  -0.488  0.00  0.00    -0.076 A 
ATOM      2  C3  UNL d   1       1.404   1.408   0.809  0.00  0.00     0.004 A 
ATOM      3  C4  UNL d   1       1.083   2.746   1.028  0.00  0.00    -0.003 A 
ATOM      4  C5  UNL d   1       1.005   3.625  -0.046  0.00  0.00     0.000 A 
ATOM      5  C6  UNL d   1       1.231   3.161  -1.342  0.00  0.00     0.000 A 
ATOM      6  C7  UNL d   1       1.539   1.811  -1.582  0.00  0.00    -0.073 A 
ATOM      7  C8  UNL d   1       1.779   1.365  -2.998  0.00  0.00     0.078 C 
ENDROOT
BRANCH   1   8
ATOM      8  C1  UNL d   1       2.022  -0.530  -0.661  0.00  0.00     0.053 C 
ATOM      9  C   UNL d   1       3.339  -0.881   0.013  0.00  0.00     0.018 C 
ENDBRANCH   1   8
TORSDOF 1
ENDMDL
