MODEL 1
REMARK minimizedAffinity 6.67493057
REMARK minimizedRMSD -1
REMARK  1 active torsions:
REMARK  status: ('A' for Active; 'I' for Inactive)
REMARK    1  A    between atoms: C1_2  and  C2_3 
ROOT
ATOM      1  C2  UNL d   1       0.644   1.278  -0.794  0.00  0.00    -0.076 A 
ATOM      2  C3  UNL d   1       1.000   0.024  -1.320  0.00  0.00     0.004 A 
ATOM      3  C4  UNL d   1       1.754  -0.880  -0.573  0.00  0.00    -0.003 A 
ATOM      4  C5  UNL d   1       2.164  -0.544   0.713  0.00  0.00     0.000 A 
ATOM      5  C6  UNL d   1       1.805   0.689   1.257  0.00  0.00     0.000 A 
ATOM      6  C7  UNL d   1       1.031   1.605   0.523  0.00  0.00    -0.073 A 
ATOM      7  C8  UNL d   1       0.678   2.922   1.157  0.00  0.00     0.078 C 
ENDROOT
BRANCH   1   8
ATOM      8  C1  UNL d   1      -0.151   2.228  -1.661  0.00  0.00     0.053 C 
ATOM      9  C   UNL d   1       0.735   3.188  -2.439  0.00  0.00     0.018 C 
ENDBRANCH   1   8
TORSDOF 1
ENDMDL
