MODEL 1
REMARK minimizedAffinity 3.48130608
REMARK minimizedRMSD -1
REMARK  1 active torsions:
REMARK  status: ('A' for Active; 'I' for Inactive)
REMARK    1  A    between atoms: C1_2  and  C2_3 
ROOT
ATOM      1  C2  UNL d   1       1.962   0.106  -0.249  0.00  0.00    -0.076 A 
ATOM      2  C3  UNL d   1       1.545   0.810   0.894  0.00  0.00     0.004 A 
ATOM      3  C4  UNL d   1       0.889   2.035   0.782  0.00  0.00    -0.003 A 
ATOM      4  C5  UNL d   1       0.639   2.575  -0.474  0.00  0.00     0.000 A 
ATOM      5  C6  UNL d   1       1.030   1.882  -1.619  0.00  0.00     0.000 A 
ATOM      6  C7  UNL d   1       1.678   0.638  -1.524  0.00  0.00    -0.073 A 
ATOM      7  C8  UNL d   1       2.084  -0.063  -2.792  0.00  0.00     0.078 C 
ENDROOT
BRANCH   1   8
ATOM      8  C1  UNL d   1       2.694  -1.204  -0.065  0.00  0.00     0.053 C 
ATOM      9  C   UNL d   1       4.181  -1.011   0.191  0.00  0.00     0.018 C 
ENDBRANCH   1   8
TORSDOF 1
ENDMDL
