MODEL 1
REMARK minimizedAffinity 2.66920114
REMARK minimizedRMSD -1
REMARK  1 active torsions:
REMARK  status: ('A' for Active; 'I' for Inactive)
REMARK    1  A    between atoms: C1_2  and  C2_3 
ROOT
ATOM      1  C2  UNL d   1       0.985   1.546  -0.244  0.00  0.00    -0.076 A 
ATOM      2  C3  UNL d   1       0.967   2.821   0.347  0.00  0.00     0.004 A 
ATOM      3  C4  UNL d   1       1.122   3.972  -0.424  0.00  0.00    -0.003 A 
ATOM      4  C5  UNL d   1       1.297   3.866  -1.800  0.00  0.00     0.000 A 
ATOM      5  C6  UNL d   1       1.300   2.610  -2.405  0.00  0.00     0.000 A 
ATOM      6  C7  UNL d   1       1.128   1.441  -1.645  0.00  0.00    -0.073 A 
ATOM      7  C8  UNL d   1       1.146   0.112  -2.349  0.00  0.00     0.078 C 
ENDROOT
BRANCH   1   8
ATOM      8  C1  UNL d   1       0.839   0.333   0.646  0.00  0.00     0.053 C 
ATOM      9  C   UNL d   1       2.163  -0.379   0.882  0.00  0.00     0.018 C 
ENDBRANCH   1   8
TORSDOF 1
ENDMDL
