MODEL 1
REMARK minimizedAffinity 2.80178809
REMARK minimizedRMSD -1
REMARK  1 active torsions:
REMARK  status: ('A' for Active; 'I' for Inactive)
REMARK    1  A    between atoms: C1_2  and  C2_3 
ROOT
ATOM      1  C2  UNL d   1       0.775   1.520  -1.026  0.00  0.00    -0.076 A 
ATOM      2  C3  UNL d   1       1.024   2.191   0.184  0.00  0.00     0.004 A 
ATOM      3  C4  UNL d   1       1.478   1.500   1.306  0.00  0.00    -0.003 A 
ATOM      4  C5  UNL d   1       1.692   0.128   1.237  0.00  0.00     0.000 A 
ATOM      5  C6  UNL d   1       1.467  -0.550   0.040  0.00  0.00     0.000 A 
ATOM      6  C7  UNL d   1       1.024   0.133  -1.106  0.00  0.00    -0.073 A 
ATOM      7  C8  UNL d   1       0.792  -0.650  -2.369  0.00  0.00     0.078 C 
ENDROOT
BRANCH   1   8
ATOM      8  C1  UNL d   1       0.257   2.316  -2.203  0.00  0.00     0.053 C 
ATOM      9  C   UNL d   1       0.715   3.766  -2.172  0.00  0.00     0.018 C 
ENDBRANCH   1   8
TORSDOF 1
ENDMDL
