MODEL 1
REMARK minimizedAffinity 3.62727308
REMARK minimizedRMSD -1
REMARK  0 active torsions:
REMARK  status: ('A' for Active; 'I' for Inactive)
ROOT
ATOM      1  C   UNL d   1       1.929  -2.114  -0.489  0.00  0.00     0.078 C 
ATOM      2  C1  UNL d   1       2.593  -1.006   0.272  0.00  0.00    -0.077 A 
ATOM      3  C2  UNL d   1       3.491  -1.282   1.310  0.00  0.00    -0.001 A 
ATOM      4  C3  UNL d   1       4.095  -0.241   2.017  0.00  0.00     0.003 A 
ATOM      5  C4  UNL d   1       3.807   1.084   1.693  0.00  0.00    -0.005 A 
ATOM      6  C5  UNL d   1       2.913   1.368   0.663  0.00  0.00     0.003 A 
ATOM      7  C6  UNL d   1       2.308   0.328  -0.045  0.00  0.00    -0.001 A 
ENDROOT
TORSDOF 0
ENDMDL
