MODEL 1
REMARK minimizedAffinity -2.04855204
REMARK minimizedRMSD -1
REMARK  0 active torsions:
REMARK  status: ('A' for Active; 'I' for Inactive)
ROOT
ATOM      1  C   UNL d   1       3.785  -1.500  -2.745  0.00  0.00     0.078 C 
ATOM      2  C1  UNL d   1       3.594  -1.306  -1.270  0.00  0.00    -0.077 A 
ATOM      3  C2  UNL d   1       4.375  -0.389  -0.556  0.00  0.00    -0.001 A 
ATOM      4  C3  UNL d   1       4.193  -0.226   0.818  0.00  0.00     0.003 A 
ATOM      5  C4  UNL d   1       3.230  -0.977   1.490  0.00  0.00    -0.005 A 
ATOM      6  C5  UNL d   1       2.450  -1.893   0.788  0.00  0.00     0.003 A 
ATOM      7  C6  UNL d   1       2.631  -2.058  -0.586  0.00  0.00    -0.001 A 
ENDROOT
TORSDOF 0
ENDMDL
