MODEL 1
REMARK minimizedAffinity -1.2181946
REMARK minimizedRMSD -1
REMARK  0 active torsions:
REMARK  status: ('A' for Active; 'I' for Inactive)
ROOT
ATOM      1  C   UNL d   1       2.461  -2.065  -0.269  0.00  0.00     0.078 C 
ATOM      2  C1  UNL d   1       2.846  -0.617  -0.322  0.00  0.00    -0.077 A 
ATOM      3  C2  UNL d   1       3.773  -0.151  -1.262  0.00  0.00    -0.001 A 
ATOM      4  C3  UNL d   1       4.129   1.198  -1.293  0.00  0.00     0.003 A 
ATOM      5  C4  UNL d   1       3.564   2.092  -0.386  0.00  0.00    -0.005 A 
ATOM      6  C5  UNL d   1       2.643   1.637   0.555  0.00  0.00     0.003 A 
ATOM      7  C6  UNL d   1       2.285   0.289   0.588  0.00  0.00    -0.001 A 
ENDROOT
TORSDOF 0
ENDMDL
