MODEL 1
REMARK minimizedAffinity 3.77480197
REMARK minimizedRMSD -1
REMARK  0 active torsions:
REMARK  status: ('A' for Active; 'I' for Inactive)
ROOT
ATOM      1  C   UNL d   1       1.781  -1.849   0.152  0.00  0.00     0.078 C 
ATOM      2  C1  UNL d   1       2.333  -0.456   0.227  0.00  0.00    -0.077 A 
ATOM      3  C2  UNL d   1       3.655  -0.183  -0.144  0.00  0.00    -0.001 A 
ATOM      4  C3  UNL d   1       4.158   1.116  -0.059  0.00  0.00     0.003 A 
ATOM      5  C4  UNL d   1       3.346   2.152   0.398  0.00  0.00    -0.005 A 
ATOM      6  C5  UNL d   1       2.030   1.890   0.772  0.00  0.00     0.003 A 
ATOM      7  C6  UNL d   1       1.525   0.591   0.688  0.00  0.00    -0.001 A 
ENDROOT
TORSDOF 0
ENDMDL
