MODEL 1
REMARK minimizedAffinity -1.0892216
REMARK minimizedRMSD -1
REMARK  0 active torsions:
REMARK  status: ('A' for Active; 'I' for Inactive)
ROOT
ATOM      1  C   UNL d   1       0.713   2.229   0.038  0.00  0.00     0.078 C 
ATOM      2  C1  UNL d   1       1.452   0.934  -0.123  0.00  0.00    -0.077 A 
ATOM      3  C2  UNL d   1       2.654   0.700   0.556  0.00  0.00    -0.001 A 
ATOM      4  C3  UNL d   1       3.336  -0.506   0.388  0.00  0.00     0.003 A 
ATOM      5  C4  UNL d   1       2.825  -1.487  -0.459  0.00  0.00    -0.005 A 
ATOM      6  C5  UNL d   1       1.631  -1.262  -1.141  0.00  0.00     0.003 A 
ATOM      7  C6  UNL d   1       0.947  -0.057  -0.975  0.00  0.00    -0.001 A 
ENDROOT
TORSDOF 0
ENDMDL
