MODEL 1
REMARK minimizedAffinity 1.94227564
REMARK minimizedRMSD -1
REMARK  0 active torsions:
REMARK  status: ('A' for Active; 'I' for Inactive)
ROOT
ATOM      1  C   UNL d   1       3.489   1.133  -0.625  0.00  0.00     0.078 C 
ATOM      2  C1  UNL d   1       2.417   0.086  -0.643  0.00  0.00    -0.077 A 
ATOM      3  C2  UNL d   1       2.738  -1.273  -0.749  0.00  0.00    -0.001 A 
ATOM      4  C3  UNL d   1       1.729  -2.237  -0.774  0.00  0.00     0.003 A 
ATOM      5  C4  UNL d   1       0.392  -1.852  -0.695  0.00  0.00    -0.005 A 
ATOM      6  C5  UNL d   1       0.062  -0.502  -0.592  0.00  0.00     0.003 A 
ATOM      7  C6  UNL d   1       1.070   0.463  -0.566  0.00  0.00    -0.001 A 
ENDROOT
TORSDOF 0
ENDMDL
