MODEL 1
REMARK minimizedAffinity 2.73381805
REMARK minimizedRMSD -1
REMARK  0 active torsions:
REMARK  status: ('A' for Active; 'I' for Inactive)
ROOT
ATOM      1  C   UNL d   1       3.540   0.525  -1.330  0.00  0.00     0.078 C 
ATOM      2  C1  UNL d   1       2.448  -0.470  -1.067  0.00  0.00    -0.077 A 
ATOM      3  C2  UNL d   1       2.682  -1.845  -1.185  0.00  0.00    -0.001 A 
ATOM      4  C3  UNL d   1       1.654  -2.759  -0.947  0.00  0.00     0.003 A 
ATOM      5  C4  UNL d   1       0.385  -2.307  -0.590  0.00  0.00    -0.005 A 
ATOM      6  C5  UNL d   1       0.142  -0.940  -0.472  0.00  0.00     0.003 A 
ATOM      7  C6  UNL d   1       1.169  -0.025  -0.710  0.00  0.00    -0.001 A 
ENDROOT
TORSDOF 0
ENDMDL
