MODEL 1
REMARK minimizedAffinity 14.2755575
REMARK minimizedRMSD -1
REMARK  0 active torsions:
REMARK  status: ('A' for Active; 'I' for Inactive)
ROOT
ATOM      1  C1  DEN d   1      -0.250   4.140  -0.113  0.00  0.00     0.130 A 
ATOM      2  C2  DEN d   1      -0.035   2.712   0.110  0.00  0.00    -0.031 A 
ATOM      3  C3  DEN d   1      -0.833   1.970  -0.886  0.00  0.00     0.027 A 
ATOM      4  C4  DEN d   1      -2.369   2.886  -2.745  0.00  0.00     0.027 A 
ATOM      5  C5  DEN d   1      -2.878   4.031  -3.317  0.00  0.00    -0.003 A 
ATOM      6  C6  DEN d   1      -2.576   5.281  -2.844  0.00  0.00     0.001 A 
ATOM      7  C7  DEN d   1      -1.706   5.417  -1.795  0.00  0.00     0.017 A 
ATOM      8  C8  DEN d   1      -1.194   4.268  -1.208  0.00  0.00    -0.094 A 
ATOM      9  C9  DEN d   1      -1.502   3.014  -1.708  0.00  0.00    -0.072 A 
ENDROOT
TORSDOF 0
ENDMDL
