MODEL 1
REMARK minimizedAffinity 7.38455486
REMARK minimizedRMSD -1
REMARK  0 active torsions:
REMARK  status: ('A' for Active; 'I' for Inactive)
ROOT
ATOM      1  C1  DEN d   1      -3.692  -1.397   2.204  0.00  0.00     0.130 A 
ATOM      2  C2  DEN d   1      -4.071  -0.013   1.932  0.00  0.00    -0.031 A 
ATOM      3  C3  DEN d   1      -5.046   0.404   2.959  0.00  0.00     0.027 A 
ATOM      4  C4  DEN d   1      -5.998  -0.950   4.937  0.00  0.00     0.027 A 
ATOM      5  C5  DEN d   1      -5.984  -2.173   5.571  0.00  0.00    -0.003 A 
ATOM      6  C6  DEN d   1      -5.237  -3.225   5.111  0.00  0.00     0.001 A 
ATOM      7  C7  DEN d   1      -4.438  -3.060   4.010  0.00  0.00     0.017 A 
ATOM      8  C8  DEN d   1      -4.453  -1.832   3.362  0.00  0.00    -0.094 A 
ATOM      9  C9  DEN d   1      -5.205  -0.777   3.850  0.00  0.00    -0.072 A 
ENDROOT
TORSDOF 0
ENDMDL
