MODEL 1
REMARK minimizedAffinity 1.49458551
REMARK minimizedRMSD -1
REMARK  0 active torsions:
REMARK  status: ('A' for Active; 'I' for Inactive)
ROOT
ATOM      1  C1  DEN d   1      -5.999  -1.541   5.967  0.00  0.00     0.130 A 
ATOM      2  C2  DEN d   1      -5.999  -2.980   5.723  0.00  0.00    -0.031 A 
ATOM      3  C3  DEN d   1      -5.519  -3.210   4.346  0.00  0.00     0.027 A 
ATOM      4  C4  DEN d   1      -4.775  -1.486   2.578  0.00  0.00     0.027 A 
ATOM      5  C5  DEN d   1      -4.613  -0.143   2.318  0.00  0.00    -0.003 A 
ATOM      6  C6  DEN d   1      -4.930   0.822   3.237  0.00  0.00     0.001 A 
ATOM      7  C7  DEN d   1      -5.385   0.455   4.477  0.00  0.00     0.017 A 
ATOM      8  C8  DEN d   1      -5.559  -0.896   4.743  0.00  0.00    -0.094 A 
ATOM      9  C9  DEN d   1      -5.220  -1.857   3.805  0.00  0.00    -0.072 A 
ENDROOT
TORSDOF 0
ENDMDL
