MODEL 1
REMARK minimizedAffinity 10.9236317
REMARK minimizedRMSD -1
REMARK  0 active torsions:
REMARK  status: ('A' for Active; 'I' for Inactive)
ROOT
ATOM      1  C1  DEN d   1       0.451   4.386  -1.423  0.00  0.00     0.130 A 
ATOM      2  C2  DEN d   1       0.562   3.107  -0.727  0.00  0.00    -0.031 A 
ATOM      3  C3  DEN d   1      -0.620   2.293  -1.078  0.00  0.00     0.027 A 
ATOM      4  C4  DEN d   1      -2.595   2.884  -2.628  0.00  0.00     0.027 A 
ATOM      5  C5  DEN d   1      -3.135   3.861  -3.435  0.00  0.00    -0.003 A 
ATOM      6  C6  DEN d   1      -2.541   5.084  -3.599  0.00  0.00     0.001 A 
ATOM      7  C7  DEN d   1      -1.345   5.345  -2.984  0.00  0.00     0.017 A 
ATOM      8  C8  DEN d   1      -0.798   4.368  -2.162  0.00  0.00    -0.094 A 
ATOM      9  C9  DEN d   1      -1.409   3.134  -2.018  0.00  0.00    -0.072 A 
ENDROOT
TORSDOF 0
ENDMDL
