MODEL 1
REMARK minimizedAffinity 10.6691103
REMARK minimizedRMSD -1
REMARK  0 active torsions:
REMARK  status: ('A' for Active; 'I' for Inactive)
ROOT
ATOM      1  C1  DEN d   1      -1.105   3.529   1.119  0.00  0.00     0.130 A 
ATOM      2  C2  DEN d   1      -0.441   2.239   0.953  0.00  0.00    -0.031 A 
ATOM      3  C3  DEN d   1       0.140   2.195  -0.404  0.00  0.00     0.027 A 
ATOM      4  C4  DEN d   1       0.078   3.992  -2.254  0.00  0.00     0.027 A 
ATOM      5  C5  DEN d   1      -0.380   5.248  -2.583  0.00  0.00    -0.003 A 
ATOM      6  C6  DEN d   1      -1.135   6.000  -1.722  0.00  0.00     0.001 A 
ATOM      7  C7  DEN d   1      -1.416   5.520  -0.470  0.00  0.00     0.017 A 
ATOM      8  C8  DEN d   1      -0.964   4.251  -0.133  0.00  0.00    -0.094 A 
ATOM      9  C9  DEN d   1      -0.192   3.511  -1.014  0.00  0.00    -0.072 A 
ENDROOT
TORSDOF 0
ENDMDL
