MODEL 1
REMARK minimizedAffinity 0.582980812
REMARK minimizedRMSD -1
REMARK  0 active torsions:
REMARK  status: ('A' for Active; 'I' for Inactive)
ROOT
ATOM      1  C1  DEN d   1      -5.719  -0.515   3.276  0.00  0.00     0.130 A 
ATOM      2  C2  DEN d   1      -5.855   0.448   4.366  0.00  0.00    -0.031 A 
ATOM      3  C3  DEN d   1      -5.992  -0.307   5.628  0.00  0.00     0.027 A 
ATOM      4  C4  DEN d   1      -6.000  -2.859   5.999  0.00  0.00     0.027 A 
ATOM      5  C5  DEN d   1      -5.925  -4.084   5.375  0.00  0.00    -0.003 A 
ATOM      6  C6  DEN d   1      -5.811  -4.206   4.015  0.00  0.00     0.001 A 
ATOM      7  C7  DEN d   1      -5.723  -3.081   3.239  0.00  0.00     0.017 A 
ATOM      8  C8  DEN d   1      -5.806  -1.841   3.860  0.00  0.00    -0.094 A 
ATOM      9  C9  DEN d   1      -5.908  -1.740   5.237  0.00  0.00    -0.072 A 
ENDROOT
TORSDOF 0
ENDMDL
