MODEL 1
REMARK minimizedAffinity -3.01229048
REMARK minimizedRMSD -1
REMARK  0 active torsions:
REMARK  status: ('A' for Active; 'I' for Inactive)
ROOT
ATOM      1  C1  DEN d   1      -1.899  -3.641  -5.990  0.00  0.00     0.130 A 
ATOM      2  C2  DEN d   1      -1.399  -5.013  -5.958  0.00  0.00    -0.031 A 
ATOM      3  C3  DEN d   1      -2.562  -5.923  -5.946  0.00  0.00     0.027 A 
ATOM      4  C4  DEN d   1      -5.075  -5.344  -5.981  0.00  0.00     0.027 A 
ATOM      5  C5  DEN d   1      -5.990  -4.314  -5.998  0.00  0.00    -0.003 A 
ATOM      6  C6  DEN d   1      -5.609  -2.999  -5.979  0.00  0.00     0.001 A 
ATOM      7  C7  DEN d   1      -4.277  -2.678  -5.988  0.00  0.00     0.017 A 
ATOM      8  C8  DEN d   1      -3.349  -3.710  -5.963  0.00  0.00    -0.094 A 
ATOM      9  C9  DEN d   1      -3.754  -5.034  -5.995  0.00  0.00    -0.072 A 
ENDROOT
TORSDOF 0
ENDMDL
