MODEL 1
REMARK minimizedAffinity 6.10773087
REMARK minimizedRMSD -1
REMARK  0 active torsions:
REMARK  status: ('A' for Active; 'I' for Inactive)
ROOT
ATOM      1  C1  DEN d   1       0.040   2.039  -0.757  0.00  0.00     0.130 A 
ATOM      2  C2  DEN d   1      -0.049   2.018   0.700  0.00  0.00    -0.031 A 
ATOM      3  C3  DEN d   1      -0.427   3.371   1.154  0.00  0.00     0.027 A 
ATOM      4  C4  DEN d   1      -0.886   5.485  -0.251  0.00  0.00     0.027 A 
ATOM      5  C5  DEN d   1      -0.924   5.997  -1.529  0.00  0.00    -0.003 A 
ATOM      6  C6  DEN d   1      -0.613   5.241  -2.628  0.00  0.00     0.001 A 
ATOM      7  C7  DEN d   1      -0.293   3.918  -2.473  0.00  0.00     0.017 A 
ATOM      8  C8  DEN d   1      -0.246   3.396  -1.187  0.00  0.00    -0.094 A 
ATOM      9  C9  DEN d   1      -0.576   4.174  -0.090  0.00  0.00    -0.072 A 
ENDROOT
TORSDOF 0
ENDMDL
