MODEL 1
REMARK minimizedAffinity -0.259154946
REMARK minimizedRMSD -1
REMARK  0 active torsions:
REMARK  status: ('A' for Active; 'I' for Inactive)
ROOT
ATOM      1  C2' OXE d   1      -0.376  -3.375  -2.626  0.00  0.00     0.078 C 
ATOM      2  C1' OXE d   1       0.168  -4.122  -5.276  0.00  0.00     0.078 C 
ATOM      3  C1  OXE d   1      -0.007  -2.653  -4.981  0.00  0.00    -0.078 A 
ATOM      4  C2  OXE d   1      -0.319  -2.301  -3.690  0.00  0.00    -0.078 A 
ATOM      5  C3  OXE d   1      -0.437  -0.955  -3.353  0.00  0.00     0.003 A 
ATOM      6  C4  OXE d   1      -0.393   0.031  -4.345  0.00  0.00    -0.002 A 
ATOM      7  C5  OXE d   1      -0.115  -0.310  -5.673  0.00  0.00    -0.002 A 
ATOM      8  C6  OXE d   1       0.121  -1.641  -6.000  0.00  0.00     0.003 A 
ENDROOT
TORSDOF 0
ENDMDL
