MODEL 1
REMARK minimizedAffinity 0.323762864
REMARK minimizedRMSD -1
REMARK  0 active torsions:
REMARK  status: ('A' for Active; 'I' for Inactive)
ROOT
ATOM      1  C2' OXE d   1      -3.438   0.681   1.102  0.00  0.00     0.078 C 
ATOM      2  C1' OXE d   1      -1.954  -0.928  -0.655  0.00  0.00     0.078 C 
ATOM      3  C1  OXE d   1      -1.346  -0.605   0.687  0.00  0.00    -0.078 A 
ATOM      4  C2  OXE d   1      -2.059   0.221   1.522  0.00  0.00    -0.078 A 
ATOM      5  C3  OXE d   1      -1.568   0.507   2.793  0.00  0.00     0.003 A 
ATOM      6  C4  OXE d   1      -0.287   0.085   3.169  0.00  0.00    -0.002 A 
ATOM      7  C5  OXE d   1       0.473  -0.724   2.318  0.00  0.00    -0.002 A 
ATOM      8  C6  OXE d   1      -0.059  -1.113   1.093  0.00  0.00     0.003 A 
ENDROOT
TORSDOF 0
ENDMDL
