MODEL 1
REMARK minimizedAffinity 3.15339255
REMARK minimizedRMSD -1
REMARK  0 active torsions:
REMARK  status: ('A' for Active; 'I' for Inactive)
ROOT
ATOM      1  C2' OXE d   1      -4.159   1.073   0.055  0.00  0.00     0.078 C 
ATOM      2  C1' OXE d   1      -2.986  -1.288  -0.908  0.00  0.00     0.078 C 
ATOM      3  C1  OXE d   1      -2.535  -0.777   0.438  0.00  0.00    -0.078 A 
ATOM      4  C2  OXE d   1      -3.080   0.404   0.880  0.00  0.00    -0.078 A 
ATOM      5  C3  OXE d   1      -2.740   0.892   2.138  0.00  0.00     0.003 A 
ATOM      6  C4  OXE d   1      -1.735   0.273   2.891  0.00  0.00    -0.002 A 
ATOM      7  C5  OXE d   1      -1.138  -0.910   2.441  0.00  0.00    -0.002 A 
ATOM      8  C6  OXE d   1      -1.556  -1.470   1.239  0.00  0.00     0.003 A 
ENDROOT
TORSDOF 0
ENDMDL
