MODEL 1
REMARK minimizedAffinity 8.66610432
REMARK minimizedRMSD -1
REMARK  0 active torsions:
REMARK  status: ('A' for Active; 'I' for Inactive)
ROOT
ATOM      1  C2' OXE d   1      -1.476  -1.122  -5.402  0.00  0.00     0.078 C 
ATOM      2  C1' OXE d   1      -0.470  -2.727  -3.331  0.00  0.00     0.078 C 
ATOM      3  C1  OXE d   1       0.505  -1.854  -4.081  0.00  0.00    -0.078 A 
ATOM      4  C2  OXE d   1       0.012  -1.107  -5.123  0.00  0.00    -0.078 A 
ATOM      5  C3  OXE d   1       0.858  -0.243  -5.813  0.00  0.00     0.003 A 
ATOM      6  C4  OXE d   1       2.234  -0.243  -5.555  0.00  0.00    -0.002 A 
ATOM      7  C5  OXE d   1       2.763  -1.027  -4.524  0.00  0.00    -0.002 A 
ATOM      8  C6  OXE d   1       1.908  -1.804  -3.751  0.00  0.00     0.003 A 
ENDROOT
TORSDOF 0
ENDMDL
