MODEL 1
REMARK minimizedAffinity -0.411797076
REMARK minimizedRMSD -1
REMARK  0 active torsions:
REMARK  status: ('A' for Active; 'I' for Inactive)
ROOT
ATOM      1  C2' OXE d   1       1.330   0.806   1.917  0.00  0.00     0.078 C 
ATOM      2  C1' OXE d   1       1.508  -1.796   2.957  0.00  0.00     0.078 C 
ATOM      3  C1  OXE d   1       0.143  -1.285   2.568  0.00  0.00    -0.078 A 
ATOM      4  C2  OXE d   1       0.060   0.005   2.104  0.00  0.00    -0.078 A 
ATOM      5  C3  OXE d   1      -1.168   0.507   1.679  0.00  0.00     0.003 A 
ATOM      6  C4  OXE d   1      -2.340  -0.236   1.865  0.00  0.00    -0.002 A 
ATOM      7  C5  OXE d   1      -2.282  -1.538   2.373  0.00  0.00    -0.002 A 
ATOM      8  C6  OXE d   1      -1.046  -2.092   2.689  0.00  0.00     0.003 A 
ENDROOT
TORSDOF 0
ENDMDL
