MODEL 1
REMARK minimizedAffinity 5.22408533
REMARK minimizedRMSD -1
REMARK  0 active torsions:
REMARK  status: ('A' for Active; 'I' for Inactive)
ROOT
ATOM      1  C2' OXE d   1      -1.843  -0.752  -5.274  0.00  0.00     0.078 C 
ATOM      2  C1' OXE d   1      -0.680  -1.941  -3.013  0.00  0.00     0.078 C 
ATOM      3  C1  OXE d   1       0.231  -1.223  -3.977  0.00  0.00    -0.078 A 
ATOM      4  C2  OXE d   1      -0.341  -0.685  -5.105  0.00  0.00    -0.078 A 
ATOM      5  C3  OXE d   1       0.446   0.035  -5.999  0.00  0.00     0.003 A 
ATOM      6  C4  OXE d   1       1.836   0.084  -5.840  0.00  0.00    -0.002 A 
ATOM      7  C5  OXE d   1       2.443  -0.492  -4.720  0.00  0.00    -0.002 A 
ATOM      8  C6  OXE d   1       1.652  -1.111  -3.759  0.00  0.00     0.003 A 
ENDROOT
TORSDOF 0
ENDMDL
