MODEL 1
REMARK minimizedAffinity 7.09722137
REMARK minimizedRMSD -1
REMARK  0 active torsions:
REMARK  status: ('A' for Active; 'I' for Inactive)
ROOT
ATOM      1  C2' OXE d   1      -2.070   0.048   1.257  0.00  0.00     0.078 C 
ATOM      2  C1' OXE d   1       0.121   1.664   1.941  0.00  0.00     0.078 C 
ATOM      3  C1  OXE d   1       0.252   0.176   2.150  0.00  0.00    -0.078 A 
ATOM      4  C2  OXE d   1      -0.842  -0.602   1.856  0.00  0.00    -0.078 A 
ATOM      5  C3  OXE d   1      -0.756  -1.986   1.978  0.00  0.00     0.003 A 
ATOM      6  C4  OXE d   1       0.380  -2.579   2.542  0.00  0.00    -0.002 A 
ATOM      7  C5  OXE d   1       1.491  -1.801   2.885  0.00  0.00    -0.002 A 
ATOM      8  C6  OXE d   1       1.459  -0.430   2.656  0.00  0.00     0.003 A 
ENDROOT
TORSDOF 0
ENDMDL
