MODEL 1
REMARK minimizedAffinity 4.0368824
REMARK minimizedRMSD -1
REMARK  0 active torsions:
REMARK  status: ('A' for Active; 'I' for Inactive)
ROOT
ATOM      1  C2' OXE d   1      -0.927  -1.906   3.016  0.00  0.00     0.078 C 
ATOM      2  C1' OXE d   1       1.359  -1.457   1.450  0.00  0.00     0.078 C 
ATOM      3  C1  OXE d   1       1.487  -1.295   2.944  0.00  0.00    -0.078 A 
ATOM      4  C2  OXE d   1       0.352  -1.471   3.698  0.00  0.00    -0.078 A 
ATOM      5  C3  OXE d   1       0.427  -1.387   5.086  0.00  0.00     0.003 A 
ATOM      6  C4  OXE d   1       1.611  -0.975   5.708  0.00  0.00    -0.002 A 
ATOM      7  C5  OXE d   1       2.769  -0.752   4.955  0.00  0.00    -0.002 A 
ATOM      8  C6  OXE d   1       2.735  -0.949   3.579  0.00  0.00     0.003 A 
ENDROOT
TORSDOF 0
ENDMDL
