MODEL 1
REMARK minimizedAffinity 8.00072384
REMARK minimizedRMSD -1
REMARK  0 active torsions:
REMARK  status: ('A' for Active; 'I' for Inactive)
ROOT
ATOM      1  C2' OXE d   1       1.427  -1.179   2.336  0.00  0.00     0.078 C 
ATOM      2  C1' OXE d   1       3.489   0.721   2.196  0.00  0.00     0.078 C 
ATOM      3  C1  OXE d   1       3.415  -0.148   3.427  0.00  0.00    -0.078 A 
ATOM      4  C2  OXE d   1       2.375  -1.042   3.508  0.00  0.00    -0.078 A 
ATOM      5  C3  OXE d   1       2.292  -1.906   4.597  0.00  0.00     0.003 A 
ATOM      6  C4  OXE d   1       3.167  -1.766   5.681  0.00  0.00    -0.002 A 
ATOM      7  C5  OXE d   1       4.209  -0.833   5.637  0.00  0.00    -0.002 A 
ATOM      8  C6  OXE d   1       4.372  -0.048   4.501  0.00  0.00     0.003 A 
ENDROOT
TORSDOF 0
ENDMDL
