MODEL 1
REMARK minimizedAffinity -1.96926212
REMARK minimizedRMSD -1
REMARK  0 active torsions:
REMARK  status: ('A' for Active; 'I' for Inactive)
ROOT
ATOM      1  C2' OXE d   1       1.699  -1.215   3.620  0.00  0.00     0.078 C 
ATOM      2  C1' OXE d   1      -0.433  -3.030   3.824  0.00  0.00     0.078 C 
ATOM      3  C1  OXE d   1      -0.674  -1.743   3.075  0.00  0.00    -0.078 A 
ATOM      4  C2  OXE d   1       0.361  -0.840   3.020  0.00  0.00    -0.078 A 
ATOM      5  C3  OXE d   1       0.209   0.338   2.296  0.00  0.00     0.003 A 
ATOM      6  C4  OXE d   1      -1.035   0.682   1.753  0.00  0.00    -0.002 A 
ATOM      7  C5  OXE d   1      -2.113  -0.206   1.831  0.00  0.00    -0.002 A 
ATOM      8  C6  OXE d   1      -1.938  -1.438   2.451  0.00  0.00     0.003 A 
ENDROOT
TORSDOF 0
ENDMDL
