MODEL 1
REMARK minimizedAffinity -4.1597147
REMARK minimizedRMSD -1
REMARK  0 active torsions:
REMARK  status: ('A' for Active; 'I' for Inactive)
ROOT
ATOM      1  C2' OXE d   1       0.173  -1.127   1.620  0.00  0.00     0.078 C 
ATOM      2  C1' OXE d   1      -0.526  -0.887  -1.088  0.00  0.00     0.078 C 
ATOM      3  C1  OXE d   1      -1.601  -0.641  -0.060  0.00  0.00    -0.078 A 
ATOM      4  C2  OXE d   1      -1.262  -0.806   1.262  0.00  0.00    -0.078 A 
ATOM      5  C3  OXE d   1      -2.202  -0.539   2.253  0.00  0.00     0.003 A 
ATOM      6  C4  OXE d   1      -3.529  -0.253   1.913  0.00  0.00    -0.002 A 
ATOM      7  C5  OXE d   1      -3.906  -0.119   0.572  0.00  0.00    -0.002 A 
ATOM      8  C6  OXE d   1      -2.946  -0.268  -0.423  0.00  0.00     0.003 A 
ENDROOT
TORSDOF 0
ENDMDL
