MODEL 1
REMARK minimizedAffinity -1.1952368
REMARK minimizedRMSD -1
REMARK  0 active torsions:
REMARK  status: ('A' for Active; 'I' for Inactive)
ROOT
ATOM      1  C2' OXE d   1      -1.110   0.815   3.637  0.00  0.00     0.078 C 
ATOM      2  C1' OXE d   1       0.209  -1.166   2.148  0.00  0.00     0.078 C 
ATOM      3  C1  OXE d   1      -1.108  -0.650   1.623  0.00  0.00    -0.078 A 
ATOM      4  C2  OXE d   1      -1.769   0.285   2.382  0.00  0.00    -0.078 A 
ATOM      5  C3  OXE d   1      -2.960   0.834   1.916  0.00  0.00     0.003 A 
ATOM      6  C4  OXE d   1      -3.568   0.331   0.759  0.00  0.00    -0.002 A 
ATOM      7  C5  OXE d   1      -2.931  -0.650  -0.008  0.00  0.00    -0.002 A 
ATOM      8  C6  OXE d   1      -1.683  -1.120   0.386  0.00  0.00     0.003 A 
ENDROOT
TORSDOF 0
ENDMDL
