MODEL 1
REMARK minimizedAffinity 0.150488913
REMARK minimizedRMSD -1
REMARK  2 active torsions:
REMARK  status: ('A' for Active; 'I' for Inactive)
REMARK    1  A    between atoms: C1_2  and  C2_3 
REMARK    2  A    between atoms: C2_3  and  C3_4 
ROOT
ATOM      1  C3  UNL d   1       0.678   0.494   0.651  0.00  0.00    -0.075 A 
ATOM      2  C4  UNL d   1       0.840   1.463  -0.350  0.00  0.00     0.002 A 
ATOM      3  C5  UNL d   1       1.996   2.244  -0.399  0.00  0.00     0.002 A 
ATOM      4  C6  UNL d   1       2.996   2.073   0.555  0.00  0.00    -0.004 A 
ATOM      5  C7  UNL d   1       2.838   1.125   1.564  0.00  0.00     0.002 A 
ATOM      6  C8  UNL d   1       1.685   0.340   1.613  0.00  0.00     0.002 A 
ENDROOT
BRANCH   1   7
ATOM      7  C2  UNL d   1      -0.557  -0.374   0.692  0.00  0.00     0.056 C 
BRANCH   7   8
ATOM      8  C1  UNL d   1      -0.270  -1.855   0.956  0.00  0.00     0.007 C 
ATOM      9  C   UNL d   1      -1.458  -2.760   0.658  0.00  0.00     0.009 C 
ENDBRANCH   7   8
ENDBRANCH   1   7
TORSDOF 2
ENDMDL
