MODEL 1
REMARK minimizedAffinity 6.62476254
REMARK minimizedRMSD -1
REMARK  2 active torsions:
REMARK  status: ('A' for Active; 'I' for Inactive)
REMARK    1  A    between atoms: C1_2  and  C2_3 
REMARK    2  A    between atoms: C2_3  and  C3_4 
ROOT
ATOM      1  C3  UNL d   1       2.186   0.226   1.724  0.00  0.00    -0.075 A 
ATOM      2  C4  UNL d   1       2.152   0.610   3.073  0.00  0.00     0.002 A 
ATOM      3  C5  UNL d   1       2.261   1.954   3.429  0.00  0.00     0.002 A 
ATOM      4  C6  UNL d   1       2.416   2.929   2.446  0.00  0.00    -0.004 A 
ATOM      5  C7  UNL d   1       2.468   2.558   1.104  0.00  0.00     0.002 A 
ATOM      6  C8  UNL d   1       2.355   1.214   0.744  0.00  0.00     0.002 A 
ENDROOT
BRANCH   1   7
ATOM      7  C2  UNL d   1       2.039  -1.224   1.330  0.00  0.00     0.056 C 
BRANCH   7   8
ATOM      8  C1  UNL d   1       0.671  -1.826   1.667  0.00  0.00     0.007 C 
ATOM      9  C   UNL d   1      -0.108  -2.271   0.436  0.00  0.00     0.009 C 
ENDBRANCH   7   8
ENDBRANCH   1   7
TORSDOF 2
ENDMDL
