MODEL 1
REMARK minimizedAffinity 1.24831331
REMARK minimizedRMSD -1
REMARK  2 active torsions:
REMARK  status: ('A' for Active; 'I' for Inactive)
REMARK    1  A    between atoms: C1_2  and  C2_3 
REMARK    2  A    between atoms: C2_3  and  C3_4 
ROOT
ATOM      1  C3  UNL d   1       1.136  -0.159   1.351  0.00  0.00    -0.075 A 
ATOM      2  C4  UNL d   1       0.209   0.873   1.141  0.00  0.00     0.002 A 
ATOM      3  C5  UNL d   1       0.637   2.136   0.732  0.00  0.00     0.002 A 
ATOM      4  C6  UNL d   1       1.994   2.387   0.538  0.00  0.00    -0.004 A 
ATOM      5  C7  UNL d   1       2.924   1.374   0.759  0.00  0.00     0.002 A 
ATOM      6  C8  UNL d   1       2.499   0.107   1.164  0.00  0.00     0.002 A 
ENDROOT
BRANCH   1   7
ATOM      7  C2  UNL d   1       0.677  -1.537   1.765  0.00  0.00     0.056 C 
BRANCH   7   8
ATOM      8  C1  UNL d   1      -0.038  -2.316   0.656  0.00  0.00     0.007 C 
ATOM      9  C   UNL d   1      -1.550  -2.359   0.831  0.00  0.00     0.009 C 
ENDBRANCH   7   8
ENDBRANCH   1   7
TORSDOF 2
ENDMDL
