MODEL 1
REMARK minimizedAffinity 1.97041798
REMARK minimizedRMSD -1
REMARK  2 active torsions:
REMARK  status: ('A' for Active; 'I' for Inactive)
REMARK    1  A    between atoms: C1_2  and  C2_3 
REMARK    2  A    between atoms: C2_3  and  C3_4 
ROOT
ATOM      1  C3  UNL d   1      -1.093  -1.914  -1.204  0.00  0.00    -0.075 A 
ATOM      2  C4  UNL d   1      -1.695  -0.946  -0.388  0.00  0.00     0.002 A 
ATOM      3  C5  UNL d   1      -1.273  -0.770   0.931  0.00  0.00     0.002 A 
ATOM      4  C6  UNL d   1      -0.254  -1.564   1.451  0.00  0.00    -0.004 A 
ATOM      5  C7  UNL d   1       0.340  -2.540   0.654  0.00  0.00     0.002 A 
ATOM      6  C8  UNL d   1      -0.077  -2.716  -0.667  0.00  0.00     0.002 A 
ENDROOT
BRANCH   1   7
ATOM      7  C2  UNL d   1      -1.525  -2.090  -2.641  0.00  0.00     0.056 C 
BRANCH   7   8
ATOM      8  C1  UNL d   1      -3.002  -1.768  -2.892  0.00  0.00     0.007 C 
ATOM      9  C   UNL d   1      -3.210  -0.498  -3.706  0.00  0.00     0.009 C 
ENDBRANCH   7   8
ENDBRANCH   1   7
TORSDOF 2
ENDMDL
