MODEL 1
REMARK minimizedAffinity 11.2154665
REMARK minimizedRMSD -1
REMARK  2 active torsions:
REMARK  status: ('A' for Active; 'I' for Inactive)
REMARK    1  A    between atoms: C1_2  and  C2_3 
REMARK    2  A    between atoms: C2_3  and  C3_4 
ROOT
ATOM      1  C3  UNL d   1       2.756   1.940   0.043  0.00  0.00    -0.075 A 
ATOM      2  C4  UNL d   1       3.269   0.727  -0.440  0.00  0.00     0.002 A 
ATOM      3  C5  UNL d   1       3.406  -0.372   0.409  0.00  0.00     0.002 A 
ATOM      4  C6  UNL d   1       3.042  -0.270   1.749  0.00  0.00    -0.004 A 
ATOM      5  C7  UNL d   1       2.547   0.935   2.244  0.00  0.00     0.002 A 
ATOM      6  C8  UNL d   1       2.405   2.035   1.396  0.00  0.00     0.002 A 
ENDROOT
BRANCH   1   7
ATOM      7  C2  UNL d   1       2.578   3.124  -0.877  0.00  0.00     0.056 C 
BRANCH   7   8
ATOM      8  C1  UNL d   1       2.119   4.402  -0.167  0.00  0.00     0.007 C 
ATOM      9  C   UNL d   1       0.668   4.762  -0.458  0.00  0.00     0.009 C 
ENDBRANCH   7   8
ENDBRANCH   1   7
TORSDOF 2
ENDMDL
