MODEL 1
REMARK minimizedAffinity 3.44813514
REMARK minimizedRMSD -1
REMARK  2 active torsions:
REMARK  status: ('A' for Active; 'I' for Inactive)
REMARK    1  A    between atoms: C1_2  and  C2_3 
REMARK    2  A    between atoms: C2_3  and  C3_4 
ROOT
ATOM      1  C3  UNL d   1       1.540  -0.642   2.024  0.00  0.00    -0.075 A 
ATOM      2  C4  UNL d   1       0.668  -1.483   1.317  0.00  0.00     0.002 A 
ATOM      3  C5  UNL d   1       0.226  -2.680   1.881  0.00  0.00     0.002 A 
ATOM      4  C6  UNL d   1       0.655  -3.055   3.152  0.00  0.00    -0.004 A 
ATOM      5  C7  UNL d   1       1.534  -2.235   3.857  0.00  0.00     0.002 A 
ATOM      6  C8  UNL d   1       1.975  -1.035   3.297  0.00  0.00     0.002 A 
ENDROOT
BRANCH   1   7
ATOM      7  C2  UNL d   1       1.999   0.669   1.431  0.00  0.00     0.056 C 
BRANCH   7   8
ATOM      8  C1  UNL d   1       2.278   0.608  -0.074  0.00  0.00     0.007 C 
ATOM      9  C   UNL d   1       1.870   1.877  -0.812  0.00  0.00     0.009 C 
ENDBRANCH   7   8
ENDBRANCH   1   7
TORSDOF 2
ENDMDL
