MODEL 1
REMARK minimizedAffinity 3.15643978
REMARK minimizedRMSD -1
REMARK  2 active torsions:
REMARK  status: ('A' for Active; 'I' for Inactive)
REMARK    1  A    between atoms: C1_2  and  C2_3 
REMARK    2  A    between atoms: C2_3  and  C3_4 
ROOT
ATOM      1  C3  UNL d   1       1.275  -2.056   4.624  0.00  0.00    -0.075 A 
ATOM      2  C4  UNL d   1       0.451  -3.132   4.262  0.00  0.00     0.002 A 
ATOM      3  C5  UNL d   1       0.774  -4.432   4.650  0.00  0.00     0.002 A 
ATOM      4  C6  UNL d   1       1.926  -4.675   5.395  0.00  0.00    -0.004 A 
ATOM      5  C7  UNL d   1       2.760  -3.616   5.746  0.00  0.00     0.002 A 
ATOM      6  C8  UNL d   1       2.437  -2.313   5.363  0.00  0.00     0.002 A 
ENDROOT
BRANCH   1   7
ATOM      7  C2  UNL d   1       0.916  -0.642   4.232  0.00  0.00     0.056 C 
BRANCH   7   8
ATOM      8  C1  UNL d   1       0.918  -0.395   2.720  0.00  0.00     0.007 C 
ATOM      9  C   UNL d   1       1.708   0.843   2.315  0.00  0.00     0.009 C 
ENDBRANCH   7   8
ENDBRANCH   1   7
TORSDOF 2
ENDMDL
