MODEL 1
REMARK minimizedAffinity -2.8579917
REMARK minimizedRMSD -1
REMARK  2 active torsions:
REMARK  status: ('A' for Active; 'I' for Inactive)
REMARK    1  A    between atoms: C1_2  and  C2_3 
REMARK    2  A    between atoms: C2_3  and  C3_4 
ROOT
ATOM      1  C3  UNL d   1       1.340  -0.381   1.977  0.00  0.00    -0.075 A 
ATOM      2  C4  UNL d   1       2.287   0.653   1.966  0.00  0.00     0.002 A 
ATOM      3  C5  UNL d   1       2.178   1.703   1.053  0.00  0.00     0.002 A 
ATOM      4  C6  UNL d   1       1.131   1.727   0.136  0.00  0.00    -0.004 A 
ATOM      5  C7  UNL d   1       0.194   0.696   0.126  0.00  0.00     0.002 A 
ATOM      6  C8  UNL d   1       0.297  -0.354   1.041  0.00  0.00     0.002 A 
ENDROOT
BRANCH   1   7
ATOM      7  C2  UNL d   1       1.435  -1.505   2.981  0.00  0.00     0.056 C 
BRANCH   7   8
ATOM      8  C1  UNL d   1       1.908  -1.062   4.370  0.00  0.00     0.007 C 
ATOM      9  C   UNL d   1       2.640  -2.158   5.132  0.00  0.00     0.009 C 
ENDBRANCH   7   8
ENDBRANCH   1   7
TORSDOF 2
ENDMDL
