MODEL 1
REMARK minimizedAffinity 8.30311966
REMARK minimizedRMSD -1
REMARK  0 active torsions:
REMARK  status: ('A' for Active; 'I' for Inactive)
ROOT
ATOM      1  C   UNL d   1       5.957  -3.461   5.499  0.00  0.00     0.023 A 
ATOM      2  C1  UNL d   1       5.955  -4.589   4.679  0.00  0.00     0.003 A 
ATOM      3  C2  UNL d   1       5.967  -4.444   3.290  0.00  0.00     0.048 A 
ATOM      4  C3  UNL d   1       5.981  -3.168   2.728  0.00  0.00     0.023 A 
ATOM      5  C4  UNL d   1       5.983  -2.036   3.545  0.00  0.00     0.048 A 
ATOM      6  C5  UNL d   1       5.971  -2.186   4.933  0.00  0.00     0.003 A 
ATOM      7  I   UNL d   1       5.998  -2.949   0.661  0.00  0.00    -0.146 I 
ENDROOT
TORSDOF 0
ENDMDL
