MODEL 1
REMARK minimizedAffinity 6.01591635
REMARK minimizedRMSD -1
REMARK  0 active torsions:
REMARK  status: ('A' for Active; 'I' for Inactive)
ROOT
ATOM      1  C   UNL d   1      -0.523  -1.532  -1.485  0.00  0.00     0.023 A 
ATOM      2  C1  UNL d   1      -0.998  -1.367  -0.184  0.00  0.00     0.003 A 
ATOM      3  C2  UNL d   1      -0.631  -0.241   0.557  0.00  0.00     0.048 A 
ATOM      4  C3  UNL d   1       0.210   0.716  -0.010  0.00  0.00     0.023 A 
ATOM      5  C4  UNL d   1       0.686   0.555  -1.312  0.00  0.00     0.048 A 
ATOM      6  C5  UNL d   1       0.318  -0.572  -2.048  0.00  0.00     0.003 A 
ATOM      7  I   UNL d   1       0.757   2.392   1.090  0.00  0.00    -0.146 I 
ENDROOT
TORSDOF 0
ENDMDL
