MODEL 1
REMARK minimizedAffinity 11.1790867
REMARK minimizedRMSD -1
REMARK  0 active torsions:
REMARK  status: ('A' for Active; 'I' for Inactive)
ROOT
ATOM      1  C   UNL d   1      -4.198   0.414   4.107  0.00  0.00     0.023 A 
ATOM      2  C1  UNL d   1      -3.180  -0.538   4.161  0.00  0.00     0.003 A 
ATOM      3  C2  UNL d   1      -2.436  -0.832   3.017  0.00  0.00     0.048 A 
ATOM      4  C3  UNL d   1      -2.714  -0.170   1.822  0.00  0.00     0.023 A 
ATOM      5  C4  UNL d   1      -3.731   0.784   1.763  0.00  0.00     0.048 A 
ATOM      6  C5  UNL d   1      -4.474   1.074   2.909  0.00  0.00     0.003 A 
ATOM      7  I   UNL d   1      -1.607  -0.605   0.117  0.00  0.00    -0.146 I 
ENDROOT
TORSDOF 0
ENDMDL
