MODEL 1
REMARK minimizedAffinity 1.39273322
REMARK minimizedRMSD -1
REMARK  0 active torsions:
REMARK  status: ('A' for Active; 'I' for Inactive)
ROOT
ATOM      1  C   UNL d   1       0.089  -1.262  -0.878  0.00  0.00     0.023 A 
ATOM      2  C1  UNL d   1       0.325  -0.174  -0.038  0.00  0.00     0.003 A 
ATOM      3  C2  UNL d   1      -0.634   0.205   0.903  0.00  0.00     0.048 A 
ATOM      4  C3  UNL d   1      -1.828  -0.509   0.999  0.00  0.00     0.023 A 
ATOM      5  C4  UNL d   1      -2.068  -1.600   0.161  0.00  0.00     0.048 A 
ATOM      6  C5  UNL d   1      -1.106  -1.974  -0.778  0.00  0.00     0.003 A 
ATOM      7  I   UNL d   1      -3.258   0.052   2.399  0.00  0.00    -0.146 I 
ENDROOT
TORSDOF 0
ENDMDL
