MODEL 1
REMARK minimizedAffinity 9.08111572
REMARK minimizedRMSD -1
REMARK  0 active torsions:
REMARK  status: ('A' for Active; 'I' for Inactive)
ROOT
ATOM      1  C   UNL d   1       4.083  -3.291  -5.822  0.00  0.00     0.023 A 
ATOM      2  C1  UNL d   1       3.293  -2.956  -4.723  0.00  0.00     0.003 A 
ATOM      3  C2  UNL d   1       3.841  -2.964  -3.439  0.00  0.00     0.048 A 
ATOM      4  C3  UNL d   1       5.181  -3.307  -3.261  0.00  0.00     0.023 A 
ATOM      5  C4  UNL d   1       5.976  -3.643  -4.358  0.00  0.00     0.048 A 
ATOM      6  C5  UNL d   1       5.423  -3.634  -5.640  0.00  0.00     0.003 A 
ATOM      7  I   UNL d   1       5.999  -3.320  -1.351  0.00  0.00    -0.146 I 
ENDROOT
TORSDOF 0
ENDMDL
