MODEL 1
REMARK minimizedAffinity 7.88231659
REMARK minimizedRMSD -1
REMARK  0 active torsions:
REMARK  status: ('A' for Active; 'I' for Inactive)
ROOT
ATOM      1  C   UNL d   1      -1.904  -2.844  -2.481  0.00  0.00     0.023 A 
ATOM      2  C1  UNL d   1      -0.930  -1.935  -2.069  0.00  0.00     0.003 A 
ATOM      3  C2  UNL d   1      -1.031  -1.322  -0.818  0.00  0.00     0.048 A 
ATOM      4  C3  UNL d   1      -2.107  -1.625   0.016  0.00  0.00     0.023 A 
ATOM      5  C4  UNL d   1      -3.083  -2.535  -0.393  0.00  0.00     0.048 A 
ATOM      6  C5  UNL d   1      -2.979  -3.144  -1.645  0.00  0.00     0.003 A 
ATOM      7  I   UNL d   1      -2.259  -0.714   1.878  0.00  0.00    -0.146 I 
ENDROOT
TORSDOF 0
ENDMDL
