MODEL 1
REMARK minimizedAffinity 2.97657752
REMARK minimizedRMSD -1
REMARK  0 active torsions:
REMARK  status: ('A' for Active; 'I' for Inactive)
ROOT
ATOM      1  C   UNL d   1      -2.249  -1.838   0.352  0.00  0.00     0.023 A 
ATOM      2  C1  UNL d   1      -1.915  -2.497  -0.831  0.00  0.00     0.003 A 
ATOM      3  C2  UNL d   1      -0.777  -2.118  -1.545  0.00  0.00     0.048 A 
ATOM      4  C3  UNL d   1       0.023  -1.079  -1.071  0.00  0.00     0.023 A 
ATOM      5  C4  UNL d   1      -0.307  -0.417   0.113  0.00  0.00     0.048 A 
ATOM      6  C5  UNL d   1      -1.446  -0.799   0.823  0.00  0.00     0.003 A 
ATOM      7  I   UNL d   1       1.718  -0.513  -2.132  0.00  0.00    -0.146 I 
ENDROOT
TORSDOF 0
ENDMDL
