MODEL 1
REMARK minimizedAffinity 5.68735266
REMARK minimizedRMSD -1
REMARK  0 active torsions:
REMARK  status: ('A' for Active; 'I' for Inactive)
ROOT
ATOM      1  C   UNL d   1      -0.232  -2.292  -1.694  0.00  0.00     0.023 A 
ATOM      2  C1  UNL d   1      -1.110  -2.071  -0.633  0.00  0.00     0.003 A 
ATOM      3  C2  UNL d   1      -1.304  -0.778  -0.144  0.00  0.00     0.048 A 
ATOM      4  C3  UNL d   1      -0.618   0.290  -0.721  0.00  0.00     0.023 A 
ATOM      5  C4  UNL d   1       0.262   0.074  -1.783  0.00  0.00     0.048 A 
ATOM      6  C5  UNL d   1       0.453  -1.221  -2.268  0.00  0.00     0.003 A 
ATOM      7  I   UNL d   1      -0.905   2.216   0.005  0.00  0.00    -0.146 I 
ENDROOT
TORSDOF 0
ENDMDL
