MODEL 1
REMARK minimizedAffinity 0.915993631
REMARK minimizedRMSD -1
REMARK  0 active torsions:
REMARK  status: ('A' for Active; 'I' for Inactive)
ROOT
ATOM      1  C   UNL d   1       4.142  -3.325  -5.293  0.00  0.00     0.023 A 
ATOM      2  C1  UNL d   1       3.353  -2.946  -4.207  0.00  0.00     0.003 A 
ATOM      3  C2  UNL d   1       3.884  -2.964  -2.916  0.00  0.00     0.048 A 
ATOM      4  C3  UNL d   1       5.206  -3.362  -2.718  0.00  0.00     0.023 A 
ATOM      5  C4  UNL d   1       6.000  -3.741  -3.801  0.00  0.00     0.048 A 
ATOM      6  C5  UNL d   1       5.464  -3.722  -5.090  0.00  0.00     0.003 A 
ATOM      7  I   UNL d   1       6.000  -3.389  -0.797  0.00  0.00    -0.146 I 
ENDROOT
TORSDOF 0
ENDMDL
