MODEL 1
REMARK minimizedAffinity 7.80221033
REMARK minimizedRMSD -1
REMARK  0 active torsions:
REMARK  status: ('A' for Active; 'I' for Inactive)
ROOT
ATOM      1  C   UNL d   1      -4.448   0.668   3.550  0.00  0.00     0.023 A 
ATOM      2  C1  UNL d   1      -4.475   1.266   2.290  0.00  0.00     0.003 A 
ATOM      3  C2  UNL d   1      -3.529   0.909   1.326  0.00  0.00     0.048 A 
ATOM      4  C3  UNL d   1      -2.561  -0.048   1.629  0.00  0.00     0.023 A 
ATOM      5  C4  UNL d   1      -2.531  -0.650   2.888  0.00  0.00     0.048 A 
ATOM      6  C5  UNL d   1      -3.477  -0.289   3.849  0.00  0.00     0.003 A 
ATOM      7  I   UNL d   1      -1.153  -0.581   0.196  0.00  0.00    -0.146 I 
ENDROOT
TORSDOF 0
ENDMDL
