MODEL 1
REMARK minimizedAffinity 6.44991493
REMARK minimizedRMSD -1
REMARK  0 active torsions:
REMARK  status: ('A' for Active; 'I' for Inactive)
ROOT
ATOM      1  C   UNL d   1      -2.115  -4.696  -5.891  0.00  0.00     0.023 A 
ATOM      2  C1  UNL d   1      -2.563  -5.272  -4.702  0.00  0.00     0.003 A 
ATOM      3  C2  UNL d   1      -2.510  -4.546  -3.510  0.00  0.00     0.048 A 
ATOM      4  C3  UNL d   1      -2.010  -3.244  -3.515  0.00  0.00     0.023 A 
ATOM      5  C4  UNL d   1      -1.562  -2.664  -4.703  0.00  0.00     0.048 A 
ATOM      6  C5  UNL d   1      -1.616  -3.394  -5.892  0.00  0.00     0.003 A 
ATOM      7  I   UNL d   1      -1.931  -2.161  -1.743  0.00  0.00    -0.146 I 
ENDROOT
TORSDOF 0
ENDMDL
