MODEL 1
REMARK minimizedAffinity 4.62289906
REMARK minimizedRMSD -1
REMARK  0 active torsions:
REMARK  status: ('A' for Active; 'I' for Inactive)
ROOT
ATOM      1  C   UNL d   1      -1.980  -1.421  -0.126  0.00  0.00     0.023 A 
ATOM      2  C1  UNL d   1      -3.002  -2.306  -0.470  0.00  0.00     0.003 A 
ATOM      3  C2  UNL d   1      -2.952  -2.995  -1.683  0.00  0.00     0.048 A 
ATOM      4  C3  UNL d   1      -1.877  -2.796  -2.548  0.00  0.00     0.023 A 
ATOM      5  C4  UNL d   1      -0.851  -1.912  -2.208  0.00  0.00     0.048 A 
ATOM      6  C5  UNL d   1      -0.906  -1.224  -0.994  0.00  0.00     0.003 A 
ATOM      7  I   UNL d   1      -1.800  -3.821  -4.354  0.00  0.00    -0.146 I 
ENDROOT
TORSDOF 0
ENDMDL
