MODEL 1
REMARK minimizedAffinity 9.80742168
REMARK minimizedRMSD -1
REMARK  0 active torsions:
REMARK  status: ('A' for Active; 'I' for Inactive)
ROOT
ATOM      1  C   UNL d   1      -1.236  -1.919  -0.911  0.00  0.00     0.023 A 
ATOM      2  C1  UNL d   1      -1.736  -1.470   0.311  0.00  0.00     0.003 A 
ATOM      3  C2  UNL d   1      -1.297  -0.255   0.842  0.00  0.00     0.048 A 
ATOM      4  C3  UNL d   1      -0.360   0.506   0.145  0.00  0.00     0.023 A 
ATOM      5  C4  UNL d   1       0.143   0.061  -1.079  0.00  0.00     0.048 A 
ATOM      6  C5  UNL d   1      -0.298  -1.155  -1.605  0.00  0.00     0.003 A 
ATOM      7  I   UNL d   1       0.294   2.314   0.933  0.00  0.00    -0.146 I 
ENDROOT
TORSDOF 0
ENDMDL
