MODEL 1
REMARK minimizedAffinity 1.99558818
REMARK minimizedRMSD -1
REMARK  0 active torsions:
REMARK  status: ('A' for Active; 'I' for Inactive)
ROOT
ATOM      1  C   UNL d   1      -3.882   1.266   2.388  0.00  0.00     0.023 A 
ATOM      2  C1  UNL d   1      -4.644   1.286   3.557  0.00  0.00     0.003 A 
ATOM      3  C2  UNL d   1      -4.510   0.262   4.497  0.00  0.00     0.048 A 
ATOM      4  C3  UNL d   1      -3.612  -0.779   4.263  0.00  0.00     0.023 A 
ATOM      5  C4  UNL d   1      -2.847  -0.802   3.095  0.00  0.00     0.048 A 
ATOM      6  C5  UNL d   1      -2.984   0.223   2.158  0.00  0.00     0.003 A 
ATOM      7  I   UNL d   1      -3.410  -2.304   5.660  0.00  0.00    -0.146 I 
ENDROOT
TORSDOF 0
ENDMDL
