MODEL 1
REMARK minimizedAffinity 1.2292521
REMARK minimizedRMSD -1
REMARK  0 active torsions:
REMARK  status: ('A' for Active; 'I' for Inactive)
ROOT
ATOM      1  C   UNL d   1      -1.198  -0.316  -0.113  0.00  0.00     0.023 A 
ATOM      2  C1  UNL d   1      -0.312   0.260  -1.022  0.00  0.00     0.003 A 
ATOM      3  C2  UNL d   1       0.445   1.374  -0.653  0.00  0.00     0.048 A 
ATOM      4  C3  UNL d   1       0.310   1.907   0.629  0.00  0.00     0.023 A 
ATOM      5  C4  UNL d   1      -0.575   1.334   1.543  0.00  0.00     0.048 A 
ATOM      6  C5  UNL d   1      -1.330   0.221   1.168  0.00  0.00     0.003 A 
ATOM      7  I   UNL d   1       1.435   3.565   1.181  0.00  0.00    -0.146 I 
ENDROOT
TORSDOF 0
ENDMDL
