MODEL 1
REMARK minimizedAffinity -2.01136732
REMARK minimizedRMSD -1
REMARK  0 active torsions:
REMARK  status: ('A' for Active; 'I' for Inactive)
ROOT
ATOM      1  C   UNL d   1      -0.835  -2.591   0.158  0.00  0.00     0.023 A 
ATOM      2  C1  UNL d   1      -0.118  -2.098  -0.932  0.00  0.00     0.003 A 
ATOM      3  C2  UNL d   1       0.206  -0.741  -1.001  0.00  0.00     0.048 A 
ATOM      4  C3  UNL d   1      -0.190   0.117   0.024  0.00  0.00     0.023 A 
ATOM      5  C4  UNL d   1      -0.907  -0.372   1.118  0.00  0.00     0.048 A 
ATOM      6  C5  UNL d   1      -1.229  -1.729   1.182  0.00  0.00     0.003 A 
ATOM      7  I   UNL d   1       0.290   2.137  -0.076  0.00  0.00    -0.146 I 
ENDROOT
TORSDOF 0
ENDMDL
