MODEL 1
REMARK minimizedAffinity 0.843011677
REMARK minimizedRMSD -1
REMARK  0 active torsions:
REMARK  status: ('A' for Active; 'I' for Inactive)
ROOT
ATOM      1  C4' PXY d   1       2.988  -2.138  -1.029  0.00  0.00     0.077 C 
ATOM      2  C1' PXY d   1       1.820   3.251  -2.765  0.00  0.00     0.077 C 
ATOM      3  C1  PXY d   1       2.138   1.839  -2.316  0.00  0.00    -0.082 A 
ATOM      4  C2  PXY d   1       1.150   0.998  -2.053  0.00  0.00     0.003 A 
ATOM      5  C3  PXY d   1       1.420  -0.273  -1.615  0.00  0.00     0.003 A 
ATOM      6  C4  PXY d   1       2.714  -0.705  -1.495  0.00  0.00    -0.082 A 
ATOM      7  C5  PXY d   1       3.727   0.144  -1.771  0.00  0.00     0.003 A 
ATOM      8  C6  PXY d   1       3.432   1.443  -2.175  0.00  0.00     0.003 A 
ENDROOT
TORSDOF 0
ENDMDL
