MODEL 1
REMARK minimizedAffinity 9.1538353
REMARK minimizedRMSD -1
REMARK  0 active torsions:
REMARK  status: ('A' for Active; 'I' for Inactive)
ROOT
ATOM      1  C4' PXY d   1       1.121  -3.956   1.488  0.00  0.00     0.077 C 
ATOM      2  C1' PXY d   1       1.949  -0.227  -2.850  0.00  0.00     0.077 C 
ATOM      3  C1  PXY d   1       1.719  -1.201  -1.712  0.00  0.00    -0.082 A 
ATOM      4  C2  PXY d   1       2.745  -1.609  -0.983  0.00  0.00     0.003 A 
ATOM      5  C3  PXY d   1       2.560  -2.514   0.030  0.00  0.00     0.003 A 
ATOM      6  C4  PXY d   1       1.304  -2.966   0.334  0.00  0.00    -0.082 A 
ATOM      7  C5  PXY d   1       0.251  -2.547  -0.398  0.00  0.00     0.003 A 
ATOM      8  C6  PXY d   1       0.465  -1.659  -1.448  0.00  0.00     0.003 A 
ENDROOT
TORSDOF 0
ENDMDL
