MODEL 1
REMARK minimizedAffinity 5.40071774
REMARK minimizedRMSD -1
REMARK  0 active torsions:
REMARK  status: ('A' for Active; 'I' for Inactive)
ROOT
ATOM      1  C4' PXY d   1       4.959   0.384  -3.260  0.00  0.00     0.077 C 
ATOM      2  C1' PXY d   1      -0.254   1.162  -0.886  0.00  0.00     0.077 C 
ATOM      3  C1  PXY d   1       1.115   0.948  -1.500  0.00  0.00    -0.082 A 
ATOM      4  C2  PXY d   1       1.721   1.951  -2.113  0.00  0.00     0.003 A 
ATOM      5  C3  PXY d   1       2.945   1.767  -2.702  0.00  0.00     0.003 A 
ATOM      6  C4  PXY d   1       3.580   0.556  -2.617  0.00  0.00    -0.082 A 
ATOM      7  C5  PXY d   1       2.973  -0.470  -1.984  0.00  0.00     0.003 A 
ATOM      8  C6  PXY d   1       1.712  -0.273  -1.428  0.00  0.00     0.003 A 
ENDROOT
TORSDOF 0
ENDMDL
