MODEL 1
REMARK minimizedAffinity 9.06475544
REMARK minimizedRMSD -1
REMARK  0 active torsions:
REMARK  status: ('A' for Active; 'I' for Inactive)
ROOT
ATOM      1  C4' PXY d   1       1.600  -3.694   0.461  0.00  0.00     0.077 C 
ATOM      2  C1' PXY d   1       1.740   1.169  -2.660  0.00  0.00     0.077 C 
ATOM      3  C1  PXY d   1       1.690  -0.106  -1.842  0.00  0.00    -0.082 A 
ATOM      4  C2  PXY d   1       2.704  -0.415  -1.050  0.00  0.00     0.003 A 
ATOM      5  C3  PXY d   1       2.690  -1.580  -0.328  0.00  0.00     0.003 A 
ATOM      6  C4  PXY d   1       1.603  -2.412  -0.376  0.00  0.00    -0.082 A 
ATOM      7  C5  PXY d   1       0.560  -2.098  -1.173  0.00  0.00     0.003 A 
ATOM      8  C6  PXY d   1       0.612  -0.931  -1.930  0.00  0.00     0.003 A 
ENDROOT
TORSDOF 0
ENDMDL
