MODEL 1
REMARK minimizedAffinity 2.77960181
REMARK minimizedRMSD -1
REMARK  0 active torsions:
REMARK  status: ('A' for Active; 'I' for Inactive)
ROOT
ATOM      1  C4' PXY d   1      -6.000   2.662   3.132  0.00  0.00     0.077 C 
ATOM      2  C1' PXY d   1      -3.827  -1.863   5.999  0.00  0.00     0.077 C 
ATOM      3  C1  PXY d   1      -4.408  -0.678   5.253  0.00  0.00    -0.082 A 
ATOM      4  C2  PXY d   1      -3.890  -0.319   4.090  0.00  0.00     0.003 A 
ATOM      5  C3  PXY d   1      -4.382   0.770   3.418  0.00  0.00     0.003 A 
ATOM      6  C4  PXY d   1      -5.451   1.466   3.915  0.00  0.00    -0.082 A 
ATOM      7  C5  PXY d   1      -5.993   1.099   5.096  0.00  0.00     0.003 A 
ATOM      8  C6  PXY d   1      -5.452   0.016   5.783  0.00  0.00     0.003 A 
ENDROOT
TORSDOF 0
ENDMDL
