MODEL 1
REMARK minimizedAffinity 5.80059004
REMARK minimizedRMSD -1
REMARK  0 active torsions:
REMARK  status: ('A' for Active; 'I' for Inactive)
ROOT
ATOM      1  C4' PXY d   1       1.306   2.932  -3.138  0.00  0.00     0.077 C 
ATOM      2  C1' PXY d   1       1.964  -2.143  -0.448  0.00  0.00     0.077 C 
ATOM      3  C1  PXY d   1       1.779  -0.811  -1.149  0.00  0.00    -0.082 A 
ATOM      4  C2  PXY d   1       2.541  -0.507  -2.188  0.00  0.00     0.003 A 
ATOM      5  C3  PXY d   1       2.409   0.706  -2.813  0.00  0.00     0.003 A 
ATOM      6  C4  PXY d   1       1.451   1.595  -2.405  0.00  0.00    -0.082 A 
ATOM      7  C5  PXY d   1       0.663   1.288  -1.353  0.00  0.00     0.003 A 
ATOM      8  C6  PXY d   1       0.840   0.068  -0.706  0.00  0.00     0.003 A 
ENDROOT
TORSDOF 0
ENDMDL
