MODEL 1
REMARK minimizedAffinity 1.46274447
REMARK minimizedRMSD -1
REMARK  0 active torsions:
REMARK  status: ('A' for Active; 'I' for Inactive)
ROOT
ATOM      1  C4' PXY d   1      -5.994  -0.678   3.160  0.00  0.00     0.077 C 
ATOM      2  C1' PXY d   1      -0.271  -0.427   3.940  0.00  0.00     0.077 C 
ATOM      3  C1  PXY d   1      -1.774  -0.487   3.747  0.00  0.00    -0.082 A 
ATOM      4  C2  PXY d   1      -2.292  -1.386   2.926  0.00  0.00     0.003 A 
ATOM      5  C3  PXY d   1      -3.646  -1.433   2.715  0.00  0.00     0.003 A 
ATOM      6  C4  PXY d   1      -4.483  -0.587   3.393  0.00  0.00    -0.082 A 
ATOM      7  C5  PXY d   1      -3.963   0.325   4.241  0.00  0.00     0.003 A 
ATOM      8  C6  PXY d   1      -2.582   0.384   4.409  0.00  0.00     0.003 A 
ENDROOT
TORSDOF 0
ENDMDL
