MODEL 1
REMARK minimizedAffinity 3.73201919
REMARK minimizedRMSD -1
REMARK  0 active torsions:
REMARK  status: ('A' for Active; 'I' for Inactive)
ROOT
ATOM      1  C4' PXY d   1       0.861  -3.748  -3.594  0.00  0.00     0.077 C 
ATOM      2  C1' PXY d   1       0.980   1.853  -2.170  0.00  0.00     0.077 C 
ATOM      3  C1  PXY d   1       0.953   0.381  -2.532  0.00  0.00    -0.082 A 
ATOM      4  C2  PXY d   1       1.034   0.017  -3.802  0.00  0.00     0.003 A 
ATOM      5  C3  PXY d   1       0.979  -1.308  -4.149  0.00  0.00     0.003 A 
ATOM      6  C4  PXY d   1       0.894  -2.274  -3.182  0.00  0.00    -0.082 A 
ATOM      7  C5  PXY d   1       0.822  -1.912  -1.884  0.00  0.00     0.003 A 
ATOM      8  C6  PXY d   1       0.837  -0.560  -1.555  0.00  0.00     0.003 A 
ENDROOT
TORSDOF 0
ENDMDL
