MODEL 1
REMARK minimizedAffinity 2.88769245
REMARK minimizedRMSD -1
REMARK  0 active torsions:
REMARK  status: ('A' for Active; 'I' for Inactive)
ROOT
ATOM      1  C4' PXY d   1       1.455   4.598  -6.000  0.00  0.00     0.077 C 
ATOM      2  C1' PXY d   1       1.622   0.426  -2.002  0.00  0.00     0.077 C 
ATOM      3  C1  PXY d   1       1.575   1.529  -3.041  0.00  0.00    -0.082 A 
ATOM      4  C2  PXY d   1       1.330   1.226  -4.306  0.00  0.00     0.003 A 
ATOM      5  C3  PXY d   1       1.316   2.207  -5.263  0.00  0.00     0.003 A 
ATOM      6  C4  PXY d   1       1.502   3.518  -4.915  0.00  0.00    -0.082 A 
ATOM      7  C5  PXY d   1       1.742   3.837  -3.625  0.00  0.00     0.003 A 
ATOM      8  C6  PXY d   1       1.793   2.821  -2.675  0.00  0.00     0.003 A 
ENDROOT
TORSDOF 0
ENDMDL
