MODEL 1
REMARK minimizedAffinity 5.2108283
REMARK minimizedRMSD -1
REMARK  0 active torsions:
REMARK  status: ('A' for Active; 'I' for Inactive)
ROOT
ATOM      1  C4' PXY d   1       2.820   1.681  -2.392  0.00  0.00     0.077 C 
ATOM      2  C1' PXY d   1       0.194  -3.452  -2.799  0.00  0.00     0.077 C 
ATOM      3  C1  PXY d   1       0.884  -2.108  -2.680  0.00  0.00    -0.082 A 
ATOM      4  C2  PXY d   1       0.627  -1.159  -3.565  0.00  0.00     0.003 A 
ATOM      5  C3  PXY d   1       1.267   0.051  -3.491  0.00  0.00     0.003 A 
ATOM      6  C4  PXY d   1       2.139   0.312  -2.468  0.00  0.00    -0.082 A 
ATOM      7  C5  PXY d   1       2.398  -0.647  -1.554  0.00  0.00     0.003 A 
ATOM      8  C6  PXY d   1       1.770  -1.883  -1.671  0.00  0.00     0.003 A 
ENDROOT
TORSDOF 0
ENDMDL
