MODEL 1
REMARK minimizedAffinity 3.22499537
REMARK minimizedRMSD -1
REMARK  0 active torsions:
REMARK  status: ('A' for Active; 'I' for Inactive)
ROOT
ATOM      1  C4' PXY d   1       2.555   0.508  -2.819  0.00  0.00     0.077 C 
ATOM      2  C1' PXY d   1       1.887  -4.170   0.511  0.00  0.00     0.077 C 
ATOM      3  C1  PXY d   1       2.056  -2.949  -0.372  0.00  0.00    -0.082 A 
ATOM      4  C2  PXY d   1       3.018  -2.079  -0.109  0.00  0.00     0.003 A 
ATOM      5  C3  PXY d   1       3.165  -0.954  -0.878  0.00  0.00     0.003 A 
ATOM      6  C4  PXY d   1       2.353  -0.743  -1.960  0.00  0.00    -0.082 A 
ATOM      7  C5  PXY d   1       1.376  -1.631  -2.242  0.00  0.00     0.003 A 
ATOM      8  C6  PXY d   1       1.217  -2.747  -1.424  0.00  0.00     0.003 A 
ENDROOT
TORSDOF 0
ENDMDL
