MODEL 1
REMARK minimizedAffinity -2.02586174
REMARK minimizedRMSD -1
REMARK  0 active torsions:
REMARK  status: ('A' for Active; 'I' for Inactive)
ROOT
ATOM      1  C4' PXY d   1      -0.729  -0.080  -0.435  0.00  0.00     0.077 C 
ATOM      2  C1' PXY d   1       4.372   0.463  -3.100  0.00  0.00     0.077 C 
ATOM      3  C1  PXY d   1       3.035   0.307  -2.402  0.00  0.00    -0.082 A 
ATOM      4  C2  PXY d   1       2.170   1.309  -2.415  0.00  0.00     0.003 A 
ATOM      5  C3  PXY d   1       0.970   1.197  -1.762  0.00  0.00     0.003 A 
ATOM      6  C4  PXY d   1       0.629   0.029  -1.134  0.00  0.00    -0.082 A 
ATOM      7  C5  PXY d   1       1.501  -1.001  -1.125  0.00  0.00     0.003 A 
ATOM      8  C6  PXY d   1       2.731  -0.853  -1.759  0.00  0.00     0.003 A 
ENDROOT
TORSDOF 0
ENDMDL
