MODEL 1
REMARK minimizedAffinity -2.19064975
REMARK minimizedRMSD -1
REMARK  0 active torsions:
REMARK  status: ('A' for Active; 'I' for Inactive)
ROOT
ATOM      1  C4' PXY d   1       1.306   2.256   1.833  0.00  0.00     0.077 C 
ATOM      2  C1' PXY d   1       1.240   2.003  -3.942  0.00  0.00     0.077 C 
ATOM      3  C1  PXY d   1       1.245   2.074  -2.427  0.00  0.00    -0.082 A 
ATOM      4  C2  PXY d   1       2.396   2.154  -1.780  0.00  0.00     0.003 A 
ATOM      5  C3  PXY d   1       2.421   2.187  -0.410  0.00  0.00     0.003 A 
ATOM      6  C4  PXY d   1       1.253   2.192   0.304  0.00  0.00    -0.082 A 
ATOM      7  C5  PXY d   1       0.074   2.121  -0.349  0.00  0.00     0.003 A 
ATOM      8  C6  PXY d   1       0.072   2.047  -1.739  0.00  0.00     0.003 A 
ENDROOT
TORSDOF 0
ENDMDL
