MODEL 1
REMARK minimizedAffinity 6.16446924
REMARK minimizedRMSD -1
REMARK  0 active torsions:
REMARK  status: ('A' for Active; 'I' for Inactive)
ROOT
ATOM      1  C4' PXY d   1       1.503   2.276  -2.911  0.00  0.00     0.077 C 
ATOM      2  C1' PXY d   1       1.361  -2.877  -0.295  0.00  0.00     0.077 C 
ATOM      3  C1  PXY d   1       1.385  -1.527  -0.984  0.00  0.00    -0.082 A 
ATOM      4  C2  PXY d   1       2.533  -1.040  -1.428  0.00  0.00     0.003 A 
ATOM      5  C3  PXY d   1       2.578   0.194  -2.025  0.00  0.00     0.003 A 
ATOM      6  C4  PXY d   1       1.429   0.913  -2.217  0.00  0.00    -0.082 A 
ATOM      7  C5  PXY d   1       0.253   0.418  -1.777  0.00  0.00     0.003 A 
ATOM      8  C6  PXY d   1       0.234  -0.818  -1.137  0.00  0.00     0.003 A 
ENDROOT
TORSDOF 0
ENDMDL
