MODEL 1
REMARK minimizedAffinity 5.76133394
REMARK minimizedRMSD -1
REMARK  0 active torsions:
REMARK  status: ('A' for Active; 'I' for Inactive)
ROOT
ATOM      1  C4' PXY d   1       1.820   1.528  -3.649  0.00  0.00     0.077 C 
ATOM      2  C1' PXY d   1       1.875  -3.274  -0.433  0.00  0.00     0.077 C 
ATOM      3  C1  PXY d   1       1.868  -2.009  -1.267  0.00  0.00    -0.082 A 
ATOM      4  C2  PXY d   1       0.900  -1.811  -2.147  0.00  0.00     0.003 A 
ATOM      5  C3  PXY d   1       0.895  -0.687  -2.933  0.00  0.00     0.003 A 
ATOM      6  C4  PXY d   1       1.863   0.270  -2.779  0.00  0.00    -0.082 A 
ATOM      7  C5  PXY d   1       2.848   0.080  -1.876  0.00  0.00     0.003 A 
ATOM      8  C6  PXY d   1       2.857  -1.087  -1.117  0.00  0.00     0.003 A 
ENDROOT
TORSDOF 0
ENDMDL
