MODEL 1
REMARK minimizedAffinity 3.86449289
REMARK minimizedRMSD -1
REMARK  0 active torsions:
REMARK  status: ('A' for Active; 'I' for Inactive)
ROOT
ATOM      1  C4' PXY d   1       1.601   2.338   1.847  0.00  0.00     0.077 C 
ATOM      2  C1' PXY d   1       0.655   0.919  -3.676  0.00  0.00     0.077 C 
ATOM      3  C1  PXY d   1       0.892   1.298  -2.227  0.00  0.00    -0.082 A 
ATOM      4  C2  PXY d   1       2.127   1.334  -1.754  0.00  0.00     0.003 A 
ATOM      5  C3  PXY d   1       2.357   1.643  -0.438  0.00  0.00     0.003 A 
ATOM      6  C4  PXY d   1       1.316   1.970   0.389  0.00  0.00    -0.082 A 
ATOM      7  C5  PXY d   1       0.053   1.946  -0.089  0.00  0.00     0.003 A 
ATOM      8  C6  PXY d   1      -0.162   1.590  -1.417  0.00  0.00     0.003 A 
ENDROOT
TORSDOF 0
ENDMDL
