MODEL 1
REMARK minimizedAffinity 5.91496992
REMARK minimizedRMSD -1
REMARK  0 active torsions:
REMARK  status: ('A' for Active; 'I' for Inactive)
ROOT
ATOM      1  C4' PXY d   1       2.317   0.280  -2.697  0.00  0.00     0.077 C 
ATOM      2  C1' PXY d   1      -1.230   2.858   1.070  0.00  0.00     0.077 C 
ATOM      3  C1  PXY d   1      -0.290   2.189   0.086  0.00  0.00    -0.082 A 
ATOM      4  C2  PXY d   1      -0.773   1.672  -1.032  0.00  0.00     0.003 A 
ATOM      5  C3  PXY d   1       0.059   1.036  -1.917  0.00  0.00     0.003 A 
ATOM      6  C4  PXY d   1       1.406   0.973  -1.680  0.00  0.00    -0.082 A 
ATOM      7  C5  PXY d   1       1.907   1.507  -0.546  0.00  0.00     0.003 A 
ATOM      8  C6  PXY d   1       1.041   2.113   0.359  0.00  0.00     0.003 A 
ENDROOT
TORSDOF 0
ENDMDL
