MODEL 1
REMARK minimizedAffinity 0.565898716
REMARK minimizedRMSD -1
REMARK  0 active torsions:
REMARK  status: ('A' for Active; 'I' for Inactive)
ROOT
ATOM      1  C4' PXY d   1       2.222  -1.969  -1.256  0.00  0.00     0.077 C 
ATOM      2  C1' PXY d   1       1.809   3.497  -3.091  0.00  0.00     0.077 C 
ATOM      3  C1  PXY d   1       1.924   2.060  -2.621  0.00  0.00    -0.082 A 
ATOM      4  C2  PXY d   1       1.037   1.579  -1.765  0.00  0.00     0.003 A 
ATOM      5  C3  PXY d   1       1.145   0.292  -1.305  0.00  0.00     0.003 A 
ATOM      6  C4  PXY d   1       2.140  -0.528  -1.766  0.00  0.00    -0.082 A 
ATOM      7  C5  PXY d   1       3.042  -0.048  -2.647  0.00  0.00     0.003 A 
ATOM      8  C6  PXY d   1       2.940   1.274  -3.071  0.00  0.00     0.003 A 
ENDROOT
TORSDOF 0
ENDMDL
