MODEL 1
REMARK minimizedAffinity 5.89069748
REMARK minimizedRMSD -1
REMARK  0 active torsions:
REMARK  status: ('A' for Active; 'I' for Inactive)
ROOT
ATOM      1  C4' PXY d   1       1.208  -3.830   0.628  0.00  0.00     0.077 C 
ATOM      2  C1' PXY d   1       2.220   1.055  -2.292  0.00  0.00     0.077 C 
ATOM      3  C1  PXY d   1       1.942  -0.225  -1.529  0.00  0.00    -0.082 A 
ATOM      4  C2  PXY d   1       2.797  -0.635  -0.606  0.00  0.00     0.003 A 
ATOM      5  C3  PXY d   1       2.577  -1.807   0.071  0.00  0.00     0.003 A 
ATOM      6  C4  PXY d   1       1.443  -2.539  -0.161  0.00  0.00    -0.082 A 
ATOM      7  C5  PXY d   1       0.561  -2.121  -1.093  0.00  0.00     0.003 A 
ATOM      8  C6  PXY d   1       0.823  -0.950  -1.798  0.00  0.00     0.003 A 
ENDROOT
TORSDOF 0
ENDMDL
