MODEL 1
REMARK minimizedAffinity 4.24129629
REMARK minimizedRMSD -1
REMARK  0 active torsions:
REMARK  status: ('A' for Active; 'I' for Inactive)
ROOT
ATOM      1  C4' PXY d   1       2.099   0.307  -2.622  0.00  0.00     0.077 C 
ATOM      2  C1' PXY d   1      -1.163   3.756   0.677  0.00  0.00     0.077 C 
ATOM      3  C1  PXY d   1      -0.315   2.855  -0.199  0.00  0.00    -0.082 A 
ATOM      4  C2  PXY d   1       0.330   1.834   0.343  0.00  0.00     0.003 A 
ATOM      5  C3  PXY d   1       1.127   1.029  -0.428  0.00  0.00     0.003 A 
ATOM      6  C4  PXY d   1       1.223   1.238  -1.778  0.00  0.00    -0.082 A 
ATOM      7  C5  PXY d   1       0.560   2.270  -2.340  0.00  0.00     0.003 A 
ATOM      8  C6  PXY d   1      -0.211   3.101  -1.533  0.00  0.00     0.003 A 
ENDROOT
TORSDOF 0
ENDMDL
