MODEL 1
REMARK minimizedAffinity 1.78422189
REMARK minimizedRMSD -1
REMARK  0 active torsions:
REMARK  status: ('A' for Active; 'I' for Inactive)
ROOT
ATOM      1  C1  DEN d   1       2.030  -4.874   2.334  0.00  0.00     0.130 A 
ATOM      2  C2  DEN d   1       2.374  -5.234   3.707  0.00  0.00    -0.031 A 
ATOM      3  C3  DEN d   1       2.236  -4.025   4.544  0.00  0.00     0.027 A 
ATOM      4  C4  DEN d   1       1.523  -1.645   3.853  0.00  0.00     0.027 A 
ATOM      5  C5  DEN d   1       1.144  -0.850   2.794  0.00  0.00    -0.003 A 
ATOM      6  C6  DEN d   1       1.067  -1.328   1.512  0.00  0.00     0.001 A 
ATOM      7  C7  DEN d   1       1.330  -2.649   1.264  0.00  0.00     0.017 A 
ATOM      8  C8  DEN d   1       1.720  -3.455   2.326  0.00  0.00    -0.094 A 
ATOM      9  C9  DEN d   1       1.780  -2.956   3.616  0.00  0.00    -0.072 A 
ENDROOT
TORSDOF 0
ENDMDL
