MODEL 1
REMARK minimizedAffinity 13.8549232
REMARK minimizedRMSD -1
REMARK  0 active torsions:
REMARK  status: ('A' for Active; 'I' for Inactive)
ROOT
ATOM      1  C1  DEN d   1      -3.411   1.870  -1.161  0.00  0.00     0.130 A 
ATOM      2  C2  DEN d   1      -2.615   1.019  -0.281  0.00  0.00    -0.031 A 
ATOM      3  C3  DEN d   1      -3.055   1.261   1.108  0.00  0.00     0.027 A 
ATOM      4  C4  DEN d   1      -4.885   2.858   1.975  0.00  0.00     0.027 A 
ATOM      5  C5  DEN d   1      -5.824   3.795   1.606  0.00  0.00    -0.003 A 
ATOM      6  C6  DEN d   1      -6.000   4.178   0.302  0.00  0.00     0.001 A 
ATOM      7  C7  DEN d   1      -5.256   3.588  -0.685  0.00  0.00     0.017 A 
ATOM      8  C8  DEN d   1      -4.302   2.647  -0.319  0.00  0.00    -0.094 A 
ATOM      9  C9  DEN d   1      -4.147   2.265   1.003  0.00  0.00    -0.072 A 
ENDROOT
TORSDOF 0
ENDMDL
