MODEL 1
REMARK minimizedAffinity 19.7319813
REMARK minimizedRMSD -1
REMARK  0 active torsions:
REMARK  status: ('A' for Active; 'I' for Inactive)
ROOT
ATOM      1  C1  DEN d   1      -3.911  -2.616  -4.993  0.00  0.00     0.130 A 
ATOM      2  C2  DEN d   1      -5.149  -3.386  -4.900  0.00  0.00    -0.031 A 
ATOM      3  C3  DEN d   1      -6.000  -2.759  -3.869  0.00  0.00     0.027 A 
ATOM      4  C4  DEN d   1      -5.525  -0.680  -2.417  0.00  0.00     0.027 A 
ATOM      5  C5  DEN d   1      -4.603   0.301  -2.130  0.00  0.00    -0.003 A 
ATOM      6  C6  DEN d   1      -3.381   0.358  -2.747  0.00  0.00     0.001 A 
ATOM      7  C7  DEN d   1      -3.067  -0.557  -3.717  0.00  0.00     0.017 A 
ATOM      8  C8  DEN d   1      -3.989  -1.554  -4.007  0.00  0.00    -0.094 A 
ATOM      9  C9  DEN d   1      -5.224  -1.587  -3.381  0.00  0.00    -0.072 A 
ENDROOT
TORSDOF 0
ENDMDL
