MODEL 1
REMARK minimizedAffinity -3.77599025
REMARK minimizedRMSD -1
REMARK  0 active torsions:
REMARK  status: ('A' for Active; 'I' for Inactive)
ROOT
ATOM      1  C1  DEN d   1       0.460  -1.883   3.355  0.00  0.00     0.130 A 
ATOM      2  C2  DEN d   1       0.984  -1.541   2.036  0.00  0.00    -0.031 A 
ATOM      3  C3  DEN d   1       2.429  -1.848   2.025  0.00  0.00     0.027 A 
ATOM      4  C4  DEN d   1       3.895  -2.819   3.912  0.00  0.00     0.027 A 
ATOM      5  C5  DEN d   1       3.899  -3.257   5.218  0.00  0.00    -0.003 A 
ATOM      6  C6  DEN d   1       2.774  -3.237   5.999  0.00  0.00     0.001 A 
ATOM      7  C7  DEN d   1       1.586  -2.811   5.466  0.00  0.00     0.017 A 
ATOM      8  C8  DEN d   1       1.575  -2.360   4.153  0.00  0.00    -0.094 A 
ATOM      9  C9  DEN d   1       2.721  -2.400   3.376  0.00  0.00    -0.072 A 
ENDROOT
TORSDOF 0
ENDMDL
