MODEL 1
REMARK minimizedAffinity 12.9038477
REMARK minimizedRMSD -1
REMARK  0 active torsions:
REMARK  status: ('A' for Active; 'I' for Inactive)
ROOT
ATOM      1  C1  DEN d   1       0.647  -2.031   1.656  0.00  0.00     0.130 A 
ATOM      2  C2  DEN d   1       0.972  -1.728   3.047  0.00  0.00    -0.031 A 
ATOM      3  C3  DEN d   1       1.578  -2.934   3.647  0.00  0.00     0.027 A 
ATOM      4  C4  DEN d   1       2.046  -5.226   2.561  0.00  0.00     0.027 A 
ATOM      5  C5  DEN d   1       1.933  -5.964   1.403  0.00  0.00    -0.003 A 
ATOM      6  C6  DEN d   1       1.356  -5.458   0.268  0.00  0.00     0.001 A 
ATOM      7  C7  DEN d   1       0.912  -4.162   0.252  0.00  0.00     0.017 A 
ATOM      8  C8  DEN d   1       1.017  -3.414   1.418  0.00  0.00    -0.094 A 
ATOM      9  C9  DEN d   1       1.613  -3.940   2.551  0.00  0.00    -0.072 A 
ENDROOT
TORSDOF 0
ENDMDL
