MODEL 1
REMARK minimizedAffinity 7.83897924
REMARK minimizedRMSD -1
REMARK  0 active torsions:
REMARK  status: ('A' for Active; 'I' for Inactive)
ROOT
ATOM      1  C1  DEN d   1       1.867   5.651  -3.032  0.00  0.00     0.130 A 
ATOM      2  C2  DEN d   1       1.632   5.533  -1.596  0.00  0.00    -0.031 A 
ATOM      3  C3  DEN d   1       2.939   5.597  -0.912  0.00  0.00     0.027 A 
ATOM      4  C4  DEN d   1       5.292   5.870  -1.932  0.00  0.00     0.027 A 
ATOM      5  C5  DEN d   1       5.998   6.000  -3.108  0.00  0.00    -0.003 A 
ATOM      6  C6  DEN d   1       5.384   5.988  -4.332  0.00  0.00     0.001 A 
ATOM      7  C7  DEN d   1       4.020   5.889  -4.407  0.00  0.00     0.017 A 
ATOM      8  C8  DEN d   1       3.303   5.751  -3.227  0.00  0.00    -0.094 A 
ATOM      9  C9  DEN d   1       3.940   5.777  -1.998  0.00  0.00    -0.072 A 
ENDROOT
TORSDOF 0
ENDMDL
