MODEL 1
REMARK minimizedAffinity 16.9645348
REMARK minimizedRMSD -1
REMARK  0 active torsions:
REMARK  status: ('A' for Active; 'I' for Inactive)
ROOT
ATOM      1  C1  DEN d   1       2.102  -2.326   2.212  0.00  0.00     0.130 A 
ATOM      2  C2  DEN d   1       0.878  -2.404   3.003  0.00  0.00    -0.031 A 
ATOM      3  C3  DEN d   1       1.241  -2.847   4.364  0.00  0.00     0.027 A 
ATOM      4  C4  DEN d   1       3.569  -3.411   5.320  0.00  0.00     0.027 A 
ATOM      5  C5  DEN d   1       4.911  -3.503   5.024  0.00  0.00    -0.003 A 
ATOM      6  C6  DEN d   1       5.403  -3.245   3.772  0.00  0.00     0.001 A 
ATOM      7  C7  DEN d   1       4.552  -2.837   2.780  0.00  0.00     0.017 A 
ATOM      8  C8  DEN d   1       3.196  -2.749   3.068  0.00  0.00    -0.094 A 
ATOM      9  C9  DEN d   1       2.720  -3.002   4.343  0.00  0.00    -0.072 A 
ENDROOT
TORSDOF 0
ENDMDL
