MODEL 1
REMARK minimizedAffinity 9.39841843
REMARK minimizedRMSD -1
REMARK  0 active torsions:
REMARK  status: ('A' for Active; 'I' for Inactive)
ROOT
ATOM      1  C1  DEN d   1      -2.223   3.161   1.962  0.00  0.00     0.130 A 
ATOM      2  C2  DEN d   1      -1.624   2.720   0.705  0.00  0.00    -0.031 A 
ATOM      3  C3  DEN d   1      -2.630   2.888  -0.364  0.00  0.00     0.027 A 
ATOM      4  C4  DEN d   1      -5.041   3.789  -0.195  0.00  0.00     0.027 A 
ATOM      5  C5  DEN d   1      -6.000   4.276   0.665  0.00  0.00    -0.003 A 
ATOM      6  C6  DEN d   1      -5.780   4.393   2.012  0.00  0.00     0.001 A 
ATOM      7  C7  DEN d   1      -4.557   4.060   2.532  0.00  0.00     0.017 A 
ATOM      8  C8  DEN d   1      -3.588   3.561   1.672  0.00  0.00    -0.094 A 
ATOM      9  C9  DEN d   1      -3.825   3.462   0.311  0.00  0.00    -0.072 A 
ENDROOT
TORSDOF 0
ENDMDL
