MODEL 1
REMARK minimizedAffinity 18.6229382
REMARK minimizedRMSD -1
REMARK  0 active torsions:
REMARK  status: ('A' for Active; 'I' for Inactive)
ROOT
ATOM      1  C4' PXY d   1       3.411   4.198   1.056  0.00  0.00     0.077 C 
ATOM      2  C1' PXY d   1       5.980   5.937   5.933  0.00  0.00     0.077 C 
ATOM      3  C1  PXY d   1       5.318   5.478   4.650  0.00  0.00    -0.082 A 
ATOM      4  C2  PXY d   1       4.155   5.997   4.291  0.00  0.00     0.003 A 
ATOM      5  C3  PXY d   1       3.527   5.570   3.150  0.00  0.00     0.003 A 
ATOM      6  C4  PXY d   1       4.120   4.639   2.339  0.00  0.00    -0.082 A 
ATOM      7  C5  PXY d   1       5.312   4.112   2.693  0.00  0.00     0.003 A 
ATOM      8  C6  PXY d   1       5.913   4.530   3.877  0.00  0.00     0.003 A 
ENDROOT
TORSDOF 0
ENDMDL
