MODEL 1
REMARK minimizedAffinity 17.0659657
REMARK minimizedRMSD -1
REMARK  0 active torsions:
REMARK  status: ('A' for Active; 'I' for Inactive)
ROOT
ATOM      1  C4' PXY d   1      -1.185  -5.999   2.763  0.00  0.00     0.077 C 
ATOM      2  C1' PXY d   1      -2.360  -1.624  -0.828  0.00  0.00     0.077 C 
ATOM      3  C1  PXY d   1      -2.064  -2.775   0.114  0.00  0.00    -0.082 A 
ATOM      4  C2  PXY d   1      -1.009  -2.715   0.909  0.00  0.00     0.003 A 
ATOM      5  C3  PXY d   1      -0.709  -3.761   1.743  0.00  0.00     0.003 A 
ATOM      6  C4  PXY d   1      -1.528  -4.856   1.803  0.00  0.00    -0.082 A 
ATOM      7  C5  PXY d   1      -2.613  -4.920   1.003  0.00  0.00     0.003 A 
ATOM      8  C6  PXY d   1      -2.877  -3.866   0.133  0.00  0.00     0.003 A 
ENDROOT
TORSDOF 0
ENDMDL
