MODEL 1
REMARK minimizedAffinity 17.4758339
REMARK minimizedRMSD -1
REMARK  0 active torsions:
REMARK  status: ('A' for Active; 'I' for Inactive)
ROOT
ATOM      1  C4' PXY d   1      -1.548  -2.234   0.741  0.00  0.00     0.077 C 
ATOM      2  C1' PXY d   1       0.497   0.166   5.585  0.00  0.00     0.077 C 
ATOM      3  C1  PXY d   1      -0.042  -0.474   4.321  0.00  0.00    -0.082 A 
ATOM      4  C2  PXY d   1       0.332  -0.007   3.141  0.00  0.00     0.003 A 
ATOM      5  C3  PXY d   1      -0.171  -0.554   1.988  0.00  0.00     0.003 A 
ATOM      6  C4  PXY d   1      -1.022  -1.625   2.043  0.00  0.00    -0.082 A 
ATOM      7  C5  PXY d   1      -1.400  -2.114   3.243  0.00  0.00     0.003 A 
ATOM      8  C6  PXY d   1      -0.911  -1.518   4.402  0.00  0.00     0.003 A 
ENDROOT
TORSDOF 0
ENDMDL
