MODEL 1
REMARK minimizedAffinity 5.85774946
REMARK minimizedRMSD -1
REMARK  0 active torsions:
REMARK  status: ('A' for Active; 'I' for Inactive)
ROOT
ATOM      1  C4' PXY d   1       4.097  -1.171   1.516  0.00  0.00     0.077 C 
ATOM      2  C1' PXY d   1      -0.729   1.304   3.515  0.00  0.00     0.077 C 
ATOM      3  C1  PXY d   1       0.539   0.650   3.002  0.00  0.00    -0.082 A 
ATOM      4  C2  PXY d   1       1.174   1.176   1.968  0.00  0.00     0.003 A 
ATOM      5  C3  PXY d   1       2.304   0.578   1.471  0.00  0.00     0.003 A 
ATOM      6  C4  PXY d   1       2.819  -0.539   2.073  0.00  0.00    -0.082 A 
ATOM      7  C5  PXY d   1       2.182  -1.075   3.135  0.00  0.00     0.003 A 
ATOM      8  C6  PXY d   1       1.014  -0.477   3.598  0.00  0.00     0.003 A 
ENDROOT
TORSDOF 0
ENDMDL
