MODEL 1
REMARK minimizedAffinity 19.0485668
REMARK minimizedRMSD -1
REMARK  0 active torsions:
REMARK  status: ('A' for Active; 'I' for Inactive)
ROOT
ATOM      1  C4' PXY d   1      -5.630  -2.661  -4.370  0.00  0.00     0.077 C 
ATOM      2  C1' PXY d   1      -3.839  -6.000  -0.005  0.00  0.00     0.077 C 
ATOM      3  C1  PXY d   1      -4.302  -5.114  -1.145  0.00  0.00    -0.082 A 
ATOM      4  C2  PXY d   1      -5.416  -5.412  -1.794  0.00  0.00     0.003 A 
ATOM      5  C3  PXY d   1      -5.832  -4.640  -2.848  0.00  0.00     0.003 A 
ATOM      6  C4  PXY d   1      -5.130  -3.521  -3.207  0.00  0.00    -0.082 A 
ATOM      7  C5  PXY d   1      -3.998  -3.204  -2.543  0.00  0.00     0.003 A 
ATOM      8  C6  PXY d   1      -3.570  -4.024  -1.502  0.00  0.00     0.003 A 
ENDROOT
TORSDOF 0
ENDMDL
