MODEL 1
REMARK minimizedAffinity 10.4135008
REMARK minimizedRMSD -1
REMARK  0 active torsions:
REMARK  status: ('A' for Active; 'I' for Inactive)
ROOT
ATOM      1  C4' PXY d   1      -5.996  -3.020  -4.352  0.00  0.00     0.077 C 
ATOM      2  C1' PXY d   1      -3.604  -6.000  -0.014  0.00  0.00     0.077 C 
ATOM      3  C1  PXY d   1      -4.238  -5.229  -1.156  0.00  0.00    -0.082 A 
ATOM      4  C2  PXY d   1      -3.650  -4.135  -1.612  0.00  0.00     0.003 A 
ATOM      5  C3  PXY d   1      -4.225  -3.408  -2.622  0.00  0.00     0.003 A 
ATOM      6  C4  PXY d   1      -5.387  -3.835  -3.208  0.00  0.00    -0.082 A 
ATOM      7  C5  PXY d   1      -5.987  -4.956  -2.755  0.00  0.00     0.003 A 
ATOM      8  C6  PXY d   1      -5.408  -5.657  -1.701  0.00  0.00     0.003 A 
ENDROOT
TORSDOF 0
ENDMDL
