MODEL 1
REMARK minimizedAffinity 8.83578587
REMARK minimizedRMSD -1
REMARK  0 active torsions:
REMARK  status: ('A' for Active; 'I' for Inactive)
ROOT
ATOM      1  C4' PXY d   1      -0.029  -0.826   3.393  0.00  0.00     0.077 C 
ATOM      2  C1' PXY d   1       5.371  -1.312   1.389  0.00  0.00     0.077 C 
ATOM      3  C1  PXY d   1       3.953  -1.175   1.906  0.00  0.00    -0.082 A 
ATOM      4  C2  PXY d   1       3.664  -1.568   3.136  0.00  0.00     0.003 A 
ATOM      5  C3  PXY d   1       2.380  -1.481   3.608  0.00  0.00     0.003 A 
ATOM      6  C4  PXY d   1       1.392  -0.937   2.832  0.00  0.00    -0.082 A 
ATOM      7  C5  PXY d   1       1.681  -0.523   1.580  0.00  0.00     0.003 A 
ATOM      8  C6  PXY d   1       2.982  -0.659   1.105  0.00  0.00     0.003 A 
ENDROOT
TORSDOF 0
ENDMDL
