MODEL 1
REMARK minimizedAffinity 7.21537399
REMARK minimizedRMSD -1
REMARK  0 active torsions:
REMARK  status: ('A' for Active; 'I' for Inactive)
ROOT
ATOM      1  C4' PXY d   1      -1.259  -2.097  -4.649  0.00  0.00     0.077 C 
ATOM      2  C1' PXY d   1      -3.084  -2.560   0.816  0.00  0.00     0.077 C 
ATOM      3  C1  PXY d   1      -2.610  -2.451  -0.620  0.00  0.00    -0.082 A 
ATOM      4  C2  PXY d   1      -1.582  -1.671  -0.911  0.00  0.00     0.003 A 
ATOM      5  C3  PXY d   1      -1.160  -1.535  -2.209  0.00  0.00     0.003 A 
ATOM      6  C4  PXY d   1      -1.765  -2.246  -3.212  0.00  0.00    -0.082 A 
ATOM      7  C5  PXY d   1      -2.809  -3.051  -2.920  0.00  0.00     0.003 A 
ATOM      8  C6  PXY d   1      -3.247  -3.143  -1.603  0.00  0.00     0.003 A 
ENDROOT
TORSDOF 0
ENDMDL
