MODEL 1
REMARK minimizedAffinity 9.82898712
REMARK minimizedRMSD -1
REMARK  0 active torsions:
REMARK  status: ('A' for Active; 'I' for Inactive)
ROOT
ATOM      1  C4' PXY d   1      -2.214  -2.188   1.376  0.00  0.00     0.077 C 
ATOM      2  C1' PXY d   1      -0.912  -2.790  -4.223  0.00  0.00     0.077 C 
ATOM      3  C1  PXY d   1      -1.243  -2.639  -2.752  0.00  0.00    -0.082 A 
ATOM      4  C2  PXY d   1      -2.491  -2.399  -2.383  0.00  0.00     0.003 A 
ATOM      5  C3  PXY d   1      -2.802  -2.228  -1.059  0.00  0.00     0.003 A 
ATOM      6  C4  PXY d   1      -1.835  -2.357  -0.098  0.00  0.00    -0.082 A 
ATOM      7  C5  PXY d   1      -0.562  -2.612  -0.465  0.00  0.00     0.003 A 
ATOM      8  C6  PXY d   1      -0.259  -2.742  -1.817  0.00  0.00     0.003 A 
ENDROOT
TORSDOF 0
ENDMDL
