MODEL 1
REMARK minimizedAffinity 4.83047962
REMARK minimizedRMSD -1
REMARK  0 active torsions:
REMARK  status: ('A' for Active; 'I' for Inactive)
ROOT
ATOM      1  C4' PXY d   1       3.531   3.611   0.788  0.00  0.00     0.077 C 
ATOM      2  C1' PXY d   1       5.999  -1.609   0.509  0.00  0.00     0.077 C 
ATOM      3  C1  PXY d   1       5.363  -0.235   0.578  0.00  0.00    -0.082 A 
ATOM      4  C2  PXY d   1       4.369  -0.015   1.423  0.00  0.00     0.003 A 
ATOM      5  C3  PXY d   1       3.761   1.212   1.475  0.00  0.00     0.003 A 
ATOM      6  C4  PXY d   1       4.210   2.242   0.692  0.00  0.00    -0.082 A 
ATOM      7  C5  PXY d   1       5.230   2.029  -0.166  0.00  0.00     0.003 A 
ATOM      8  C6  PXY d   1       5.807   0.764  -0.233  0.00  0.00     0.003 A 
ENDROOT
TORSDOF 0
ENDMDL
