MODEL 1
REMARK minimizedAffinity 9.49484444
REMARK minimizedRMSD -1
REMARK  0 active torsions:
REMARK  status: ('A' for Active; 'I' for Inactive)
ROOT
ATOM      1  C4' PXY d   1       4.112   1.871  -1.561  0.00  0.00     0.077 C 
ATOM      2  C1' PXY d   1       0.425   0.269   2.593  0.00  0.00     0.077 C 
ATOM      3  C1  PXY d   1       1.400   0.681   1.508  0.00  0.00    -0.082 A 
ATOM      4  C2  PXY d   1       1.306   1.884   0.966  0.00  0.00     0.003 A 
ATOM      5  C3  PXY d   1       2.160   2.261  -0.039  0.00  0.00     0.003 A 
ATOM      6  C4  PXY d   1       3.154   1.417  -0.456  0.00  0.00    -0.082 A 
ATOM      7  C5  PXY d   1       3.264   0.191   0.100  0.00  0.00     0.003 A 
ATOM      8  C6  PXY d   1       2.361  -0.187   1.090  0.00  0.00     0.003 A 
ENDROOT
TORSDOF 0
ENDMDL
