MODEL 1
REMARK minimizedAffinity 4.315763
REMARK minimizedRMSD -1
REMARK  0 active torsions:
REMARK  status: ('A' for Active; 'I' for Inactive)
ROOT
ATOM      1  C4' PXY d   1      -0.008   1.407   3.187  0.00  0.00     0.077 C 
ATOM      2  C1' PXY d   1       5.216  -0.490   1.597  0.00  0.00     0.077 C 
ATOM      3  C1  PXY d   1       3.844  -0.004   2.020  0.00  0.00    -0.082 A 
ATOM      4  C2  PXY d   1       3.245   0.951   1.327  0.00  0.00     0.003 A 
ATOM      5  C3  PXY d   1       2.018   1.425   1.714  0.00  0.00     0.003 A 
ATOM      6  C4  PXY d   1       1.373   0.879   2.791  0.00  0.00    -0.082 A 
ATOM      7  C5  PXY d   1       1.972  -0.103   3.497  0.00  0.00     0.003 A 
ATOM      8  C6  PXY d   1       3.236  -0.542   3.112  0.00  0.00     0.003 A 
ENDROOT
TORSDOF 0
ENDMDL
