MODEL 1
REMARK minimizedAffinity 13.9554386
REMARK minimizedRMSD -1
REMARK  0 active torsions:
REMARK  status: ('A' for Active; 'I' for Inactive)
ROOT
ATOM      1  C4' PXY d   1       2.612   6.000  -6.000  0.00  0.00     0.077 C 
ATOM      2  C1' PXY d   1       4.250   1.957  -2.206  0.00  0.00     0.077 C 
ATOM      3  C1  PXY d   1       3.820   3.008  -3.211  0.00  0.00    -0.082 A 
ATOM      4  C2  PXY d   1       4.127   4.278  -3.000  0.00  0.00     0.003 A 
ATOM      5  C3  PXY d   1       3.718   5.246  -3.882  0.00  0.00     0.003 A 
ATOM      6  C4  PXY d   1       3.034   4.904  -5.018  0.00  0.00    -0.082 A 
ATOM      7  C5  PXY d   1       2.727   3.609  -5.245  0.00  0.00     0.003 A 
ATOM      8  C6  PXY d   1       3.115   2.647  -4.317  0.00  0.00     0.003 A 
ENDROOT
TORSDOF 0
ENDMDL
