MODEL 1
REMARK minimizedAffinity 7.01515675
REMARK minimizedRMSD -1
REMARK  0 active torsions:
REMARK  status: ('A' for Active; 'I' for Inactive)
ROOT
ATOM      1  C4' PXY d   1       6.000  -0.371   0.352  0.00  0.00     0.077 C 
ATOM      2  C1' PXY d   1       1.610   3.216   1.481  0.00  0.00     0.077 C 
ATOM      3  C1  PXY d   1       2.762   2.281   1.173  0.00  0.00    -0.082 A 
ATOM      4  C2  PXY d   1       2.878   1.144   1.840  0.00  0.00     0.003 A 
ATOM      5  C3  PXY d   1       3.932   0.301   1.597  0.00  0.00     0.003 A 
ATOM      6  C4  PXY d   1       4.847   0.599   0.623  0.00  0.00    -0.082 A 
ATOM      7  C5  PXY d   1       4.729   1.752  -0.070  0.00  0.00     0.003 A 
ATOM      8  C6  PXY d   1       3.676   2.613   0.221  0.00  0.00     0.003 A 
ENDROOT
TORSDOF 0
ENDMDL
