MODEL 1
REMARK minimizedAffinity 17.8363304
REMARK minimizedRMSD -1
REMARK  0 active torsions:
REMARK  status: ('A' for Active; 'I' for Inactive)
ROOT
ATOM      1  C4' PXY d   1      -0.404   3.928   0.215  0.00  0.00     0.077 C 
ATOM      2  C1' PXY d   1       1.297   0.299   4.381  0.00  0.00     0.077 C 
ATOM      3  C1  PXY d   1       0.863   1.250   3.284  0.00  0.00    -0.082 A 
ATOM      4  C2  PXY d   1      -0.161   2.062   3.489  0.00  0.00     0.003 A 
ATOM      5  C3  PXY d   1      -0.587   2.906   2.496  0.00  0.00     0.003 A 
ATOM      6  C4  PXY d   1       0.075   2.957   1.299  0.00  0.00    -0.082 A 
ATOM      7  C5  PXY d   1       1.128   2.139   1.085  0.00  0.00     0.003 A 
ATOM      8  C6  PXY d   1       1.519   1.261   2.091  0.00  0.00     0.003 A 
ENDROOT
TORSDOF 0
ENDMDL
