MODEL 1
REMARK minimizedAffinity 13.7092924
REMARK minimizedRMSD -1
REMARK  0 active torsions:
REMARK  status: ('A' for Active; 'I' for Inactive)
ROOT
ATOM      1  C4' PXY d   1       4.156   2.249  -1.382  0.00  0.00     0.077 C 
ATOM      2  C1' PXY d   1       0.754  -0.134   2.638  0.00  0.00     0.077 C 
ATOM      3  C1  PXY d   1       1.656   0.485   1.589  0.00  0.00    -0.082 A 
ATOM      4  C2  PXY d   1       1.286   1.602   0.985  0.00  0.00     0.003 A 
ATOM      5  C3  PXY d   1       2.075   2.158   0.011  0.00  0.00     0.003 A 
ATOM      6  C4  PXY d   1       3.281   1.594  -0.310  0.00  0.00    -0.082 A 
ATOM      7  C5  PXY d   1       3.670   0.460   0.310  0.00  0.00     0.003 A 
ATOM      8  C6  PXY d   1       2.836  -0.111   1.266  0.00  0.00     0.003 A 
ENDROOT
TORSDOF 0
ENDMDL
