MODEL 1
REMARK minimizedAffinity 15.8277884
REMARK minimizedRMSD -1
REMARK  0 active torsions:
REMARK  status: ('A' for Active; 'I' for Inactive)
ROOT
ATOM      1  C4' PXY d   1      -5.288  -3.477  -3.374  0.00  0.00     0.077 C 
ATOM      2  C1' PXY d   1      -0.718  -2.154  -0.090  0.00  0.00     0.077 C 
ATOM      3  C1  PXY d   1      -1.910  -2.498  -0.962  0.00  0.00    -0.082 A 
ATOM      4  C2  PXY d   1      -3.130  -2.446  -0.453  0.00  0.00     0.003 A 
ATOM      5  C3  PXY d   1      -4.216  -2.785  -1.218  0.00  0.00     0.003 A 
ATOM      6  C4  PXY d   1      -4.056  -3.129  -2.534  0.00  0.00    -0.082 A 
ATOM      7  C5  PXY d   1      -2.815  -3.173  -3.064  0.00  0.00     0.003 A 
ATOM      8  C6  PXY d   1      -1.723  -2.866  -2.258  0.00  0.00     0.003 A 
ENDROOT
TORSDOF 0
ENDMDL
