MODEL 1
REMARK minimizedAffinity 13.7514315
REMARK minimizedRMSD -1
REMARK  0 active torsions:
REMARK  status: ('A' for Active; 'I' for Inactive)
ROOT
ATOM      1  C4' PXY d   1       1.417   6.000  -6.000  0.00  0.00     0.077 C 
ATOM      2  C1' PXY d   1       3.772   2.285  -2.249  0.00  0.00     0.077 C 
ATOM      3  C1  PXY d   1       3.155   3.250  -3.242  0.00  0.00    -0.082 A 
ATOM      4  C2  PXY d   1       3.295   4.553  -3.061  0.00  0.00     0.003 A 
ATOM      5  C3  PXY d   1       2.716   5.441  -3.932  0.00  0.00     0.003 A 
ATOM      6  C4  PXY d   1       2.032   4.989  -5.028  0.00  0.00    -0.082 A 
ATOM      7  C5  PXY d   1       1.894   3.660  -5.226  0.00  0.00     0.003 A 
ATOM      8  C6  PXY d   1       2.454   2.777  -4.308  0.00  0.00     0.003 A 
ENDROOT
TORSDOF 0
ENDMDL
