MODEL 1
REMARK minimizedAffinity 15.3692312
REMARK minimizedRMSD -1
REMARK  0 active torsions:
REMARK  status: ('A' for Active; 'I' for Inactive)
ROOT
ATOM      1  C4' PXY d   1       6.000   0.369  -4.867  0.00  0.00     0.077 C 
ATOM      2  C1' PXY d   1       1.922   2.658  -1.470  0.00  0.00     0.077 C 
ATOM      3  C1  PXY d   1       2.982   2.054  -2.370  0.00  0.00    -0.082 A 
ATOM      4  C2  PXY d   1       4.128   1.648  -1.848  0.00  0.00     0.003 A 
ATOM      5  C3  PXY d   1       5.111   1.129  -2.652  0.00  0.00     0.003 A 
ATOM      6  C4  PXY d   1       4.897   0.976  -3.996  0.00  0.00    -0.082 A 
ATOM      7  C5  PXY d   1       3.726   1.378  -4.534  0.00  0.00     0.003 A 
ATOM      8  C6  PXY d   1       2.758   1.940  -3.707  0.00  0.00     0.003 A 
ENDROOT
TORSDOF 0
ENDMDL
