MODEL 1
REMARK minimizedAffinity -1.97063088
REMARK minimizedRMSD -1
REMARK  0 active torsions:
REMARK  status: ('A' for Active; 'I' for Inactive)
ROOT
ATOM      1  C4' PXY d   1       5.484   2.225  -2.381  0.00  0.00     0.077 C 
ATOM      2  C1' PXY d   1       2.278   5.395  -5.998  0.00  0.00     0.077 C 
ATOM      3  C1  PXY d   1       3.116   4.553  -5.056  0.00  0.00    -0.082 A 
ATOM      4  C2  PXY d   1       3.293   4.949  -3.806  0.00  0.00     0.003 A 
ATOM      5  C3  PXY d   1       4.075   4.216  -2.951  0.00  0.00     0.003 A 
ATOM      6  C4  PXY d   1       4.637   3.038  -3.364  0.00  0.00    -0.082 A 
ATOM      7  C5  PXY d   1       4.453   2.622  -4.634  0.00  0.00     0.003 A 
ATOM      8  C6  PXY d   1       3.690   3.401  -5.499  0.00  0.00     0.003 A 
ENDROOT
TORSDOF 0
ENDMDL
