MODEL 1
REMARK minimizedAffinity -3.33299971
REMARK minimizedRMSD -1
REMARK  1 active torsions:
REMARK  status: ('A' for Active; 'I' for Inactive)
REMARK    1  A    between atoms: N_2  and  C1_3 
ROOT
ATOM      1  C1  UNL d   1      -0.079   0.609   0.428  0.00  0.00     0.143 A 
ATOM      2  C2  UNL d   1      -0.380   0.215   1.736  0.00  0.00    -0.057 A 
ATOM      3  C3  UNL d   1      -0.595  -1.131   2.058  0.00  0.00     0.033 A 
ATOM      4  C4  UNL d   1      -0.540  -2.107   1.068  0.00  0.00    -0.042 A 
ATOM      5  C5  UNL d   1      -0.267  -1.735  -0.243  0.00  0.00     0.033 A 
ATOM      6  C6  UNL d   1      -0.047  -0.391  -0.557  0.00  0.00    -0.057 A 
ENDROOT
BRANCH   1   7
ATOM      7  N   UNL d   1       0.047   1.941   0.026  0.00  0.00    -0.732 N 
ATOM      8  C   UNL d   1       1.251   2.688   0.320  0.00  0.00     0.284 C 
ATOM      9  H3  UNL d   1      -0.325   2.102  -0.907  0.00  0.00     0.395 HD
ENDBRANCH   1   7
TORSDOF 1
ENDMDL
