MODEL 1
REMARK minimizedAffinity 4.75922823
REMARK minimizedRMSD -1
REMARK  1 active torsions:
REMARK  status: ('A' for Active; 'I' for Inactive)
REMARK    1  A    between atoms: N_2  and  C1_3 
ROOT
ATOM      1  C1  UNL d   1      -1.595  -1.262   1.162  0.00  0.00     0.143 A 
ATOM      2  C2  UNL d   1      -2.097  -0.534   2.246  0.00  0.00    -0.057 A 
ATOM      3  C3  UNL d   1      -1.915   0.851   2.339  0.00  0.00     0.033 A 
ATOM      4  C4  UNL d   1      -1.200   1.531   1.359  0.00  0.00    -0.042 A 
ATOM      5  C5  UNL d   1      -0.670   0.825   0.284  0.00  0.00     0.033 A 
ATOM      6  C6  UNL d   1      -0.861  -0.557   0.195  0.00  0.00    -0.057 A 
ENDROOT
BRANCH   1   7
ATOM      7  N   UNL d   1      -1.658  -2.654   1.062  0.00  0.00    -0.732 N 
ATOM      8  C   UNL d   1      -1.746  -3.297  -0.231  0.00  0.00     0.284 C 
ATOM      9  H3  UNL d   1      -1.033  -3.118   1.717  0.00  0.00     0.395 HD
ENDBRANCH   1   7
TORSDOF 1
ENDMDL
