MODEL 1
REMARK minimizedAffinity -2.24035859
REMARK minimizedRMSD -1
REMARK  1 active torsions:
REMARK  status: ('A' for Active; 'I' for Inactive)
REMARK    1  A    between atoms: N_2  and  C1_3 
ROOT
ATOM      1  C1  UNL d   1       0.929   1.793   0.022  0.00  0.00     0.143 A 
ATOM      2  C2  UNL d   1       0.982   0.812   1.019  0.00  0.00    -0.057 A 
ATOM      3  C3  UNL d   1       0.049  -0.231   1.062  0.00  0.00     0.033 A 
ATOM      4  C4  UNL d   1      -0.975  -0.295   0.122  0.00  0.00    -0.042 A 
ATOM      5  C5  UNL d   1      -1.062   0.683  -0.863  0.00  0.00     0.033 A 
ATOM      6  C6  UNL d   1      -0.122   1.718  -0.904  0.00  0.00    -0.057 A 
ENDROOT
BRANCH   1   7
ATOM      7  N   UNL d   1       1.769   2.909  -0.016  0.00  0.00    -0.732 N 
ATOM      8  C   UNL d   1       2.078   3.640   1.194  0.00  0.00     0.284 C 
ATOM      9  H3  UNL d   1       2.564   2.776  -0.636  0.00  0.00     0.395 HD
ENDBRANCH   1   7
TORSDOF 1
ENDMDL
