MODEL 1
REMARK minimizedAffinity -1.88576889
REMARK minimizedRMSD -1
REMARK  1 active torsions:
REMARK  status: ('A' for Active; 'I' for Inactive)
REMARK    1  A    between atoms: N_2  and  C1_3 
ROOT
ATOM      1  C1  UNL d   1       0.317   0.780   0.522  0.00  0.00     0.143 A 
ATOM      2  C2  UNL d   1       0.296   0.059   1.721  0.00  0.00    -0.057 A 
ATOM      3  C3  UNL d   1      -0.326  -1.192   1.805  0.00  0.00     0.033 A 
ATOM      4  C4  UNL d   1      -0.964  -1.734   0.694  0.00  0.00    -0.042 A 
ATOM      5  C5  UNL d   1      -0.977  -1.025  -0.501  0.00  0.00     0.033 A 
ATOM      6  C6  UNL d   1      -0.349   0.222  -0.580  0.00  0.00    -0.057 A 
ENDROOT
BRANCH   1   7
ATOM      7  N   UNL d   1       0.833   2.073   0.401  0.00  0.00    -0.732 N 
ATOM      8  C   UNL d   1      -0.052   3.215   0.318  0.00  0.00     0.284 C 
ATOM      9  H3  UNL d   1       1.649   2.222   0.989  0.00  0.00     0.395 HD
ENDBRANCH   1   7
TORSDOF 1
ENDMDL
