MODEL 1
REMARK minimizedAffinity 1.37509882
REMARK minimizedRMSD -1
REMARK  1 active torsions:
REMARK  status: ('A' for Active; 'I' for Inactive)
REMARK    1  A    between atoms: N_2  and  C1_3 
ROOT
ATOM      1  C1  UNL d   1      -2.518  -4.255  -0.780  0.00  0.00     0.143 A 
ATOM      2  C2  UNL d   1      -1.998  -3.715   0.401  0.00  0.00    -0.057 A 
ATOM      3  C3  UNL d   1      -0.889  -4.287   1.035  0.00  0.00     0.033 A 
ATOM      4  C4  UNL d   1      -0.295  -5.431   0.512  0.00  0.00    -0.042 A 
ATOM      5  C5  UNL d   1      -0.810  -6.000  -0.647  0.00  0.00     0.033 A 
ATOM      6  C6  UNL d   1      -1.915  -5.420  -1.279  0.00  0.00    -0.057 A 
ENDROOT
BRANCH   1   7
ATOM      7  N   UNL d   1      -3.679  -3.791  -1.403  0.00  0.00    -0.732 N 
ATOM      8  C   UNL d   1      -4.129  -4.371  -2.650  0.00  0.00     0.284 C 
ATOM      9  H3  UNL d   1      -4.427  -3.602  -0.739  0.00  0.00     0.395 HD
ENDBRANCH   1   7
TORSDOF 1
ENDMDL
