MODEL 1
REMARK minimizedAffinity -3.1122086
REMARK minimizedRMSD -1
REMARK  1 active torsions:
REMARK  status: ('A' for Active; 'I' for Inactive)
REMARK    1  A    between atoms: N_2  and  C1_3 
ROOT
ATOM      1  C1  UNL d   1       0.220   1.085   0.399  0.00  0.00     0.143 A 
ATOM      2  C2  UNL d   1      -1.038   0.677   0.855  0.00  0.00    -0.057 A 
ATOM      3  C3  UNL d   1      -1.257  -0.628   1.312  0.00  0.00     0.033 A 
ATOM      4  C4  UNL d   1      -0.225  -1.561   1.293  0.00  0.00    -0.042 A 
ATOM      5  C5  UNL d   1       1.027  -1.185   0.820  0.00  0.00     0.033 A 
ATOM      6  C6  UNL d   1       1.241   0.122   0.372  0.00  0.00    -0.057 A 
ENDROOT
BRANCH   1   7
ATOM      7  N   UNL d   1       0.476   2.339  -0.159  0.00  0.00    -0.732 N 
ATOM      8  C   UNL d   1       1.414   3.247   0.466  0.00  0.00     0.284 C 
ATOM      9  H3  UNL d   1       0.542   2.307  -1.174  0.00  0.00     0.395 HD
ENDBRANCH   1   7
TORSDOF 1
ENDMDL
