MODEL 1
REMARK minimizedAffinity -1.80408525
REMARK minimizedRMSD -1
REMARK  1 active torsions:
REMARK  status: ('A' for Active; 'I' for Inactive)
REMARK    1  A    between atoms: N_2  and  C1_3 
ROOT
ATOM      1  C1  UNL d   1      -0.159   0.388   0.193  0.00  0.00     0.143 A 
ATOM      2  C2  UNL d   1      -0.223   0.311   1.589  0.00  0.00    -0.057 A 
ATOM      3  C3  UNL d   1      -0.569  -0.881   2.235  0.00  0.00     0.033 A 
ATOM      4  C4  UNL d   1      -0.885  -2.015   1.494  0.00  0.00    -0.042 A 
ATOM      5  C5  UNL d   1      -0.852  -1.955   0.105  0.00  0.00     0.033 A 
ATOM      6  C6  UNL d   1      -0.499  -0.763  -0.534  0.00  0.00    -0.057 A 
ENDROOT
BRANCH   1   7
ATOM      7  N   UNL d   1       0.083   1.570  -0.510  0.00  0.00    -0.732 N 
ATOM      8  C   UNL d   1       0.649   2.723   0.157  0.00  0.00     0.284 C 
ATOM      9  H3  UNL d   1       0.462   1.399  -1.439  0.00  0.00     0.395 HD
ENDBRANCH   1   7
TORSDOF 1
ENDMDL
