MODEL 1
REMARK minimizedAffinity -3.09528399
REMARK minimizedRMSD -1
REMARK  1 active torsions:
REMARK  status: ('A' for Active; 'I' for Inactive)
REMARK    1  A    between atoms: N_2  and  C1_3 
ROOT
ATOM      1  C1  UNL d   1       0.561   1.001   0.049  0.00  0.00     0.143 A 
ATOM      2  C2  UNL d   1       0.603   2.114  -0.798  0.00  0.00    -0.057 A 
ATOM      3  C3  UNL d   1       1.386   3.233  -0.490  0.00  0.00     0.033 A 
ATOM      4  C4  UNL d   1       2.122   3.270   0.690  0.00  0.00    -0.042 A 
ATOM      5  C5  UNL d   1       2.076   2.186   1.559  0.00  0.00     0.033 A 
ATOM      6  C6  UNL d   1       1.297   1.069   1.242  0.00  0.00    -0.057 A 
ENDROOT
BRANCH   1   7
ATOM      7  N   UNL d   1      -0.275  -0.100  -0.154  0.00  0.00    -0.732 N 
ATOM      8  C   UNL d   1      -0.974  -0.709   0.958  0.00  0.00     0.284 C 
ATOM      9  H3  UNL d   1      -0.834  -0.012  -0.999  0.00  0.00     0.395 HD
ENDBRANCH   1   7
TORSDOF 1
ENDMDL
