MODEL 1
REMARK minimizedAffinity -3.46395135
REMARK minimizedRMSD -1
REMARK  1 active torsions:
REMARK  status: ('A' for Active; 'I' for Inactive)
REMARK    1  A    between atoms: N_2  and  C1_3 
ROOT
ATOM      1  C1  UNL d   1       0.098   0.329  -0.596  0.00  0.00     0.143 A 
ATOM      2  C2  UNL d   1      -0.388  -0.079   0.651  0.00  0.00    -0.057 A 
ATOM      3  C3  UNL d   1      -0.806  -1.397   0.871  0.00  0.00     0.033 A 
ATOM      4  C4  UNL d   1      -0.773  -2.326  -0.164  0.00  0.00    -0.042 A 
ATOM      5  C5  UNL d   1      -0.317  -1.936  -1.418  0.00  0.00     0.033 A 
ATOM      6  C6  UNL d   1       0.106  -0.620  -1.630  0.00  0.00    -0.057 A 
ENDROOT
BRANCH   1   7
ATOM      7  N   UNL d   1       0.436   1.649  -0.905  0.00  0.00    -0.732 N 
ATOM      8  C   UNL d   1       0.767   2.590   0.144  0.00  0.00     0.284 C 
ATOM      9  H3  UNL d   1       1.034   1.715  -1.725  0.00  0.00     0.395 HD
ENDBRANCH   1   7
TORSDOF 1
ENDMDL
