MODEL 1
REMARK minimizedAffinity -2.63912392
REMARK minimizedRMSD -1
REMARK  1 active torsions:
REMARK  status: ('A' for Active; 'I' for Inactive)
REMARK    1  A    between atoms: N_2  and  C1_3 
ROOT
ATOM      1  C1  UNL d   1      -0.539  -1.396  -1.248  0.00  0.00     0.143 A 
ATOM      2  C2  UNL d   1      -0.782  -2.278  -0.190  0.00  0.00    -0.057 A 
ATOM      3  C3  UNL d   1      -0.831  -1.828   1.135  0.00  0.00     0.033 A 
ATOM      4  C4  UNL d   1      -0.608  -0.487   1.429  0.00  0.00    -0.042 A 
ATOM      5  C5  UNL d   1      -0.340   0.404   0.396  0.00  0.00     0.033 A 
ATOM      6  C6  UNL d   1      -0.298  -0.050  -0.926  0.00  0.00    -0.057 A 
ENDROOT
BRANCH   1   7
ATOM      7  N   UNL d   1      -0.380  -1.798  -2.576  0.00  0.00    -0.732 N 
ATOM      8  C   UNL d   1      -0.404  -3.202  -2.929  0.00  0.00     0.284 C 
ATOM      9  H3  UNL d   1      -0.880  -1.197  -3.227  0.00  0.00     0.395 HD
ENDBRANCH   1   7
TORSDOF 1
ENDMDL
