MODEL 1
REMARK minimizedAffinity -2.56547332
REMARK minimizedRMSD -1
REMARK  1 active torsions:
REMARK  status: ('A' for Active; 'I' for Inactive)
REMARK    1  A    between atoms: N_2  and  C1_3 
ROOT
ATOM      1  C1  UNL d   1      -0.098   0.182   0.185  0.00  0.00     0.143 A 
ATOM      2  C2  UNL d   1      -0.340  -0.114   1.531  0.00  0.00    -0.057 A 
ATOM      3  C3  UNL d   1      -0.903  -1.337   1.916  0.00  0.00     0.033 A 
ATOM      4  C4  UNL d   1      -1.261  -2.277   0.956  0.00  0.00    -0.042 A 
ATOM      5  C5  UNL d   1      -1.052  -1.995  -0.390  0.00  0.00     0.033 A 
ATOM      6  C6  UNL d   1      -0.484  -0.775  -0.767  0.00  0.00    -0.057 A 
ENDROOT
BRANCH   1   7
ATOM      7  N   UNL d   1       0.368   1.418  -0.268  0.00  0.00    -0.732 N 
ATOM      8  C   UNL d   1       1.373   2.146   0.477  0.00  0.00     0.284 C 
ATOM      9  H3  UNL d   1       0.503   1.437  -1.276  0.00  0.00     0.395 HD
ENDBRANCH   1   7
TORSDOF 1
ENDMDL
