MODEL 1
REMARK minimizedAffinity -2.11819386
REMARK minimizedRMSD -1
REMARK  0 active torsions:
REMARK  status: ('A' for Active; 'I' for Inactive)
ROOT
ATOM      1  C1  BNZ d   1      -0.873  -1.691  -0.562  0.00  0.00     0.000 A 
ATOM      2  C2  BNZ d   1      -0.266  -0.477  -0.751  0.00  0.00     0.000 A 
ATOM      3  C3  BNZ d   1       0.248   0.220   0.307  0.00  0.00     0.000 A 
ATOM      4  C4  BNZ d   1       0.120  -0.277   1.554  0.00  0.00     0.000 A 
ATOM      5  C5  BNZ d   1      -0.497  -1.495   1.761  0.00  0.00     0.000 A 
ATOM      6  C6  BNZ d   1      -0.979  -2.212   0.690  0.00  0.00     0.000 A 
ENDROOT
TORSDOF 0
ENDMDL
