MODEL 1
REMARK minimizedAffinity -1.94394827
REMARK minimizedRMSD -1
REMARK  0 active torsions:
REMARK  status: ('A' for Active; 'I' for Inactive)
ROOT
ATOM      1  C1  BNZ d   1       2.005   3.137  -0.108  0.00  0.00     0.000 A 
ATOM      2  C2  BNZ d   1       1.366   2.046  -0.633  0.00  0.00     0.000 A 
ATOM      3  C3  BNZ d   1       0.607   1.230   0.160  0.00  0.00     0.000 A 
ATOM      4  C4  BNZ d   1       0.521   1.484   1.482  0.00  0.00     0.000 A 
ATOM      5  C5  BNZ d   1       1.168   2.575   2.028  0.00  0.00     0.000 A 
ATOM      6  C6  BNZ d   1       1.899   3.416   1.220  0.00  0.00     0.000 A 
ENDROOT
TORSDOF 0
ENDMDL
