MODEL 1
REMARK minimizedAffinity -3.21674633
REMARK minimizedRMSD -1
REMARK  0 active torsions:
REMARK  status: ('A' for Active; 'I' for Inactive)
ROOT
ATOM      1  C1  BNZ d   1      -0.961  -2.184   0.207  0.00  0.00     0.000 A 
ATOM      2  C2  BNZ d   1      -0.440  -1.447  -0.823  0.00  0.00     0.000 A 
ATOM      3  C3  BNZ d   1      -0.010  -0.166  -0.618  0.00  0.00     0.000 A 
ATOM      4  C4  BNZ d   1      -0.139   0.390   0.604  0.00  0.00     0.000 A 
ATOM      5  C5  BNZ d   1      -0.671  -0.338   1.650  0.00  0.00     0.000 A 
ATOM      6  C6  BNZ d   1      -1.066  -1.640   1.449  0.00  0.00     0.000 A 
ENDROOT
TORSDOF 0
ENDMDL
