MODEL 1
REMARK minimizedAffinity -3.02196026
REMARK minimizedRMSD -1
REMARK  0 active torsions:
REMARK  status: ('A' for Active; 'I' for Inactive)
ROOT
ATOM      1  C1  BNZ d   1      -0.789  -0.938  -0.194  0.00  0.00     0.000 A 
ATOM      2  C2  BNZ d   1      -1.080  -1.835   0.799  0.00  0.00     0.000 A 
ATOM      3  C3  BNZ d   1      -0.506  -1.722   2.035  0.00  0.00     0.000 A 
ATOM      4  C4  BNZ d   1       0.388  -0.738   2.263  0.00  0.00     0.000 A 
ATOM      5  C5  BNZ d   1       0.699   0.168   1.269  0.00  0.00     0.000 A 
ATOM      6  C6  BNZ d   1       0.090   0.074   0.038  0.00  0.00     0.000 A 
ENDROOT
TORSDOF 0
ENDMDL
