MODEL 1
REMARK minimizedAffinity -3.32871461
REMARK minimizedRMSD -1
REMARK  0 active torsions:
REMARK  status: ('A' for Active; 'I' for Inactive)
ROOT
ATOM      1  C1  BNZ d   1       0.134   0.746   0.081  0.00  0.00     0.000 A 
ATOM      2  C2  BNZ d   1      -0.954  -0.085   0.067  0.00  0.00     0.000 A 
ATOM      3  C3  BNZ d   1      -0.958  -1.245   0.790  0.00  0.00     0.000 A 
ATOM      4  C4  BNZ d   1       0.139  -1.592   1.494  0.00  0.00     0.000 A 
ATOM      5  C5  BNZ d   1       1.248  -0.769   1.510  0.00  0.00     0.000 A 
ATOM      6  C6  BNZ d   1       1.234   0.417   0.812  0.00  0.00     0.000 A 
ENDROOT
TORSDOF 0
ENDMDL
