MODEL 1
REMARK minimizedAffinity -1.919824
REMARK minimizedRMSD -1
REMARK  0 active torsions:
REMARK  status: ('A' for Active; 'I' for Inactive)
ROOT
ATOM      1  C1  BNZ d   1       0.194  -0.534   2.309  0.00  0.00     0.000 A 
ATOM      2  C2  BNZ d   1       0.604   0.336   1.334  0.00  0.00     0.000 A 
ATOM      3  C3  BNZ d   1      -0.039   0.390   0.129  0.00  0.00     0.000 A 
ATOM      4  C4  BNZ d   1      -1.063  -0.453  -0.114  0.00  0.00     0.000 A 
ATOM      5  C5  BNZ d   1      -1.482  -1.342   0.855  0.00  0.00     0.000 A 
ATOM      6  C6  BNZ d   1      -0.857  -1.367   2.081  0.00  0.00     0.000 A 
ENDROOT
TORSDOF 0
ENDMDL
