MODEL 1
REMARK minimizedAffinity -2.13821602
REMARK minimizedRMSD -1
REMARK  0 active torsions:
REMARK  status: ('A' for Active; 'I' for Inactive)
ROOT
ATOM      1  C1  BNZ d   1      -1.054  -1.564   1.197  0.00  0.00     0.000 A 
ATOM      2  C2  BNZ d   1      -0.782  -0.229   1.333  0.00  0.00     0.000 A 
ATOM      3  C3  BNZ d   1      -0.250   0.486   0.296  0.00  0.00     0.000 A 
ATOM      4  C4  BNZ d   1       0.047  -0.143  -0.859  0.00  0.00     0.000 A 
ATOM      5  C5  BNZ d   1      -0.213  -1.491  -1.008  0.00  0.00     0.000 A 
ATOM      6  C6  BNZ d   1      -0.785  -2.199   0.024  0.00  0.00     0.000 A 
ENDROOT
TORSDOF 0
ENDMDL
