MODEL 1
REMARK minimizedAffinity -3.80383778
REMARK minimizedRMSD -1
REMARK  0 active torsions:
REMARK  status: ('A' for Active; 'I' for Inactive)
ROOT
ATOM      1  C1  BNZ d   1       1.209   2.322   1.070  0.00  0.00     0.000 A 
ATOM      2  C2  BNZ d   1       1.291   1.050   1.569  0.00  0.00     0.000 A 
ATOM      3  C3  BNZ d   1       0.513   0.047   1.059  0.00  0.00     0.000 A 
ATOM      4  C4  BNZ d   1      -0.372   0.327   0.081  0.00  0.00     0.000 A 
ATOM      5  C5  BNZ d   1      -0.472   1.607  -0.426  0.00  0.00     0.000 A 
ATOM      6  C6  BNZ d   1       0.340   2.605   0.063  0.00  0.00     0.000 A 
ENDROOT
TORSDOF 0
ENDMDL
