MODEL 1
REMARK minimizedAffinity -3.78093529
REMARK minimizedRMSD -1
REMARK  0 active torsions:
REMARK  status: ('A' for Active; 'I' for Inactive)
ROOT
ATOM      1  C1  BNZ d   1       0.384  -0.653   2.224  0.00  0.00     0.000 A 
ATOM      2  C2  BNZ d   1       0.693   0.487   1.532  0.00  0.00     0.000 A 
ATOM      3  C3  BNZ d   1       0.254   0.669   0.251  0.00  0.00     0.000 A 
ATOM      4  C4  BNZ d   1      -0.460  -0.305  -0.350  0.00  0.00     0.000 A 
ATOM      5  C5  BNZ d   1      -0.772  -1.465   0.331  0.00  0.00     0.000 A 
ATOM      6  C6  BNZ d   1      -0.360  -1.627   1.634  0.00  0.00     0.000 A 
ENDROOT
TORSDOF 0
ENDMDL
