MODEL 1
REMARK minimizedAffinity -3.04391956
REMARK minimizedRMSD -1
REMARK  0 active torsions:
REMARK  status: ('A' for Active; 'I' for Inactive)
ROOT
ATOM      1  C1  BNZ d   1      -0.903  -0.631   2.226  0.00  0.00     0.000 A 
ATOM      2  C2  BNZ d   1      -0.351   0.587   1.927  0.00  0.00     0.000 A 
ATOM      3  C3  BNZ d   1       0.030   0.887   0.650  0.00  0.00     0.000 A 
ATOM      4  C4  BNZ d   1      -0.103  -0.042  -0.318  0.00  0.00     0.000 A 
ATOM      5  C5  BNZ d   1      -0.649  -1.277  -0.031  0.00  0.00     0.000 A 
ATOM      6  C6  BNZ d   1      -1.068  -1.563   1.249  0.00  0.00     0.000 A 
ENDROOT
TORSDOF 0
ENDMDL
