MODEL 1
REMARK minimizedAffinity -4.12292719
REMARK minimizedRMSD -1
REMARK  0 active torsions:
REMARK  status: ('A' for Active; 'I' for Inactive)
ROOT
ATOM      1  C1  BNZ d   1      -0.451   0.250  -0.412  0.00  0.00     0.000 A 
ATOM      2  C2  BNZ d   1      -0.511  -1.090  -0.684  0.00  0.00     0.000 A 
ATOM      3  C3  BNZ d   1      -0.839  -1.989   0.292  0.00  0.00     0.000 A 
ATOM      4  C4  BNZ d   1      -1.067  -1.550   1.547  0.00  0.00     0.000 A 
ATOM      5  C5  BNZ d   1      -1.001  -0.203   1.840  0.00  0.00     0.000 A 
ATOM      6  C6  BNZ d   1      -0.709   0.703   0.845  0.00  0.00     0.000 A 
ENDROOT
TORSDOF 0
ENDMDL
