MODEL 1
REMARK minimizedAffinity -3.22974563
REMARK minimizedRMSD -1
REMARK  0 active torsions:
REMARK  status: ('A' for Active; 'I' for Inactive)
ROOT
ATOM      1  C1  BNZ d   1       0.289   0.388   0.050  0.00  0.00     0.000 A 
ATOM      2  C2  BNZ d   1       0.509  -0.949   0.249  0.00  0.00     0.000 A 
ATOM      3  C3  BNZ d   1      -0.494  -1.766   0.689  0.00  0.00     0.000 A 
ATOM      4  C4  BNZ d   1      -1.704  -1.239   0.968  0.00  0.00     0.000 A 
ATOM      5  C5  BNZ d   1      -1.939   0.109   0.781  0.00  0.00     0.000 A 
ATOM      6  C6  BNZ d   1      -0.938   0.921   0.301  0.00  0.00     0.000 A 
ENDROOT
TORSDOF 0
ENDMDL
