MODEL 1
REMARK minimizedAffinity -3.52100635
REMARK minimizedRMSD -1
REMARK  0 active torsions:
REMARK  status: ('A' for Active; 'I' for Inactive)
ROOT
ATOM      1  C1  BNZ d   1      -1.196  -0.378   1.470  0.00  0.00     0.000 A 
ATOM      2  C2  BNZ d   1      -1.804   0.463   0.576  0.00  0.00     0.000 A 
ATOM      3  C3  BNZ d   1      -1.065   1.304  -0.208  0.00  0.00     0.000 A 
ATOM      4  C4  BNZ d   1       0.276   1.332  -0.069  0.00  0.00     0.000 A 
ATOM      5  C5  BNZ d   1       0.903   0.497   0.835  0.00  0.00     0.000 A 
ATOM      6  C6  BNZ d   1       0.159  -0.376   1.594  0.00  0.00     0.000 A 
ENDROOT
TORSDOF 0
ENDMDL
