MODEL 1
REMARK minimizedAffinity -3.41992021
REMARK minimizedRMSD -1
REMARK  0 active torsions:
REMARK  status: ('A' for Active; 'I' for Inactive)
ROOT
ATOM      1  C1  BNZ d   1       0.532  -0.720   1.950  0.00  0.00     0.000 A 
ATOM      2  C2  BNZ d   1       0.876   0.348   1.164  0.00  0.00     0.000 A 
ATOM      3  C3  BNZ d   1       0.247   0.571  -0.028  0.00  0.00     0.000 A 
ATOM      4  C4  BNZ d   1      -0.697  -0.294  -0.452  0.00  0.00     0.000 A 
ATOM      5  C5  BNZ d   1      -1.048  -1.381   0.324  0.00  0.00     0.000 A 
ATOM      6  C6  BNZ d   1      -0.440  -1.581   1.542  0.00  0.00     0.000 A 
ENDROOT
TORSDOF 0
ENDMDL
