MODEL 1
REMARK minimizedAffinity -1.7779429
REMARK minimizedRMSD -1
REMARK  0 active torsions:
REMARK  status: ('A' for Active; 'I' for Inactive)
ROOT
ATOM      1  C1  BNZ d   1      -1.072  -1.129  -0.395  0.00  0.00     0.000 A 
ATOM      2  C2  BNZ d   1      -0.248  -0.097  -0.033  0.00  0.00     0.000 A 
ATOM      3  C3  BNZ d   1       0.357  -0.082   1.193  0.00  0.00     0.000 A 
ATOM      4  C4  BNZ d   1       0.106  -1.077   2.068  0.00  0.00     0.000 A 
ATOM      5  C5  BNZ d   1      -0.730  -2.120   1.721  0.00  0.00     0.000 A 
ATOM      6  C6  BNZ d   1      -1.306  -2.151   0.472  0.00  0.00     0.000 A 
ENDROOT
TORSDOF 0
ENDMDL
