MODEL 1
REMARK minimizedAffinity -2.35471034
REMARK minimizedRMSD -1
REMARK  0 active torsions:
REMARK  status: ('A' for Active; 'I' for Inactive)
ROOT
ATOM      1  C1  BNZ d   1      -1.013  -2.039   1.551  0.00  0.00     0.000 A 
ATOM      2  C2  BNZ d   1      -1.072  -2.545   0.279  0.00  0.00     0.000 A 
ATOM      3  C3  BNZ d   1      -0.692  -1.788  -0.794  0.00  0.00     0.000 A 
ATOM      4  C4  BNZ d   1      -0.291  -0.515  -0.598  0.00  0.00     0.000 A 
ATOM      5  C5  BNZ d   1      -0.235   0.012   0.677  0.00  0.00     0.000 A 
ATOM      6  C6  BNZ d   1      -0.581  -0.765   1.758  0.00  0.00     0.000 A 
ENDROOT
TORSDOF 0
ENDMDL
