MODEL 1
REMARK minimizedAffinity -3.66143656
REMARK minimizedRMSD -1
REMARK  0 active torsions:
REMARK  status: ('A' for Active; 'I' for Inactive)
ROOT
ATOM      1  C1  BNZ d   1      -1.131  -2.060   0.387  0.00  0.00     0.000 A 
ATOM      2  C2  BNZ d   1      -0.236  -1.254  -0.265  0.00  0.00     0.000 A 
ATOM      3  C3  BNZ d   1      -0.025   0.033   0.147  0.00  0.00     0.000 A 
ATOM      4  C4  BNZ d   1      -0.737   0.523   1.181  0.00  0.00     0.000 A 
ATOM      5  C5  BNZ d   1      -1.650  -0.274   1.842  0.00  0.00     0.000 A 
ATOM      6  C6  BNZ d   1      -1.831  -1.581   1.451  0.00  0.00     0.000 A 
ENDROOT
TORSDOF 0
ENDMDL
