MODEL 1
REMARK minimizedAffinity -2.19614744
REMARK minimizedRMSD -1
REMARK  1 active torsions:
REMARK  status: ('A' for Active; 'I' for Inactive)
REMARK    1  A    between atoms: C1_2  and  C2_3 
ROOT
ATOM      1  C2  UNL d   1       0.782   0.117  -0.648  0.00  0.00    -0.076 A 
ATOM      2  C3  UNL d   1       0.070  -0.807   0.136  0.00  0.00     0.004 A 
ATOM      3  C4  UNL d   1      -1.082  -0.429   0.823  0.00  0.00    -0.003 A 
ATOM      4  C5  UNL d   1      -1.542   0.880   0.736  0.00  0.00     0.000 A 
ATOM      5  C6  UNL d   1      -0.859   1.806  -0.051  0.00  0.00     0.000 A 
ATOM      6  C7  UNL d   1       0.296   1.437  -0.763  0.00  0.00    -0.073 A 
ATOM      7  C8  UNL d   1       0.997   2.478  -1.592  0.00  0.00     0.078 C 
ENDROOT
BRANCH   1   8
ATOM      8  C1  UNL d   1       2.040  -0.344  -1.348  0.00  0.00     0.053 C 
ATOM      9  C   UNL d   1       1.839  -1.645  -2.110  0.00  0.00     0.018 C 
ENDBRANCH   1   8
TORSDOF 1
ENDMDL
