MODEL 1
REMARK minimizedAffinity -2.50616884
REMARK minimizedRMSD -1
REMARK  1 active torsions:
REMARK  status: ('A' for Active; 'I' for Inactive)
REMARK    1  A    between atoms: C1_2  and  C2_3 
ROOT
ATOM      1  C2  UNL d   1      -0.018  -0.001   0.025  0.00  0.00    -0.076 A 
ATOM      2  C3  UNL d   1       0.194  -1.368   0.274  0.00  0.00     0.004 A 
ATOM      3  C4  UNL d   1       1.201  -2.070  -0.386  0.00  0.00    -0.003 A 
ATOM      4  C5  UNL d   1       2.013  -1.416  -1.306  0.00  0.00     0.000 A 
ATOM      5  C6  UNL d   1       1.829  -0.056  -1.552  0.00  0.00     0.000 A 
ATOM      6  C7  UNL d   1       0.829   0.670  -0.883  0.00  0.00    -0.073 A 
ATOM      7  C8  UNL d   1       0.671   2.134  -1.192  0.00  0.00     0.078 C 
ENDROOT
BRANCH   1   8
ATOM      8  C1  UNL d   1      -1.142   0.702   0.751  0.00  0.00     0.053 C 
ATOM      9  C   UNL d   1      -0.903   0.790   2.250  0.00  0.00     0.018 C 
ENDBRANCH   1   8
TORSDOF 1
ENDMDL
