MODEL 1
REMARK minimizedAffinity -3.7190907
REMARK minimizedRMSD -1
REMARK  1 active torsions:
REMARK  status: ('A' for Active; 'I' for Inactive)
REMARK    1  A    between atoms: C1_2  and  C2_3 
ROOT
ATOM      1  C2  UNL d   1      -0.843   0.122   1.605  0.00  0.00    -0.076 A 
ATOM      2  C3  UNL d   1       0.020  -0.858   2.127  0.00  0.00     0.004 A 
ATOM      3  C4  UNL d   1       0.725  -1.715   1.284  0.00  0.00    -0.003 A 
ATOM      4  C5  UNL d   1       0.580  -1.606  -0.095  0.00  0.00     0.000 A 
ATOM      5  C6  UNL d   1      -0.258  -0.628  -0.630  0.00  0.00     0.000 A 
ATOM      6  C7  UNL d   1      -0.964   0.255   0.205  0.00  0.00    -0.073 A 
ATOM      7  C8  UNL d   1      -1.858   1.286  -0.426  0.00  0.00     0.078 C 
ENDROOT
BRANCH   1   8
ATOM      8  C1  UNL d   1      -1.603   1.005   2.569  0.00  0.00     0.053 C 
ATOM      9  C   UNL d   1      -3.031   0.532   2.791  0.00  0.00     0.018 C 
ENDBRANCH   1   8
TORSDOF 1
ENDMDL
