MODEL 1
REMARK minimizedAffinity -1.46119988
REMARK minimizedRMSD -1
REMARK  1 active torsions:
REMARK  status: ('A' for Active; 'I' for Inactive)
REMARK    1  A    between atoms: C1_2  and  C2_3 
ROOT
ATOM      1  C2  UNL d   1      -0.798   1.221   1.190  0.00  0.00    -0.076 A 
ATOM      2  C3  UNL d   1      -0.837   2.229   2.168  0.00  0.00     0.004 A 
ATOM      3  C4  UNL d   1      -1.187   1.938   3.486  0.00  0.00    -0.003 A 
ATOM      4  C5  UNL d   1      -1.502   0.632   3.846  0.00  0.00     0.000 A 
ATOM      5  C6  UNL d   1      -1.451  -0.384   2.892  0.00  0.00     0.000 A 
ATOM      6  C7  UNL d   1      -1.085  -0.109   1.563  0.00  0.00    -0.073 A 
ATOM      7  C8  UNL d   1      -1.053  -1.243   0.575  0.00  0.00     0.078 C 
ENDROOT
BRANCH   1   8
ATOM      8  C1  UNL d   1      -0.439   1.602  -0.229  0.00  0.00     0.053 C 
ATOM      9  C   UNL d   1       1.058   1.536  -0.488  0.00  0.00     0.018 C 
ENDBRANCH   1   8
TORSDOF 1
ENDMDL
