MODEL 1
REMARK minimizedAffinity -5.1667819
REMARK minimizedRMSD -1
REMARK  1 active torsions:
REMARK  status: ('A' for Active; 'I' for Inactive)
REMARK    1  A    between atoms: C1_2  and  C2_3 
ROOT
ATOM      1  C2  UNL d   1      -0.073  -0.249  -0.129  0.00  0.00    -0.076 A 
ATOM      2  C3  UNL d   1       0.814   0.827  -0.310  0.00  0.00     0.004 A 
ATOM      3  C4  UNL d   1       2.141   0.609  -0.676  0.00  0.00    -0.003 A 
ATOM      4  C5  UNL d   1       2.603  -0.688  -0.868  0.00  0.00     0.000 A 
ATOM      5  C6  UNL d   1       1.733  -1.766  -0.711  0.00  0.00     0.000 A 
ATOM      6  C7  UNL d   1       0.388  -1.563  -0.358  0.00  0.00    -0.073 A 
ATOM      7  C8  UNL d   1      -0.505  -2.763  -0.195  0.00  0.00     0.078 C 
ENDROOT
BRANCH   1   8
ATOM      8  C1  UNL d   1      -1.494   0.047   0.294  0.00  0.00     0.053 C 
ATOM      9  C   UNL d   1      -1.584   0.530   1.734  0.00  0.00     0.018 C 
ENDBRANCH   1   8
TORSDOF 1
ENDMDL
