MODEL 1
REMARK minimizedAffinity -3.76441145
REMARK minimizedRMSD -1
REMARK  1 active torsions:
REMARK  status: ('A' for Active; 'I' for Inactive)
REMARK    1  A    between atoms: C1_2  and  C2_3 
ROOT
ATOM      1  C2  UNL d   1       0.439  -1.480  -0.396  0.00  0.00    -0.076 A 
ATOM      2  C3  UNL d   1       1.632  -1.775  -1.078  0.00  0.00     0.004 A 
ATOM      3  C4  UNL d   1       2.590  -0.789  -1.306  0.00  0.00    -0.003 A 
ATOM      4  C5  UNL d   1       2.372   0.508  -0.855  0.00  0.00     0.000 A 
ATOM      5  C6  UNL d   1       1.202   0.814  -0.160  0.00  0.00     0.000 A 
ATOM      6  C7  UNL d   1       0.233  -0.172   0.092  0.00  0.00    -0.073 A 
ATOM      7  C8  UNL d   1      -1.013   0.215   0.841  0.00  0.00     0.078 C 
ENDROOT
BRANCH   1   8
ATOM      8  C1  UNL d   1      -0.576  -2.584  -0.201  0.00  0.00     0.053 C 
ATOM      9  C   UNL d   1       0.055  -3.875   0.297  0.00  0.00     0.018 C 
ENDBRANCH   1   8
TORSDOF 1
ENDMDL
