MODEL 1
REMARK minimizedAffinity -4.28194809
REMARK minimizedRMSD -1
REMARK  1 active torsions:
REMARK  status: ('A' for Active; 'I' for Inactive)
REMARK    1  A    between atoms: C1_2  and  C2_3 
ROOT
ATOM      1  C2  UNL d   1      -0.080   0.121  -0.151  0.00  0.00    -0.076 A 
ATOM      2  C3  UNL d   1       0.085  -1.235   0.179  0.00  0.00     0.004 A 
ATOM      3  C4  UNL d   1       1.205  -1.947  -0.248  0.00  0.00    -0.003 A 
ATOM      4  C5  UNL d   1       2.179  -1.313  -1.011  0.00  0.00     0.000 A 
ATOM      5  C6  UNL d   1       2.041   0.036  -1.333  0.00  0.00     0.000 A 
ATOM      6  C7  UNL d   1       0.926   0.773  -0.897  0.00  0.00    -0.073 A 
ATOM      7  C8  UNL d   1       0.825   2.224  -1.279  0.00  0.00     0.078 C 
ENDROOT
BRANCH   1   8
ATOM      8  C1  UNL d   1      -1.328   0.834   0.316  0.00  0.00     0.053 C 
ATOM      9  C   UNL d   1      -1.488   0.799   1.828  0.00  0.00     0.018 C 
ENDBRANCH   1   8
TORSDOF 1
ENDMDL
