MODEL 1
REMARK minimizedAffinity -3.63414097
REMARK minimizedRMSD -1
REMARK  1 active torsions:
REMARK  status: ('A' for Active; 'I' for Inactive)
REMARK    1  A    between atoms: C1_2  and  C2_3 
ROOT
ATOM      1  C2  UNL d   1       0.147  -0.200  -0.502  0.00  0.00    -0.076 A 
ATOM      2  C3  UNL d   1       0.178  -1.417   0.201  0.00  0.00     0.004 A 
ATOM      3  C4  UNL d   1       1.101  -2.410  -0.122  0.00  0.00    -0.003 A 
ATOM      4  C5  UNL d   1       2.009  -2.202  -1.154  0.00  0.00     0.000 A 
ATOM      5  C6  UNL d   1       2.005  -0.994  -1.852  0.00  0.00     0.000 A 
ATOM      6  C7  UNL d   1       1.092   0.024  -1.527  0.00  0.00    -0.073 A 
ATOM      7  C8  UNL d   1       1.128   1.304  -2.316  0.00  0.00     0.078 C 
ENDROOT
BRANCH   1   8
ATOM      8  C1  UNL d   1      -0.894   0.829  -0.125  0.00  0.00     0.053 C 
ATOM      9  C   UNL d   1      -1.294   0.743   1.340  0.00  0.00     0.018 C 
ENDBRANCH   1   8
TORSDOF 1
ENDMDL
