MODEL 1
REMARK minimizedAffinity -3.58011103
REMARK minimizedRMSD -1
REMARK  1 active torsions:
REMARK  status: ('A' for Active; 'I' for Inactive)
REMARK    1  A    between atoms: C1_2  and  C2_3 
ROOT
ATOM      1  C2  UNL d   1       0.356   0.171  -0.857  0.00  0.00    -0.076 A 
ATOM      2  C3  UNL d   1       0.577   1.266  -1.711  0.00  0.00     0.004 A 
ATOM      3  C4  UNL d   1       1.478   1.178  -2.771  0.00  0.00    -0.003 A 
ATOM      4  C5  UNL d   1       2.172  -0.006  -2.995  0.00  0.00     0.000 A 
ATOM      5  C6  UNL d   1       1.952  -1.107  -2.169  0.00  0.00     0.000 A 
ATOM      6  C7  UNL d   1       1.035  -1.041  -1.106  0.00  0.00    -0.073 A 
ATOM      7  C8  UNL d   1       0.842  -2.258  -0.242  0.00  0.00     0.078 C 
ENDROOT
BRANCH   1   8
ATOM      8  C1  UNL d   1      -0.613   0.333   0.292  0.00  0.00     0.053 C 
ATOM      9  C   UNL d   1      -1.909   1.007  -0.129  0.00  0.00     0.018 C 
ENDBRANCH   1   8
TORSDOF 1
ENDMDL
