MODEL 1
REMARK minimizedAffinity -3.15101743
REMARK minimizedRMSD -1
REMARK  1 active torsions:
REMARK  status: ('A' for Active; 'I' for Inactive)
REMARK    1  A    between atoms: C1_2  and  C2_3 
ROOT
ATOM      1  C2  UNL d   1      -0.005   0.372  -0.788  0.00  0.00    -0.076 A 
ATOM      2  C3  UNL d   1       0.169  -0.965  -0.391  0.00  0.00     0.004 A 
ATOM      3  C4  UNL d   1       1.205  -1.739  -0.911  0.00  0.00    -0.003 A 
ATOM      4  C5  UNL d   1       2.085  -1.188  -1.836  0.00  0.00     0.000 A 
ATOM      5  C6  UNL d   1       1.938   0.143  -2.227  0.00  0.00     0.000 A 
ATOM      6  C7  UNL d   1       0.909   0.941  -1.700  0.00  0.00    -0.073 A 
ATOM      7  C8  UNL d   1       0.794   2.368  -2.162  0.00  0.00     0.078 C 
ENDROOT
BRANCH   1   8
ATOM      8  C1  UNL d   1      -1.163   1.154  -0.211  0.00  0.00     0.053 C 
ATOM      9  C   UNL d   1      -1.509   0.723   1.206  0.00  0.00     0.018 C 
ENDBRANCH   1   8
TORSDOF 1
ENDMDL
