MODEL 1
REMARK minimizedAffinity -2.84846354
REMARK minimizedRMSD -1
REMARK  1 active torsions:
REMARK  status: ('A' for Active; 'I' for Inactive)
REMARK    1  A    between atoms: C1_2  and  C2_3 
ROOT
ATOM      1  C2  UNL d   1      -0.625   0.090   1.343  0.00  0.00    -0.076 A 
ATOM      2  C3  UNL d   1      -0.293  -0.104   2.695  0.00  0.00     0.004 A 
ATOM      3  C4  UNL d   1      -1.141   0.330   3.712  0.00  0.00    -0.003 A 
ATOM      4  C5  UNL d   1      -2.336   0.966   3.393  0.00  0.00     0.000 A 
ATOM      5  C6  UNL d   1      -2.690   1.151   2.057  0.00  0.00     0.000 A 
ATOM      6  C7  UNL d   1      -1.854   0.705   1.019  0.00  0.00    -0.073 A 
ATOM      7  C8  UNL d   1      -2.282   0.936  -0.404  0.00  0.00     0.078 C 
ENDROOT
BRANCH   1   8
ATOM      8  C1  UNL d   1       0.347  -0.378   0.283  0.00  0.00     0.053 C 
ATOM      9  C   UNL d   1       0.099  -1.818  -0.139  0.00  0.00     0.018 C 
ENDBRANCH   1   8
TORSDOF 1
ENDMDL
