MODEL 1
REMARK minimizedAffinity 17.4666309
REMARK minimizedRMSD -1
REMARK  0 active torsions:
REMARK  status: ('A' for Active; 'I' for Inactive)
ROOT
ATOM      1  C   UNL d   1      -0.994  -3.299  -2.201  0.00  0.00     0.078 C 
ATOM      2  C1  UNL d   1       0.148  -2.423  -1.779  0.00  0.00    -0.077 A 
ATOM      3  C2  UNL d   1       1.081  -1.955  -2.712  0.00  0.00    -0.001 A 
ATOM      4  C3  UNL d   1       2.144  -1.149  -2.304  0.00  0.00     0.003 A 
ATOM      5  C4  UNL d   1       2.286  -0.804  -0.961  0.00  0.00    -0.005 A 
ATOM      6  C5  UNL d   1       1.363  -1.267  -0.025  0.00  0.00     0.003 A 
ATOM      7  C6  UNL d   1       0.299  -2.073  -0.431  0.00  0.00    -0.001 A 
ENDROOT
TORSDOF 0
ENDMDL
