MODEL 1
REMARK minimizedAffinity 9.86894226
REMARK minimizedRMSD -1
REMARK  0 active torsions:
REMARK  status: ('A' for Active; 'I' for Inactive)
ROOT
ATOM      1  C   UNL d   1       3.805   1.112  -0.863  0.00  0.00     0.078 C 
ATOM      2  C1  UNL d   1       2.998  -0.136  -1.065  0.00  0.00    -0.077 A 
ATOM      3  C2  UNL d   1       1.788  -0.106  -1.768  0.00  0.00    -0.001 A 
ATOM      4  C3  UNL d   1       1.042  -1.274  -1.940  0.00  0.00     0.003 A 
ATOM      5  C4  UNL d   1       1.498  -2.479  -1.409  0.00  0.00    -0.005 A 
ATOM      6  C5  UNL d   1       2.700  -2.518  -0.706  0.00  0.00     0.003 A 
ATOM      7  C6  UNL d   1       3.447  -1.352  -0.533  0.00  0.00    -0.001 A 
ENDROOT
TORSDOF 0
ENDMDL
