MODEL 1
REMARK minimizedAffinity 13.4088058
REMARK minimizedRMSD -1
REMARK  0 active torsions:
REMARK  status: ('A' for Active; 'I' for Inactive)
ROOT
ATOM      1  C   UNL d   1      -5.916   4.932  -5.998  0.00  0.00     0.078 C 
ATOM      2  C1  UNL d   1      -4.557   4.322  -5.829  0.00  0.00    -0.077 A 
ATOM      3  C2  UNL d   1      -4.410   2.972  -5.489  0.00  0.00    -0.001 A 
ATOM      4  C3  UNL d   1      -3.139   2.419  -5.326  0.00  0.00     0.003 A 
ATOM      5  C4  UNL d   1      -2.005   3.210  -5.500  0.00  0.00    -0.005 A 
ATOM      6  C5  UNL d   1      -2.141   4.555  -5.836  0.00  0.00     0.003 A 
ATOM      7  C6  UNL d   1      -3.412   5.109  -6.000  0.00  0.00    -0.001 A 
ENDROOT
TORSDOF 0
ENDMDL
