MODEL 1
REMARK minimizedAffinity 11.7643175
REMARK minimizedRMSD -1
REMARK  0 active torsions:
REMARK  status: ('A' for Active; 'I' for Inactive)
ROOT
ATOM      1  C   UNL d   1      -2.214   2.246   5.999  0.00  0.00     0.078 C 
ATOM      2  C1  UNL d   1      -2.911   1.386   4.987  0.00  0.00    -0.077 A 
ATOM      3  C2  UNL d   1      -3.403   0.121   5.332  0.00  0.00    -0.001 A 
ATOM      4  C3  UNL d   1      -4.041  -0.672   4.377  0.00  0.00     0.003 A 
ATOM      5  C4  UNL d   1      -4.191  -0.210   3.071  0.00  0.00    -0.005 A 
ATOM      6  C5  UNL d   1      -3.703   1.046   2.718  0.00  0.00     0.003 A 
ATOM      7  C6  UNL d   1      -3.065   1.841   3.672  0.00  0.00    -0.001 A 
ENDROOT
TORSDOF 0
ENDMDL
