MODEL 1
REMARK minimizedAffinity 7.97366381
REMARK minimizedRMSD -1
REMARK  0 active torsions:
REMARK  status: ('A' for Active; 'I' for Inactive)
ROOT
ATOM      1  C   UNL d   1      -0.927  -3.966  -1.837  0.00  0.00     0.078 C 
ATOM      2  C1  UNL d   1       0.065  -2.872  -1.581  0.00  0.00    -0.077 A 
ATOM      3  C2  UNL d   1       0.886  -2.894  -0.447  0.00  0.00    -0.001 A 
ATOM      4  C3  UNL d   1       1.798  -1.863  -0.216  0.00  0.00     0.003 A 
ATOM      5  C4  UNL d   1       1.897  -0.802  -1.114  0.00  0.00    -0.005 A 
ATOM      6  C5  UNL d   1       1.082  -0.770  -2.244  0.00  0.00     0.003 A 
ATOM      7  C6  UNL d   1       0.169  -1.800  -2.477  0.00  0.00    -0.001 A 
ENDROOT
TORSDOF 0
ENDMDL
