MODEL 1
REMARK minimizedAffinity 12.264101
REMARK minimizedRMSD -1
REMARK  0 active torsions:
REMARK  status: ('A' for Active; 'I' for Inactive)
ROOT
ATOM      1  C   UNL d   1       0.937  -1.380  -1.286  0.00  0.00     0.078 C 
ATOM      2  C1  UNL d   1      -0.395  -1.926  -1.707  0.00  0.00    -0.077 A 
ATOM      3  C2  UNL d   1      -1.383  -1.087  -2.238  0.00  0.00    -0.001 A 
ATOM      4  C3  UNL d   1      -2.622  -1.607  -2.616  0.00  0.00     0.003 A 
ATOM      5  C4  UNL d   1      -2.885  -2.967  -2.466  0.00  0.00    -0.005 A 
ATOM      6  C5  UNL d   1      -1.909  -3.809  -1.936  0.00  0.00     0.003 A 
ATOM      7  C6  UNL d   1      -0.670  -3.291  -1.558  0.00  0.00    -0.001 A 
ENDROOT
TORSDOF 0
ENDMDL
