MODEL 1
REMARK minimizedAffinity 12.7788906
REMARK minimizedRMSD -1
REMARK  0 active torsions:
REMARK  status: ('A' for Active; 'I' for Inactive)
ROOT
ATOM      1  C   UNL d   1       5.321  -2.034   0.291  0.00  0.00     0.078 C 
ATOM      2  C1  UNL d   1       4.760  -0.737  -0.210  0.00  0.00    -0.077 A 
ATOM      3  C2  UNL d   1       3.511  -0.687  -0.841  0.00  0.00    -0.001 A 
ATOM      4  C3  UNL d   1       3.006   0.526  -1.312  0.00  0.00     0.003 A 
ATOM      5  C4  UNL d   1       3.743   1.698  -1.156  0.00  0.00    -0.005 A 
ATOM      6  C5  UNL d   1       4.987   1.658  -0.531  0.00  0.00     0.003 A 
ATOM      7  C6  UNL d   1       5.494   0.446  -0.060  0.00  0.00    -0.001 A 
ENDROOT
TORSDOF 0
ENDMDL
