MODEL 1
REMARK minimizedAffinity 0.855574071
REMARK minimizedRMSD -1
REMARK  0 active torsions:
REMARK  status: ('A' for Active; 'I' for Inactive)
ROOT
ATOM      1  C   UNL d   1      -5.187   2.524   5.935  0.00  0.00     0.078 C 
ATOM      2  C1  UNL d   1      -4.938   1.358   5.025  0.00  0.00    -0.077 A 
ATOM      3  C2  UNL d   1      -4.002   1.440   3.987  0.00  0.00    -0.001 A 
ATOM      4  C3  UNL d   1      -3.788   0.351   3.141  0.00  0.00     0.003 A 
ATOM      5  C4  UNL d   1      -4.508  -0.829   3.324  0.00  0.00    -0.005 A 
ATOM      6  C5  UNL d   1      -5.443  -0.919   4.353  0.00  0.00     0.003 A 
ATOM      7  C6  UNL d   1      -5.658   0.169   5.200  0.00  0.00    -0.001 A 
ENDROOT
TORSDOF 0
ENDMDL
