MODEL 1
REMARK minimizedAffinity 1.44570935
REMARK minimizedRMSD -1
REMARK  0 active torsions:
REMARK  status: ('A' for Active; 'I' for Inactive)
ROOT
ATOM      1  C   UNL d   1      -3.338  -5.882  -2.992  0.00  0.00     0.078 C 
ATOM      2  C1  UNL d   1      -4.128  -5.158  -4.041  0.00  0.00    -0.077 A 
ATOM      3  C2  UNL d   1      -4.139  -3.759  -4.099  0.00  0.00    -0.001 A 
ATOM      4  C3  UNL d   1      -4.887  -3.098  -5.075  0.00  0.00     0.003 A 
ATOM      5  C4  UNL d   1      -5.631  -3.828  -6.000  0.00  0.00    -0.005 A 
ATOM      6  C5  UNL d   1      -5.628  -5.221  -5.949  0.00  0.00     0.003 A 
ATOM      7  C6  UNL d   1      -4.881  -5.883  -4.973  0.00  0.00    -0.001 A 
ENDROOT
TORSDOF 0
ENDMDL
