MODEL 1
REMARK minimizedAffinity 7.68504477
REMARK minimizedRMSD -1
REMARK  0 active torsions:
REMARK  status: ('A' for Active; 'I' for Inactive)
ROOT
ATOM      1  C   UNL d   1      -2.902   1.382   2.698  0.00  0.00     0.078 C 
ATOM      2  C1  UNL d   1      -1.574   1.096   3.334  0.00  0.00    -0.077 A 
ATOM      3  C2  UNL d   1      -0.569   0.420   2.631  0.00  0.00    -0.001 A 
ATOM      4  C3  UNL d   1       0.658   0.152   3.239  0.00  0.00     0.003 A 
ATOM      5  C4  UNL d   1       0.892   0.556   4.552  0.00  0.00    -0.005 A 
ATOM      6  C5  UNL d   1      -0.102   1.228   5.259  0.00  0.00     0.003 A 
ATOM      7  C6  UNL d   1      -1.331   1.496   4.654  0.00  0.00    -0.001 A 
ENDROOT
TORSDOF 0
ENDMDL
