MODEL 1
REMARK minimizedAffinity 8.74327564
REMARK minimizedRMSD -1
REMARK  0 active torsions:
REMARK  status: ('A' for Active; 'I' for Inactive)
ROOT
ATOM      1  C   UNL d   1       2.945   1.360   0.155  0.00  0.00     0.078 C 
ATOM      2  C1  UNL d   1       2.145   2.611  -0.054  0.00  0.00    -0.077 A 
ATOM      3  C2  UNL d   1       1.541   3.269   1.025  0.00  0.00    -0.001 A 
ATOM      4  C3  UNL d   1       0.791   4.427   0.815  0.00  0.00     0.003 A 
ATOM      5  C4  UNL d   1       0.637   4.937  -0.472  0.00  0.00    -0.005 A 
ATOM      6  C5  UNL d   1       1.233   4.288  -1.552  0.00  0.00     0.003 A 
ATOM      7  C6  UNL d   1       1.983   3.130  -1.344  0.00  0.00    -0.001 A 
ENDROOT
TORSDOF 0
ENDMDL
