MODEL 1
REMARK minimizedAffinity -1.71359849
REMARK minimizedRMSD -1
REMARK  0 active torsions:
REMARK  status: ('A' for Active; 'I' for Inactive)
ROOT
ATOM      1  C   UNL d   1       2.003  -1.726  -1.240  0.00  0.00     0.078 C 
ATOM      2  C1  UNL d   1       2.351  -3.153  -1.543  0.00  0.00    -0.077 A 
ATOM      3  C2  UNL d   1       1.525  -3.941  -2.354  0.00  0.00    -0.001 A 
ATOM      4  C3  UNL d   1       1.856  -5.270  -2.619  0.00  0.00     0.003 A 
ATOM      5  C4  UNL d   1       3.014  -5.824  -2.078  0.00  0.00    -0.005 A 
ATOM      6  C5  UNL d   1       3.842  -5.049  -1.268  0.00  0.00     0.003 A 
ATOM      7  C6  UNL d   1       3.512  -3.719  -1.001  0.00  0.00    -0.001 A 
ENDROOT
TORSDOF 0
ENDMDL
