MODEL 1
REMARK minimizedAffinity 6.80069447
REMARK minimizedRMSD -1
REMARK  0 active torsions:
REMARK  status: ('A' for Active; 'I' for Inactive)
ROOT
ATOM      1  C   UNL d   1      -1.880  -0.346  -3.721  0.00  0.00     0.078 C 
ATOM      2  C1  UNL d   1      -1.916  -1.802  -3.363  0.00  0.00    -0.077 A 
ATOM      3  C2  UNL d   1      -2.964  -2.624  -3.794  0.00  0.00    -0.001 A 
ATOM      4  C3  UNL d   1      -2.991  -3.975  -3.446  0.00  0.00     0.003 A 
ATOM      5  C4  UNL d   1      -1.973  -4.516  -2.663  0.00  0.00    -0.005 A 
ATOM      6  C5  UNL d   1      -0.927  -3.705  -2.227  0.00  0.00     0.003 A 
ATOM      7  C6  UNL d   1      -0.899  -2.353  -2.575  0.00  0.00    -0.001 A 
ENDROOT
TORSDOF 0
ENDMDL
