MODEL 1
REMARK minimizedAffinity 6.05614614
REMARK minimizedRMSD -1
REMARK  0 active torsions:
REMARK  status: ('A' for Active; 'I' for Inactive)
ROOT
ATOM      1  C   UNL d   1      -0.196  -0.449   2.437  0.00  0.00     0.078 C 
ATOM      2  C1  UNL d   1      -1.618  -0.080   2.741  0.00  0.00    -0.077 A 
ATOM      3  C2  UNL d   1      -1.980   1.249   2.991  0.00  0.00    -0.001 A 
ATOM      4  C3  UNL d   1      -3.305   1.577   3.282  0.00  0.00     0.003 A 
ATOM      5  C4  UNL d   1      -4.279   0.580   3.328  0.00  0.00    -0.005 A 
ATOM      6  C5  UNL d   1      -3.927  -0.745   3.083  0.00  0.00     0.003 A 
ATOM      7  C6  UNL d   1      -2.602  -1.075   2.792  0.00  0.00    -0.001 A 
ENDROOT
TORSDOF 0
ENDMDL
