MODEL 1
REMARK minimizedAffinity 16.4127731
REMARK minimizedRMSD -1
REMARK  0 active torsions:
REMARK  status: ('A' for Active; 'I' for Inactive)
ROOT
ATOM      1  C   UNL d   1      -3.668  -3.374  -3.622  0.00  0.00     0.078 C 
ATOM      2  C1  UNL d   1      -2.455  -2.705  -3.048  0.00  0.00    -0.077 A 
ATOM      3  C2  UNL d   1      -1.276  -3.424  -2.817  0.00  0.00    -0.001 A 
ATOM      4  C3  UNL d   1      -0.158  -2.790  -2.274  0.00  0.00     0.003 A 
ATOM      5  C4  UNL d   1      -0.208  -1.434  -1.955  0.00  0.00    -0.005 A 
ATOM      6  C5  UNL d   1      -1.378  -0.711  -2.178  0.00  0.00     0.003 A 
ATOM      7  C6  UNL d   1      -2.497  -1.343  -2.722  0.00  0.00    -0.001 A 
ENDROOT
TORSDOF 0
ENDMDL
