MODEL 1
REMARK minimizedAffinity 6.61574411
REMARK minimizedRMSD -1
REMARK  0 active torsions:
REMARK  status: ('A' for Active; 'I' for Inactive)
ROOT
ATOM      1  C   UNL d   1       3.276  -4.377  -1.260  0.00  0.00     0.078 C 
ATOM      2  C1  UNL d   1       2.842  -2.943  -1.200  0.00  0.00    -0.077 A 
ATOM      3  C2  UNL d   1       3.766  -1.919  -0.955  0.00  0.00    -0.001 A 
ATOM      4  C3  UNL d   1       3.346  -0.590  -0.891  0.00  0.00     0.003 A 
ATOM      5  C4  UNL d   1       2.001  -0.271  -1.071  0.00  0.00    -0.005 A 
ATOM      6  C5  UNL d   1       1.074  -1.283  -1.314  0.00  0.00     0.003 A 
ATOM      7  C6  UNL d   1       1.492  -2.613  -1.377  0.00  0.00    -0.001 A 
ENDROOT
TORSDOF 0
ENDMDL
