MODEL 1
REMARK minimizedAffinity 4.68392515
REMARK minimizedRMSD -1
REMARK  0 active torsions:
REMARK  status: ('A' for Active; 'I' for Inactive)
ROOT
ATOM      1  C   UNL d   1      -4.601  -0.242   2.801  0.00  0.00     0.078 C 
ATOM      2  C1  UNL d   1      -3.617   0.819   3.194  0.00  0.00    -0.077 A 
ATOM      3  C2  UNL d   1      -4.027   1.957   3.899  0.00  0.00    -0.001 A 
ATOM      4  C3  UNL d   1      -3.101   2.941   4.250  0.00  0.00     0.003 A 
ATOM      5  C4  UNL d   1      -1.760   2.798   3.899  0.00  0.00    -0.005 A 
ATOM      6  C5  UNL d   1      -1.344   1.669   3.195  0.00  0.00     0.003 A 
ATOM      7  C6  UNL d   1      -2.268   0.684   2.843  0.00  0.00    -0.001 A 
ENDROOT
TORSDOF 0
ENDMDL
