MODEL 1
REMARK minimizedAffinity 10.8273096
REMARK minimizedRMSD -1
REMARK  0 active torsions:
REMARK  status: ('A' for Active; 'I' for Inactive)
ROOT
ATOM      1  C   UNL d   1      -1.887  -0.203  -2.631  0.00  0.00     0.078 C 
ATOM      2  C1  UNL d   1      -2.222   0.731  -3.755  0.00  0.00    -0.077 A 
ATOM      3  C2  UNL d   1      -2.028   2.112  -3.628  0.00  0.00    -0.001 A 
ATOM      4  C3  UNL d   1      -2.353   2.971  -4.679  0.00  0.00     0.003 A 
ATOM      5  C4  UNL d   1      -2.876   2.458  -5.865  0.00  0.00    -0.005 A 
ATOM      6  C5  UNL d   1      -3.075   1.086  -6.000  0.00  0.00     0.003 A 
ATOM      7  C6  UNL d   1      -2.750   0.226  -4.950  0.00  0.00    -0.001 A 
ENDROOT
TORSDOF 0
ENDMDL
