MODEL 1
REMARK minimizedAffinity -4.58823061
REMARK minimizedRMSD -1
REMARK  1 active torsions:
REMARK  status: ('A' for Active; 'I' for Inactive)
REMARK    1  A    between atoms: N_2  and  C1_3 
ROOT
ATOM      1  C1  UNL d   1       0.043   0.133  -0.050  0.00  0.00     0.143 A 
ATOM      2  C2  UNL d   1       0.832   1.231  -0.411  0.00  0.00    -0.057 A 
ATOM      3  C3  UNL d   1       1.781   1.139  -1.436  0.00  0.00     0.033 A 
ATOM      4  C4  UNL d   1       1.979  -0.067  -2.101  0.00  0.00    -0.042 A 
ATOM      5  C5  UNL d   1       1.225  -1.178  -1.743  0.00  0.00     0.033 A 
ATOM      6  C6  UNL d   1       0.274  -1.077  -0.723  0.00  0.00    -0.057 A 
ENDROOT
BRANCH   1   7
ATOM      7  N   UNL d   1      -0.847   0.134   1.026  0.00  0.00    -0.732 N 
ATOM      8  C   UNL d   1      -2.233   0.504   0.835  0.00  0.00     0.284 C 
ATOM      9  H3  UNL d   1      -0.711  -0.662   1.644  0.00  0.00     0.395 HD
ENDBRANCH   1   7
TORSDOF 1
ENDMDL
