MODEL 1
REMARK minimizedAffinity -4.60482073
REMARK minimizedRMSD -1
REMARK  1 active torsions:
REMARK  status: ('A' for Active; 'I' for Inactive)
REMARK    1  A    between atoms: N_2  and  C1_3 
ROOT
ATOM      1  C1  UNL d   1      -0.238   0.489  -0.030  0.00  0.00     0.143 A 
ATOM      2  C2  UNL d   1       1.101   0.874   0.096  0.00  0.00    -0.057 A 
ATOM      3  C3  UNL d   1       1.919   1.035  -1.029  0.00  0.00     0.033 A 
ATOM      4  C4  UNL d   1       1.418   0.784  -2.302  0.00  0.00    -0.042 A 
ATOM      5  C5  UNL d   1       0.097   0.375  -2.449  0.00  0.00     0.033 A 
ATOM      6  C6  UNL d   1      -0.716   0.223  -1.322  0.00  0.00    -0.057 A 
ENDROOT
BRANCH   1   7
ATOM      7  N   UNL d   1      -1.074   0.216   1.056  0.00  0.00    -0.732 N 
ATOM      8  C   UNL d   1      -2.509   0.350   0.932  0.00  0.00     0.284 C 
ATOM      9  H3  UNL d   1      -0.776  -0.604   1.580  0.00  0.00     0.395 HD
ENDBRANCH   1   7
TORSDOF 1
ENDMDL
