MODEL 1
REMARK minimizedAffinity -4.34755993
REMARK minimizedRMSD -1
REMARK  1 active torsions:
REMARK  status: ('A' for Active; 'I' for Inactive)
REMARK    1  A    between atoms: N_2  and  C1_3 
ROOT
ATOM      1  C1  UNL d   1       0.122   0.506  -0.132  0.00  0.00     0.143 A 
ATOM      2  C2  UNL d   1       1.395   1.013  -0.413  0.00  0.00    -0.057 A 
ATOM      3  C3  UNL d   1       1.994   0.819  -1.663  0.00  0.00     0.033 A 
ATOM      4  C4  UNL d   1       1.340   0.087  -2.648  0.00  0.00    -0.042 A 
ATOM      5  C5  UNL d   1       0.084  -0.448  -2.383  0.00  0.00     0.033 A 
ATOM      6  C6  UNL d   1      -0.512  -0.245  -1.134  0.00  0.00    -0.057 A 
ENDROOT
BRANCH   1   7
ATOM      7  N   UNL d   1      -0.485   0.581   1.124  0.00  0.00    -0.732 N 
ATOM      8  C   UNL d   1      -1.897   0.301   1.279  0.00  0.00     0.284 C 
ATOM      9  H3  UNL d   1       0.099   0.193   1.862  0.00  0.00     0.395 HD
ENDBRANCH   1   7
TORSDOF 1
ENDMDL
