MODEL 1
REMARK minimizedAffinity -3.77760434
REMARK minimizedRMSD -1
REMARK  1 active torsions:
REMARK  status: ('A' for Active; 'I' for Inactive)
REMARK    1  A    between atoms: N_2  and  C1_3 
ROOT
ATOM      1  C1  UNL d   1       0.547   0.339  -0.301  0.00  0.00     0.143 A 
ATOM      2  C2  UNL d   1       0.219  -0.808  -1.031  0.00  0.00    -0.057 A 
ATOM      3  C3  UNL d   1       0.796  -1.063  -2.281  0.00  0.00     0.033 A 
ATOM      4  C4  UNL d   1       1.692  -0.158  -2.838  0.00  0.00    -0.042 A 
ATOM      5  C5  UNL d   1       2.014   1.002  -2.141  0.00  0.00     0.033 A 
ATOM      6  C6  UNL d   1       1.440   1.248  -0.890  0.00  0.00    -0.057 A 
ENDROOT
BRANCH   1   7
ATOM      7  N   UNL d   1      -0.066   0.698   0.902  0.00  0.00    -0.732 N 
ATOM      8  C   UNL d   1      -1.116  -0.122   1.468  0.00  0.00     0.284 C 
ATOM      9  H3  UNL d   1       0.598   1.053   1.586  0.00  0.00     0.395 HD
ENDBRANCH   1   7
TORSDOF 1
ENDMDL
