MODEL 1
REMARK minimizedAffinity -2.10182571
REMARK minimizedRMSD -1
REMARK  1 active torsions:
REMARK  status: ('A' for Active; 'I' for Inactive)
REMARK    1  A    between atoms: N_2  and  C1_3 
ROOT
ATOM      1  C1  UNL d   1      -1.423  -0.624   1.013  0.00  0.00     0.143 A 
ATOM      2  C2  UNL d   1      -1.467   0.389   1.978  0.00  0.00    -0.057 A 
ATOM      3  C3  UNL d   1      -2.683   0.829   2.514  0.00  0.00     0.033 A 
ATOM      4  C4  UNL d   1      -3.883   0.282   2.073  0.00  0.00    -0.042 A 
ATOM      5  C5  UNL d   1      -3.866  -0.708   1.096  0.00  0.00     0.033 A 
ATOM      6  C6  UNL d   1      -2.647  -1.148   0.569  0.00  0.00    -0.057 A 
ENDROOT
BRANCH   1   7
ATOM      7  N   UNL d   1      -0.253  -1.035   0.370  0.00  0.00    -0.732 N 
ATOM      8  C   UNL d   1       0.241  -0.323  -0.789  0.00  0.00     0.284 C 
ATOM      9  H3  UNL d   1       0.472  -1.317   1.025  0.00  0.00     0.395 HD
ENDBRANCH   1   7
TORSDOF 1
ENDMDL
