MODEL 1
REMARK minimizedAffinity -4.93938494
REMARK minimizedRMSD -1
REMARK  1 active torsions:
REMARK  status: ('A' for Active; 'I' for Inactive)
REMARK    1  A    between atoms: N_2  and  C1_3 
ROOT
ATOM      1  C1  UNL d   1       0.141  -0.030   0.134  0.00  0.00     0.143 A 
ATOM      2  C2  UNL d   1       0.843   1.153  -0.120  0.00  0.00    -0.057 A 
ATOM      3  C3  UNL d   1       1.312   1.457  -1.404  0.00  0.00     0.033 A 
ATOM      4  C4  UNL d   1       1.112   0.567  -2.453  0.00  0.00    -0.042 A 
ATOM      5  C5  UNL d   1       0.438  -0.627  -2.218  0.00  0.00     0.033 A 
ATOM      6  C6  UNL d   1      -0.034  -0.922  -0.936  0.00  0.00    -0.057 A 
ENDROOT
BRANCH   1   7
ATOM      7  N   UNL d   1      -0.265  -0.435   1.408  0.00  0.00    -0.732 N 
ATOM      8  C   UNL d   1      -1.573  -0.078   1.914  0.00  0.00     0.284 C 
ATOM      9  H3  UNL d   1       0.016  -1.390   1.620  0.00  0.00     0.395 HD
ENDBRANCH   1   7
TORSDOF 1
ENDMDL
