MODEL 1
REMARK minimizedAffinity 0.230304793
REMARK minimizedRMSD -1
REMARK  1 active torsions:
REMARK  status: ('A' for Active; 'I' for Inactive)
REMARK    1  A    between atoms: C1_2  and  C2_3 
ROOT
ATOM      1  C2  UNL d   1      -3.798   3.877   5.707  0.00  0.00    -0.081 A 
ATOM      2  C3  UNL d   1      -2.608   3.201   6.000  0.00  0.00     0.006 A 
ATOM      3  C4  UNL d   1      -1.388   3.882   5.999  0.00  0.00     0.002 A 
ATOM      4  C5  UNL d   1      -1.339   5.250   5.713  0.00  0.00    -0.080 A 
ATOM      5  C6  UNL d   1      -0.041   6.000   5.739  0.00  0.00     0.076 C 
ATOM      6  C7  UNL d   1      -2.527   5.922   5.403  0.00  0.00     0.002 A 
ATOM      7  C8  UNL d   1      -3.746   5.241   5.403  0.00  0.00     0.006 A 
ENDROOT
BRANCH   1   8
ATOM      8  C1  UNL d   1      -5.123   3.159   5.770  0.00  0.00     0.054 C 
ATOM      9  C   UNL d   1      -4.933   1.665   5.992  0.00  0.00     0.018 C 
ENDBRANCH   1   8
TORSDOF 1
ENDMDL
