MODEL 1
REMARK minimizedAffinity 9.36860275
REMARK minimizedRMSD -1
REMARK  1 active torsions:
REMARK  status: ('A' for Active; 'I' for Inactive)
REMARK    1  A    between atoms: C1_2  and  C2_3 
ROOT
ATOM      1  C2  UNL d   1       0.124  -3.076   1.304  0.00  0.00    -0.081 A 
ATOM      2  C3  UNL d   1       0.951  -4.036   0.708  0.00  0.00     0.006 A 
ATOM      3  C4  UNL d   1       2.308  -3.775   0.505  0.00  0.00     0.002 A 
ATOM      4  C5  UNL d   1       2.863  -2.553   0.902  0.00  0.00    -0.080 A 
ATOM      5  C6  UNL d   1       4.324  -2.271   0.718  0.00  0.00     0.076 C 
ATOM      6  C7  UNL d   1       2.033  -1.587   1.481  0.00  0.00     0.002 A 
ATOM      7  C8  UNL d   1       0.676  -1.847   1.684  0.00  0.00     0.006 A 
ENDROOT
BRANCH   1   8
ATOM      8  C1  UNL d   1      -1.325  -3.380   1.583  0.00  0.00     0.054 C 
ATOM      9  C   UNL d   1      -1.872  -2.496   2.695  0.00  0.00     0.018 C 
ENDBRANCH   1   8
TORSDOF 1
ENDMDL
