MODEL 1
REMARK minimizedAffinity 19.168045
REMARK minimizedRMSD -1
REMARK  1 active torsions:
REMARK  status: ('A' for Active; 'I' for Inactive)
REMARK    1  A    between atoms: C1_2  and  C2_3 
ROOT
ATOM      1  C2  UNL d   1      -3.055   1.107  -1.994  0.00  0.00    -0.081 A 
ATOM      2  C3  UNL d   1      -3.419   2.257  -2.705  0.00  0.00     0.006 A 
ATOM      3  C4  UNL d   1      -2.452   3.016  -3.367  0.00  0.00     0.002 A 
ATOM      4  C5  UNL d   1      -1.106   2.634  -3.337  0.00  0.00    -0.080 A 
ATOM      5  C6  UNL d   1      -0.062   3.423  -4.069  0.00  0.00     0.076 C 
ATOM      6  C7  UNL d   1      -0.740   1.495  -2.613  0.00  0.00     0.002 A 
ATOM      7  C8  UNL d   1      -1.707   0.736  -1.950  0.00  0.00     0.006 A 
ENDROOT
BRANCH   1   8
ATOM      8  C1  UNL d   1      -4.104   0.250  -1.333  0.00  0.00     0.054 C 
ATOM      9  C   UNL d   1      -4.205  -1.114  -1.999  0.00  0.00     0.018 C 
ENDBRANCH   1   8
TORSDOF 1
ENDMDL
