MODEL 1
REMARK minimizedAffinity -4.01123524
REMARK minimizedRMSD -1
REMARK  0 active torsions:
REMARK  status: ('A' for Active; 'I' for Inactive)
ROOT
ATOM      1  C   UNL d   1       1.968   1.043  -0.296  0.00  0.00     0.020 A 
ATOM      2  C1  UNL d   1       1.040   1.051  -1.337  0.00  0.00     0.020 A 
ATOM      3  C2  UNL d   1      -0.293   0.718  -1.086  0.00  0.00     0.034 A 
ATOM      4  C3  UNL d   1      -0.702   0.375   0.208  0.00  0.00     0.017 A 
ATOM      5  C4  UNL d   1       0.231   0.367   1.252  0.00  0.00     0.017 A 
ATOM      6  C5  UNL d   1       1.564   0.702   0.995  0.00  0.00     0.034 A 
ATOM      7 Cl   UNL d   1      -0.198  -0.045   2.875  0.00  0.00    -0.070 Cl
ATOM      8 Cl1  UNL d   1      -2.366  -0.025   0.446  0.00  0.00    -0.070 Cl
ENDROOT
TORSDOF 0
ENDMDL
