MODEL 1
REMARK minimizedAffinity -3.49205351
REMARK minimizedRMSD -1
REMARK  0 active torsions:
REMARK  status: ('A' for Active; 'I' for Inactive)
ROOT
ATOM      1  C   UNL d   1      -1.252  -1.120   2.260  0.00  0.00     0.020 A 
ATOM      2  C1  UNL d   1       0.106  -0.836   2.394  0.00  0.00     0.020 A 
ATOM      3  C2  UNL d   1       0.750  -0.040   1.445  0.00  0.00     0.034 A 
ATOM      4  C3  UNL d   1       0.036   0.475   0.357  0.00  0.00     0.017 A 
ATOM      5  C4  UNL d   1      -1.328   0.189   0.223  0.00  0.00     0.017 A 
ATOM      6  C5  UNL d   1      -1.968  -0.608   1.177  0.00  0.00     0.034 A 
ATOM      7 Cl   UNL d   1      -2.276   0.789  -1.092  0.00  0.00    -0.070 Cl
ATOM      8 Cl1  UNL d   1       0.896   1.452  -0.779  0.00  0.00    -0.070 Cl
ENDROOT
TORSDOF 0
ENDMDL
