MODEL 1
REMARK minimizedAffinity -3.84196115
REMARK minimizedRMSD -1
REMARK  0 active torsions:
REMARK  status: ('A' for Active; 'I' for Inactive)
ROOT
ATOM      1  C   UNL d   1       1.793   0.584  -1.338  0.00  0.00     0.020 A 
ATOM      2  C1  UNL d   1       1.410   0.141  -0.072  0.00  0.00     0.020 A 
ATOM      3  C2  UNL d   1       0.912  -1.153   0.093  0.00  0.00     0.034 A 
ATOM      4  C3  UNL d   1       0.795  -2.009  -1.008  0.00  0.00     0.017 A 
ATOM      5  C4  UNL d   1       1.179  -1.563  -2.278  0.00  0.00     0.017 A 
ATOM      6  C5  UNL d   1       1.677  -0.266  -2.438  0.00  0.00     0.034 A 
ATOM      7 Cl   UNL d   1       1.064  -2.561  -3.685  0.00  0.00    -0.070 Cl
ATOM      8 Cl1  UNL d   1       0.171  -3.596  -0.730  0.00  0.00    -0.070 Cl
ENDROOT
TORSDOF 0
ENDMDL
