MODEL 1
REMARK minimizedAffinity -4.0346818
REMARK minimizedRMSD -1
REMARK  0 active torsions:
REMARK  status: ('A' for Active; 'I' for Inactive)
ROOT
ATOM      1  C   UNL d   1      -0.632   1.490  -1.704  0.00  0.00     0.020 A 
ATOM      2  C1  UNL d   1      -1.757   1.190  -0.937  0.00  0.00     0.020 A 
ATOM      3  C2  UNL d   1      -1.618   0.901   0.422  0.00  0.00     0.034 A 
ATOM      4  C3  UNL d   1      -0.351   0.910   1.018  0.00  0.00     0.017 A 
ATOM      5  C4  UNL d   1       0.777   1.211   0.247  0.00  0.00     0.017 A 
ATOM      6  C5  UNL d   1       0.633   1.501  -1.113  0.00  0.00     0.034 A 
ATOM      7 Cl   UNL d   1       2.372   1.242   0.912  0.00  0.00    -0.070 Cl
ATOM      8 Cl1  UNL d   1      -0.254   0.542   2.703  0.00  0.00    -0.070 Cl
ENDROOT
TORSDOF 0
ENDMDL
