MODEL 1
REMARK minimizedAffinity -3.07595921
REMARK minimizedRMSD -1
REMARK  0 active torsions:
REMARK  status: ('A' for Active; 'I' for Inactive)
ROOT
ATOM      1  C   UNL d   1      -0.931   1.014  -1.565  0.00  0.00     0.020 A 
ATOM      2  C1  UNL d   1      -2.067   0.591  -0.875  0.00  0.00     0.020 A 
ATOM      3  C2  UNL d   1      -1.960   0.163   0.450  0.00  0.00     0.034 A 
ATOM      4  C3  UNL d   1      -0.715   0.157   1.089  0.00  0.00     0.017 A 
ATOM      5  C4  UNL d   1       0.425   0.581   0.395  0.00  0.00     0.017 A 
ATOM      6  C5  UNL d   1       0.312   1.009  -0.931  0.00  0.00     0.034 A 
ATOM      7 Cl   UNL d   1       1.995   0.602   1.117  0.00  0.00    -0.070 Cl
ATOM      8 Cl1  UNL d   1      -0.656  -0.386   2.728  0.00  0.00    -0.070 Cl
ENDROOT
TORSDOF 0
ENDMDL
