MODEL 1
REMARK minimizedAffinity -3.32722306
REMARK minimizedRMSD -1
REMARK  0 active torsions:
REMARK  status: ('A' for Active; 'I' for Inactive)
ROOT
ATOM      1  C   UNL d   1      -1.703   0.519  -1.038  0.00  0.00     0.020 A 
ATOM      2  C1  UNL d   1      -0.656   1.289  -1.542  0.00  0.00     0.020 A 
ATOM      3  C2  UNL d   1       0.498   1.481  -0.780  0.00  0.00     0.034 A 
ATOM      4  C3  UNL d   1       0.609   0.902   0.489  0.00  0.00     0.017 A 
ATOM      5  C4  UNL d   1      -0.443   0.129   0.994  0.00  0.00     0.017 A 
ATOM      6  C5  UNL d   1      -1.597  -0.060   0.227  0.00  0.00     0.034 A 
ATOM      7 Cl   UNL d   1      -0.380  -0.618   2.552  0.00  0.00    -0.070 Cl
ATOM      8 Cl1  UNL d   1       2.066   1.181   1.376  0.00  0.00    -0.070 Cl
ENDROOT
TORSDOF 0
ENDMDL
