MODEL 1
REMARK minimizedAffinity -3.21015477
REMARK minimizedRMSD -1
REMARK  0 active torsions:
REMARK  status: ('A' for Active; 'I' for Inactive)
ROOT
ATOM      1  C   UNL d   1       3.694   1.059  -3.813  0.00  0.00     0.020 A 
ATOM      2  C1  UNL d   1       4.271  -0.085  -4.362  0.00  0.00     0.020 A 
ATOM      3  C2  UNL d   1       3.570  -1.293  -4.356  0.00  0.00     0.034 A 
ATOM      4  C3  UNL d   1       2.288  -1.359  -3.799  0.00  0.00     0.017 A 
ATOM      5  C4  UNL d   1       1.709  -0.210  -3.248  0.00  0.00     0.017 A 
ATOM      6  C5  UNL d   1       2.416   0.997  -3.257  0.00  0.00     0.034 A 
ATOM      7 Cl   UNL d   1       0.131  -0.213  -2.543  0.00  0.00    -0.070 Cl
ATOM      8 Cl1  UNL d   1       1.478  -2.885  -3.826  0.00  0.00    -0.070 Cl
ENDROOT
TORSDOF 0
ENDMDL
