MODEL 1
REMARK minimizedAffinity -2.55179453
REMARK minimizedRMSD -1
REMARK  0 active torsions:
REMARK  status: ('A' for Active; 'I' for Inactive)
ROOT
ATOM      1  C   UNL d   1       1.221   1.245  -0.250  0.00  0.00     0.020 A 
ATOM      2  C1  UNL d   1       1.963   1.189   0.929  0.00  0.00     0.020 A 
ATOM      3  C2  UNL d   1       1.416   0.599   2.070  0.00  0.00     0.034 A 
ATOM      4  C3  UNL d   1       0.123   0.065   2.035  0.00  0.00     0.017 A 
ATOM      5  C4  UNL d   1      -0.621   0.122   0.851  0.00  0.00     0.017 A 
ATOM      6  C5  UNL d   1      -0.068   0.713  -0.289  0.00  0.00     0.034 A 
ATOM      7 Cl   UNL d   1      -2.223  -0.516   0.731  0.00  0.00    -0.070 Cl
ATOM      8 Cl1  UNL d   1      -0.491  -0.649   3.484  0.00  0.00    -0.070 Cl
ENDROOT
TORSDOF 0
ENDMDL
