MODEL 1
REMARK minimizedAffinity 5.82495975
REMARK minimizedRMSD -1
REMARK  0 active torsions:
REMARK  status: ('A' for Active; 'I' for Inactive)
ROOT
ATOM      1  C   UNL d   1       2.146   0.214   2.937  0.00  0.00     0.020 A 
ATOM      2  C1  UNL d   1       1.865   1.049   1.857  0.00  0.00     0.020 A 
ATOM      3  C2  UNL d   1       0.554   1.169   1.390  0.00  0.00     0.034 A 
ATOM      4  C3  UNL d   1      -0.480   0.453   2.003  0.00  0.00     0.017 A 
ATOM      5  C4  UNL d   1      -0.197  -0.386   3.088  0.00  0.00     0.017 A 
ATOM      6  C5  UNL d   1       1.118  -0.502   3.551  0.00  0.00     0.034 A 
ATOM      7 Cl   UNL d   1      -1.420  -1.301   3.896  0.00  0.00    -0.070 Cl
ATOM      8 Cl1  UNL d   1      -2.077   0.650   1.374  0.00  0.00    -0.070 Cl
ENDROOT
TORSDOF 0
ENDMDL
