MODEL 1
REMARK minimizedAffinity 5.09662676
REMARK minimizedRMSD -1
REMARK  0 active torsions:
REMARK  status: ('A' for Active; 'I' for Inactive)
ROOT
ATOM      1  C   UNL d   1      -3.790   1.217   3.287  0.00  0.00     0.020 A 
ATOM      2  C1  UNL d   1      -3.097   2.223   2.615  0.00  0.00     0.020 A 
ATOM      3  C2  UNL d   1      -2.840   2.102   1.248  0.00  0.00     0.034 A 
ATOM      4  C3  UNL d   1      -3.276   0.971   0.548  0.00  0.00     0.017 A 
ATOM      5  C4  UNL d   1      -3.971  -0.039   1.223  0.00  0.00     0.017 A 
ATOM      6  C5  UNL d   1      -4.226   0.088   2.592  0.00  0.00     0.034 A 
ATOM      7 Cl   UNL d   1      -4.540  -1.464   0.426  0.00  0.00    -0.070 Cl
ATOM      8 Cl1  UNL d   1      -2.923   0.887  -1.141  0.00  0.00    -0.070 Cl
ENDROOT
TORSDOF 0
ENDMDL
