MODEL 1
REMARK minimizedAffinity -2.58398271
REMARK minimizedRMSD -1
REMARK  0 active torsions:
REMARK  status: ('A' for Active; 'I' for Inactive)
ROOT
ATOM      1  C   UNL d   1       0.436  -0.156   2.823  0.00  0.00     0.020 A 
ATOM      2  C1  UNL d   1       1.401   0.186   1.877  0.00  0.00     0.020 A 
ATOM      3  C2  UNL d   1       1.027   0.430   0.554  0.00  0.00     0.034 A 
ATOM      4  C3  UNL d   1      -0.316   0.334   0.173  0.00  0.00     0.017 A 
ATOM      5  C4  UNL d   1      -1.285  -0.009   1.124  0.00  0.00     0.017 A 
ATOM      6  C5  UNL d   1      -0.904  -0.253   2.447  0.00  0.00     0.034 A 
ATOM      7 Cl   UNL d   1      -2.962  -0.148   0.730  0.00  0.00    -0.070 Cl
ATOM      8 Cl1  UNL d   1      -0.708   0.650  -1.480  0.00  0.00    -0.070 Cl
ENDROOT
TORSDOF 0
ENDMDL
