MODEL 1
REMARK minimizedAffinity -2.30690956
REMARK minimizedRMSD -1
REMARK  0 active torsions:
REMARK  status: ('A' for Active; 'I' for Inactive)
ROOT
ATOM      1  C   UNL d   1       1.577   0.154   2.083  0.00  0.00     0.020 A 
ATOM      2  C1  UNL d   1       0.419   0.719   2.615  0.00  0.00     0.020 A 
ATOM      3  C2  UNL d   1      -0.712   0.882   1.812  0.00  0.00     0.034 A 
ATOM      4  C3  UNL d   1      -0.687   0.479   0.471  0.00  0.00     0.017 A 
ATOM      5  C4  UNL d   1       0.476  -0.088  -0.062  0.00  0.00     0.017 A 
ATOM      6  C5  UNL d   1       1.605  -0.248   0.747  0.00  0.00     0.034 A 
ATOM      7 Cl   UNL d   1       0.583  -0.609  -1.707  0.00  0.00    -0.070 Cl
ATOM      8 Cl1  UNL d   1      -2.122   0.710  -0.464  0.00  0.00    -0.070 Cl
ENDROOT
TORSDOF 0
ENDMDL
