MODEL 1
REMARK minimizedAffinity -1.55551457
REMARK minimizedRMSD -1
REMARK  0 active torsions:
REMARK  status: ('A' for Active; 'I' for Inactive)
ROOT
ATOM      1  C   UNL d   1      -1.031  -0.680   2.484  0.00  0.00     0.020 A 
ATOM      2  C1  UNL d   1       0.173  -1.266   2.097  0.00  0.00     0.020 A 
ATOM      3  C2  UNL d   1       0.621  -1.137   0.781  0.00  0.00     0.034 A 
ATOM      4  C3  UNL d   1      -0.136  -0.420  -0.153  0.00  0.00     0.017 A 
ATOM      5  C4  UNL d   1      -1.344   0.168   0.236  0.00  0.00     0.017 A 
ATOM      6  C5  UNL d   1      -1.788   0.036   1.556  0.00  0.00     0.034 A 
ATOM      7 Cl   UNL d   1      -2.333   1.068  -0.859  0.00  0.00    -0.070 Cl
ATOM      8 Cl1  UNL d   1       0.479  -0.300  -1.764  0.00  0.00    -0.070 Cl
ENDROOT
TORSDOF 0
ENDMDL
