MODEL 1
REMARK minimizedAffinity -3.14973927
REMARK minimizedRMSD -1
REMARK  1 active torsions:
REMARK  status: ('A' for Active; 'I' for Inactive)
REMARK    1  A    between atoms: C1_2  and  C2_3 
ROOT
ATOM      1  C2  UNL d   1       0.059  -0.432  -0.097  0.00  0.00    -0.073 A 
ATOM      2  C3  UNL d   1       0.518   0.870  -0.327  0.00  0.00    -0.002 A 
ATOM      3  C4  UNL d   1      -0.050   1.947   0.355  0.00  0.00     0.004 A 
ATOM      4  C5  UNL d   1      -1.074   1.733   1.277  0.00  0.00    -0.004 A 
ATOM      5  C6  UNL d   1      -1.538   0.438   1.529  0.00  0.00    -0.075 A 
ATOM      6  C7  UNL d   1      -2.641   0.192   2.515  0.00  0.00     0.076 C 
ATOM      7  C8  UNL d   1      -0.966  -0.638   0.838  0.00  0.00     0.001 A 
ENDROOT
BRANCH   1   8
ATOM      8  C1  UNL d   1       0.673  -1.600  -0.827  0.00  0.00     0.053 C 
ATOM      9  C   UNL d   1       1.941  -1.206  -1.567  0.00  0.00     0.018 C 
ENDBRANCH   1   8
TORSDOF 1
ENDMDL
