MODEL 1
REMARK minimizedAffinity -1.71681643
REMARK minimizedRMSD -1
REMARK  1 active torsions:
REMARK  status: ('A' for Active; 'I' for Inactive)
REMARK    1  A    between atoms: C1_2  and  C2_3 
ROOT
ATOM      1  C2  UNL d   1       0.295   0.232  -0.992  0.00  0.00    -0.073 A 
ATOM      2  C3  UNL d   1       1.397   0.083  -1.842  0.00  0.00    -0.002 A 
ATOM      3  C4  UNL d   1       2.101  -1.121  -1.880  0.00  0.00     0.004 A 
ATOM      4  C5  UNL d   1       1.708  -2.190  -1.074  0.00  0.00    -0.004 A 
ATOM      5  C6  UNL d   1       0.602  -2.065  -0.227  0.00  0.00    -0.075 A 
ATOM      6  C7  UNL d   1       0.168  -3.204   0.648  0.00  0.00     0.076 C 
ATOM      7  C8  UNL d   1      -0.098  -0.851  -0.192  0.00  0.00     0.001 A 
ENDROOT
BRANCH   1   8
ATOM      8  C1  UNL d   1      -0.472   1.528  -0.952  0.00  0.00     0.053 C 
ATOM      9  C   UNL d   1       0.355   2.695  -1.467  0.00  0.00     0.018 C 
ENDBRANCH   1   8
TORSDOF 1
ENDMDL
