MODEL 1
REMARK minimizedAffinity -5.57122278
REMARK minimizedRMSD -1
REMARK  1 active torsions:
REMARK  status: ('A' for Active; 'I' for Inactive)
REMARK    1  A    between atoms: C1_2  and  C2_3 
ROOT
ATOM      1  C2  UNL d   1       0.199   0.470  -0.627  0.00  0.00    -0.073 A 
ATOM      2  C3  UNL d   1       1.342   0.451  -1.433  0.00  0.00    -0.002 A 
ATOM      3  C4  UNL d   1       2.006  -0.751  -1.686  0.00  0.00     0.004 A 
ATOM      4  C5  UNL d   1       1.529  -1.944  -1.142  0.00  0.00    -0.004 A 
ATOM      5  C6  UNL d   1       0.381  -1.946  -0.343  0.00  0.00    -0.075 A 
ATOM      6  C7  UNL d   1      -0.143  -3.220   0.251  0.00  0.00     0.076 C 
ATOM      7  C8  UNL d   1      -0.278  -0.735  -0.092  0.00  0.00     0.001 A 
ENDROOT
BRANCH   1   8
ATOM      8  C1  UNL d   1      -0.525   1.764  -0.356  0.00  0.00     0.053 C 
ATOM      9  C   UNL d   1      -0.174   2.837  -1.375  0.00  0.00     0.018 C 
ENDBRANCH   1   8
TORSDOF 1
ENDMDL
