MODEL 1
REMARK minimizedAffinity -1.72437572
REMARK minimizedRMSD -1
REMARK  1 active torsions:
REMARK  status: ('A' for Active; 'I' for Inactive)
REMARK    1  A    between atoms: C1_2  and  C2_3 
ROOT
ATOM      1  C2  UNL d   1       4.784   1.572   3.464  0.00  0.00    -0.073 A 
ATOM      2  C3  UNL d   1       5.191   2.740   4.119  0.00  0.00    -0.002 A 
ATOM      3  C4  UNL d   1       5.791   2.671   5.377  0.00  0.00     0.004 A 
ATOM      4  C5  UNL d   1       5.996   1.435   5.989  0.00  0.00    -0.004 A 
ATOM      5  C6  UNL d   1       5.606   0.255   5.346  0.00  0.00    -0.075 A 
ATOM      6  C7  UNL d   1       5.817  -1.082   5.993  0.00  0.00     0.076 C 
ATOM      7  C8  UNL d   1       5.002   0.334   4.084  0.00  0.00     0.001 A 
ENDROOT
BRANCH   1   8
ATOM      8  C1  UNL d   1       4.142   1.642   2.103  0.00  0.00     0.053 C 
ATOM      9  C   UNL d   1       4.283   3.020   1.476  0.00  0.00     0.018 C 
ENDBRANCH   1   8
TORSDOF 1
ENDMDL
