MODEL 1
REMARK minimizedAffinity -1.21169126
REMARK minimizedRMSD -1
REMARK  1 active torsions:
REMARK  status: ('A' for Active; 'I' for Inactive)
REMARK    1  A    between atoms: C1_2  and  C2_3 
ROOT
ATOM      1  C2  UNL d   1       0.099   0.925  -0.247  0.00  0.00    -0.073 A 
ATOM      2  C3  UNL d   1      -0.862   0.204   0.470  0.00  0.00    -0.002 A 
ATOM      3  C4  UNL d   1      -0.881  -1.190   0.419  0.00  0.00     0.004 A 
ATOM      4  C5  UNL d   1       0.065  -1.877  -0.343  0.00  0.00    -0.004 A 
ATOM      5  C6  UNL d   1       1.041  -1.175  -1.057  0.00  0.00    -0.075 A 
ATOM      6  C7  UNL d   1       2.063  -1.899  -1.883  0.00  0.00     0.076 C 
ATOM      7  C8  UNL d   1       1.050   0.226  -1.003  0.00  0.00     0.001 A 
ENDROOT
BRANCH   1   8
ATOM      8  C1  UNL d   1       0.126   2.431  -0.190  0.00  0.00     0.053 C 
ATOM      9  C   UNL d   1      -0.058   3.057  -1.563  0.00  0.00     0.018 C 
ENDBRANCH   1   8
TORSDOF 1
ENDMDL
