MODEL 1
REMARK minimizedAffinity -3.74098372
REMARK minimizedRMSD -1
REMARK  1 active torsions:
REMARK  status: ('A' for Active; 'I' for Inactive)
REMARK    1  A    between atoms: C1_2  and  C2_3 
ROOT
ATOM      1  C2  UNL d   1       0.608  -0.112  -0.696  0.00  0.00    -0.073 A 
ATOM      2  C3  UNL d   1       0.734   1.165  -1.255  0.00  0.00    -0.002 A 
ATOM      3  C4  UNL d   1      -0.163   2.177  -0.911  0.00  0.00     0.004 A 
ATOM      4  C5  UNL d   1      -1.190   1.925  -0.000  0.00  0.00    -0.004 A 
ATOM      5  C6  UNL d   1      -1.325   0.659   0.578  0.00  0.00    -0.075 A 
ATOM      6  C7  UNL d   1      -2.425   0.371   1.557  0.00  0.00     0.076 C 
ATOM      7  C8  UNL d   1      -0.422  -0.353   0.225  0.00  0.00     0.001 A 
ENDROOT
BRANCH   1   8
ATOM      8  C1  UNL d   1       1.578  -1.206  -1.059  0.00  0.00     0.053 C 
ATOM      9  C   UNL d   1       2.564  -0.761  -2.128  0.00  0.00     0.018 C 
ENDBRANCH   1   8
TORSDOF 1
ENDMDL
