MODEL 1
REMARK minimizedAffinity -3.27982378
REMARK minimizedRMSD -1
REMARK  1 active torsions:
REMARK  status: ('A' for Active; 'I' for Inactive)
REMARK    1  A    between atoms: C1_2  and  C2_3 
ROOT
ATOM      1  C2  UNL d   1      -0.200   0.787  -0.325  0.00  0.00    -0.073 A 
ATOM      2  C3  UNL d   1      -0.913  -0.045   0.545  0.00  0.00    -0.002 A 
ATOM      3  C4  UNL d   1      -0.639  -1.412   0.595  0.00  0.00     0.004 A 
ATOM      4  C5  UNL d   1       0.353  -1.960  -0.217  0.00  0.00    -0.004 A 
ATOM      5  C6  UNL d   1       1.085  -1.142  -1.085  0.00  0.00    -0.075 A 
ATOM      6  C7  UNL d   1       2.154  -1.716  -1.967  0.00  0.00     0.076 C 
ATOM      7  C8  UNL d   1       0.802   0.229  -1.131  0.00  0.00     0.001 A 
ENDROOT
BRANCH   1   8
ATOM      8  C1  UNL d   1      -0.488   2.265  -0.378  0.00  0.00     0.053 C 
ATOM      9  C   UNL d   1       0.227   2.944  -1.536  0.00  0.00     0.018 C 
ENDBRANCH   1   8
TORSDOF 1
ENDMDL
