MODEL 1
REMARK minimizedAffinity -5.73351812
REMARK minimizedRMSD -1
REMARK  1 active torsions:
REMARK  status: ('A' for Active; 'I' for Inactive)
REMARK    1  A    between atoms: C1_2  and  C2_3 
ROOT
ATOM      1  C2  UNL d   1       0.169   0.374   0.502  0.00  0.00    -0.073 A 
ATOM      2  C3  UNL d   1      -0.492  -0.859   0.462  0.00  0.00    -0.002 A 
ATOM      3  C4  UNL d   1       0.134  -1.977  -0.091  0.00  0.00     0.004 A 
ATOM      4  C5  UNL d   1       1.428  -1.876  -0.603  0.00  0.00    -0.004 A 
ATOM      5  C6  UNL d   1       2.109  -0.655  -0.561  0.00  0.00    -0.075 A 
ATOM      6  C7  UNL d   1       3.500  -0.529  -1.110  0.00  0.00     0.076 C 
ATOM      7  C8  UNL d   1       1.473   0.464  -0.007  0.00  0.00     0.001 A 
ENDROOT
BRANCH   1   8
ATOM      8  C1  UNL d   1      -0.501   1.582   1.105  0.00  0.00     0.053 C 
ATOM      9  C   UNL d   1      -1.941   1.297   1.500  0.00  0.00     0.018 C 
ENDBRANCH   1   8
TORSDOF 1
ENDMDL
