MODEL 1
REMARK minimizedAffinity -3.253263
REMARK minimizedRMSD -1
REMARK  0 active torsions:
REMARK  status: ('A' for Active; 'I' for Inactive)
ROOT
ATOM      1  C   UNL d   1      -1.069  -1.313   0.898  0.00  0.00     0.077 C 
ATOM      2  C1  UNL d   1      -0.300  -0.029   0.817  0.00  0.00    -0.074 A 
ATOM      3  C2  UNL d   1      -0.673   1.082   1.580  0.00  0.00    -0.005 A 
ATOM      4  C3  UNL d   1       0.059   2.268   1.500  0.00  0.00     0.006 A 
ATOM      5  C4  UNL d   1       1.168   2.354   0.658  0.00  0.00    -0.005 A 
ATOM      6  C5  UNL d   1       1.556   1.253  -0.112  0.00  0.00    -0.074 A 
ATOM      7  C6  UNL d   1       2.752   1.326  -1.014  0.00  0.00     0.077 C 
ATOM      8  C7  UNL d   1       0.821   0.063  -0.021  0.00  0.00    -0.001 A 
ENDROOT
TORSDOF 0
ENDMDL
