MODEL 1
REMARK minimizedAffinity -3.14029336
REMARK minimizedRMSD -1
REMARK  0 active torsions:
REMARK  status: ('A' for Active; 'I' for Inactive)
ROOT
ATOM      1  C   UNL d   1      -0.854   0.669   3.114  0.00  0.00     0.077 C 
ATOM      2  C1  UNL d   1      -0.932  -0.559   2.257  0.00  0.00    -0.074 A 
ATOM      3  C2  UNL d   1      -1.206  -1.811   2.817  0.00  0.00    -0.005 A 
ATOM      4  C3  UNL d   1      -1.284  -2.943   2.005  0.00  0.00     0.006 A 
ATOM      5  C4  UNL d   1      -1.090  -2.834   0.628  0.00  0.00    -0.005 A 
ATOM      6  C5  UNL d   1      -0.816  -1.591   0.050  0.00  0.00    -0.074 A 
ATOM      7  C6  UNL d   1      -0.614  -1.455  -1.430  0.00  0.00     0.077 C 
ATOM      8  C7  UNL d   1      -0.745  -0.457   0.871  0.00  0.00    -0.001 A 
ENDROOT
TORSDOF 0
ENDMDL
