MODEL 1
REMARK minimizedAffinity -4.12547636
REMARK minimizedRMSD -1
REMARK  0 active torsions:
REMARK  status: ('A' for Active; 'I' for Inactive)
ROOT
ATOM      1  C   UNL d   1       0.979   2.417   1.374  0.00  0.00     0.077 C 
ATOM      2  C1  UNL d   1       1.074   1.067   0.727  0.00  0.00    -0.074 A 
ATOM      3  C2  UNL d   1       2.228   0.680   0.037  0.00  0.00    -0.005 A 
ATOM      4  C3  UNL d   1       2.305  -0.582  -0.551  0.00  0.00     0.006 A 
ATOM      5  C4  UNL d   1       1.231  -1.469  -0.456  0.00  0.00    -0.005 A 
ATOM      6  C5  UNL d   1       0.070  -1.100   0.230  0.00  0.00    -0.074 A 
ATOM      7  C6  UNL d   1      -1.089  -2.044   0.350  0.00  0.00     0.077 C 
ATOM      8  C7  UNL d   1       0.003   0.168   0.825  0.00  0.00    -0.001 A 
ENDROOT
TORSDOF 0
ENDMDL
