MODEL 1
REMARK minimizedAffinity -3.70934701
REMARK minimizedRMSD -1
REMARK  0 active torsions:
REMARK  status: ('A' for Active; 'I' for Inactive)
ROOT
ATOM      1  C   UNL d   1       0.666   2.638   1.242  0.00  0.00     0.077 C 
ATOM      2  C1  UNL d   1       0.996   1.341   0.564  0.00  0.00    -0.074 A 
ATOM      3  C2  UNL d   1       2.254   1.129  -0.008  0.00  0.00    -0.005 A 
ATOM      4  C3  UNL d   1       2.549  -0.086  -0.627  0.00  0.00     0.006 A 
ATOM      5  C4  UNL d   1       1.590  -1.098  -0.681  0.00  0.00    -0.005 A 
ATOM      6  C5  UNL d   1       0.327  -0.904  -0.113  0.00  0.00    -0.074 A 
ATOM      7  C6  UNL d   1      -0.711  -1.986  -0.153  0.00  0.00     0.077 C 
ATOM      8  C7  UNL d   1       0.040   0.316   0.513  0.00  0.00    -0.001 A 
ENDROOT
TORSDOF 0
ENDMDL
