MODEL 1
REMARK minimizedAffinity -3.78355885
REMARK minimizedRMSD -1
REMARK  0 active torsions:
REMARK  status: ('A' for Active; 'I' for Inactive)
ROOT
ATOM      1  C   UNL d   1       2.235  -1.211  -1.325  0.00  0.00     0.077 C 
ATOM      2  C1  UNL d   1       1.325  -0.382  -0.468  0.00  0.00    -0.074 A 
ATOM      3  C2  UNL d   1       0.090  -0.880  -0.040  0.00  0.00    -0.005 A 
ATOM      4  C3  UNL d   1      -0.741  -0.101   0.765  0.00  0.00     0.006 A 
ATOM      5  C4  UNL d   1      -0.346   1.181   1.149  0.00  0.00    -0.005 A 
ATOM      6  C5  UNL d   1       0.885   1.695   0.732  0.00  0.00    -0.074 A 
ATOM      7  C6  UNL d   1       1.329   3.067   1.144  0.00  0.00     0.077 C 
ATOM      8  C7  UNL d   1       1.718   0.904  -0.071  0.00  0.00    -0.001 A 
ENDROOT
TORSDOF 0
ENDMDL
