MODEL 1
REMARK minimizedAffinity -1.77302206
REMARK minimizedRMSD -1
REMARK  0 active torsions:
REMARK  status: ('A' for Active; 'I' for Inactive)
ROOT
ATOM      1  C   UNL d   1      -1.513  -3.173   2.213  0.00  0.00     0.077 C 
ATOM      2  C1  UNL d   1      -1.303  -3.568   0.781  0.00  0.00    -0.074 A 
ATOM      3  C2  UNL d   1      -0.654  -4.763   0.453  0.00  0.00    -0.005 A 
ATOM      4  C3  UNL d   1      -0.474  -5.121  -0.882  0.00  0.00     0.006 A 
ATOM      5  C4  UNL d   1      -0.941  -4.291  -1.902  0.00  0.00    -0.005 A 
ATOM      6  C5  UNL d   1      -1.593  -3.093  -1.593  0.00  0.00    -0.074 A 
ATOM      7  C6  UNL d   1      -2.109  -2.194  -2.677  0.00  0.00     0.077 C 
ATOM      8  C7  UNL d   1      -1.776  -2.743  -0.248  0.00  0.00    -0.001 A 
ENDROOT
TORSDOF 0
ENDMDL
