MODEL 1
REMARK minimizedAffinity -2.62091517
REMARK minimizedRMSD -1
REMARK  0 active torsions:
REMARK  status: ('A' for Active; 'I' for Inactive)
ROOT
ATOM      1  C   UNL d   1      -0.621   1.302   2.686  0.00  0.00     0.077 C 
ATOM      2  C1  UNL d   1       0.252   1.475   1.479  0.00  0.00    -0.074 A 
ATOM      3  C2  UNL d   1       0.879   2.697   1.215  0.00  0.00    -0.005 A 
ATOM      4  C3  UNL d   1       1.696   2.841   0.094  0.00  0.00     0.006 A 
ATOM      5  C4  UNL d   1       1.894   1.766  -0.774  0.00  0.00    -0.005 A 
ATOM      6  C5  UNL d   1       1.276   0.536  -0.526  0.00  0.00    -0.074 A 
ATOM      7  C6  UNL d   1       1.486  -0.632  -1.443  0.00  0.00     0.077 C 
ATOM      8  C7  UNL d   1       0.462   0.398   0.607  0.00  0.00    -0.001 A 
ENDROOT
TORSDOF 0
ENDMDL
