MODEL 1
REMARK minimizedAffinity -4.56647491
REMARK minimizedRMSD -1
REMARK  0 active torsions:
REMARK  status: ('A' for Active; 'I' for Inactive)
ROOT
ATOM      1  C   UNL d   1      -0.038   1.961   1.326  0.00  0.00     0.077 C 
ATOM      2  C1  UNL d   1      -0.225   0.491   1.093  0.00  0.00    -0.074 A 
ATOM      3  C2  UNL d   1       0.220  -0.111  -0.088  0.00  0.00    -0.005 A 
ATOM      4  C3  UNL d   1       0.048  -1.481  -0.287  0.00  0.00     0.006 A 
ATOM      5  C4  UNL d   1      -0.570  -2.261   0.692  0.00  0.00    -0.005 A 
ATOM      6  C5  UNL d   1      -1.020  -1.676   1.880  0.00  0.00    -0.074 A 
ATOM      7  C6  UNL d   1      -1.677  -2.501   2.946  0.00  0.00     0.077 C 
ATOM      8  C7  UNL d   1      -0.837  -0.300   2.075  0.00  0.00    -0.001 A 
ENDROOT
TORSDOF 0
ENDMDL
