MODEL 1
REMARK minimizedAffinity -3.88747668
REMARK minimizedRMSD -1
REMARK  0 active torsions:
REMARK  status: ('A' for Active; 'I' for Inactive)
ROOT
ATOM      1  C   UNL d   1       0.929   2.598   0.864  0.00  0.00     0.077 C 
ATOM      2  C1  UNL d   1       1.143   1.279   0.184  0.00  0.00    -0.074 A 
ATOM      3  C2  UNL d   1       2.378   0.957  -0.388  0.00  0.00    -0.005 A 
ATOM      4  C3  UNL d   1       2.566  -0.277  -1.009  0.00  0.00     0.006 A 
ATOM      5  C4  UNL d   1       1.522  -1.202  -1.064  0.00  0.00    -0.005 A 
ATOM      6  C5  UNL d   1       0.280  -0.899  -0.497  0.00  0.00    -0.074 A 
ATOM      7  C6  UNL d   1      -0.849  -1.885  -0.539  0.00  0.00     0.077 C 
ATOM      8  C7  UNL d   1       0.102   0.342   0.131  0.00  0.00    -0.001 A 
ENDROOT
TORSDOF 0
ENDMDL
