MODEL 1
REMARK minimizedAffinity -2.90618014
REMARK minimizedRMSD -1
REMARK  0 active torsions:
REMARK  status: ('A' for Active; 'I' for Inactive)
ROOT
ATOM      1  C   UNL d   1       0.842  -0.161  -0.627  0.00  0.00     0.077 C 
ATOM      2  C1  UNL d   1      -0.243  -1.170  -0.864  0.00  0.00    -0.074 A 
ATOM      3  C2  UNL d   1      -0.574  -2.113   0.114  0.00  0.00    -0.005 A 
ATOM      4  C3  UNL d   1      -1.591  -3.038  -0.117  0.00  0.00     0.006 A 
ATOM      5  C4  UNL d   1      -2.286  -3.031  -1.327  0.00  0.00    -0.005 A 
ATOM      6  C5  UNL d   1      -1.970  -2.095  -2.317  0.00  0.00    -0.074 A 
ATOM      7  C6  UNL d   1      -2.714  -2.067  -3.619  0.00  0.00     0.077 C 
ATOM      8  C7  UNL d   1      -0.951  -1.164  -2.074  0.00  0.00    -0.001 A 
ENDROOT
TORSDOF 0
ENDMDL
