MODEL 1
REMARK minimizedAffinity -1.51755536
REMARK minimizedRMSD -1
REMARK  0 active torsions:
REMARK  status: ('A' for Active; 'I' for Inactive)
ROOT
ATOM      1  C   UNL d   1      -0.077  -1.116  -0.696  0.00  0.00     0.077 C 
ATOM      2  C1  UNL d   1      -1.295  -1.405  -1.521  0.00  0.00    -0.074 A 
ATOM      3  C2  UNL d   1      -1.394  -0.952  -2.841  0.00  0.00    -0.005 A 
ATOM      4  C3  UNL d   1      -2.530  -1.237  -3.599  0.00  0.00     0.006 A 
ATOM      5  C4  UNL d   1      -3.577  -1.976  -3.046  0.00  0.00    -0.005 A 
ATOM      6  C5  UNL d   1      -3.496  -2.437  -1.728  0.00  0.00    -0.074 A 
ATOM      7  C6  UNL d   1      -4.607  -3.241  -1.122  0.00  0.00     0.077 C 
ATOM      8  C7  UNL d   1      -2.348  -2.153  -0.975  0.00  0.00    -0.001 A 
ENDROOT
TORSDOF 0
ENDMDL
