MODEL 1
REMARK minimizedAffinity -4.43095636
REMARK minimizedRMSD -1
REMARK  0 active torsions:
REMARK  status: ('A' for Active; 'I' for Inactive)
ROOT
ATOM      1  C   UNL d   1       1.562   3.193   0.798  0.00  0.00     0.077 C 
ATOM      2  C1  UNL d   1       1.491   1.780   0.302  0.00  0.00    -0.074 A 
ATOM      3  C2  UNL d   1       2.471   1.268  -0.555  0.00  0.00    -0.005 A 
ATOM      4  C3  UNL d   1       2.396  -0.051  -1.001  0.00  0.00     0.006 A 
ATOM      5  C4  UNL d   1       1.343  -0.871  -0.595  0.00  0.00    -0.005 A 
ATOM      6  C5  UNL d   1       0.354  -0.378   0.262  0.00  0.00    -0.074 A 
ATOM      7  C6  UNL d   1      -0.780  -1.249   0.715  0.00  0.00     0.077 C 
ATOM      8  C7  UNL d   1       0.440   0.947   0.711  0.00  0.00    -0.001 A 
ENDROOT
TORSDOF 0
ENDMDL
