MODEL 1
REMARK minimizedAffinity 0.0704571903
REMARK minimizedRMSD -1
REMARK  0 active torsions:
REMARK  status: ('A' for Active; 'I' for Inactive)
ROOT
ATOM      1  C   UNL d   1       0.426   0.778  -0.603  0.00  0.00     0.077 C 
ATOM      2  C1  UNL d   1      -0.481  -0.387  -0.865  0.00  0.00    -0.074 A 
ATOM      3  C2  UNL d   1      -0.651  -1.394   0.091  0.00  0.00    -0.005 A 
ATOM      4  C3  UNL d   1      -1.505  -2.468  -0.163  0.00  0.00     0.006 A 
ATOM      5  C4  UNL d   1      -2.197  -2.545  -1.372  0.00  0.00    -0.005 A 
ATOM      6  C5  UNL d   1      -2.040  -1.547  -2.339  0.00  0.00    -0.074 A 
ATOM      7  C6  UNL d   1      -2.783  -1.609  -3.641  0.00  0.00     0.077 C 
ATOM      8  C7  UNL d   1      -1.185  -0.468  -2.074  0.00  0.00    -0.001 A 
ENDROOT
TORSDOF 0
ENDMDL
