MODEL 1
REMARK minimizedAffinity -4.22793245
REMARK minimizedRMSD -1
REMARK  0 active torsions:
REMARK  status: ('A' for Active; 'I' for Inactive)
ROOT
ATOM      1  C   UNL d   1      -1.611   1.034   2.306  0.00  0.00     0.077 C 
ATOM      2  C1  UNL d   1      -0.442   1.018   1.367  0.00  0.00    -0.074 A 
ATOM      3  C2  UNL d   1       0.397   2.130   1.244  0.00  0.00    -0.005 A 
ATOM      4  C3  UNL d   1       1.486   2.097   0.373  0.00  0.00     0.006 A 
ATOM      5  C4  UNL d   1       1.747   0.953  -0.383  0.00  0.00    -0.005 A 
ATOM      6  C5  UNL d   1       0.920  -0.169  -0.272  0.00  0.00    -0.074 A 
ATOM      7  C6  UNL d   1       1.192  -1.410  -1.070  0.00  0.00     0.077 C 
ATOM      8  C7  UNL d   1      -0.168  -0.130   0.610  0.00  0.00    -0.001 A 
ENDROOT
TORSDOF 0
ENDMDL
