MODEL 1
REMARK minimizedAffinity -3.30303001
REMARK minimizedRMSD -1
REMARK  0 active torsions:
REMARK  status: ('A' for Active; 'I' for Inactive)
ROOT
ATOM      1  C   UNL d   1      -0.053   1.862   1.404  0.00  0.00     0.077 C 
ATOM      2  C1  UNL d   1      -0.168   0.421   1.003  0.00  0.00    -0.074 A 
ATOM      3  C2  UNL d   1       0.180   0.003  -0.285  0.00  0.00    -0.005 A 
ATOM      4  C3  UNL d   1       0.077  -1.342  -0.640  0.00  0.00     0.006 A 
ATOM      5  C4  UNL d   1      -0.374  -2.281   0.288  0.00  0.00    -0.005 A 
ATOM      6  C5  UNL d   1      -0.726  -1.882   1.581  0.00  0.00    -0.074 A 
ATOM      7  C6  UNL d   1      -1.203  -2.880   2.594  0.00  0.00     0.077 C 
ATOM      8  C7  UNL d   1      -0.613  -0.530   1.932  0.00  0.00    -0.001 A 
ENDROOT
TORSDOF 0
ENDMDL
