MODEL 1
REMARK minimizedAffinity -4.23297787
REMARK minimizedRMSD -1
REMARK  0 active torsions:
REMARK  status: ('A' for Active; 'I' for Inactive)
ROOT
ATOM      1  C   UNL d   1      -3.372  -2.635  -0.887  0.00  0.00     0.077 C 
ATOM      2  C1  UNL d   1      -2.472  -3.048   0.239  0.00  0.00    -0.074 A 
ATOM      3  C2  UNL d   1      -2.308  -2.232   1.364  0.00  0.00    -0.005 A 
ATOM      4  C3  UNL d   1      -1.474  -2.634   2.408  0.00  0.00     0.006 A 
ATOM      5  C4  UNL d   1      -0.799  -3.852   2.339  0.00  0.00    -0.005 A 
ATOM      6  C5  UNL d   1      -0.952  -4.681   1.223  0.00  0.00    -0.074 A 
ATOM      7  C6  UNL d   1      -0.240  -5.999   1.137  0.00  0.00     0.077 C 
ATOM      8  C7  UNL d   1      -1.796  -4.274   0.181  0.00  0.00    -0.001 A 
ENDROOT
TORSDOF 0
ENDMDL
