MODEL 1
REMARK minimizedAffinity -0.308852851
REMARK minimizedRMSD -1
REMARK  0 active torsions:
REMARK  status: ('A' for Active; 'I' for Inactive)
ROOT
ATOM      1  C   UNL d   1       0.213   1.902   0.972  0.00  0.00     0.077 C 
ATOM      2  C1  UNL d   1      -0.193   0.500   0.629  0.00  0.00    -0.074 A 
ATOM      3  C2  UNL d   1      -0.803  -0.325   1.580  0.00  0.00    -0.005 A 
ATOM      4  C3  UNL d   1      -1.184  -1.624   1.243  0.00  0.00     0.006 A 
ATOM      5  C4  UNL d   1      -0.960  -2.110  -0.046  0.00  0.00    -0.005 A 
ATOM      6  C5  UNL d   1      -0.352  -1.299  -1.010  0.00  0.00    -0.074 A 
ATOM      7  C6  UNL d   1      -0.113  -1.803  -2.402  0.00  0.00     0.077 C 
ATOM      8  C7  UNL d   1       0.021   0.007  -0.666  0.00  0.00    -0.001 A 
ENDROOT
TORSDOF 0
ENDMDL
