MODEL 1
REMARK minimizedAffinity -2.39499497
REMARK minimizedRMSD -1
REMARK  0 active torsions:
REMARK  status: ('A' for Active; 'I' for Inactive)
ROOT
ATOM      1  C   UNL d   1       4.114   2.434   1.866  0.00  0.00     0.077 C 
ATOM      2  C1  UNL d   1       2.730   2.570   1.305  0.00  0.00    -0.074 A 
ATOM      3  C2  UNL d   1       2.100   3.817   1.241  0.00  0.00    -0.005 A 
ATOM      4  C3  UNL d   1       0.816   3.930   0.708  0.00  0.00     0.006 A 
ATOM      5  C4  UNL d   1       0.150   2.798   0.235  0.00  0.00    -0.005 A 
ATOM      6  C5  UNL d   1       0.764   1.543   0.290  0.00  0.00    -0.074 A 
ATOM      7  C6  UNL d   1       0.066   0.319  -0.223  0.00  0.00     0.077 C 
ATOM      8  C7  UNL d   1       2.057   1.439   0.821  0.00  0.00    -0.001 A 
ENDROOT
TORSDOF 0
ENDMDL
