MODEL 1
REMARK minimizedAffinity 9.61773205
REMARK minimizedRMSD -1
REMARK  0 active torsions:
REMARK  status: ('A' for Active; 'I' for Inactive)
ROOT
ATOM      1  C   UNL d   1       0.676   4.874   2.306  0.00  0.00     0.077 C 
ATOM      2  C1  UNL d   1       1.530   3.931   1.513  0.00  0.00    -0.074 A 
ATOM      3  C2  UNL d   1       1.300   2.552   1.547  0.00  0.00    -0.005 A 
ATOM      4  C3  UNL d   1       2.096   1.687   0.796  0.00  0.00     0.006 A 
ATOM      5  C4  UNL d   1       3.129   2.192   0.005  0.00  0.00    -0.005 A 
ATOM      6  C5  UNL d   1       3.373   3.568  -0.043  0.00  0.00    -0.074 A 
ATOM      7  C6  UNL d   1       4.472   4.128  -0.895  0.00  0.00     0.077 C 
ATOM      8  C7  UNL d   1       2.564   4.431   0.709  0.00  0.00    -0.001 A 
ENDROOT
TORSDOF 0
ENDMDL
