MODEL 1
REMARK minimizedAffinity -3.02278686
REMARK minimizedRMSD -1
REMARK  0 active torsions:
REMARK  status: ('A' for Active; 'I' for Inactive)
ROOT
ATOM      1  C   UNL d   1      -0.265  -1.700   1.226  0.00  0.00     0.077 C 
ATOM      2  C1  UNL d   1       0.116  -0.352   0.691  0.00  0.00    -0.074 A 
ATOM      3  C2  UNL d   1      -0.456   0.144  -0.484  0.00  0.00    -0.005 A 
ATOM      4  C3  UNL d   1      -0.099   1.404  -0.964  0.00  0.00     0.006 A 
ATOM      5  C4  UNL d   1       0.834   2.179  -0.274  0.00  0.00    -0.005 A 
ATOM      6  C5  UNL d   1       1.416   1.701   0.904  0.00  0.00    -0.074 A 
ATOM      7  C6  UNL d   1       2.413   2.526   1.663  0.00  0.00     0.077 C 
ATOM      8  C7  UNL d   1       1.047   0.437   1.383  0.00  0.00    -0.001 A 
ENDROOT
TORSDOF 0
ENDMDL
