MODEL 1
REMARK minimizedAffinity -2.08318329
REMARK minimizedRMSD -1
REMARK  0 active torsions:
REMARK  status: ('A' for Active; 'I' for Inactive)
ROOT
ATOM      1  C   UNL d   1      -0.012   2.535   0.599  0.00  0.00     0.077 C 
ATOM      2  C1  UNL d   1      -0.034   1.164  -0.009  0.00  0.00    -0.074 A 
ATOM      3  C2  UNL d   1       0.272   0.971  -1.360  0.00  0.00    -0.005 A 
ATOM      4  C3  UNL d   1       0.257  -0.311  -1.909  0.00  0.00     0.006 A 
ATOM      5  C4  UNL d   1      -0.065  -1.412  -1.114  0.00  0.00    -0.005 A 
ATOM      6  C5  UNL d   1      -0.374  -1.239   0.239  0.00  0.00    -0.074 A 
ATOM      7  C6  UNL d   1      -0.712  -2.412   1.110  0.00  0.00     0.077 C 
ATOM      8  C7  UNL d   1      -0.349   0.052   0.785  0.00  0.00    -0.001 A 
ENDROOT
TORSDOF 0
ENDMDL
