MODEL 1
REMARK minimizedAffinity 2.18122911
REMARK minimizedRMSD -1
REMARK  0 active torsions:
REMARK  status: ('A' for Active; 'I' for Inactive)
ROOT
ATOM      1  C   UNL d   1      -2.743   0.746   0.965  0.00  0.00     0.077 C 
ATOM      2  C1  UNL d   1      -1.615   0.201   0.140  0.00  0.00    -0.074 A 
ATOM      3  C2  UNL d   1      -0.969   0.999  -0.810  0.00  0.00    -0.005 A 
ATOM      4  C3  UNL d   1       0.085   0.482  -1.563  0.00  0.00     0.006 A 
ATOM      5  C4  UNL d   1       0.503  -0.836  -1.374  0.00  0.00    -0.005 A 
ATOM      6  C5  UNL d   1      -0.130  -1.648  -0.428  0.00  0.00    -0.074 A 
ATOM      7  C6  UNL d   1       0.313  -3.064  -0.205  0.00  0.00     0.077 C 
ATOM      8  C7  UNL d   1      -1.184  -1.119   0.330  0.00  0.00    -0.001 A 
ENDROOT
TORSDOF 0
ENDMDL
