MODEL 1
REMARK minimizedAffinity 2.2734282
REMARK minimizedRMSD -1
REMARK  0 active torsions:
REMARK  status: ('A' for Active; 'I' for Inactive)
ROOT
ATOM      1  C   UNL d   1       5.947  -1.523   1.875  0.00  0.00     0.077 C 
ATOM      2  C1  UNL d   1       5.972  -1.940   3.315  0.00  0.00    -0.074 A 
ATOM      3  C2  UNL d   1       5.984  -0.987   4.339  0.00  0.00    -0.005 A 
ATOM      4  C3  UNL d   1       5.997  -1.390   5.675  0.00  0.00     0.006 A 
ATOM      5  C4  UNL d   1       5.999  -2.747   5.999  0.00  0.00    -0.005 A 
ATOM      6  C5  UNL d   1       5.986  -3.714   4.989  0.00  0.00    -0.074 A 
ATOM      7  C6  UNL d   1       5.978  -5.177   5.321  0.00  0.00     0.077 C 
ATOM      8  C7  UNL d   1       5.966  -3.302   3.650  0.00  0.00    -0.001 A 
ENDROOT
TORSDOF 0
ENDMDL
