MODEL 1
REMARK minimizedAffinity -0.823755622
REMARK minimizedRMSD -1
REMARK  0 active torsions:
REMARK  status: ('A' for Active; 'I' for Inactive)
ROOT
ATOM      1  C   UNL d   1       0.260  -1.453  -2.817  0.00  0.00     0.077 C 
ATOM      2  C1  UNL d   1      -0.132  -1.058  -1.425  0.00  0.00    -0.074 A 
ATOM      3  C2  UNL d   1      -0.733  -1.977  -0.559  0.00  0.00    -0.005 A 
ATOM      4  C3  UNL d   1      -1.083  -1.598   0.737  0.00  0.00     0.006 A 
ATOM      5  C4  UNL d   1      -0.837  -0.297   1.179  0.00  0.00    -0.005 A 
ATOM      6  C5  UNL d   1      -0.236   0.635   0.328  0.00  0.00    -0.074 A 
ATOM      7  C6  UNL d   1       0.045   2.034   0.790  0.00  0.00     0.077 C 
ATOM      8  C7  UNL d   1       0.119   0.244  -0.971  0.00  0.00    -0.001 A 
ENDROOT
TORSDOF 0
ENDMDL
