MODEL 1
REMARK minimizedAffinity -2.49536371
REMARK minimizedRMSD -1
REMARK  0 active torsions:
REMARK  status: ('A' for Active; 'I' for Inactive)
ROOT
ATOM      1  C   UNL d   1       0.280  -1.785  -2.426  0.00  0.00     0.077 C 
ATOM      2  C1  UNL d   1       0.011  -1.160  -1.090  0.00  0.00    -0.074 A 
ATOM      3  C2  UNL d   1      -0.626  -1.881  -0.074  0.00  0.00    -0.005 A 
ATOM      4  C3  UNL d   1      -0.861  -1.289   1.167  0.00  0.00     0.006 A 
ATOM      5  C4  UNL d   1      -0.463   0.027   1.405  0.00  0.00    -0.005 A 
ATOM      6  C5  UNL d   1       0.176   0.763   0.402  0.00  0.00    -0.074 A 
ATOM      7  C6  UNL d   1       0.619   2.175   0.644  0.00  0.00     0.077 C 
ATOM      8  C7  UNL d   1       0.415   0.159  -0.840  0.00  0.00    -0.001 A 
ENDROOT
TORSDOF 0
ENDMDL
