MODEL 1
REMARK minimizedAffinity -4.44274998
REMARK minimizedRMSD -1
REMARK  0 active torsions:
REMARK  status: ('A' for Active; 'I' for Inactive)
ROOT
ATOM      1  C   UNL d   1       0.491   1.181   0.245  0.00  0.00     0.077 C 
ATOM      2  C1  UNL d   1      -0.038  -0.220   0.170  0.00  0.00    -0.074 A 
ATOM      3  C2  UNL d   1      -0.397  -0.916   1.330  0.00  0.00    -0.005 A 
ATOM      4  C3  UNL d   1      -0.897  -2.215   1.244  0.00  0.00     0.006 A 
ATOM      5  C4  UNL d   1      -1.041  -2.831   0.000  0.00  0.00    -0.005 A 
ATOM      6  C5  UNL d   1      -0.688  -2.152  -1.170  0.00  0.00    -0.074 A 
ATOM      7  C6  UNL d   1      -0.847  -2.796  -2.515  0.00  0.00     0.077 C 
ATOM      8  C7  UNL d   1      -0.194  -0.843  -1.076  0.00  0.00    -0.001 A 
ENDROOT
TORSDOF 0
ENDMDL
