MODEL 1
REMARK minimizedAffinity -5.51294279
REMARK minimizedRMSD -1
REMARK  0 active torsions:
REMARK  status: ('A' for Active; 'I' for Inactive)
ROOT
ATOM      1  C   UNL d   1       0.747  -3.226  -3.015  0.00  0.00     0.077 C 
ATOM      2  C1  UNL d   1       0.325  -2.684  -1.681  0.00  0.00    -0.074 A 
ATOM      3  C2  UNL d   1      -0.001  -3.543  -0.627  0.00  0.00    -0.005 A 
ATOM      4  C3  UNL d   1      -0.382  -3.024   0.611  0.00  0.00     0.006 A 
ATOM      5  C4  UNL d   1      -0.441  -1.644   0.806  0.00  0.00    -0.005 A 
ATOM      6  C5  UNL d   1      -0.118  -0.770  -0.237  0.00  0.00    -0.074 A 
ATOM      7  C6  UNL d   1      -0.166   0.717  -0.041  0.00  0.00     0.077 C 
ATOM      8  C7  UNL d   1       0.271  -1.299  -1.475  0.00  0.00    -0.001 A 
ENDROOT
TORSDOF 0
ENDMDL
