MODEL 1
REMARK minimizedAffinity -3.73375583
REMARK minimizedRMSD -1
REMARK  0 active torsions:
REMARK  status: ('A' for Active; 'I' for Inactive)
ROOT
ATOM      1  C   UNL d   1      -0.436  -2.573  -2.137  0.00  0.00     0.077 C 
ATOM      2  C1  UNL d   1      -0.604  -1.719  -0.915  0.00  0.00    -0.074 A 
ATOM      3  C2  UNL d   1      -1.167  -2.241   0.255  0.00  0.00    -0.005 A 
ATOM      4  C3  UNL d   1      -1.308  -1.438   1.386  0.00  0.00     0.006 A 
ATOM      5  C4  UNL d   1      -0.890  -0.107   1.360  0.00  0.00    -0.005 A 
ATOM      6  C5  UNL d   1      -0.325   0.432   0.200  0.00  0.00    -0.074 A 
ATOM      7  C6  UNL d   1       0.139   1.858   0.158  0.00  0.00     0.077 C 
ATOM      8  C7  UNL d   1      -0.179  -0.383  -0.931  0.00  0.00    -0.001 A 
ENDROOT
TORSDOF 0
ENDMDL
