MODEL 1
REMARK minimizedAffinity -5.35002756
REMARK minimizedRMSD -1
REMARK  0 active torsions:
REMARK  status: ('A' for Active; 'I' for Inactive)
ROOT
ATOM      1  C   UNL d   1       0.107  -3.708  -1.323  0.00  0.00     0.077 C 
ATOM      2  C1  UNL d   1      -0.352  -2.524  -0.527  0.00  0.00    -0.074 A 
ATOM      3  C2  UNL d   1      -1.331  -2.659   0.463  0.00  0.00    -0.005 A 
ATOM      4  C3  UNL d   1      -1.741  -1.549   1.203  0.00  0.00     0.006 A 
ATOM      5  C4  UNL d   1      -1.178  -0.296   0.960  0.00  0.00    -0.005 A 
ATOM      6  C5  UNL d   1      -0.197  -0.142  -0.025  0.00  0.00    -0.074 A 
ATOM      7  C6  UNL d   1       0.426   1.196  -0.291  0.00  0.00     0.077 C 
ATOM      8  C7  UNL d   1       0.215  -1.263  -0.759  0.00  0.00    -0.001 A 
ENDROOT
TORSDOF 0
ENDMDL
