MODEL 1
REMARK minimizedAffinity -2.70836878
REMARK minimizedRMSD -1
REMARK  0 active torsions:
REMARK  status: ('A' for Active; 'I' for Inactive)
ROOT
ATOM      1  C   UNL d   1      -0.204  -0.042  -2.854  0.00  0.00     0.077 C 
ATOM      2  C1  UNL d   1      -0.240   0.300  -1.394  0.00  0.00    -0.074 A 
ATOM      3  C2  UNL d   1      -1.011  -0.449  -0.499  0.00  0.00    -0.005 A 
ATOM      4  C3  UNL d   1      -1.027  -0.124   0.858  0.00  0.00     0.006 A 
ATOM      5  C4  UNL d   1      -0.274   0.951   1.332  0.00  0.00    -0.005 A 
ATOM      6  C5  UNL d   1       0.503   1.710   0.452  0.00  0.00    -0.074 A 
ATOM      7  C6  UNL d   1       1.326   2.863   0.947  0.00  0.00     0.077 C 
ATOM      8  C7  UNL d   1       0.520   1.374  -0.908  0.00  0.00    -0.001 A 
ENDROOT
TORSDOF 0
ENDMDL
