MODEL 1
REMARK minimizedAffinity -2.77227926
REMARK minimizedRMSD -1
REMARK  0 active torsions:
REMARK  status: ('A' for Active; 'I' for Inactive)
ROOT
ATOM      1  C   UNL d   1      -0.129   1.697   0.020  0.00  0.00     0.077 C 
ATOM      2  C1  UNL d   1      -0.421   0.226   0.006  0.00  0.00    -0.074 A 
ATOM      3  C2  UNL d   1      -0.674  -0.468   1.193  0.00  0.00    -0.005 A 
ATOM      4  C3  UNL d   1      -0.953  -1.834   1.163  0.00  0.00     0.006 A 
ATOM      5  C4  UNL d   1      -0.981  -2.519  -0.052  0.00  0.00    -0.005 A 
ATOM      6  C5  UNL d   1      -0.730  -1.842  -1.250  0.00  0.00    -0.074 A 
ATOM      7  C6  UNL d   1      -0.766  -2.561  -2.566  0.00  0.00     0.077 C 
ATOM      8  C7  UNL d   1      -0.458  -0.468  -1.212  0.00  0.00    -0.001 A 
ENDROOT
TORSDOF 0
ENDMDL
