MODEL 1
REMARK minimizedAffinity -1.3829999
REMARK minimizedRMSD -1
REMARK  0 active torsions:
REMARK  status: ('A' for Active; 'I' for Inactive)
ROOT
ATOM      1  O1  BZF d   1       0.834  -1.610   0.322  0.00  0.00    -0.204 OA
ATOM      2  C2  BZF d   1       0.140  -2.500   1.121  0.00  0.00     0.174 A 
ATOM      3  C3  BZF d   1      -0.841  -1.870   1.797  0.00  0.00    -0.012 A 
ATOM      4  C3A BZF d   1      -0.816  -0.519   1.327  0.00  0.00    -0.107 A 
ATOM      5  C4  BZF d   1      -1.562   0.589   1.612  0.00  0.00     0.055 A 
ATOM      6  C5  BZF d   1      -1.233   1.773   1.034  0.00  0.00    -0.016 A 
ATOM      7  C6  BZF d   1      -0.163   1.888   0.171  0.00  0.00     0.022 A 
ATOM      8  C7  BZF d   1       0.603   0.816  -0.147  0.00  0.00     0.029 A 
ATOM      9  C7A BZF d   1       0.253  -0.390   0.411  0.00  0.00     0.058 A 
ENDROOT
TORSDOF 0
ENDMDL
