MODEL 1
REMARK minimizedAffinity -4.47628546
REMARK minimizedRMSD -1
REMARK  0 active torsions:
REMARK  status: ('A' for Active; 'I' for Inactive)
ROOT
ATOM      1  O1  BZF d   1      -0.361   0.866  -0.151  0.00  0.00    -0.204 OA
ATOM      2  C2  BZF d   1       0.992   0.592  -0.099  0.00  0.00     0.174 A 
ATOM      3  C3  BZF d   1       1.217  -0.594   0.504  0.00  0.00    -0.012 A 
ATOM      4  C3A BZF d   1      -0.081  -1.134   0.768  0.00  0.00    -0.107 A 
ATOM      5  C4  BZF d   1      -0.516  -2.296   1.337  0.00  0.00     0.055 A 
ATOM      6  C5  BZF d   1      -1.850  -2.487   1.513  0.00  0.00    -0.016 A 
ATOM      7  C6  BZF d   1      -2.775  -1.536   1.136  0.00  0.00     0.022 A 
ATOM      8  C7  BZF d   1      -2.392  -0.369   0.563  0.00  0.00     0.029 A 
ATOM      9  C7A BZF d   1      -1.046  -0.188   0.354  0.00  0.00     0.058 A 
ENDROOT
TORSDOF 0
ENDMDL
