MODEL 1
REMARK minimizedAffinity -4.33734846
REMARK minimizedRMSD -1
REMARK  0 active torsions:
REMARK  status: ('A' for Active; 'I' for Inactive)
ROOT
ATOM      1  O1  BZF d   1       3.415   0.982  -3.791  0.00  0.00    -0.204 OA
ATOM      2  C2  BZF d   1       4.453   1.154  -2.895  0.00  0.00     0.174 A 
ATOM      3  C3  BZF d   1       4.002   1.672  -1.735  0.00  0.00    -0.012 A 
ATOM      4  C3A BZF d   1       2.581   1.748  -1.883  0.00  0.00    -0.107 A 
ATOM      5  C4  BZF d   1       1.572   2.164  -1.062  0.00  0.00     0.055 A 
ATOM      6  C5  BZF d   1       0.298   2.179  -1.536  0.00  0.00    -0.016 A 
ATOM      7  C6  BZF d   1      -0.001   1.789  -2.825  0.00  0.00     0.022 A 
ATOM      8  C7  BZF d   1       0.965   1.364  -3.675  0.00  0.00     0.029 A 
ATOM      9  C7A BZF d   1       2.249   1.316  -3.188  0.00  0.00     0.058 A 
ENDROOT
TORSDOF 0
ENDMDL
