MODEL 1
REMARK minimizedAffinity -3.74264741
REMARK minimizedRMSD -1
REMARK  0 active torsions:
REMARK  status: ('A' for Active; 'I' for Inactive)
ROOT
ATOM      1  O1  BZF d   1      -0.029  -2.874   1.098  0.00  0.00    -0.204 OA
ATOM      2  C2  BZF d   1      -1.408  -2.945   1.087  0.00  0.00     0.174 A 
ATOM      3  C3  BZF d   1      -1.946  -1.742   0.799  0.00  0.00    -0.012 A 
ATOM      4  C3A BZF d   1      -0.832  -0.886   0.528  0.00  0.00    -0.107 A 
ATOM      5  C4  BZF d   1      -0.722   0.426   0.168  0.00  0.00     0.055 A 
ATOM      6  C5  BZF d   1       0.514   0.978   0.052  0.00  0.00    -0.016 A 
ATOM      7  C6  BZF d   1       1.660   0.249   0.295  0.00  0.00     0.022 A 
ATOM      8  C7  BZF d   1       1.602  -1.057   0.650  0.00  0.00     0.029 A 
ATOM      9  C7A BZF d   1       0.355  -1.627   0.735  0.00  0.00     0.058 A 
ENDROOT
TORSDOF 0
ENDMDL
