MODEL 1
REMARK minimizedAffinity -1.69302213
REMARK minimizedRMSD -1
REMARK  0 active torsions:
REMARK  status: ('A' for Active; 'I' for Inactive)
ROOT
ATOM      1  O1  BZF d   1      -0.530  -2.664   1.075  0.00  0.00    -0.204 OA
ATOM      2  C2  BZF d   1      -1.900  -2.532   1.189  0.00  0.00     0.174 A 
ATOM      3  C3  BZF d   1      -2.296  -1.301   0.805  0.00  0.00    -0.012 A 
ATOM      4  C3A BZF d   1      -1.109  -0.652   0.340  0.00  0.00    -0.107 A 
ATOM      5  C4  BZF d   1      -0.858   0.584  -0.184  0.00  0.00     0.055 A 
ATOM      6  C5  BZF d   1       0.424   0.933  -0.470  0.00  0.00    -0.016 A 
ATOM      7  C6  BZF d   1       1.478   0.074  -0.240  0.00  0.00     0.022 A 
ATOM      8  C7  BZF d   1       1.279  -1.165   0.274  0.00  0.00     0.029 A 
ATOM      9  C7A BZF d   1      -0.019  -1.532   0.533  0.00  0.00     0.058 A 
ENDROOT
TORSDOF 0
ENDMDL
