MODEL 1
REMARK minimizedAffinity -5.69224739
REMARK minimizedRMSD -1
REMARK  0 active torsions:
REMARK  status: ('A' for Active; 'I' for Inactive)
ROOT
ATOM      1  O1  BZF d   1      -1.899  -1.074   2.328  0.00  0.00    -0.204 OA
ATOM      2  C2  BZF d   1      -1.869  -2.455   2.311  0.00  0.00     0.174 A 
ATOM      3  C3  BZF d   1      -1.280  -2.908   1.185  0.00  0.00    -0.012 A 
ATOM      4  C3A BZF d   1      -0.837  -1.735   0.495  0.00  0.00    -0.107 A 
ATOM      5  C4  BZF d   1      -0.169  -1.533  -0.678  0.00  0.00     0.055 A 
ATOM      6  C5  BZF d   1       0.046  -0.261  -1.105  0.00  0.00    -0.016 A 
ATOM      7  C6  BZF d   1      -0.398   0.831  -0.388  0.00  0.00     0.022 A 
ATOM      8  C7  BZF d   1      -1.061   0.680   0.784  0.00  0.00     0.029 A 
ATOM      9  C7A BZF d   1      -1.251  -0.604   1.235  0.00  0.00     0.058 A 
ENDROOT
TORSDOF 0
ENDMDL
