MODEL 1
REMARK minimizedAffinity -5.6899786
REMARK minimizedRMSD -1
REMARK  0 active torsions:
REMARK  status: ('A' for Active; 'I' for Inactive)
ROOT
ATOM      1  O1  BZF d   1      -0.793   1.364   0.781  0.00  0.00    -0.204 OA
ATOM      2  C2  BZF d   1       0.191   0.999  -0.118  0.00  0.00     0.174 A 
ATOM      3  C3  BZF d   1       0.217  -0.339  -0.283  0.00  0.00    -0.012 A 
ATOM      4  C3A BZF d   1      -0.876  -0.835   0.496  0.00  0.00    -0.107 A 
ATOM      5  C4  BZF d   1      -1.376  -2.086   0.723  0.00  0.00     0.055 A 
ATOM      6  C5  BZF d   1      -2.408  -2.236   1.594  0.00  0.00    -0.016 A 
ATOM      7  C6  BZF d   1      -2.960  -1.161   2.259  0.00  0.00     0.022 A 
ATOM      8  C7  BZF d   1      -2.501   0.099   2.062  0.00  0.00     0.029 A 
ATOM      9  C7A BZF d   1      -1.480   0.259   1.158  0.00  0.00     0.058 A 
ENDROOT
TORSDOF 0
ENDMDL
