MODEL 1
REMARK minimizedAffinity -2.64440393
REMARK minimizedRMSD -1
REMARK  0 active torsions:
REMARK  status: ('A' for Active; 'I' for Inactive)
ROOT
ATOM      1  O1  BZF d   1      -0.690   0.408  -1.124  0.00  0.00    -0.204 OA
ATOM      2  C2  BZF d   1       0.406   1.091  -0.633  0.00  0.00     0.174 A 
ATOM      3  C3  BZF d   1       0.848   0.528   0.510  0.00  0.00    -0.012 A 
ATOM      4  C3A BZF d   1       0.031  -0.631   0.699  0.00  0.00    -0.107 A 
ATOM      5  C4  BZF d   1      -0.005  -1.610   1.650  0.00  0.00     0.055 A 
ATOM      6  C5  BZF d   1      -0.973  -2.561   1.584  0.00  0.00    -0.016 A 
ATOM      7  C6  BZF d   1      -1.924  -2.560   0.585  0.00  0.00     0.022 A 
ATOM      8  C7  BZF d   1      -1.927  -1.612  -0.384  0.00  0.00     0.029 A 
ATOM      9  C7A BZF d   1      -0.929  -0.669  -0.339  0.00  0.00     0.058 A 
ENDROOT
TORSDOF 0
ENDMDL
