MODEL 1
REMARK minimizedAffinity -4.78006458
REMARK minimizedRMSD -1
REMARK  0 active torsions:
REMARK  status: ('A' for Active; 'I' for Inactive)
ROOT
ATOM      1  O1  BZF d   1      -2.071  -1.843   0.603  0.00  0.00    -0.204 OA
ATOM      2  C2  BZF d   1      -1.500  -2.969   1.165  0.00  0.00     0.174 A 
ATOM      3  C3  BZF d   1      -0.155  -2.872   1.168  0.00  0.00    -0.012 A 
ATOM      4  C3A BZF d   1       0.130  -1.567   0.654  0.00  0.00    -0.107 A 
ATOM      5  C4  BZF d   1       1.288  -0.879   0.431  0.00  0.00     0.055 A 
ATOM      6  C5  BZF d   1       1.224   0.349  -0.148  0.00  0.00    -0.016 A 
ATOM      7  C6  BZF d   1       0.023   0.915  -0.520  0.00  0.00     0.022 A 
ATOM      8  C7  BZF d   1      -1.152   0.273  -0.314  0.00  0.00     0.029 A 
ATOM      9  C7A BZF d   1      -1.094  -0.954   0.301  0.00  0.00     0.058 A 
ENDROOT
TORSDOF 0
ENDMDL
