MODEL 1
REMARK minimizedAffinity 3.71178389
REMARK minimizedRMSD -1
REMARK  0 active torsions:
REMARK  status: ('A' for Active; 'I' for Inactive)
ROOT
ATOM      1  O1  BZF d   1       0.467  -2.995   2.045  0.00  0.00    -0.204 OA
ATOM      2  C2  BZF d   1      -0.419  -3.306   3.059  0.00  0.00     0.174 A 
ATOM      3  C3  BZF d   1      -1.395  -2.379   3.142  0.00  0.00    -0.012 A 
ATOM      4  C3A BZF d   1      -1.153  -1.479   2.057  0.00  0.00    -0.107 A 
ATOM      5  C4  BZF d   1      -1.793  -0.360   1.604  0.00  0.00     0.055 A 
ATOM      6  C5  BZF d   1      -1.258   0.331   0.563  0.00  0.00    -0.016 A 
ATOM      7  C6  BZF d   1      -0.084  -0.065  -0.044  0.00  0.00     0.022 A 
ATOM      8  C7  BZF d   1       0.583  -1.171   0.366  0.00  0.00     0.029 A 
ATOM      9  C7A BZF d   1       0.028  -1.889   1.396  0.00  0.00     0.058 A 
ENDROOT
TORSDOF 0
ENDMDL
