MODEL 1
REMARK minimizedAffinity -0.783352077
REMARK minimizedRMSD -1
REMARK  0 active torsions:
REMARK  status: ('A' for Active; 'I' for Inactive)
ROOT
ATOM      1  O1  BZF d   1      -0.307   2.341   0.378  0.00  0.00    -0.204 OA
ATOM      2  C2  BZF d   1       0.852   1.898  -0.230  0.00  0.00     0.174 A 
ATOM      3  C3  BZF d   1       0.756   0.591  -0.548  0.00  0.00    -0.012 A 
ATOM      4  C3A BZF d   1      -0.578   0.215  -0.195  0.00  0.00    -0.107 A 
ATOM      5  C4  BZF d   1      -1.279  -0.954  -0.285  0.00  0.00     0.055 A 
ATOM      6  C5  BZF d   1      -2.541  -1.007   0.217  0.00  0.00    -0.016 A 
ATOM      7  C6  BZF d   1      -3.130   0.085   0.819  0.00  0.00     0.022 A 
ATOM      8  C7  BZF d   1      -2.476   1.267   0.928  0.00  0.00     0.029 A 
ATOM      9  C7A BZF d   1      -1.213   1.334   0.392  0.00  0.00     0.058 A 
ENDROOT
TORSDOF 0
ENDMDL
