MODEL 1
REMARK minimizedAffinity -3.61632276
REMARK minimizedRMSD -1
REMARK  0 active torsions:
REMARK  status: ('A' for Active; 'I' for Inactive)
ROOT
ATOM      1  O1  BZF d   1      -1.166  -0.174  -0.998  0.00  0.00    -0.204 OA
ATOM      2  C2  BZF d   1       0.113   0.309  -1.198  0.00  0.00     0.174 A 
ATOM      3  C3  BZF d   1       0.969  -0.216  -0.297  0.00  0.00    -0.012 A 
ATOM      4  C3A BZF d   1       0.193  -1.150   0.459  0.00  0.00    -0.107 A 
ATOM      5  C4  BZF d   1       0.486  -1.997   1.489  0.00  0.00     0.055 A 
ATOM      6  C5  BZF d   1      -0.515  -2.724   2.052  0.00  0.00    -0.016 A 
ATOM      7  C6  BZF d   1      -1.819  -2.624   1.614  0.00  0.00     0.022 A 
ATOM      8  C7  BZF d   1      -2.158  -1.801   0.592  0.00  0.00     0.029 A 
ATOM      9  C7A BZF d   1      -1.143  -1.091  -0.001  0.00  0.00     0.058 A 
ENDROOT
TORSDOF 0
ENDMDL
