MODEL 1
REMARK minimizedAffinity -3.07923937
REMARK minimizedRMSD -1
REMARK  0 active torsions:
REMARK  status: ('A' for Active; 'I' for Inactive)
ROOT
ATOM      1  O1  BZF d   1      -0.077  -2.346   1.068  0.00  0.00    -0.204 OA
ATOM      2  C2  BZF d   1      -1.457  -2.296   1.099  0.00  0.00     0.174 A 
ATOM      3  C3  BZF d   1      -1.902  -1.094   0.681  0.00  0.00    -0.012 A 
ATOM      4  C3A BZF d   1      -0.730  -0.376   0.282  0.00  0.00    -0.107 A 
ATOM      5  C4  BZF d   1      -0.523   0.870  -0.236  0.00  0.00     0.055 A 
ATOM      6  C5  BZF d   1       0.750   1.294  -0.447  0.00  0.00    -0.016 A 
ATOM      7  C6  BZF d   1       1.839   0.502  -0.146  0.00  0.00     0.022 A 
ATOM      8  C7  BZF d   1       1.684  -0.743   0.365  0.00  0.00     0.029 A 
ATOM      9  C7A BZF d   1       0.397  -1.188   0.548  0.00  0.00     0.058 A 
ENDROOT
TORSDOF 0
ENDMDL
