MODEL 1
REMARK minimizedAffinity -2.95410848
REMARK minimizedRMSD -1
REMARK  0 active torsions:
REMARK  status: ('A' for Active; 'I' for Inactive)
ROOT
ATOM      1  O1  BZF d   1       0.780   1.303   0.436  0.00  0.00    -0.204 OA
ATOM      2  C2  BZF d   1      -0.218   2.259   0.408  0.00  0.00     0.174 A 
ATOM      3  C3  BZF d   1      -1.433   1.680   0.322  0.00  0.00    -0.012 A 
ATOM      4  C3A BZF d   1      -1.184   0.273   0.387  0.00  0.00    -0.107 A 
ATOM      5  C4  BZF d   1      -1.996  -0.826   0.366  0.00  0.00     0.055 A 
ATOM      6  C5  BZF d   1      -1.433  -2.063   0.373  0.00  0.00    -0.016 A 
ATOM      7  C6  BZF d   1      -0.065  -2.238   0.395  0.00  0.00     0.022 A 
ATOM      8  C7  BZF d   1       0.780  -1.179   0.421  0.00  0.00     0.029 A 
ATOM      9  C7A BZF d   1       0.214   0.072   0.448  0.00  0.00     0.058 A 
ENDROOT
TORSDOF 0
ENDMDL
