MODEL 1
REMARK minimizedAffinity -2.25318289
REMARK minimizedRMSD -1
REMARK  0 active torsions:
REMARK  status: ('A' for Active; 'I' for Inactive)
ROOT
ATOM      1  O1  BZF d   1      -0.363  -2.596   2.049  0.00  0.00    -0.204 OA
ATOM      2  C2  BZF d   1      -1.675  -2.810   1.673  0.00  0.00     0.174 A 
ATOM      3  C3  BZF d   1      -2.038  -1.955   0.695  0.00  0.00    -0.012 A 
ATOM      4  C3A BZF d   1      -0.852  -1.219   0.380  0.00  0.00    -0.107 A 
ATOM      5  C4  BZF d   1      -0.570  -0.233  -0.523  0.00  0.00     0.055 A 
ATOM      6  C5  BZF d   1       0.669   0.325  -0.527  0.00  0.00    -0.016 A 
ATOM      7  C6  BZF d   1       1.647  -0.074   0.360  0.00  0.00     0.022 A 
ATOM      8  C7  BZF d   1       1.417  -1.051   1.271  0.00  0.00     0.029 A 
ATOM      9  C7A BZF d   1       0.176  -1.640   1.255  0.00  0.00     0.058 A 
ENDROOT
TORSDOF 0
ENDMDL
