MODEL 1
REMARK minimizedAffinity -4.52212381
REMARK minimizedRMSD -1
REMARK  0 active torsions:
REMARK  status: ('A' for Active; 'I' for Inactive)
ROOT
ATOM      1  O1  BZF d   1       0.392   1.780   0.765  0.00  0.00    -0.204 OA
ATOM      2  C2  BZF d   1      -0.910   2.059   1.132  0.00  0.00     0.174 A 
ATOM      3  C3  BZF d   1      -1.618   0.922   1.286  0.00  0.00    -0.012 A 
ATOM      4  C3A BZF d   1      -0.677  -0.137   1.086  0.00  0.00    -0.107 A 
ATOM      5  C4  BZF d   1      -0.774  -1.499   1.124  0.00  0.00     0.055 A 
ATOM      6  C5  BZF d   1       0.316  -2.247   0.811  0.00  0.00    -0.016 A 
ATOM      7  C6  BZF d   1       1.515  -1.669   0.451  0.00  0.00     0.022 A 
ATOM      8  C7  BZF d   1       1.661  -0.322   0.404  0.00  0.00     0.029 A 
ATOM      9  C7A BZF d   1       0.571   0.437   0.752  0.00  0.00     0.058 A 
ENDROOT
TORSDOF 0
ENDMDL
