MODEL 1
REMARK minimizedAffinity -4.62309027
REMARK minimizedRMSD -1
REMARK  0 active torsions:
REMARK  status: ('A' for Active; 'I' for Inactive)
ROOT
ATOM      1  O1  BZF d   1      -0.389   0.383  -0.835  0.00  0.00    -0.204 OA
ATOM      2  C2  BZF d   1       0.905   0.748  -0.519  0.00  0.00     0.174 A 
ATOM      3  C3  BZF d   1       1.383  -0.009   0.489  0.00  0.00    -0.012 A 
ATOM      4  C3A BZF d   1       0.354  -0.964   0.763  0.00  0.00    -0.107 A 
ATOM      5  C4  BZF d   1       0.243  -1.996   1.650  0.00  0.00     0.055 A 
ATOM      6  C5  BZF d   1      -0.923  -2.691   1.713  0.00  0.00    -0.016 A 
ATOM      7  C6  BZF d   1      -1.999  -2.377   0.909  0.00  0.00     0.022 A 
ATOM      8  C7  BZF d   1      -1.935  -1.365   0.010  0.00  0.00     0.029 A 
ATOM      9  C7A BZF d   1      -0.747  -0.682  -0.079  0.00  0.00     0.058 A 
ENDROOT
TORSDOF 0
ENDMDL
