MODEL 1
REMARK minimizedAffinity -3.63309169
REMARK minimizedRMSD -1
REMARK  0 active torsions:
REMARK  status: ('A' for Active; 'I' for Inactive)
ROOT
ATOM      1  O1  BZF d   1       0.678  -1.778  -0.108  0.00  0.00    -0.204 OA
ATOM      2  C2  BZF d   1      -0.129  -2.595   0.660  0.00  0.00     0.174 A 
ATOM      3  C3  BZF d   1      -1.032  -1.867   1.347  0.00  0.00    -0.012 A 
ATOM      4  C3A BZF d   1      -0.833  -0.517   0.916  0.00  0.00    -0.107 A 
ATOM      5  C4  BZF d   1      -1.438   0.667   1.228  0.00  0.00     0.055 A 
ATOM      6  C5  BZF d   1      -0.958   1.817   0.686  0.00  0.00    -0.016 A 
ATOM      7  C6  BZF d   1       0.127   1.821  -0.166  0.00  0.00     0.022 A 
ATOM      8  C7  BZF d   1       0.757   0.671  -0.508  0.00  0.00     0.029 A 
ATOM      9  C7A BZF d   1       0.254  -0.497   0.012  0.00  0.00     0.058 A 
ENDROOT
TORSDOF 0
ENDMDL
