MODEL 1
REMARK minimizedAffinity -2.33146715
REMARK minimizedRMSD -1
REMARK  0 active torsions:
REMARK  status: ('A' for Active; 'I' for Inactive)
ROOT
ATOM      1  O1  BZF d   1      -1.290   0.656   0.760  0.00  0.00    -0.204 OA
ATOM      2  C2  BZF d   1      -0.482   1.635   0.216  0.00  0.00     0.174 A 
ATOM      3  C3  BZF d   1       0.738   1.141  -0.078  0.00  0.00    -0.012 A 
ATOM      4  C3A BZF d   1       0.660  -0.256   0.222  0.00  0.00    -0.107 A 
ATOM      5  C4  BZF d   1       1.548  -1.289   0.125  0.00  0.00     0.055 A 
ATOM      6  C5  BZF d   1       1.182  -2.519   0.570  0.00  0.00    -0.016 A 
ATOM      7  C6  BZF d   1      -0.061  -2.752   1.121  0.00  0.00     0.022 A 
ATOM      8  C7  BZF d   1      -0.978  -1.760   1.234  0.00  0.00     0.029 A 
ATOM      9  C7A BZF d   1      -0.623  -0.523   0.755  0.00  0.00     0.058 A 
ENDROOT
TORSDOF 0
ENDMDL
