MODEL 1
REMARK minimizedAffinity -3.2070322
REMARK minimizedRMSD -1
REMARK  1 active torsions:
REMARK  status: ('A' for Active; 'I' for Inactive)
REMARK    1  A    between atoms: C1_2  and  C2_3 
ROOT
ATOM      1  C2  UNL d   1       0.445   0.928  -1.447  0.00  0.00    -0.081 A 
ATOM      2  C3  UNL d   1       0.529  -0.405  -1.867  0.00  0.00     0.006 A 
ATOM      3  C4  UNL d   1       0.430  -1.447  -0.941  0.00  0.00     0.002 A 
ATOM      4  C5  UNL d   1       0.238  -1.173   0.417  0.00  0.00    -0.080 A 
ATOM      5  C6  UNL d   1       0.100  -2.282   1.417  0.00  0.00     0.076 C 
ATOM      6  C7  UNL d   1       0.171   0.159   0.839  0.00  0.00     0.002 A 
ATOM      7  C8  UNL d   1       0.271   1.201  -0.086  0.00  0.00     0.006 A 
ENDROOT
BRANCH   1   8
ATOM      8  C1  UNL d   1       0.486   2.052  -2.451  0.00  0.00     0.054 C 
ATOM      9  C   UNL d   1       1.137   1.607  -3.753  0.00  0.00     0.018 C 
ENDBRANCH   1   8
TORSDOF 1
ENDMDL
