MODEL 1
REMARK minimizedAffinity -0.856120944
REMARK minimizedRMSD -1
REMARK  1 active torsions:
REMARK  status: ('A' for Active; 'I' for Inactive)
REMARK    1  A    between atoms: C1_2  and  C2_3 
ROOT
ATOM      1  C2  UNL d   1       0.472  -1.694   1.456  0.00  0.00    -0.081 A 
ATOM      2  C3  UNL d   1       1.617  -0.931   1.195  0.00  0.00     0.006 A 
ATOM      3  C4  UNL d   1       1.565   0.142   0.301  0.00  0.00     0.002 A 
ATOM      4  C5  UNL d   1       0.366   0.474  -0.340  0.00  0.00    -0.080 A 
ATOM      5  C6  UNL d   1       0.289   1.641  -1.278  0.00  0.00     0.076 C 
ATOM      6  C7  UNL d   1      -0.773  -0.300  -0.093  0.00  0.00     0.002 A 
ATOM      7  C8  UNL d   1      -0.721  -1.372   0.800  0.00  0.00     0.006 A 
ENDROOT
BRANCH   1   8
ATOM      8  C1  UNL d   1       0.510  -2.810   2.468  0.00  0.00     0.054 C 
ATOM      9  C   UNL d   1       1.017  -2.318   3.816  0.00  0.00     0.018 C 
ENDBRANCH   1   8
TORSDOF 1
ENDMDL
