MODEL 1
REMARK minimizedAffinity -2.2015779
REMARK minimizedRMSD -1
REMARK  1 active torsions:
REMARK  status: ('A' for Active; 'I' for Inactive)
REMARK    1  A    between atoms: C1_2  and  C2_3 
ROOT
ATOM      1  C2  UNL d   1       0.785   0.815  -0.874  0.00  0.00    -0.081 A 
ATOM      2  C3  UNL d   1      -0.170   0.919   0.144  0.00  0.00     0.006 A 
ATOM      3  C4  UNL d   1      -0.428  -0.165   0.987  0.00  0.00     0.002 A 
ATOM      4  C5  UNL d   1       0.270  -1.367   0.831  0.00  0.00    -0.080 A 
ATOM      5  C6  UNL d   1       0.024  -2.528   1.748  0.00  0.00     0.076 C 
ATOM      6  C7  UNL d   1       1.212  -1.477  -0.197  0.00  0.00     0.002 A 
ATOM      7  C8  UNL d   1       1.470  -0.394  -1.041  0.00  0.00     0.006 A 
ENDROOT
BRANCH   1   8
ATOM      8  C1  UNL d   1       1.112   2.003  -1.743  0.00  0.00     0.054 C 
ATOM      9  C   UNL d   1       0.809   1.717  -3.207  0.00  0.00     0.018 C 
ENDBRANCH   1   8
TORSDOF 1
ENDMDL
