MODEL 1
REMARK minimizedAffinity -1.73938274
REMARK minimizedRMSD -1
REMARK  1 active torsions:
REMARK  status: ('A' for Active; 'I' for Inactive)
REMARK    1  A    between atoms: C1_2  and  C2_3 
ROOT
ATOM      1  C2  UNL d   1      -1.809  -0.706   1.816  0.00  0.00    -0.081 A 
ATOM      2  C3  UNL d   1      -1.335  -2.006   2.025  0.00  0.00     0.006 A 
ATOM      3  C4  UNL d   1      -0.198  -2.462   1.353  0.00  0.00     0.002 A 
ATOM      4  C5  UNL d   1       0.487  -1.623   0.468  0.00  0.00    -0.080 A 
ATOM      5  C6  UNL d   1       1.726  -2.090  -0.237  0.00  0.00     0.076 C 
ATOM      6  C7  UNL d   1       0.003  -0.329   0.246  0.00  0.00     0.002 A 
ATOM      7  C8  UNL d   1      -1.133   0.127   0.917  0.00  0.00     0.006 A 
ENDROOT
BRANCH   1   8
ATOM      8  C1  UNL d   1      -2.997  -0.190   2.588  0.00  0.00     0.054 C 
ATOM      9  C   UNL d   1      -3.271   1.273   2.268  0.00  0.00     0.018 C 
ENDBRANCH   1   8
TORSDOF 1
ENDMDL
