MODEL 1
REMARK minimizedAffinity -3.12111497
REMARK minimizedRMSD -1
REMARK  1 active torsions:
REMARK  status: ('A' for Active; 'I' for Inactive)
REMARK    1  A    between atoms: C1_2  and  C2_3 
ROOT
ATOM      1  C2  UNL d   1       0.804   1.595  -1.848  0.00  0.00    -0.081 A 
ATOM      2  C3  UNL d   1       1.252   1.799  -0.537  0.00  0.00     0.006 A 
ATOM      3  C4  UNL d   1       0.842   0.949   0.492  0.00  0.00     0.002 A 
ATOM      4  C5  UNL d   1      -0.016  -0.124   0.227  0.00  0.00    -0.080 A 
ATOM      5  C6  UNL d   1      -0.440  -1.062   1.317  0.00  0.00     0.076 C 
ATOM      6  C7  UNL d   1      -0.478  -0.317  -1.079  0.00  0.00     0.002 A 
ATOM      7  C8  UNL d   1      -0.069   0.533  -2.109  0.00  0.00     0.006 A 
ENDROOT
BRANCH   1   8
ATOM      8  C1  UNL d   1       1.296   2.472  -2.971  0.00  0.00     0.054 C 
ATOM      9  C   UNL d   1       1.909   1.644  -4.092  0.00  0.00     0.018 C 
ENDBRANCH   1   8
TORSDOF 1
ENDMDL
