MODEL 1
REMARK minimizedAffinity -3.03770924
REMARK minimizedRMSD -1
REMARK  1 active torsions:
REMARK  status: ('A' for Active; 'I' for Inactive)
REMARK    1  A    between atoms: C1_2  and  C2_3 
ROOT
ATOM      1  C2  UNL d   1       1.122   1.022  -0.811  0.00  0.00    -0.081 A 
ATOM      2  C3  UNL d   1       1.809  -0.192  -0.691  0.00  0.00     0.006 A 
ATOM      3  C4  UNL d   1       1.319  -1.204   0.138  0.00  0.00     0.002 A 
ATOM      4  C5  UNL d   1       0.132  -1.022   0.854  0.00  0.00    -0.080 A 
ATOM      5  C6  UNL d   1      -0.421  -2.111   1.724  0.00  0.00     0.076 C 
ATOM      6  C7  UNL d   1      -0.546   0.198   0.748  0.00  0.00     0.002 A 
ATOM      7  C8  UNL d   1      -0.056   1.210  -0.080  0.00  0.00     0.006 A 
ENDROOT
BRANCH   1   8
ATOM      8  C1  UNL d   1       1.613   2.091  -1.754  0.00  0.00     0.054 C 
ATOM      9  C   UNL d   1       0.643   2.297  -2.910  0.00  0.00     0.018 C 
ENDBRANCH   1   8
TORSDOF 1
ENDMDL
