MODEL 1
REMARK minimizedAffinity -4.15092754
REMARK minimizedRMSD -1
REMARK  1 active torsions:
REMARK  status: ('A' for Active; 'I' for Inactive)
REMARK    1  A    between atoms: C1_2  and  C2_3 
ROOT
ATOM      1  C2  UNL d   1       0.599   0.782  -0.264  0.00  0.00    -0.081 A 
ATOM      2  C3  UNL d   1       1.264  -0.448  -0.188  0.00  0.00     0.006 A 
ATOM      3  C4  UNL d   1       0.673  -1.533   0.463  0.00  0.00     0.002 A 
ATOM      4  C5  UNL d   1      -0.595  -1.410   1.041  0.00  0.00    -0.080 A 
ATOM      5  C6  UNL d   1      -1.254  -2.576   1.716  0.00  0.00     0.076 C 
ATOM      6  C7  UNL d   1      -1.252  -0.176   0.980  0.00  0.00     0.002 A 
ATOM      7  C8  UNL d   1      -0.661   0.910   0.330  0.00  0.00     0.006 A 
ENDROOT
BRANCH   1   8
ATOM      8  C1  UNL d   1       1.206   1.936  -1.021  0.00  0.00     0.054 C 
ATOM      9  C   UNL d   1       0.851   1.874  -2.500  0.00  0.00     0.018 C 
ENDBRANCH   1   8
TORSDOF 1
ENDMDL
