MODEL 1
REMARK minimizedAffinity -4.31050348
REMARK minimizedRMSD -1
REMARK  1 active torsions:
REMARK  status: ('A' for Active; 'I' for Inactive)
REMARK    1  A    between atoms: C1_2  and  C2_3 
ROOT
ATOM      1  C2  UNL d   1       0.555   0.668  -0.819  0.00  0.00    -0.081 A 
ATOM      2  C3  UNL d   1      -0.201   0.931   0.330  0.00  0.00     0.006 A 
ATOM      3  C4  UNL d   1      -0.515  -0.098   1.221  0.00  0.00     0.002 A 
ATOM      4  C5  UNL d   1      -0.073  -1.404   0.983  0.00  0.00    -0.080 A 
ATOM      5  C6  UNL d   1      -0.378  -2.511   1.947  0.00  0.00     0.076 C 
ATOM      6  C7  UNL d   1       0.667  -1.669  -0.175  0.00  0.00     0.002 A 
ATOM      7  C8  UNL d   1       0.981  -0.641  -1.066  0.00  0.00     0.006 A 
ENDROOT
BRANCH   1   8
ATOM      8  C1  UNL d   1       0.951   1.787  -1.748  0.00  0.00     0.054 C 
ATOM      9  C   UNL d   1       0.570   1.472  -3.188  0.00  0.00     0.018 C 
ENDBRANCH   1   8
TORSDOF 1
ENDMDL
