MODEL 1
REMARK minimizedAffinity -2.99333143
REMARK minimizedRMSD -1
REMARK  1 active torsions:
REMARK  status: ('A' for Active; 'I' for Inactive)
REMARK    1  A    between atoms: C1_2  and  C2_3 
ROOT
ATOM      1  C2  UNL d   1       1.061   1.006  -0.460  0.00  0.00    -0.081 A 
ATOM      2  C3  UNL d   1       1.886  -0.105  -0.246  0.00  0.00     0.006 A 
ATOM      3  C4  UNL d   1       1.422  -1.200   0.486  0.00  0.00     0.002 A 
ATOM      4  C5  UNL d   1       0.125  -1.207   1.008  0.00  0.00    -0.080 A 
ATOM      5  C6  UNL d   1      -0.396  -2.390   1.769  0.00  0.00     0.076 C 
ATOM      6  C7  UNL d   1      -0.694  -0.090   0.809  0.00  0.00     0.002 A 
ATOM      7  C8  UNL d   1      -0.230   1.006   0.078  0.00  0.00     0.006 A 
ENDROOT
BRANCH   1   8
ATOM      8  C1  UNL d   1       1.536   2.162  -1.304  0.00  0.00     0.054 C 
ATOM      9  C   UNL d   1       0.786   2.226  -2.626  0.00  0.00     0.018 C 
ENDBRANCH   1   8
TORSDOF 1
ENDMDL
