MODEL 1
REMARK minimizedAffinity -0.352876455
REMARK minimizedRMSD -1
REMARK  1 active torsions:
REMARK  status: ('A' for Active; 'I' for Inactive)
REMARK    1  A    between atoms: C1_2  and  C2_3 
ROOT
ATOM      1  C2  UNL d   1       0.985   1.276  -0.613  0.00  0.00    -0.081 A 
ATOM      2  C3  UNL d   1       1.640   0.044  -0.496  0.00  0.00     0.006 A 
ATOM      3  C4  UNL d   1       1.117  -0.961   0.321  0.00  0.00     0.002 A 
ATOM      4  C5  UNL d   1      -0.071  -0.754   1.029  0.00  0.00    -0.080 A 
ATOM      5  C6  UNL d   1      -0.659  -1.835   1.887  0.00  0.00     0.076 C 
ATOM      6  C7  UNL d   1      -0.716   0.484   0.927  0.00  0.00     0.002 A 
ATOM      7  C8  UNL d   1      -0.194   1.489   0.110  0.00  0.00     0.006 A 
ENDROOT
BRANCH   1   8
ATOM      8  C1  UNL d   1       1.511   2.338  -1.544  0.00  0.00     0.054 C 
ATOM      9  C   UNL d   1       0.667   2.435  -2.807  0.00  0.00     0.018 C 
ENDBRANCH   1   8
TORSDOF 1
ENDMDL
