MODEL 1
REMARK minimizedAffinity 7.88822269
REMARK minimizedRMSD -1
REMARK  1 active torsions:
REMARK  status: ('A' for Active; 'I' for Inactive)
REMARK    1  A    between atoms: C1_2  and  C2_3 
ROOT
ATOM      1  C2  UNL d   1       3.879   2.705  -2.319  0.00  0.00    -0.081 A 
ATOM      2  C3  UNL d   1       4.527   3.936  -2.158  0.00  0.00     0.006 A 
ATOM      3  C4  UNL d   1       4.925   4.366  -0.890  0.00  0.00     0.002 A 
ATOM      4  C5  UNL d   1       4.689   3.571   0.236  0.00  0.00    -0.080 A 
ATOM      5  C6  UNL d   1       5.138   4.007   1.599  0.00  0.00     0.076 C 
ATOM      6  C7  UNL d   1       4.026   2.349   0.078  0.00  0.00     0.002 A 
ATOM      7  C8  UNL d   1       3.627   1.919  -1.190  0.00  0.00     0.006 A 
ENDROOT
BRANCH   1   8
ATOM      8  C1  UNL d   1       3.506   2.209  -3.693  0.00  0.00     0.054 C 
ATOM      9  C   UNL d   1       2.117   2.682  -4.094  0.00  0.00     0.018 C 
ENDBRANCH   1   8
TORSDOF 1
ENDMDL
