MODEL 1
REMARK minimizedAffinity -2.85252452
REMARK minimizedRMSD -1
REMARK  1 active torsions:
REMARK  status: ('A' for Active; 'I' for Inactive)
REMARK    1  A    between atoms: C1_2  and  C2_3 
ROOT
ATOM      1  C2  UNL d   1       0.591   0.953  -1.048  0.00  0.00    -0.081 A 
ATOM      2  C3  UNL d   1       1.524  -0.090  -1.089  0.00  0.00     0.006 A 
ATOM      3  C4  UNL d   1       1.352  -1.226  -0.295  0.00  0.00     0.002 A 
ATOM      4  C5  UNL d   1       0.241  -1.342   0.546  0.00  0.00    -0.080 A 
ATOM      5  C6  UNL d   1       0.028  -2.570   1.382  0.00  0.00     0.076 C 
ATOM      6  C7  UNL d   1      -0.683  -0.293   0.600  0.00  0.00     0.002 A 
ATOM      7  C8  UNL d   1      -0.511   0.843  -0.193  0.00  0.00     0.006 A 
ENDROOT
BRANCH   1   8
ATOM      8  C1  UNL d   1       0.739   2.150  -1.951  0.00  0.00     0.054 C 
ATOM      9  C   UNL d   1       0.758   1.740  -3.417  0.00  0.00     0.018 C 
ENDBRANCH   1   8
TORSDOF 1
ENDMDL
