MODEL 1
REMARK minimizedAffinity -3.8527298
REMARK minimizedRMSD -1
REMARK  1 active torsions:
REMARK  status: ('A' for Active; 'I' for Inactive)
REMARK    1  A    between atoms: C1_2  and  C2_3 
ROOT
ATOM      1  C2  UNL d   1       0.719   1.261  -0.763  0.00  0.00    -0.081 A 
ATOM      2  C3  UNL d   1       0.718  -0.133  -0.626  0.00  0.00     0.006 A 
ATOM      3  C4  UNL d   1      -0.142  -0.754   0.282  0.00  0.00     0.002 A 
ATOM      4  C5  UNL d   1      -1.020   0.005   1.062  0.00  0.00    -0.080 A 
ATOM      5  C6  UNL d   1      -1.970  -0.652   2.019  0.00  0.00     0.076 C 
ATOM      6  C7  UNL d   1      -1.007   1.399   0.938  0.00  0.00     0.002 A 
ATOM      7  C8  UNL d   1      -0.146   2.021   0.031  0.00  0.00     0.006 A 
ENDROOT
BRANCH   1   8
ATOM      8  C1  UNL d   1       1.600   1.929  -1.788  0.00  0.00     0.054 C 
ATOM      9  C   UNL d   1       0.796   2.374  -3.001  0.00  0.00     0.018 C 
ENDBRANCH   1   8
TORSDOF 1
ENDMDL
