MODEL 1
REMARK minimizedAffinity -1.69308197
REMARK minimizedRMSD -1
REMARK  1 active torsions:
REMARK  status: ('A' for Active; 'I' for Inactive)
REMARK    1  A    between atoms: C1_2  and  C2_3 
ROOT
ATOM      1  C2  UNL d   1       0.763   1.349  -1.189  0.00  0.00    -0.081 A 
ATOM      2  C3  UNL d   1       0.380   0.003  -1.141  0.00  0.00     0.006 A 
ATOM      3  C4  UNL d   1      -0.596  -0.423  -0.236  0.00  0.00     0.002 A 
ATOM      4  C5  UNL d   1      -1.209   0.490   0.629  0.00  0.00    -0.080 A 
ATOM      5  C6  UNL d   1      -2.278   0.051   1.584  0.00  0.00     0.076 C 
ATOM      6  C7  UNL d   1      -0.813   1.831   0.593  0.00  0.00     0.002 A 
ATOM      7  C8  UNL d   1       0.163   2.258  -0.311  0.00  0.00     0.006 A 
ENDROOT
BRANCH   1   8
ATOM      8  C1  UNL d   1       1.768   1.824  -2.208  0.00  0.00     0.054 C 
ATOM      9  C   UNL d   1       1.106   2.104  -3.549  0.00  0.00     0.018 C 
ENDBRANCH   1   8
TORSDOF 1
ENDMDL
