MODEL 1
REMARK minimizedAffinity 1.89723122
REMARK minimizedRMSD -1
REMARK  1 active torsions:
REMARK  status: ('A' for Active; 'I' for Inactive)
REMARK    1  A    between atoms: C1_2  and  C2_3 
ROOT
ATOM      1  C2  UNL d   1      -3.770  -2.321  -3.942  0.00  0.00    -0.081 A 
ATOM      2  C3  UNL d   1      -2.693  -2.908  -3.267  0.00  0.00     0.006 A 
ATOM      3  C4  UNL d   1      -1.855  -3.814  -3.922  0.00  0.00     0.002 A 
ATOM      4  C5  UNL d   1      -2.076  -4.142  -5.264  0.00  0.00    -0.080 A 
ATOM      5  C6  UNL d   1      -1.167  -5.090  -5.987  0.00  0.00     0.076 C 
ATOM      6  C7  UNL d   1      -3.163  -3.569  -5.933  0.00  0.00     0.002 A 
ATOM      7  C8  UNL d   1      -4.000  -2.663  -5.279  0.00  0.00     0.006 A 
ENDROOT
BRANCH   1   8
ATOM      8  C1  UNL d   1      -4.636  -1.294  -3.257  0.00  0.00     0.054 C 
ATOM      9  C   UNL d   1      -3.793  -0.220  -2.585  0.00  0.00     0.018 C 
ENDBRANCH   1   8
TORSDOF 1
ENDMDL
