MODEL 1
REMARK minimizedAffinity -0.950923443
REMARK minimizedRMSD -1
REMARK  3 active torsions:
REMARK  status: ('A' for Active; 'I' for Inactive)
REMARK    1  A    between atoms: C3'_2  and  C2'_3 
REMARK    2  A    between atoms: C2'_3  and  C1'_4 
REMARK    3  A    between atoms: C1'_4  and  C1_5 
ROOT
ATOM      1  C1  N4B d   1       0.313   2.308   0.073  0.00  0.00    -0.075 A 
ATOM      2  C2  N4B d   1       0.393   0.919  -0.171  0.00  0.00     0.002 A 
ATOM      3  C3  N4B d   1       0.495   0.043   0.882  0.00  0.00     0.002 A 
ATOM      4  C4  N4B d   1       0.539   0.531   2.179  0.00  0.00    -0.004 A 
ATOM      5  C5  N4B d   1       0.435   1.872   2.407  0.00  0.00     0.002 A 
ATOM      6  C6  N4B d   1       0.328   2.764   1.359  0.00  0.00     0.002 A 
ENDROOT
BRANCH   1   7
ATOM      7  C1' N4B d   1       0.285   3.310  -1.049  0.00  0.00     0.057 C 
BRANCH   7   8
ATOM      8  C2' N4B d   1       0.696   4.677  -0.509  0.00  0.00     0.009 C 
BRANCH   8   9
ATOM      9  C3' N4B d   1       1.072   5.639  -1.623  0.00  0.00     0.004 C 
ATOM     10  C4' N4B d   1      -0.076   5.943  -2.540  0.00  0.00     0.003 C 
ENDBRANCH   8   9
ENDBRANCH   7   8
ENDBRANCH   1   7
TORSDOF 3
ENDMDL
