MODEL 1
REMARK minimizedAffinity 3.82237935
REMARK minimizedRMSD -1
REMARK  3 active torsions:
REMARK  status: ('A' for Active; 'I' for Inactive)
REMARK    1  A    between atoms: C3'_2  and  C2'_3 
REMARK    2  A    between atoms: C2'_3  and  C1'_4 
REMARK    3  A    between atoms: C1'_4  and  C1_5 
ROOT
ATOM      1  C1  N4B d   1       0.597   1.296   0.341  0.00  0.00    -0.075 A 
ATOM      2  C2  N4B d   1       0.378   1.603   1.702  0.00  0.00     0.002 A 
ATOM      3  C3  N4B d   1       0.746   0.707   2.676  0.00  0.00     0.002 A 
ATOM      4  C4  N4B d   1       1.314  -0.505   2.314  0.00  0.00    -0.004 A 
ATOM      5  C5  N4B d   1       1.546  -0.783   0.999  0.00  0.00     0.002 A 
ATOM      6  C6  N4B d   1       1.185   0.109   0.009  0.00  0.00     0.002 A 
ENDROOT
BRANCH   1   7
ATOM      7  C1' N4B d   1       0.133   2.206  -0.763  0.00  0.00     0.057 C 
BRANCH   7   8
ATOM      8  C2' N4B d   1       0.395   3.654  -0.360  0.00  0.00     0.009 C 
BRANCH   8   9
ATOM      9  C3' N4B d   1       0.392   4.587  -1.560  0.00  0.00     0.004 C 
ATOM     10  C4' N4B d   1       0.046   6.000  -1.196  0.00  0.00     0.003 C 
ENDBRANCH   8   9
ENDBRANCH   7   8
ENDBRANCH   1   7
TORSDOF 3
ENDMDL
