MODEL 1
REMARK minimizedAffinity -0.500035167
REMARK minimizedRMSD -1
REMARK  3 active torsions:
REMARK  status: ('A' for Active; 'I' for Inactive)
REMARK    1  A    between atoms: C3'_2  and  C2'_3 
REMARK    2  A    between atoms: C2'_3  and  C1'_4 
REMARK    3  A    between atoms: C1'_4  and  C1_5 
ROOT
ATOM      1  C1  N4B d   1       0.784   3.976   0.267  0.00  0.00    -0.075 A 
ATOM      2  C2  N4B d   1       0.677   5.305  -0.197  0.00  0.00     0.002 A 
ATOM      3  C3  N4B d   1       0.285   5.551  -1.491  0.00  0.00     0.002 A 
ATOM      4  C4  N4B d   1       0.015   4.488  -2.340  0.00  0.00    -0.004 A 
ATOM      5  C5  N4B d   1       0.097   3.208  -1.876  0.00  0.00     0.002 A 
ATOM      6  C6  N4B d   1       0.485   2.946  -0.577  0.00  0.00     0.002 A 
ENDROOT
BRANCH   1   7
ATOM      7  C1' N4B d   1       1.291   3.655   1.646  0.00  0.00     0.057 C 
BRANCH   7   8
ATOM      8  C2' N4B d   1       0.354   2.644   2.301  0.00  0.00     0.009 C 
BRANCH   8   9
ATOM      9  C3' N4B d   1       1.074   1.356   2.666  0.00  0.00     0.004 C 
ATOM     10  C4' N4B d   1       0.525   0.161   1.946  0.00  0.00     0.003 C 
ENDBRANCH   8   9
ENDBRANCH   7   8
ENDBRANCH   1   7
TORSDOF 3
ENDMDL
