MODEL 1
REMARK minimizedAffinity 1.4421066
REMARK minimizedRMSD -1
REMARK  3 active torsions:
REMARK  status: ('A' for Active; 'I' for Inactive)
REMARK    1  A    between atoms: C3'_2  and  C2'_3 
REMARK    2  A    between atoms: C2'_3  and  C1'_4 
REMARK    3  A    between atoms: C1'_4  and  C1_5 
ROOT
ATOM      1  C1  N4B d   1       0.350   1.996   1.356  0.00  0.00    -0.075 A 
ATOM      2  C2  N4B d   1       0.011   0.826   0.642  0.00  0.00     0.002 A 
ATOM      3  C3  N4B d   1       0.465  -0.397   1.073  0.00  0.00     0.002 A 
ATOM      4  C4  N4B d   1       1.272  -0.471   2.199  0.00  0.00    -0.004 A 
ATOM      5  C5  N4B d   1       1.574   0.662   2.897  0.00  0.00     0.002 A 
ATOM      6  C6  N4B d   1       1.121   1.897   2.477  0.00  0.00     0.002 A 
ENDROOT
BRANCH   1   7
ATOM      7  C1' N4B d   1      -0.052   3.364   0.874  0.00  0.00     0.057 C 
BRANCH   7   8
ATOM      8  C2' N4B d   1       0.306   3.500  -0.602  0.00  0.00     0.009 C 
BRANCH   8   9
ATOM      9  C3' N4B d   1       0.650   4.933  -0.974  0.00  0.00     0.004 C 
ATOM     10  C4' N4B d   1       0.276   5.272  -2.386  0.00  0.00     0.003 C 
ENDBRANCH   8   9
ENDBRANCH   7   8
ENDBRANCH   1   7
TORSDOF 3
ENDMDL
