MODEL 1
REMARK minimizedAffinity 1.39682984
REMARK minimizedRMSD -1
REMARK  3 active torsions:
REMARK  status: ('A' for Active; 'I' for Inactive)
REMARK    1  A    between atoms: C3'_2  and  C2'_3 
REMARK    2  A    between atoms: C2'_3  and  C1'_4 
REMARK    3  A    between atoms: C1'_4  and  C1_5 
ROOT
ATOM      1  C1  N4B d   1       0.781   3.550   0.219  0.00  0.00    -0.075 A 
ATOM      2  C2  N4B d   1       0.166   2.782  -0.794  0.00  0.00     0.002 A 
ATOM      3  C3  N4B d   1      -0.014   3.317  -2.046  0.00  0.00     0.002 A 
ATOM      4  C4  N4B d   1       0.393   4.617  -2.302  0.00  0.00    -0.004 A 
ATOM      5  C5  N4B d   1       1.009   5.343  -1.326  0.00  0.00     0.002 A 
ATOM      6  C6  N4B d   1       1.201   4.818  -0.064  0.00  0.00     0.002 A 
ENDROOT
BRANCH   1   7
ATOM      7  C1' N4B d   1       0.923   3.040   1.627  0.00  0.00     0.057 C 
BRANCH   7   8
ATOM      8  C2' N4B d   1      -0.090   1.923   1.859  0.00  0.00     0.009 C 
BRANCH   8   9
ATOM      9  C3' N4B d   1       0.578   0.632   2.300  0.00  0.00     0.004 C 
ATOM     10  C4' N4B d   1       1.355  -0.026   1.199  0.00  0.00     0.003 C 
ENDBRANCH   8   9
ENDBRANCH   7   8
ENDBRANCH   1   7
TORSDOF 3
ENDMDL
