MODEL 1
REMARK minimizedAffinity 0.76289165
REMARK minimizedRMSD -1
REMARK  3 active torsions:
REMARK  status: ('A' for Active; 'I' for Inactive)
REMARK    1  A    between atoms: C3'_2  and  C2'_3 
REMARK    2  A    between atoms: C2'_3  and  C1'_4 
REMARK    3  A    between atoms: C1'_4  and  C1_5 
ROOT
ATOM      1  C1  N4B d   1       0.785   3.405   0.674  0.00  0.00    -0.075 A 
ATOM      2  C2  N4B d   1       0.279   2.794  -0.494  0.00  0.00     0.002 A 
ATOM      3  C3  N4B d   1       0.195   3.512  -1.662  0.00  0.00     0.002 A 
ATOM      4  C4  N4B d   1       0.591   4.840  -1.681  0.00  0.00    -0.004 A 
ATOM      5  C5  N4B d   1       1.103   5.415  -0.555  0.00  0.00     0.002 A 
ATOM      6  C6  N4B d   1       1.197   4.705   0.625  0.00  0.00     0.002 A 
ENDROOT
BRANCH   1   7
ATOM      7  C1' N4B d   1       0.816   2.687   1.996  0.00  0.00     0.057 C 
BRANCH   7   8
ATOM      8  C2' N4B d   1       0.029   1.385   1.877  0.00  0.00     0.009 C 
BRANCH   8   9
ATOM      9  C3' N4B d   1       0.936   0.167   1.917  0.00  0.00     0.004 C 
ATOM     10  C4' N4B d   1       1.152  -0.441   0.563  0.00  0.00     0.003 C 
ENDBRANCH   8   9
ENDBRANCH   7   8
ENDBRANCH   1   7
TORSDOF 3
ENDMDL
