MODEL 1
REMARK minimizedAffinity 9.11100292
REMARK minimizedRMSD -1
REMARK  3 active torsions:
REMARK  status: ('A' for Active; 'I' for Inactive)
REMARK    1  A    between atoms: C3'_2  and  C2'_3 
REMARK    2  A    between atoms: C2'_3  and  C1'_4 
REMARK    3  A    between atoms: C1'_4  and  C1_5 
ROOT
ATOM      1  C1  N4B d   1       3.682  -5.110  -1.333  0.00  0.00    -0.075 A 
ATOM      2  C2  N4B d   1       3.250  -4.278  -2.389  0.00  0.00     0.002 A 
ATOM      3  C3  N4B d   1       3.978  -4.210  -3.552  0.00  0.00     0.002 A 
ATOM      4  C4  N4B d   1       5.147  -4.948  -3.673  0.00  0.00    -0.004 A 
ATOM      5  C5  N4B d   1       5.543  -5.769  -2.658  0.00  0.00     0.002 A 
ATOM      6  C6  N4B d   1       4.819  -5.850  -1.486  0.00  0.00     0.002 A 
ENDROOT
BRANCH   1   7
ATOM      7  C1' N4B d   1       2.965  -5.152  -0.011  0.00  0.00     0.057 C 
BRANCH   7   8
ATOM      8  C2' N4B d   1       1.498  -5.500  -0.247  0.00  0.00     0.009 C 
BRANCH   8   9
ATOM      9  C3' N4B d   1       0.624  -4.259  -0.315  0.00  0.00     0.004 C 
ATOM     10  C4' N4B d   1      -0.553  -4.428  -1.228  0.00  0.00     0.003 C 
ENDBRANCH   8   9
ENDBRANCH   7   8
ENDBRANCH   1   7
TORSDOF 3
ENDMDL
