MODEL 1
REMARK minimizedAffinity -4.11496115
REMARK minimizedRMSD -1
REMARK  0 active torsions:
REMARK  status: ('A' for Active; 'I' for Inactive)
ROOT
ATOM      1  C   UNL d   1      -2.147  -1.848   1.639  0.00  0.00     0.124 A 
ATOM      2  C1  UNL d   1      -2.589  -0.540   1.775  0.00  0.00     0.062 A 
ATOM      3  C2  UNL d   1      -1.835   0.511   1.262  0.00  0.00     0.162 A 
ATOM      4  C3  UNL d   1      -0.629   0.258   0.608  0.00  0.00    -0.034 A 
ATOM      5  C4  UNL d   1      -0.190  -1.061   0.476  0.00  0.00     0.162 A 
ATOM      6  C5  UNL d   1      -0.948  -2.107   0.990  0.00  0.00     0.062 A 
ATOM      7  F   UNL d   1      -0.518  -3.371   0.858  0.00  0.00    -0.097 F 
ATOM      8  F1  UNL d   1       0.965  -1.339  -0.147  0.00  0.00    -0.096 F 
ATOM      9  I   UNL d   1       0.503   1.827  -0.161  0.00  0.00    -0.060 I 
ATOM     10  F2  UNL d   1      -2.287   1.766   1.407  0.00  0.00    -0.096 F 
ATOM     11  F3  UNL d   1      -3.747  -0.287   2.402  0.00  0.00    -0.097 F 
ATOM     12  F4  UNL d   1      -2.875  -2.858   2.134  0.00  0.00    -0.092 F 
ENDROOT
TORSDOF 0
ENDMDL
