MODEL 1
REMARK minimizedAffinity -2.73838401
REMARK minimizedRMSD -1
REMARK  0 active torsions:
REMARK  status: ('A' for Active; 'I' for Inactive)
ROOT
ATOM      1  C   UNL d   1      -2.793  -0.456   1.764  0.00  0.00     0.124 A 
ATOM      2  C1  UNL d   1      -1.974   0.615   1.437  0.00  0.00     0.062 A 
ATOM      3  C2  UNL d   1      -0.745   0.395   0.820  0.00  0.00     0.162 A 
ATOM      4  C3  UNL d   1      -0.329  -0.904   0.525  0.00  0.00    -0.034 A 
ATOM      5  C4  UNL d   1      -1.158  -1.976   0.858  0.00  0.00     0.162 A 
ATOM      6  C5  UNL d   1      -2.385  -1.751   1.474  0.00  0.00     0.062 A 
ATOM      7  F   UNL d   1      -3.175  -2.787   1.789  0.00  0.00    -0.097 F 
ATOM      8  F1  UNL d   1      -0.789  -3.237   0.589  0.00  0.00    -0.096 F 
ATOM      9  I   UNL d   1       1.507  -1.238  -0.396  0.00  0.00    -0.060 I 
ATOM     10  F2  UNL d   1       0.026   1.449   0.515  0.00  0.00    -0.096 F 
ATOM     11  F3  UNL d   1      -2.365   1.867   1.716  0.00  0.00    -0.097 F 
ATOM     12  F4  UNL d   1      -3.974  -0.241   2.357  0.00  0.00    -0.092 F 
ENDROOT
TORSDOF 0
ENDMDL
