MODEL 1
REMARK minimizedAffinity -1.12855113
REMARK minimizedRMSD -1
REMARK  0 active torsions:
REMARK  status: ('A' for Active; 'I' for Inactive)
ROOT
ATOM      1  C   UNL d   1       0.757   0.375   0.076  0.00  0.00     0.124 A 
ATOM      2  C1  UNL d   1       1.219  -0.915   0.296  0.00  0.00     0.062 A 
ATOM      3  C2  UNL d   1       0.344  -1.909   0.724  0.00  0.00     0.162 A 
ATOM      4  C3  UNL d   1      -1.004  -1.617   0.935  0.00  0.00    -0.034 A 
ATOM      5  C4  UNL d   1      -1.461  -0.317   0.713  0.00  0.00     0.162 A 
ATOM      6  C5  UNL d   1      -0.583   0.673   0.284  0.00  0.00     0.062 A 
ATOM      7  F   UNL d   1      -1.031   1.919   0.073  0.00  0.00    -0.097 F 
ATOM      8  F1  UNL d   1      -2.751  -0.001   0.905  0.00  0.00    -0.096 F 
ATOM      9  I   UNL d   1      -2.316  -3.100   1.576  0.00  0.00    -0.060 I 
ATOM     10  F2  UNL d   1       0.818  -3.147   0.929  0.00  0.00    -0.096 F 
ATOM     11  F3  UNL d   1       2.513  -1.205   0.096  0.00  0.00    -0.097 F 
ATOM     12  F4  UNL d   1       1.601   1.330  -0.335  0.00  0.00    -0.092 F 
ENDROOT
TORSDOF 0
ENDMDL
