MODEL 1
REMARK minimizedAffinity 0.494214475
REMARK minimizedRMSD -1
REMARK  0 active torsions:
REMARK  status: ('A' for Active; 'I' for Inactive)
ROOT
ATOM      1  C   UNL d   1      -1.053  -1.530   1.565  0.00  0.00     0.124 A 
ATOM      2  C1  UNL d   1      -0.191  -2.065   0.618  0.00  0.00     0.062 A 
ATOM      3  C2  UNL d   1       0.300  -1.268  -0.412  0.00  0.00     0.162 A 
ATOM      4  C3  UNL d   1      -0.069   0.074  -0.500  0.00  0.00    -0.034 A 
ATOM      5  C4  UNL d   1      -0.937   0.606   0.456  0.00  0.00     0.162 A 
ATOM      6  C5  UNL d   1      -1.425  -0.195   1.484  0.00  0.00     0.062 A 
ATOM      7  F   UNL d   1      -2.257   0.324   2.398  0.00  0.00    -0.097 F 
ATOM      8  F1  UNL d   1      -1.312   1.892   0.401  0.00  0.00    -0.096 F 
ATOM      9  I   UNL d   1       0.662   1.269  -2.039  0.00  0.00    -0.060 I 
ATOM     10  F2  UNL d   1       1.131  -1.812  -1.313  0.00  0.00    -0.096 F 
ATOM     11  F3  UNL d   1       0.169  -3.354   0.694  0.00  0.00    -0.097 F 
ATOM     12  F4  UNL d   1      -1.524  -2.299   2.555  0.00  0.00    -0.092 F 
ENDROOT
TORSDOF 0
ENDMDL
