MODEL 1
REMARK minimizedAffinity -5.69014215
REMARK minimizedRMSD -1
REMARK  0 active torsions:
REMARK  status: ('A' for Active; 'I' for Inactive)
ROOT
ATOM      1  C   UNL d   1      -2.063  -1.564   1.571  0.00  0.00     0.124 A 
ATOM      2  C1  UNL d   1      -2.032  -0.195   1.799  0.00  0.00     0.062 A 
ATOM      3  C2  UNL d   1      -1.225   0.626   1.017  0.00  0.00     0.162 A 
ATOM      4  C3  UNL d   1      -0.443   0.082  -0.001  0.00  0.00    -0.034 A 
ATOM      5  C4  UNL d   1      -0.479  -1.296  -0.224  0.00  0.00     0.162 A 
ATOM      6  C5  UNL d   1      -1.287  -2.113   0.560  0.00  0.00     0.062 A 
ATOM      7  F   UNL d   1      -1.316  -3.435   0.338  0.00  0.00    -0.097 F 
ATOM      8  F1  UNL d   1       0.261  -1.853  -1.195  0.00  0.00    -0.096 F 
ATOM      9  I   UNL d   1       0.765   1.307  -1.172  0.00  0.00    -0.060 I 
ATOM     10  F2  UNL d   1      -1.215   1.946   1.260  0.00  0.00    -0.096 F 
ATOM     11  F3  UNL d   1      -2.781   0.337   2.775  0.00  0.00    -0.097 F 
ATOM     12  F4  UNL d   1      -2.840  -2.353   2.325  0.00  0.00    -0.092 F 
ENDROOT
TORSDOF 0
ENDMDL
