MODEL 1
REMARK minimizedAffinity -3.76184177
REMARK minimizedRMSD -1
REMARK  0 active torsions:
REMARK  status: ('A' for Active; 'I' for Inactive)
ROOT
ATOM      1  C   UNL d   1      -1.689  -2.105   1.569  0.00  0.00     0.124 A 
ATOM      2  C1  UNL d   1      -2.366  -0.900   1.445  0.00  0.00     0.062 A 
ATOM      3  C2  UNL d   1      -1.763   0.179   0.806  0.00  0.00     0.162 A 
ATOM      4  C3  UNL d   1      -0.475   0.058   0.284  0.00  0.00    -0.034 A 
ATOM      5  C4  UNL d   1       0.201  -1.157   0.414  0.00  0.00     0.162 A 
ATOM      6  C5  UNL d   1      -0.406  -2.232   1.054  0.00  0.00     0.062 A 
ATOM      7  F   UNL d   1       0.250  -3.396   1.173  0.00  0.00    -0.097 F 
ATOM      8  F1  UNL d   1       1.440  -1.307  -0.076  0.00  0.00    -0.096 F 
ATOM      9  I   UNL d   1       0.430   1.670  -0.673  0.00  0.00    -0.060 I 
ATOM     10  F2  UNL d   1      -2.441   1.332   0.700  0.00  0.00    -0.096 F 
ATOM     11  F3  UNL d   1      -3.605  -0.774   1.943  0.00  0.00    -0.097 F 
ATOM     12  F4  UNL d   1      -2.271  -3.141   2.186  0.00  0.00    -0.092 F 
ENDROOT
TORSDOF 0
ENDMDL
