MODEL 1
REMARK minimizedAffinity -4.04337502
REMARK minimizedRMSD -1
REMARK  0 active torsions:
REMARK  status: ('A' for Active; 'I' for Inactive)
ROOT
ATOM      1  C   UNL d   1      -2.238  -1.891   1.437  0.00  0.00     0.124 A 
ATOM      2  C1  UNL d   1      -0.978  -2.233   0.966  0.00  0.00     0.062 A 
ATOM      3  C2  UNL d   1      -0.142  -1.256   0.432  0.00  0.00     0.162 A 
ATOM      4  C3  UNL d   1      -0.563   0.072   0.366  0.00  0.00    -0.034 A 
ATOM      5  C4  UNL d   1      -1.833   0.408   0.841  0.00  0.00     0.162 A 
ATOM      6  C5  UNL d   1      -2.664  -0.572   1.374  0.00  0.00     0.062 A 
ATOM      7  F   UNL d   1      -3.882  -0.240   1.828  0.00  0.00    -0.097 F 
ATOM      8  F1  UNL d   1      -2.269   1.675   0.793  0.00  0.00    -0.096 F 
ATOM      9  I   UNL d   1       0.684   1.535  -0.432  0.00  0.00    -0.060 I 
ATOM     10  F2  UNL d   1       1.070  -1.615  -0.016  0.00  0.00    -0.096 F 
ATOM     11  F3  UNL d   1      -0.565  -3.507   1.025  0.00  0.00    -0.097 F 
ATOM     12  F4  UNL d   1      -3.041  -2.833   1.949  0.00  0.00    -0.092 F 
ENDROOT
TORSDOF 0
ENDMDL
