MODEL 1
REMARK minimizedAffinity -5.25307751
REMARK minimizedRMSD -1
REMARK  0 active torsions:
REMARK  status: ('A' for Active; 'I' for Inactive)
ROOT
ATOM      1  C   UNL d   1      -2.335  -1.902   1.391  0.00  0.00     0.124 A 
ATOM      2  C1  UNL d   1      -1.268  -2.468   0.707  0.00  0.00     0.062 A 
ATOM      3  C2  UNL d   1      -0.296  -1.656   0.131  0.00  0.00     0.162 A 
ATOM      4  C3  UNL d   1      -0.384  -0.268   0.238  0.00  0.00    -0.034 A 
ATOM      5  C4  UNL d   1      -1.460   0.294   0.927  0.00  0.00     0.162 A 
ATOM      6  C5  UNL d   1      -2.430  -0.522   1.501  0.00  0.00     0.062 A 
ATOM      7  F   UNL d   1      -3.459   0.027   2.162  0.00  0.00    -0.097 F 
ATOM      8  F1  UNL d   1      -1.576   1.625   1.050  0.00  0.00    -0.096 F 
ATOM      9  I   UNL d   1       1.068   0.950  -0.621  0.00  0.00    -0.060 I 
ATOM     10  F2  UNL d   1       0.724  -2.230  -0.525  0.00  0.00    -0.096 F 
ATOM     11  F3  UNL d   1      -1.175  -3.801   0.598  0.00  0.00    -0.097 F 
ATOM     12  F4  UNL d   1      -3.270  -2.686   1.943  0.00  0.00    -0.092 F 
ENDROOT
TORSDOF 0
ENDMDL
