MODEL 1
REMARK minimizedAffinity -4.05919218
REMARK minimizedRMSD -1
REMARK  0 active torsions:
REMARK  status: ('A' for Active; 'I' for Inactive)
ROOT
ATOM      1  C   UNL d   1      -2.032  -1.349   1.543  0.00  0.00     0.124 A 
ATOM      2  C1  UNL d   1      -1.184  -1.942   0.618  0.00  0.00     0.062 A 
ATOM      3  C2  UNL d   1      -0.353  -1.156  -0.174  0.00  0.00     0.162 A 
ATOM      4  C3  UNL d   1      -0.364   0.232  -0.045  0.00  0.00    -0.034 A 
ATOM      5  C4  UNL d   1      -1.220   0.822   0.887  0.00  0.00     0.162 A 
ATOM      6  C5  UNL d   1      -2.049   0.032   1.677  0.00  0.00     0.062 A 
ATOM      7  F   UNL d   1      -2.867   0.607   2.570  0.00  0.00    -0.097 F 
ATOM      8  F1  UNL d   1      -1.256   2.154   1.038  0.00  0.00    -0.096 F 
ATOM      9  I   UNL d   1       0.878   1.411  -1.228  0.00  0.00    -0.060 I 
ATOM     10  F2  UNL d   1       0.456  -1.757  -1.060  0.00  0.00    -0.096 F 
ATOM     11  F3  UNL d   1      -1.167  -3.277   0.486  0.00  0.00    -0.097 F 
ATOM     12  F4  UNL d   1      -2.832  -2.107   2.304  0.00  0.00    -0.092 F 
ENDROOT
TORSDOF 0
ENDMDL
