MODEL 1
REMARK minimizedAffinity 2.65579772
REMARK minimizedRMSD -1
REMARK  0 active torsions:
REMARK  status: ('A' for Active; 'I' for Inactive)
ROOT
ATOM      1  C   UNL d   1      -1.377  -1.269   2.097  0.00  0.00     0.124 A 
ATOM      2  C1  UNL d   1      -1.779   0.023   1.787  0.00  0.00     0.062 A 
ATOM      3  C2  UNL d   1      -1.104   0.750   0.812  0.00  0.00     0.162 A 
ATOM      4  C3  UNL d   1      -0.020   0.187   0.137  0.00  0.00    -0.034 A 
ATOM      5  C4  UNL d   1       0.378  -1.113   0.455  0.00  0.00     0.162 A 
ATOM      6  C5  UNL d   1      -0.300  -1.836   1.431  0.00  0.00     0.062 A 
ATOM      7  F   UNL d   1       0.089  -3.084   1.729  0.00  0.00    -0.097 F 
ATOM      8  F1  UNL d   1       1.416  -1.685  -0.174  0.00  0.00    -0.096 F 
ATOM      9  I   UNL d   1       0.992   1.272  -1.322  0.00  0.00    -0.060 I 
ATOM     10  F2  UNL d   1      -1.513   1.997   0.533  0.00  0.00    -0.096 F 
ATOM     11  F3  UNL d   1      -2.819   0.572   2.430  0.00  0.00    -0.097 F 
ATOM     12  F4  UNL d   1      -2.028  -1.967   3.037  0.00  0.00    -0.092 F 
ENDROOT
TORSDOF 0
ENDMDL
