MODEL 1
REMARK minimizedAffinity -4.63404179
REMARK minimizedRMSD -1
REMARK  0 active torsions:
REMARK  status: ('A' for Active; 'I' for Inactive)
ROOT
ATOM      1  C   UNL d   1      -2.249  -1.783   1.717  0.00  0.00     0.124 A 
ATOM      2  C1  UNL d   1      -1.054  -2.205   1.152  0.00  0.00     0.062 A 
ATOM      3  C2  UNL d   1      -0.160  -1.276   0.629  0.00  0.00     0.162 A 
ATOM      4  C3  UNL d   1      -0.456   0.087   0.670  0.00  0.00    -0.034 A 
ATOM      5  C4  UNL d   1      -1.661   0.504   1.240  0.00  0.00     0.162 A 
ATOM      6  C5  UNL d   1      -2.551  -0.429   1.761  0.00  0.00     0.062 A 
ATOM      7  F   UNL d   1      -3.705  -0.019   2.307  0.00  0.00    -0.097 F 
ATOM      8  F1  UNL d   1      -1.977   1.806   1.295  0.00  0.00    -0.096 F 
ATOM      9  I   UNL d   1       0.878   1.480  -0.110  0.00  0.00    -0.060 I 
ATOM     10  F2  UNL d   1       0.988  -1.713   0.089  0.00  0.00    -0.096 F 
ATOM     11  F3  UNL d   1      -0.760  -3.513   1.108  0.00  0.00    -0.097 F 
ATOM     12  F4  UNL d   1      -3.108  -2.679   2.219  0.00  0.00    -0.092 F 
ENDROOT
TORSDOF 0
ENDMDL
