MODEL 1
REMARK minimizedAffinity -2.37547636
REMARK minimizedRMSD -1
REMARK  0 active torsions:
REMARK  status: ('A' for Active; 'I' for Inactive)
ROOT
ATOM      1  C   UNL d   1      -1.918  -1.206   1.756  0.00  0.00     0.124 A 
ATOM      2  C1  UNL d   1      -2.138   0.159   1.642  0.00  0.00     0.062 A 
ATOM      3  C2  UNL d   1      -1.309   0.937   0.839  0.00  0.00     0.162 A 
ATOM      4  C3  UNL d   1      -0.252   0.352   0.143  0.00  0.00    -0.034 A 
ATOM      5  C4  UNL d   1      -0.036  -1.022   0.264  0.00  0.00     0.162 A 
ATOM      6  C5  UNL d   1      -0.867  -1.796   1.067  0.00  0.00     0.062 A 
ATOM      7  F   UNL d   1      -0.653  -3.115   1.176  0.00  0.00    -0.097 F 
ATOM      8  F1  UNL d   1       0.972  -1.618  -0.391  0.00  0.00    -0.096 F 
ATOM      9  I   UNL d   1       0.991   1.512  -1.058  0.00  0.00    -0.060 I 
ATOM     10  F2  UNL d   1      -1.546   2.255   0.748  0.00  0.00    -0.096 F 
ATOM     11  F3  UNL d   1      -3.152   0.731   2.307  0.00  0.00    -0.097 F 
ATOM     12  F4  UNL d   1      -2.717  -1.953   2.530  0.00  0.00    -0.092 F 
ENDROOT
TORSDOF 0
ENDMDL
