MODEL 1
REMARK minimizedAffinity 4.74680376
REMARK minimizedRMSD -1
REMARK  0 active torsions:
REMARK  status: ('A' for Active; 'I' for Inactive)
ROOT
ATOM      1  C   UNL d   1       2.792   1.904  -3.518  0.00  0.00     0.124 A 
ATOM      2  C1  UNL d   1       3.014   1.733  -2.159  0.00  0.00     0.062 A 
ATOM      3  C2  UNL d   1       1.944   1.744  -1.268  0.00  0.00     0.162 A 
ATOM      4  C3  UNL d   1       0.642   1.925  -1.735  0.00  0.00    -0.034 A 
ATOM      5  C4  UNL d   1       0.427   2.097  -3.103  0.00  0.00     0.162 A 
ATOM      6  C5  UNL d   1       1.499   2.086  -3.989  0.00  0.00     0.062 A 
ATOM      7  F   UNL d   1       1.283   2.251  -5.302  0.00  0.00    -0.097 F 
ATOM      8  F1  UNL d   1      -0.812   2.274  -3.585  0.00  0.00    -0.096 F 
ATOM      9  I   UNL d   1      -0.960   1.942  -0.406  0.00  0.00    -0.060 I 
ATOM     10  F2  UNL d   1       2.188   1.577   0.040  0.00  0.00    -0.096 F 
ATOM     11  F3  UNL d   1       4.262   1.559  -1.701  0.00  0.00    -0.097 F 
ATOM     12  F4  UNL d   1       3.823   1.894  -4.373  0.00  0.00    -0.092 F 
ENDROOT
TORSDOF 0
ENDMDL
