MODEL 1
REMARK minimizedAffinity -2.05046463
REMARK minimizedRMSD -1
REMARK  0 active torsions:
REMARK  status: ('A' for Active; 'I' for Inactive)
ROOT
ATOM      1  C   UNL d   1      -2.180  -1.080   1.708  0.00  0.00     0.124 A 
ATOM      2  C1  UNL d   1      -2.273   0.305   1.693  0.00  0.00     0.062 A 
ATOM      3  C2  UNL d   1      -1.343   1.062   0.985  0.00  0.00     0.162 A 
ATOM      4  C3  UNL d   1      -0.312   0.435   0.285  0.00  0.00    -0.034 A 
ATOM      5  C4  UNL d   1      -0.224  -0.958   0.306  0.00  0.00     0.162 A 
ATOM      6  C5  UNL d   1      -1.156  -1.710   1.015  0.00  0.00     0.062 A 
ATOM      7  F   UNL d   1      -1.065  -3.048   1.028  0.00  0.00    -0.097 F 
ATOM      8  F1  UNL d   1       0.754  -1.593  -0.356  0.00  0.00    -0.096 F 
ATOM      9  I   UNL d   1       1.080   1.562  -0.774  0.00  0.00    -0.060 I 
ATOM     10  F2  UNL d   1      -1.458   2.398   0.988  0.00  0.00    -0.096 F 
ATOM     11  F3  UNL d   1      -3.261   0.917   2.362  0.00  0.00    -0.097 F 
ATOM     12  F4  UNL d   1      -3.075  -1.805   2.390  0.00  0.00    -0.092 F 
ENDROOT
TORSDOF 0
ENDMDL
