MODEL 1
REMARK minimizedAffinity 2.16319323
REMARK minimizedRMSD -1
REMARK  0 active torsions:
REMARK  status: ('A' for Active; 'I' for Inactive)
ROOT
ATOM      1  C   UNL d   1      -6.000  -0.985  -1.502  0.00  0.00     0.077 C 
ATOM      2  C1  UNL d   1      -4.592  -0.721  -1.057  0.00  0.00    -0.074 A 
ATOM      3  C2  UNL d   1      -3.536  -0.721  -1.974  0.00  0.00    -0.005 A 
ATOM      4  C3  UNL d   1      -2.234  -0.464  -1.547  0.00  0.00     0.006 A 
ATOM      5  C4  UNL d   1      -1.974  -0.206  -0.200  0.00  0.00    -0.005 A 
ATOM      6  C5  UNL d   1      -3.017  -0.202   0.731  0.00  0.00    -0.074 A 
ATOM      7  C6  UNL d   1      -2.757   0.083   2.181  0.00  0.00     0.077 C 
ATOM      8  C7  UNL d   1      -4.325  -0.454   0.293  0.00  0.00    -0.001 A 
ENDROOT
TORSDOF 0
ENDMDL
