MODEL 1
REMARK minimizedAffinity 12.3228922
REMARK minimizedRMSD -1
REMARK  0 active torsions:
REMARK  status: ('A' for Active; 'I' for Inactive)
ROOT
ATOM      1  C   UNL d   1      -2.820  -0.471   1.442  0.00  0.00     0.077 C 
ATOM      2  C1  UNL d   1      -2.312  -1.498   0.474  0.00  0.00    -0.074 A 
ATOM      3  C2  UNL d   1      -2.049  -1.162  -0.858  0.00  0.00    -0.005 A 
ATOM      4  C3  UNL d   1      -1.567  -2.126  -1.744  0.00  0.00     0.006 A 
ATOM      5  C4  UNL d   1      -1.344  -3.432  -1.308  0.00  0.00    -0.005 A 
ATOM      6  C5  UNL d   1      -1.600  -3.786   0.021  0.00  0.00    -0.074 A 
ATOM      7  C6  UNL d   1      -1.356  -5.183   0.508  0.00  0.00     0.077 C 
ATOM      8  C7  UNL d   1      -2.077  -2.810   0.907  0.00  0.00    -0.001 A 
ENDROOT
TORSDOF 0
ENDMDL
