MODEL 1
REMARK minimizedAffinity 3.29835916
REMARK minimizedRMSD -1
REMARK  0 active torsions:
REMARK  status: ('A' for Active; 'I' for Inactive)
ROOT
ATOM      1  C   UNL d   1      -1.597  -1.131   6.000  0.00  0.00     0.077 C 
ATOM      2  C1  UNL d   1      -0.499  -2.153   5.992  0.00  0.00    -0.074 A 
ATOM      3  C2  UNL d   1       0.844  -1.765   5.996  0.00  0.00    -0.005 A 
ATOM      4  C3  UNL d   1       1.854  -2.727   5.998  0.00  0.00     0.006 A 
ATOM      5  C4  UNL d   1       1.531  -4.085   5.996  0.00  0.00    -0.005 A 
ATOM      6  C5  UNL d   1       0.193  -4.491   5.992  0.00  0.00    -0.074 A 
ATOM      7  C6  UNL d   1      -0.171  -5.946   6.000  0.00  0.00     0.077 C 
ATOM      8  C7  UNL d   1      -0.816  -3.519   5.997  0.00  0.00    -0.001 A 
ENDROOT
TORSDOF 0
ENDMDL
