MODEL 1
REMARK minimizedAffinity 15.88169
REMARK minimizedRMSD -1
REMARK  0 active torsions:
REMARK  status: ('A' for Active; 'I' for Inactive)
ROOT
ATOM      1  C   UNL d   1      -4.489   2.683  -1.882  0.00  0.00     0.077 C 
ATOM      2  C1  UNL d   1      -4.768   1.381  -1.191  0.00  0.00    -0.074 A 
ATOM      3  C2  UNL d   1      -5.755   0.512  -1.666  0.00  0.00    -0.005 A 
ATOM      4  C3  UNL d   1      -5.996  -0.699  -1.018  0.00  0.00     0.006 A 
ATOM      5  C4  UNL d   1      -5.254  -1.053   0.109  0.00  0.00    -0.005 A 
ATOM      6  C5  UNL d   1      -4.262  -0.197   0.598  0.00  0.00    -0.074 A 
ATOM      7  C6  UNL d   1      -3.448  -0.567   1.802  0.00  0.00     0.077 C 
ATOM      8  C7  UNL d   1      -4.021   1.015  -0.063  0.00  0.00    -0.001 A 
ENDROOT
TORSDOF 0
ENDMDL
