MODEL 1
REMARK minimizedAffinity 16.423624
REMARK minimizedRMSD -1
REMARK  0 active torsions:
REMARK  status: ('A' for Active; 'I' for Inactive)
ROOT
ATOM      1  C   UNL d   1      -1.346  -1.016  -2.996  0.00  0.00     0.077 C 
ATOM      2  C1  UNL d   1      -2.258  -0.753  -1.834  0.00  0.00    -0.074 A 
ATOM      3  C2  UNL d   1      -1.745  -0.378  -0.588  0.00  0.00    -0.005 A 
ATOM      4  C3  UNL d   1      -2.606  -0.128   0.480  0.00  0.00     0.006 A 
ATOM      5  C4  UNL d   1      -3.986  -0.250   0.314  0.00  0.00    -0.005 A 
ATOM      6  C5  UNL d   1      -4.517  -0.622  -0.925  0.00  0.00    -0.074 A 
ATOM      7  C6  UNL d   1      -5.999  -0.748  -1.123  0.00  0.00     0.077 C 
ATOM      8  C7  UNL d   1      -3.646  -0.865  -1.996  0.00  0.00    -0.001 A 
ENDROOT
TORSDOF 0
ENDMDL
