MODEL 1
REMARK minimizedAffinity 14.4620943
REMARK minimizedRMSD -1
REMARK  0 active torsions:
REMARK  status: ('A' for Active; 'I' for Inactive)
ROOT
ATOM      1  C   UNL d   1       3.622   4.309   6.000  0.00  0.00     0.077 C 
ATOM      2  C1  UNL d   1       2.998   4.444   4.643  0.00  0.00    -0.074 A 
ATOM      3  C2  UNL d   1       3.137   5.621   3.901  0.00  0.00    -0.005 A 
ATOM      4  C3  UNL d   1       2.560   5.728   2.636  0.00  0.00     0.006 A 
ATOM      5  C4  UNL d   1       1.838   4.661   2.101  0.00  0.00    -0.005 A 
ATOM      6  C5  UNL d   1       1.688   3.475   2.827  0.00  0.00    -0.074 A 
ATOM      7  C6  UNL d   1       0.924   2.315   2.262  0.00  0.00     0.077 C 
ATOM      8  C7  UNL d   1       2.278   3.373   4.095  0.00  0.00    -0.001 A 
ENDROOT
TORSDOF 0
ENDMDL
