MODEL 1
REMARK minimizedAffinity 16.3026695
REMARK minimizedRMSD -1
REMARK  0 active torsions:
REMARK  status: ('A' for Active; 'I' for Inactive)
ROOT
ATOM      1  C   UNL d   1      -5.987   1.601  -3.387  0.00  0.00     0.077 C 
ATOM      2  C1  UNL d   1      -5.984   3.068  -3.074  0.00  0.00    -0.074 A 
ATOM      3  C2  UNL d   1      -5.992   4.021  -4.098  0.00  0.00    -0.005 A 
ATOM      4  C3  UNL d   1      -5.999   5.381  -3.792  0.00  0.00     0.006 A 
ATOM      5  C4  UNL d   1      -5.997   5.802  -2.462  0.00  0.00    -0.005 A 
ATOM      6  C5  UNL d   1      -5.989   4.864  -1.425  0.00  0.00    -0.074 A 
ATOM      7  C6  UNL d   1      -5.997   5.300   0.011  0.00  0.00     0.077 C 
ATOM      8  C7  UNL d   1      -5.990   3.499  -1.740  0.00  0.00    -0.001 A 
ENDROOT
TORSDOF 0
ENDMDL
