MODEL 1
REMARK minimizedAffinity 16.6781578
REMARK minimizedRMSD -1
REMARK  0 active torsions:
REMARK  status: ('A' for Active; 'I' for Inactive)
ROOT
ATOM      1  C   UNL d   1       1.990  -4.991   5.999  0.00  0.00     0.077 C 
ATOM      2  C1  UNL d   1       1.359  -3.773   5.392  0.00  0.00    -0.074 A 
ATOM      3  C2  UNL d   1       0.505  -3.881   4.289  0.00  0.00    -0.005 A 
ATOM      4  C3  UNL d   1      -0.083  -2.741   3.741  0.00  0.00     0.006 A 
ATOM      5  C4  UNL d   1       0.177  -1.484   4.289  0.00  0.00    -0.005 A 
ATOM      6  C5  UNL d   1       1.027  -1.357   5.393  0.00  0.00    -0.074 A 
ATOM      7  C6  UNL d   1       1.308  -0.015   6.000  0.00  0.00     0.077 C 
ATOM      8  C7  UNL d   1       1.608  -2.508   5.942  0.00  0.00    -0.001 A 
ENDROOT
TORSDOF 0
ENDMDL
