MODEL 1
REMARK minimizedAffinity 6.61460924
REMARK minimizedRMSD -1
REMARK  0 active torsions:
REMARK  status: ('A' for Active; 'I' for Inactive)
ROOT
ATOM      1  C   UNL d   1      -0.915  -1.075  -2.149  0.00  0.00     0.077 C 
ATOM      2  C1  UNL d   1      -2.066  -0.636  -1.293  0.00  0.00    -0.074 A 
ATOM      3  C2  UNL d   1      -1.848   0.011  -0.072  0.00  0.00    -0.005 A 
ATOM      4  C3  UNL d   1      -2.928   0.422   0.709  0.00  0.00     0.006 A 
ATOM      5  C4  UNL d   1      -4.235   0.191   0.278  0.00  0.00    -0.005 A 
ATOM      6  C5  UNL d   1      -4.473  -0.454  -0.941  0.00  0.00    -0.074 A 
ATOM      7  C6  UNL d   1      -5.871  -0.701  -1.423  0.00  0.00     0.077 C 
ATOM      8  C7  UNL d   1      -3.382  -0.858  -1.723  0.00  0.00    -0.001 A 
ENDROOT
TORSDOF 0
ENDMDL
