MODEL 1
REMARK minimizedAffinity 18.5590801
REMARK minimizedRMSD -1
REMARK  0 active torsions:
REMARK  status: ('A' for Active; 'I' for Inactive)
ROOT
ATOM      1  C   UNL d   1      -3.384  -4.619  -5.369  0.00  0.00     0.077 C 
ATOM      2  C1  UNL d   1      -2.642  -4.448  -4.076  0.00  0.00    -0.074 A 
ATOM      3  C2  UNL d   1      -2.306  -5.555  -3.290  0.00  0.00    -0.005 A 
ATOM      4  C3  UNL d   1      -1.607  -5.382  -2.095  0.00  0.00     0.006 A 
ATOM      5  C4  UNL d   1      -1.238  -4.103  -1.675  0.00  0.00    -0.005 A 
ATOM      6  C5  UNL d   1      -1.565  -2.985  -2.449  0.00  0.00    -0.074 A 
ATOM      7  C6  UNL d   1      -1.168  -1.605  -2.018  0.00  0.00     0.077 C 
ATOM      8  C7  UNL d   1      -2.261  -3.168  -3.652  0.00  0.00    -0.001 A 
ENDROOT
TORSDOF 0
ENDMDL
