MODEL 1
REMARK minimizedAffinity 9.14877987
REMARK minimizedRMSD -1
REMARK  0 active torsions:
REMARK  status: ('A' for Active; 'I' for Inactive)
ROOT
ATOM      1  C   UNL d   1       5.998   0.258   2.453  0.00  0.00     0.077 C 
ATOM      2  C1  UNL d   1       4.742   0.936   2.914  0.00  0.00    -0.074 A 
ATOM      3  C2  UNL d   1       3.530   0.241   2.972  0.00  0.00    -0.005 A 
ATOM      4  C3  UNL d   1       2.372   0.883   3.412  0.00  0.00     0.006 A 
ATOM      5  C4  UNL d   1       2.415   2.223   3.799  0.00  0.00    -0.005 A 
ATOM      6  C5  UNL d   1       3.619   2.933   3.749  0.00  0.00    -0.074 A 
ATOM      7  C6  UNL d   1       3.684   4.371   4.171  0.00  0.00     0.077 C 
ATOM      8  C7  UNL d   1       4.779   2.280   3.312  0.00  0.00    -0.001 A 
ENDROOT
TORSDOF 0
ENDMDL
