MODEL 1
REMARK minimizedAffinity 13.4130087
REMARK minimizedRMSD -1
REMARK  0 active torsions:
REMARK  status: ('A' for Active; 'I' for Inactive)
ROOT
ATOM      1  C   UNL d   1      -3.917  -0.822  -3.886  0.00  0.00     0.124 A 
ATOM      2  C1  UNL d   1      -3.141  -0.994  -2.748  0.00  0.00     0.062 A 
ATOM      3  C2  UNL d   1      -2.782   0.105  -1.973  0.00  0.00     0.162 A 
ATOM      4  C3  UNL d   1      -3.199   1.387  -2.333  0.00  0.00    -0.034 A 
ATOM      5  C4  UNL d   1      -3.979   1.551  -3.480  0.00  0.00     0.162 A 
ATOM      6  C5  UNL d   1      -4.335   0.449  -4.251  0.00  0.00     0.062 A 
ATOM      7  F   UNL d   1      -5.084   0.617  -5.350  0.00  0.00    -0.097 F 
ATOM      8  F1  UNL d   1      -4.397   2.769  -3.855  0.00  0.00    -0.096 F 
ATOM      9  I   UNL d   1      -2.664   3.033  -1.178  0.00  0.00    -0.060 I 
ATOM     10  F2  UNL d   1      -2.031  -0.090  -0.878  0.00  0.00    -0.096 F 
ATOM     11  F3  UNL d   1      -2.735  -2.222  -2.393  0.00  0.00    -0.097 F 
ATOM     12  F4  UNL d   1      -4.260  -1.882  -4.630  0.00  0.00    -0.092 F 
ENDROOT
TORSDOF 0
ENDMDL
