MODEL 1
REMARK minimizedAffinity 21.4297619
REMARK minimizedRMSD -1
REMARK  0 active torsions:
REMARK  status: ('A' for Active; 'I' for Inactive)
ROOT
ATOM      1  C   UNL d   1       4.580  -5.574  -2.938  0.00  0.00     0.124 A 
ATOM      2  C1  UNL d   1       3.982  -5.729  -4.181  0.00  0.00     0.062 A 
ATOM      3  C2  UNL d   1       2.599  -5.850  -4.283  0.00  0.00     0.162 A 
ATOM      4  C3  UNL d   1       1.804  -5.818  -3.137  0.00  0.00    -0.034 A 
ATOM      5  C4  UNL d   1       2.413  -5.663  -1.890  0.00  0.00     0.162 A 
ATOM      6  C5  UNL d   1       3.795  -5.542  -1.794  0.00  0.00     0.062 A 
ATOM      7  F   UNL d   1       4.371  -5.393  -0.593  0.00  0.00    -0.097 F 
ATOM      8  F1  UNL d   1       1.678  -5.628  -0.769  0.00  0.00    -0.096 F 
ATOM      9  I   UNL d   1      -0.264  -6.000  -3.284  0.00  0.00    -0.060 I 
ATOM     10  F2  UNL d   1       2.048  -5.998  -5.497  0.00  0.00    -0.096 F 
ATOM     11  F3  UNL d   1       4.738  -5.761  -5.288  0.00  0.00    -0.097 F 
ATOM     12  F4  UNL d   1       5.911  -5.458  -2.844  0.00  0.00    -0.092 F 
ENDROOT
TORSDOF 0
ENDMDL
