MODEL 1
REMARK minimizedAffinity 21.3147907
REMARK minimizedRMSD -1
REMARK  0 active torsions:
REMARK  status: ('A' for Active; 'I' for Inactive)
ROOT
ATOM      1  C   UNL d   1      -2.968   2.299  -1.736  0.00  0.00     0.124 A 
ATOM      2  C1  UNL d   1      -3.624   1.804  -2.855  0.00  0.00     0.062 A 
ATOM      3  C2  UNL d   1      -3.861   0.438  -2.980  0.00  0.00     0.162 A 
ATOM      4  C3  UNL d   1      -3.443  -0.443  -1.983  0.00  0.00    -0.034 A 
ATOM      5  C4  UNL d   1      -2.783   0.062  -0.861  0.00  0.00     0.162 A 
ATOM      6  C5  UNL d   1      -2.549   1.428  -0.741  0.00  0.00     0.062 A 
ATOM      7  F   UNL d   1      -1.915   1.904   0.340  0.00  0.00    -0.097 F 
ATOM      8  F1  UNL d   1      -2.368  -0.757   0.116  0.00  0.00    -0.096 F 
ATOM      9  I   UNL d   1      -3.796  -2.486  -2.166  0.00  0.00    -0.060 I 
ATOM     10  F2  UNL d   1      -4.498  -0.012  -4.072  0.00  0.00    -0.096 F 
ATOM     11  F3  UNL d   1      -4.030   2.643  -3.819  0.00  0.00    -0.097 F 
ATOM     12  F4  UNL d   1      -2.741   3.613  -1.619  0.00  0.00    -0.092 F 
ENDROOT
TORSDOF 0
ENDMDL
