MODEL 1
REMARK minimizedAffinity 16.5482082
REMARK minimizedRMSD -1
REMARK  0 active torsions:
REMARK  status: ('A' for Active; 'I' for Inactive)
ROOT
ATOM      1  C   UNL d   1      -4.998   3.615   0.807  0.00  0.00     0.124 A 
ATOM      2  C1  UNL d   1      -4.007   3.919  -0.116  0.00  0.00     0.062 A 
ATOM      3  C2  UNL d   1      -2.984   3.009  -0.370  0.00  0.00     0.162 A 
ATOM      4  C3  UNL d   1      -2.948   1.786   0.299  0.00  0.00    -0.034 A 
ATOM      5  C4  UNL d   1      -3.948   1.488   1.226  0.00  0.00     0.162 A 
ATOM      6  C5  UNL d   1      -4.968   2.400   1.477  0.00  0.00     0.062 A 
ATOM      7  F   UNL d   1      -5.924   2.105   2.369  0.00  0.00    -0.097 F 
ATOM      8  F1  UNL d   1      -3.944   0.321   1.887  0.00  0.00    -0.096 F 
ATOM      9  I   UNL d   1      -1.421   0.423  -0.079  0.00  0.00    -0.060 I 
ATOM     10  F2  UNL d   1      -2.040   3.329  -1.267  0.00  0.00    -0.096 F 
ATOM     11  F3  UNL d   1      -4.033   5.092  -0.764  0.00  0.00    -0.097 F 
ATOM     12  F4  UNL d   1      -5.980   4.493   1.050  0.00  0.00    -0.092 F 
ENDROOT
TORSDOF 0
ENDMDL
