MODEL 1
REMARK minimizedAffinity 16.6114979
REMARK minimizedRMSD -1
REMARK  0 active torsions:
REMARK  status: ('A' for Active; 'I' for Inactive)
ROOT
ATOM      1  C   UNL d   1       2.958  -2.118   2.997  0.00  0.00     0.124 A 
ATOM      2  C1  UNL d   1       1.618  -2.239   2.657  0.00  0.00     0.062 A 
ATOM      3  C2  UNL d   1       0.886  -3.346   3.076  0.00  0.00     0.162 A 
ATOM      4  C3  UNL d   1       1.493  -4.342   3.841  0.00  0.00    -0.034 A 
ATOM      5  C4  UNL d   1       2.842  -4.214   4.179  0.00  0.00     0.162 A 
ATOM      6  C5  UNL d   1       3.569  -3.106   3.757  0.00  0.00     0.062 A 
ATOM      7  F   UNL d   1       4.863  -2.991   4.087  0.00  0.00    -0.097 F 
ATOM      8  F1  UNL d   1       3.456  -5.153   4.914  0.00  0.00    -0.096 F 
ATOM      9  I   UNL d   1       0.402  -5.999   4.470  0.00  0.00    -0.060 I 
ATOM     10  F2  UNL d   1      -0.407  -3.436   2.733  0.00  0.00    -0.096 F 
ATOM     11  F3  UNL d   1       1.026  -1.287   1.921  0.00  0.00    -0.097 F 
ATOM     12  F4  UNL d   1       3.660  -1.052   2.591  0.00  0.00    -0.092 F 
ENDROOT
TORSDOF 0
ENDMDL
