MODEL 1
REMARK minimizedAffinity 19.4514885
REMARK minimizedRMSD -1
REMARK  0 active torsions:
REMARK  status: ('A' for Active; 'I' for Inactive)
ROOT
ATOM      1  C   UNL d   1       2.035  -4.514   3.263  0.00  0.00     0.124 A 
ATOM      2  C1  UNL d   1       1.217  -3.763   2.430  0.00  0.00     0.062 A 
ATOM      3  C2  UNL d   1       1.469  -2.408   2.238  0.00  0.00     0.162 A 
ATOM      4  C3  UNL d   1       2.545  -1.795   2.880  0.00  0.00    -0.034 A 
ATOM      5  C4  UNL d   1       3.362  -2.556   3.717  0.00  0.00     0.162 A 
ATOM      6  C5  UNL d   1       3.106  -3.910   3.906  0.00  0.00     0.062 A 
ATOM      7  F   UNL d   1       3.897  -4.634   4.711  0.00  0.00    -0.097 F 
ATOM      8  F1  UNL d   1       4.405  -1.998   4.350  0.00  0.00    -0.096 F 
ATOM      9  I   UNL d   1       2.925   0.232   2.596  0.00  0.00    -0.060 I 
ATOM     10  F2  UNL d   1       0.663  -1.707   1.427  0.00  0.00    -0.096 F 
ATOM     11  F3  UNL d   1       0.181  -4.344   1.809  0.00  0.00    -0.097 F 
ATOM     12  F4  UNL d   1       1.789  -5.818   3.447  0.00  0.00    -0.092 F 
ENDROOT
TORSDOF 0
ENDMDL
