MODEL 1
REMARK minimizedAffinity 14.5306034
REMARK minimizedRMSD -1
REMARK  0 active torsions:
REMARK  status: ('A' for Active; 'I' for Inactive)
ROOT
ATOM      1  C   UNL d   1       2.481  -2.074   3.081  0.00  0.00     0.124 A 
ATOM      2  C1  UNL d   1       3.227  -2.754   4.033  0.00  0.00     0.062 A 
ATOM      3  C2  UNL d   1       2.640  -3.763   4.792  0.00  0.00     0.162 A 
ATOM      4  C3  UNL d   1       1.300  -4.099   4.601  0.00  0.00    -0.034 A 
ATOM      5  C4  UNL d   1       0.556  -3.409   3.642  0.00  0.00     0.162 A 
ATOM      6  C5  UNL d   1       1.146  -2.401   2.886  0.00  0.00     0.062 A 
ATOM      7  F   UNL d   1       0.424  -1.744   1.967  0.00  0.00    -0.097 F 
ATOM      8  F1  UNL d   1      -0.736  -3.705   3.432  0.00  0.00    -0.096 F 
ATOM      9  I   UNL d   1       0.419  -5.606   5.733  0.00  0.00    -0.060 I 
ATOM     10  F2  UNL d   1       3.385  -4.405   5.705  0.00  0.00    -0.096 F 
ATOM     11  F3  UNL d   1       4.516  -2.439   4.224  0.00  0.00    -0.097 F 
ATOM     12  F4  UNL d   1       3.047  -1.103   2.354  0.00  0.00    -0.092 F 
ENDROOT
TORSDOF 0
ENDMDL
