MODEL 1
REMARK minimizedAffinity 22.459053
REMARK minimizedRMSD -1
REMARK  0 active torsions:
REMARK  status: ('A' for Active; 'I' for Inactive)
ROOT
ATOM      1  C   UNL d   1       0.519  -3.894   3.609  0.00  0.00     0.124 A 
ATOM      2  C1  UNL d   1       1.213  -4.875   4.304  0.00  0.00     0.062 A 
ATOM      3  C2  UNL d   1       2.579  -4.737   4.533  0.00  0.00     0.162 A 
ATOM      4  C3  UNL d   1       3.261  -3.613   4.066  0.00  0.00    -0.034 A 
ATOM      5  C4  UNL d   1       2.557  -2.632   3.366  0.00  0.00     0.162 A 
ATOM      6  C5  UNL d   1       1.191  -2.774   3.141  0.00  0.00     0.062 A 
ATOM      7  F   UNL d   1       0.523  -1.826   2.468  0.00  0.00    -0.097 F 
ATOM      8  F1  UNL d   1       3.181  -1.539   2.904  0.00  0.00    -0.096 F 
ATOM      9  I   UNL d   1       5.303  -3.404   4.406  0.00  0.00    -0.060 I 
ATOM     10  F2  UNL d   1       3.224  -5.700   5.208  0.00  0.00    -0.096 F 
ATOM     11  F3  UNL d   1       0.566  -5.958   4.757  0.00  0.00    -0.097 F 
ATOM     12  F4  UNL d   1      -0.795  -4.030   3.389  0.00  0.00    -0.092 F 
ENDROOT
TORSDOF 0
ENDMDL
