MODEL 1
REMARK minimizedAffinity 17.4840126
REMARK minimizedRMSD -1
REMARK  0 active torsions:
REMARK  status: ('A' for Active; 'I' for Inactive)
ROOT
ATOM      1  C   UNL d   1       3.013   1.938   1.905  0.00  0.00     0.124 A 
ATOM      2  C1  UNL d   1       2.560   1.624   3.179  0.00  0.00     0.062 A 
ATOM      3  C2  UNL d   1       2.112   0.337   3.465  0.00  0.00     0.162 A 
ATOM      4  C3  UNL d   1       2.116  -0.646   2.475  0.00  0.00    -0.034 A 
ATOM      5  C4  UNL d   1       2.571  -0.322   1.196  0.00  0.00     0.162 A 
ATOM      6  C5  UNL d   1       3.018   0.965   0.915  0.00  0.00     0.062 A 
ATOM      7  F   UNL d   1       3.455   1.267  -0.316  0.00  0.00    -0.097 F 
ATOM      8  F1  UNL d   1       2.588  -1.243   0.221  0.00  0.00    -0.096 F 
ATOM      9  I   UNL d   1       1.447  -2.570   2.900  0.00  0.00    -0.060 I 
ATOM     10  F2  UNL d   1       1.681   0.062   4.705  0.00  0.00    -0.096 F 
ATOM     11  F3  UNL d   1       2.554   2.562   4.136  0.00  0.00    -0.097 F 
ATOM     12  F4  UNL d   1       3.442   3.176   1.632  0.00  0.00    -0.092 F 
ENDROOT
TORSDOF 0
ENDMDL
