MODEL 1
REMARK minimizedAffinity -1.80598068
REMARK minimizedRMSD -1
REMARK  1 active torsions:
REMARK  status: ('A' for Active; 'I' for Inactive)
REMARK    1  A    between atoms: C1_2  and  C2_3 
ROOT
ATOM      1  C2  UNL d   1       0.476  -0.311  -0.412  0.00  0.00    -0.077 A 
ATOM      2  C3  UNL d   1       1.411  -1.349  -0.521  0.00  0.00     0.002 A 
ATOM      3  C4  UNL d   1       2.775  -1.065  -0.610  0.00  0.00     0.002 A 
ATOM      4  C5  UNL d   1       3.216   0.257  -0.585  0.00  0.00    -0.004 A 
ATOM      5  C6  UNL d   1       2.293   1.297  -0.479  0.00  0.00     0.002 A 
ATOM      6  C7  UNL d   1       0.929   1.014  -0.391  0.00  0.00     0.002 A 
ENDROOT
BRANCH   1   7
ATOM      7  C1  UNL d   1      -0.992  -0.618  -0.267  0.00  0.00     0.055 C 
ATOM      8  C   UNL d   1      -1.771   0.607   0.191  0.00  0.00     0.019 C 
ENDBRANCH   1   7
TORSDOF 1
ENDMDL
