MODEL 1
REMARK minimizedAffinity -4.96228409
REMARK minimizedRMSD -1
REMARK  1 active torsions:
REMARK  status: ('A' for Active; 'I' for Inactive)
REMARK    1  A    between atoms: C1_2  and  C2_3 
ROOT
ATOM      1  C2  UNL d   1       0.914  -0.310  -0.290  0.00  0.00    -0.077 A 
ATOM      2  C3  UNL d   1       1.362   1.001  -0.073  0.00  0.00     0.002 A 
ATOM      3  C4  UNL d   1       2.705   1.250   0.215  0.00  0.00     0.002 A 
ATOM      4  C5  UNL d   1       3.611   0.194   0.286  0.00  0.00    -0.004 A 
ATOM      5  C6  UNL d   1       3.175  -1.113   0.075  0.00  0.00     0.002 A 
ATOM      6  C7  UNL d   1       1.833  -1.364  -0.213  0.00  0.00     0.002 A 
ENDROOT
BRANCH   1   7
ATOM      7  C1  UNL d   1      -0.525  -0.575  -0.650  0.00  0.00     0.055 C 
ATOM      8  C   UNL d   1      -1.395   0.646  -0.389  0.00  0.00     0.019 C 
ENDBRANCH   1   7
TORSDOF 1
ENDMDL
