MODEL 1
REMARK minimizedAffinity -4.04037189
REMARK minimizedRMSD -1
REMARK  1 active torsions:
REMARK  status: ('A' for Active; 'I' for Inactive)
REMARK    1  A    between atoms: C1_2  and  C2_3 
ROOT
ATOM      1  C2  UNL d   1       0.257  -0.034  -0.188  0.00  0.00    -0.077 A 
ATOM      2  C3  UNL d   1       0.777   0.393   1.042  0.00  0.00     0.002 A 
ATOM      3  C4  UNL d   1       1.948  -0.173   1.548  0.00  0.00     0.002 A 
ATOM      4  C5  UNL d   1       2.612  -1.166   0.830  0.00  0.00    -0.004 A 
ATOM      5  C6  UNL d   1       2.101  -1.599  -0.393  0.00  0.00     0.002 A 
ATOM      6  C7  UNL d   1       0.930  -1.035  -0.900  0.00  0.00     0.002 A 
ENDROOT
BRANCH   1   7
ATOM      7  C1  UNL d   1      -0.980   0.609  -0.759  0.00  0.00     0.055 C 
ATOM      8  C   UNL d   1      -1.905   1.105   0.343  0.00  0.00     0.019 C 
ENDBRANCH   1   7
TORSDOF 1
ENDMDL
