MODEL 1
REMARK minimizedAffinity -4.20905352
REMARK minimizedRMSD -1
REMARK  1 active torsions:
REMARK  status: ('A' for Active; 'I' for Inactive)
REMARK    1  A    between atoms: C1_2  and  C2_3 
ROOT
ATOM      1  C2  UNL d   1       0.216  -0.237   0.022  0.00  0.00    -0.077 A 
ATOM      2  C3  UNL d   1       1.377   0.378   0.512  0.00  0.00     0.002 A 
ATOM      3  C4  UNL d   1       2.480  -0.391   0.888  0.00  0.00     0.002 A 
ATOM      4  C5  UNL d   1       2.435  -1.779   0.773  0.00  0.00    -0.004 A 
ATOM      5  C6  UNL d   1       1.285  -2.400   0.288  0.00  0.00     0.002 A 
ATOM      6  C7  UNL d   1       0.181  -1.633  -0.087  0.00  0.00     0.002 A 
ENDROOT
BRANCH   1   7
ATOM      7  C1  UNL d   1      -0.956   0.594  -0.430  0.00  0.00     0.055 C 
ATOM      8  C   UNL d   1      -2.057   0.615   0.620  0.00  0.00     0.019 C 
ENDBRANCH   1   7
TORSDOF 1
ENDMDL
