MODEL 1
REMARK minimizedAffinity -3.05402541
REMARK minimizedRMSD -1
REMARK  1 active torsions:
REMARK  status: ('A' for Active; 'I' for Inactive)
REMARK    1  A    between atoms: C1_2  and  C2_3 
ROOT
ATOM      1  C2  UNL d   1       1.311  -1.079  -0.112  0.00  0.00    -0.077 A 
ATOM      2  C3  UNL d   1      -0.003  -1.443  -0.438  0.00  0.00     0.002 A 
ATOM      3  C4  UNL d   1      -1.022  -0.489  -0.428  0.00  0.00     0.002 A 
ATOM      4  C5  UNL d   1      -0.738   0.834  -0.097  0.00  0.00    -0.004 A 
ATOM      5  C6  UNL d   1       0.566   1.205   0.231  0.00  0.00     0.002 A 
ATOM      6  C7  UNL d   1       1.586   0.253   0.223  0.00  0.00     0.002 A 
ENDROOT
BRANCH   1   7
ATOM      7  C1  UNL d   1       2.421  -2.096  -0.170  0.00  0.00     0.055 C 
ATOM      8  C   UNL d   1       3.461  -1.844   0.912  0.00  0.00     0.019 C 
ENDBRANCH   1   7
TORSDOF 1
ENDMDL
