MODEL 1
REMARK minimizedAffinity -3.34807253
REMARK minimizedRMSD -1
REMARK  1 active torsions:
REMARK  status: ('A' for Active; 'I' for Inactive)
REMARK    1  A    between atoms: C1_2  and  C2_3 
ROOT
ATOM      1  C2  UNL d   1       2.288  -0.256  -0.159  0.00  0.00    -0.077 A 
ATOM      2  C3  UNL d   1       2.162  -1.653  -0.163  0.00  0.00     0.002 A 
ATOM      3  C4  UNL d   1       0.907  -2.249  -0.298  0.00  0.00     0.002 A 
ATOM      4  C5  UNL d   1      -0.231  -1.456  -0.434  0.00  0.00    -0.004 A 
ATOM      5  C6  UNL d   1      -0.117  -0.067  -0.429  0.00  0.00     0.002 A 
ATOM      6  C7  UNL d   1       1.137   0.531  -0.293  0.00  0.00     0.002 A 
ENDROOT
BRANCH   1   7
ATOM      7  C1  UNL d   1       3.646   0.388  -0.063  0.00  0.00     0.055 C 
ATOM      8  C   UNL d   1       3.534   1.901   0.056  0.00  0.00     0.019 C 
ENDBRANCH   1   7
TORSDOF 1
ENDMDL
