MODEL 1
REMARK minimizedAffinity -3.52991343
REMARK minimizedRMSD -1
REMARK  1 active torsions:
REMARK  status: ('A' for Active; 'I' for Inactive)
REMARK    1  A    between atoms: C1_2  and  C2_3 
ROOT
ATOM      1  C2  UNL d   1       1.754  -0.421   0.199  0.00  0.00    -0.077 A 
ATOM      2  C3  UNL d   1       1.300   0.895   0.368  0.00  0.00     0.002 A 
ATOM      3  C4  UNL d   1       2.210   1.936   0.563  0.00  0.00     0.002 A 
ATOM      4  C5  UNL d   1       3.578   1.673   0.587  0.00  0.00    -0.004 A 
ATOM      5  C6  UNL d   1       4.039   0.367   0.421  0.00  0.00     0.002 A 
ATOM      6  C7  UNL d   1       3.131  -0.675   0.227  0.00  0.00     0.002 A 
ENDROOT
BRANCH   1   7
ATOM      7  C1  UNL d   1       0.777  -1.538  -0.061  0.00  0.00     0.055 C 
ATOM      8  C   UNL d   1      -0.358  -1.081  -0.967  0.00  0.00     0.019 C 
ENDBRANCH   1   7
TORSDOF 1
ENDMDL
