MODEL 1
REMARK minimizedAffinity 25.3403282
REMARK minimizedRMSD -1
REMARK  0 active torsions:
REMARK  status: ('A' for Active; 'I' for Inactive)
ROOT
ATOM      1  C   UNL d   1      -4.859   4.176  -5.688  0.00  0.00    -0.002 A 
ATOM      2  C1  UNL d   1      -5.743   3.108  -5.744  0.00  0.00     0.010 A 
ATOM      3  C2  UNL d   1      -5.550   1.983  -4.940  0.00  0.00     0.041 A 
ATOM      4  C3  UNL d   1      -4.444   1.950  -4.069  0.00  0.00    -0.075 A 
ATOM      5  S   UNL d   1      -4.008   0.677  -2.990  0.00  0.00     0.015 SA
ATOM      6  C4  UNL d   1      -2.638   1.522  -2.428  0.00  0.00     0.022 A 
ATOM      7  C5  UNL d   1      -2.501   2.747  -3.038  0.00  0.00     0.026 A 
ATOM      8  C6  UNL d   1      -3.540   3.014  -3.993  0.00  0.00    -0.082 A 
ATOM      9  C7  UNL d   1      -3.763   4.140  -4.822  0.00  0.00     0.045 A 
ENDROOT
TORSDOF 0
ENDMDL
