MODEL 1
REMARK minimizedAffinity 2.27532816
REMARK minimizedRMSD -1
REMARK  0 active torsions:
REMARK  status: ('A' for Active; 'I' for Inactive)
ROOT
ATOM      1  C   UNL d   1       3.579  -4.031  -0.154  0.00  0.00    -0.002 A 
ATOM      2  C1  UNL d   1       2.418  -4.574  -0.686  0.00  0.00     0.010 A 
ATOM      3  C2  UNL d   1       1.168  -4.057  -0.339  0.00  0.00     0.041 A 
ATOM      4  C3  UNL d   1       1.104  -2.974   0.559  0.00  0.00    -0.075 A 
ATOM      5  S   UNL d   1      -0.316  -2.177   1.126  0.00  0.00     0.015 SA
ATOM      6  C4  UNL d   1       0.585  -1.096   2.088  0.00  0.00     0.022 A 
ATOM      7  C5  UNL d   1       1.937  -1.323   1.991  0.00  0.00     0.026 A 
ATOM      8  C6  UNL d   1       2.259  -2.409   1.107  0.00  0.00    -0.082 A 
ATOM      9  C7  UNL d   1       3.511  -2.956   0.737  0.00  0.00     0.045 A 
ENDROOT
TORSDOF 0
ENDMDL
