MODEL 1
REMARK minimizedAffinity 18.933012
REMARK minimizedRMSD -1
REMARK  0 active torsions:
REMARK  status: ('A' for Active; 'I' for Inactive)
ROOT
ATOM      1  C   UNL d   1       5.598  -0.230   0.725  0.00  0.00    -0.002 A 
ATOM      2  C1  UNL d   1       5.614  -1.479   0.120  0.00  0.00     0.010 A 
ATOM      3  C2  UNL d   1       5.721  -1.596  -1.267  0.00  0.00     0.041 A 
ATOM      4  C3  UNL d   1       5.815  -0.424  -2.044  0.00  0.00    -0.075 A 
ATOM      5  S   UNL d   1       5.955  -0.323  -3.759  0.00  0.00     0.015 SA
ATOM      6  C4  UNL d   1       5.998   1.380  -3.730  0.00  0.00     0.022 A 
ATOM      7  C5  UNL d   1       5.909   1.877  -2.451  0.00  0.00     0.026 A 
ATOM      8  C6  UNL d   1       5.802   0.845  -1.458  0.00  0.00    -0.082 A 
ATOM      9  C7  UNL d   1       5.692   0.929  -0.049  0.00  0.00     0.045 A 
ENDROOT
TORSDOF 0
ENDMDL
