MODEL 1
REMARK minimizedAffinity 14.9162922
REMARK minimizedRMSD -1
REMARK  0 active torsions:
REMARK  status: ('A' for Active; 'I' for Inactive)
ROOT
ATOM      1  C   UNL d   1      -1.073  -1.832   2.633  0.00  0.00    -0.002 A 
ATOM      2  C1  UNL d   1      -1.887  -2.094   1.540  0.00  0.00     0.010 A 
ATOM      3  C2  UNL d   1      -3.028  -1.324   1.304  0.00  0.00     0.041 A 
ATOM      4  C3  UNL d   1      -3.338  -0.275   2.192  0.00  0.00    -0.075 A 
ATOM      5  S   UNL d   1      -4.683   0.800   2.101  0.00  0.00     0.015 SA
ATOM      6  C4  UNL d   1      -4.208   1.632   3.510  0.00  0.00     0.022 A 
ATOM      7  C5  UNL d   1      -3.054   1.116   4.050  0.00  0.00     0.026 A 
ATOM      8  C6  UNL d   1      -2.533   0.008   3.299  0.00  0.00    -0.082 A 
ATOM      9  C7  UNL d   1      -1.384  -0.791   3.511  0.00  0.00     0.045 A 
ENDROOT
TORSDOF 0
ENDMDL
