MODEL 1
REMARK minimizedAffinity 4.57833958
REMARK minimizedRMSD -1
REMARK  0 active torsions:
REMARK  status: ('A' for Active; 'I' for Inactive)
ROOT
ATOM      1  C1  DEN d   1       3.271  -1.421   0.992  0.00  0.00     0.130 A 
ATOM      2  C2  DEN d   1       3.408  -0.122   1.644  0.00  0.00    -0.031 A 
ATOM      3  C3  DEN d   1       2.052   0.389   1.931  0.00  0.00     0.027 A 
ATOM      4  C4  DEN d   1      -0.232  -0.703   1.438  0.00  0.00     0.027 A 
ATOM      5  C5  DEN d   1      -0.856  -1.800   0.886  0.00  0.00    -0.003 A 
ATOM      6  C6  DEN d   1      -0.155  -2.824   0.306  0.00  0.00     0.001 A 
ATOM      7  C7  DEN d   1       1.215  -2.793   0.304  0.00  0.00     0.017 A 
ATOM      8  C8  DEN d   1       1.851  -1.686   0.851  0.00  0.00    -0.094 A 
ATOM      9  C9  DEN d   1       1.125  -0.667   1.444  0.00  0.00    -0.072 A 
ENDROOT
TORSDOF 0
ENDMDL
