MODEL 1
REMARK minimizedAffinity 3.03458929
REMARK minimizedRMSD -1
REMARK  0 active torsions:
REMARK  status: ('A' for Active; 'I' for Inactive)
ROOT
ATOM      1  C1  DEN d   1       0.459  -1.060   1.795  0.00  0.00     0.130 A 
ATOM      2  C2  DEN d   1      -0.990  -0.885   1.825  0.00  0.00    -0.031 A 
ATOM      3  C3  DEN d   1      -1.578  -1.770   0.798  0.00  0.00     0.027 A 
ATOM      4  C4  DEN d   1      -0.391  -3.388  -0.821  0.00  0.00     0.027 A 
ATOM      5  C5  DEN d   1       0.833  -3.873  -1.228  0.00  0.00    -0.003 A 
ATOM      6  C6  DEN d   1       2.010  -3.433  -0.683  0.00  0.00     0.001 A 
ATOM      7  C7  DEN d   1       1.986  -2.512   0.331  0.00  0.00     0.017 A 
ATOM      8  C8  DEN d   1       0.757  -2.013   0.741  0.00  0.00    -0.094 A 
ATOM      9  C9  DEN d   1      -0.423  -2.480   0.187  0.00  0.00    -0.072 A 
ENDROOT
TORSDOF 0
ENDMDL
