MODEL 1
REMARK minimizedAffinity 0.489338875
REMARK minimizedRMSD -1
REMARK  0 active torsions:
REMARK  status: ('A' for Active; 'I' for Inactive)
ROOT
ATOM      1  C1  DEN d   1      -0.070  -3.811  -0.439  0.00  0.00     0.130 A 
ATOM      2  C2  DEN d   1       1.141  -4.285  -1.104  0.00  0.00    -0.031 A 
ATOM      3  C3  DEN d   1       2.188  -3.258  -0.931  0.00  0.00     0.027 A 
ATOM      4  C4  DEN d   1       2.054  -0.995   0.299  0.00  0.00     0.027 A 
ATOM      5  C5  DEN d   1       1.230  -0.151   1.010  0.00  0.00    -0.003 A 
ATOM      6  C6  DEN d   1      -0.084  -0.450   1.256  0.00  0.00     0.001 A 
ATOM      7  C7  DEN d   1      -0.601  -1.644   0.826  0.00  0.00     0.017 A 
ATOM      8  C8  DEN d   1       0.222  -2.496   0.103  0.00  0.00    -0.094 A 
ATOM      9  C9  DEN d   1       1.551  -2.182  -0.125  0.00  0.00    -0.072 A 
ENDROOT
TORSDOF 0
ENDMDL
