MODEL 1
REMARK minimizedAffinity 2.39904714
REMARK minimizedRMSD -1
REMARK  0 active torsions:
REMARK  status: ('A' for Active; 'I' for Inactive)
ROOT
ATOM      1  C1  DEN d   1      -1.403  -0.986   0.583  0.00  0.00     0.130 A 
ATOM      2  C2  DEN d   1      -0.822  -2.213   1.120  0.00  0.00    -0.031 A 
ATOM      3  C3  DEN d   1      -0.675  -2.048   2.580  0.00  0.00     0.027 A 
ATOM      4  C4  DEN d   1      -1.292  -0.023   4.054  0.00  0.00     0.027 A 
ATOM      5  C5  DEN d   1      -1.805   1.256   4.048  0.00  0.00    -0.003 A 
ATOM      6  C6  DEN d   1      -2.184   1.884   2.891  0.00  0.00     0.001 A 
ATOM      7  C7  DEN d   1      -2.100   1.218   1.697  0.00  0.00     0.017 A 
ATOM      8  C8  DEN d   1      -1.577  -0.068   1.695  0.00  0.00    -0.094 A 
ATOM      9  C9  DEN d   1      -1.210  -0.691   2.876  0.00  0.00    -0.072 A 
ENDROOT
TORSDOF 0
ENDMDL
