MODEL 1
REMARK minimizedAffinity 7.37732315
REMARK minimizedRMSD -1
REMARK  0 active torsions:
REMARK  status: ('A' for Active; 'I' for Inactive)
ROOT
ATOM      1  C1  DEN d   1       2.540  -3.004   0.391  0.00  0.00     0.130 A 
ATOM      2  C2  DEN d   1       2.250  -3.980  -0.656  0.00  0.00    -0.031 A 
ATOM      3  C3  DEN d   1       0.847  -3.794  -1.077  0.00  0.00     0.027 A 
ATOM      4  C4  DEN d   1      -0.895  -2.097  -0.218  0.00  0.00     0.027 A 
ATOM      5  C5  DEN d   1      -1.117  -1.071   0.674  0.00  0.00    -0.003 A 
ATOM      6  C6  DEN d   1      -0.155  -0.644   1.550  0.00  0.00     0.001 A 
ATOM      7  C7  DEN d   1       1.089  -1.215   1.523  0.00  0.00     0.017 A 
ATOM      8  C8  DEN d   1       1.319  -2.255   0.632  0.00  0.00    -0.094 A 
ATOM      9  C9  DEN d   1       0.338  -2.664  -0.255  0.00  0.00    -0.072 A 
ENDROOT
TORSDOF 0
ENDMDL
