MODEL 1
REMARK minimizedAffinity -0.394333124
REMARK minimizedRMSD -1
REMARK  0 active torsions:
REMARK  status: ('A' for Active; 'I' for Inactive)
ROOT
ATOM      1  C1  DEN d   1      -6.000  -6.000   3.717  0.00  0.00     0.130 A 
ATOM      2  C2  DEN d   1      -5.528  -5.861   5.092  0.00  0.00    -0.031 A 
ATOM      3  C3  DEN d   1      -4.892  -4.535   5.225  0.00  0.00     0.027 A 
ATOM      4  C4  DEN d   1      -4.598  -2.691   3.445  0.00  0.00     0.027 A 
ATOM      5  C5  DEN d   1      -4.826  -2.355   2.129  0.00  0.00    -0.003 A 
ATOM      6  C6  DEN d   1      -5.426  -3.216   1.249  0.00  0.00     0.001 A 
ATOM      7  C7  DEN d   1      -5.860  -4.440   1.685  0.00  0.00     0.017 A 
ATOM      8  C8  DEN d   1      -5.626  -4.789   3.009  0.00  0.00    -0.094 A 
ATOM      9  C9  DEN d   1      -5.029  -3.900   3.886  0.00  0.00    -0.072 A 
ENDROOT
TORSDOF 0
ENDMDL
