MODEL 1
REMARK minimizedAffinity -1.2744292
REMARK minimizedRMSD -1
REMARK  0 active torsions:
REMARK  status: ('A' for Active; 'I' for Inactive)
ROOT
ATOM      1  C1  DEN d   1      -4.963  -5.270   2.112  0.00  0.00     0.130 A 
ATOM      2  C2  DEN d   1      -5.188  -4.010   1.409  0.00  0.00    -0.031 A 
ATOM      3  C3  DEN d   1      -5.611  -3.003   2.402  0.00  0.00     0.027 A 
ATOM      4  C4  DEN d   1      -5.932  -3.269   4.948  0.00  0.00     0.027 A 
ATOM      5  C5  DEN d   1      -5.872  -4.155   6.000  0.00  0.00    -0.003 A 
ATOM      6  C6  DEN d   1      -5.541  -5.473   5.827  0.00  0.00     0.001 A 
ATOM      7  C7  DEN d   1      -5.213  -5.932   4.578  0.00  0.00     0.017 A 
ATOM      8  C8  DEN d   1      -5.278  -5.046   3.511  0.00  0.00    -0.094 A 
ATOM      9  C9  DEN d   1      -5.603  -3.714   3.709  0.00  0.00    -0.072 A 
ENDROOT
TORSDOF 0
ENDMDL
