MODEL 1
REMARK minimizedAffinity -4.27894449
REMARK minimizedRMSD -1
REMARK  0 active torsions:
REMARK  status: ('A' for Active; 'I' for Inactive)
ROOT
ATOM      1  C1  DEN d   1      -1.047  -2.340   0.002  0.00  0.00     0.130 A 
ATOM      2  C2  DEN d   1      -1.736  -1.129   0.441  0.00  0.00    -0.031 A 
ATOM      3  C3  DEN d   1      -0.715  -0.163   0.896  0.00  0.00     0.027 A 
ATOM      4  C4  DEN d   1       1.850  -0.422   0.958  0.00  0.00     0.027 A 
ATOM      5  C5  DEN d   1       2.899  -1.276   0.698  0.00  0.00    -0.003 A 
ATOM      6  C6  DEN d   1       2.705  -2.546   0.224  0.00  0.00     0.001 A 
ATOM      7  C7  DEN d   1       1.436  -2.984  -0.048  0.00  0.00     0.017 A 
ATOM      8  C8  DEN d   1       0.373  -2.131   0.219  0.00  0.00    -0.094 A 
ATOM      9  C9  DEN d   1       0.590  -0.846   0.686  0.00  0.00    -0.072 A 
ENDROOT
TORSDOF 0
ENDMDL
