MODEL 1
REMARK minimizedAffinity -5.1860013
REMARK minimizedRMSD -1
REMARK  0 active torsions:
REMARK  status: ('A' for Active; 'I' for Inactive)
ROOT
ATOM      1  C1  DEN d   1      -0.642  -3.714   0.027  0.00  0.00     0.130 A 
ATOM      2  C2  DEN d   1      -1.948  -3.285   0.521  0.00  0.00    -0.031 A 
ATOM      3  C3  DEN d   1      -1.844  -1.865   0.913  0.00  0.00     0.027 A 
ATOM      4  C4  DEN d   1       0.199  -0.295   0.798  0.00  0.00     0.027 A 
ATOM      5  C5  DEN d   1       1.532  -0.211   0.460  0.00  0.00    -0.003 A 
ATOM      6  C6  DEN d   1       2.236  -1.287  -0.011  0.00  0.00     0.001 A 
ATOM      7  C7  DEN d   1       1.599  -2.485  -0.199  0.00  0.00     0.017 A 
ATOM      8  C8  DEN d   1       0.257  -2.581   0.147  0.00  0.00    -0.094 A 
ATOM      9  C9  DEN d   1      -0.440  -1.478   0.609  0.00  0.00    -0.072 A 
ENDROOT
TORSDOF 0
ENDMDL
