MODEL 1
REMARK minimizedAffinity 0.717258096
REMARK minimizedRMSD -1
REMARK  0 active torsions:
REMARK  status: ('A' for Active; 'I' for Inactive)
ROOT
ATOM      1  C1  DEN d   1       0.356  -3.287  -0.207  0.00  0.00     0.130 A 
ATOM      2  C2  DEN d   1       1.764  -3.579  -0.467  0.00  0.00    -0.031 A 
ATOM      3  C3  DEN d   1       2.558  -2.410  -0.041  0.00  0.00     0.027 A 
ATOM      4  C4  DEN d   1       1.751  -0.190   0.996  0.00  0.00     0.027 A 
ATOM      5  C5  DEN d   1       0.644   0.524   1.397  0.00  0.00    -0.003 A 
ATOM      6  C6  DEN d   1      -0.629   0.036   1.261  0.00  0.00     0.001 A 
ATOM      7  C7  DEN d   1      -0.823  -1.220   0.752  0.00  0.00     0.017 A 
ATOM      8  C8  DEN d   1       0.288  -1.944   0.338  0.00  0.00    -0.094 A 
ATOM      9  C9  DEN d   1       1.567  -1.438   0.495  0.00  0.00    -0.072 A 
ENDROOT
TORSDOF 0
ENDMDL
