MODEL 1
REMARK minimizedAffinity 2.97639966
REMARK minimizedRMSD -1
REMARK  0 active torsions:
REMARK  status: ('A' for Active; 'I' for Inactive)
ROOT
ATOM      1  C1  DEN d   1       0.380  -3.421  -0.220  0.00  0.00     0.130 A 
ATOM      2  C2  DEN d   1       1.830  -3.528  -0.358  0.00  0.00    -0.031 A 
ATOM      3  C3  DEN d   1       2.428  -2.261   0.110  0.00  0.00     0.027 A 
ATOM      4  C4  DEN d   1       1.255  -0.158   1.034  0.00  0.00     0.027 A 
ATOM      5  C5  DEN d   1       0.035   0.408   1.330  0.00  0.00    -0.003 A 
ATOM      6  C6  DEN d   1      -1.147  -0.243   1.100  0.00  0.00     0.001 A 
ATOM      7  C7  DEN d   1      -1.133  -1.519   0.600  0.00  0.00     0.017 A 
ATOM      8  C8  DEN d   1       0.093  -2.094   0.293  0.00  0.00    -0.094 A 
ATOM      9  C9  DEN d   1       1.278  -1.423   0.544  0.00  0.00    -0.072 A 
ENDROOT
TORSDOF 0
ENDMDL
