MODEL 1
REMARK minimizedAffinity 11.962038
REMARK minimizedRMSD -1
REMARK  0 active torsions:
REMARK  status: ('A' for Active; 'I' for Inactive)
ROOT
ATOM      1  C1  DEN d   1       1.177  -1.753   1.286  0.00  0.00     0.130 A 
ATOM      2  C2  DEN d   1      -0.247  -1.429   1.270  0.00  0.00    -0.031 A 
ATOM      3  C3  DEN d   1      -0.908  -2.325   0.300  0.00  0.00     0.027 A 
ATOM      4  C4  DEN d   1       0.129  -4.176  -1.167  0.00  0.00     0.027 A 
ATOM      5  C5  DEN d   1       1.302  -4.812  -1.509  0.00  0.00    -0.003 A 
ATOM      6  C6  DEN d   1       2.510  -4.453  -0.974  0.00  0.00     0.001 A 
ATOM      7  C7  DEN d   1       2.567  -3.460  -0.032  0.00  0.00     0.017 A 
ATOM      8  C8  DEN d   1       1.390  -2.809   0.313  0.00  0.00    -0.094 A 
ATOM      9  C9  DEN d   1       0.176  -3.194  -0.231  0.00  0.00    -0.072 A 
ENDROOT
TORSDOF 0
ENDMDL
