MODEL 1
REMARK minimizedAffinity 7.22342443
REMARK minimizedRMSD -1
REMARK  0 active torsions:
REMARK  status: ('A' for Active; 'I' for Inactive)
ROOT
ATOM      1  C1  DEN d   1       3.104  -1.614   0.770  0.00  0.00     0.130 A 
ATOM      2  C2  DEN d   1       3.095  -0.494   1.707  0.00  0.00    -0.031 A 
ATOM      3  C3  DEN d   1       1.694  -0.239   2.100  0.00  0.00     0.027 A 
ATOM      4  C4  DEN d   1      -0.449  -1.467   1.355  0.00  0.00     0.027 A 
ATOM      5  C5  DEN d   1      -0.945  -2.477   0.561  0.00  0.00    -0.003 A 
ATOM      6  C6  DEN d   1      -0.138  -3.242  -0.238  0.00  0.00     0.001 A 
ATOM      7  C7  DEN d   1       1.217  -3.038  -0.227  0.00  0.00     0.017 A 
ATOM      8  C8  DEN d   1       1.725  -2.017   0.565  0.00  0.00    -0.094 A 
ATOM      9  C9  DEN d   1       0.893  -1.263   1.376  0.00  0.00    -0.072 A 
ENDROOT
TORSDOF 0
ENDMDL
