MODEL 1
REMARK minimizedAffinity -3.93690014
REMARK minimizedRMSD -1
REMARK  0 active torsions:
REMARK  status: ('A' for Active; 'I' for Inactive)
ROOT
ATOM      1  C1  DEN d   1      -1.341   0.157   2.288  0.00  0.00     0.130 A 
ATOM      2  C2  DEN d   1      -2.684   0.445   1.794  0.00  0.00    -0.031 A 
ATOM      3  C3  DEN d   1      -2.997  -0.528   0.729  0.00  0.00     0.027 A 
ATOM      4  C4  DEN d   1      -1.542  -2.447  -0.194  0.00  0.00     0.027 A 
ATOM      5  C5  DEN d   1      -0.321  -3.077  -0.096  0.00  0.00    -0.003 A 
ATOM      6  C6  DEN d   1       0.651  -2.655   0.772  0.00  0.00     0.001 A 
ATOM      7  C7  DEN d   1       0.401  -1.601   1.610  0.00  0.00     0.017 A 
ATOM      8  C8  DEN d   1      -0.825  -0.956   1.512  0.00  0.00    -0.094 A 
ATOM      9  C9  DEN d   1      -1.799  -1.405   0.636  0.00  0.00    -0.072 A 
ENDROOT
TORSDOF 0
ENDMDL
