MODEL 1
REMARK minimizedAffinity -4.87053776
REMARK minimizedRMSD -1
REMARK  0 active torsions:
REMARK  status: ('A' for Active; 'I' for Inactive)
ROOT
ATOM      1  C4' PXY d   1       1.792  -2.621  -2.985  0.00  0.00     0.077 C 
ATOM      2  C1' PXY d   1      -1.179   0.038   1.200  0.00  0.00     0.077 C 
ATOM      3  C1  PXY d   1      -0.397  -0.669   0.111  0.00  0.00    -0.082 A 
ATOM      4  C2  PXY d   1       0.085   0.028  -0.906  0.00  0.00     0.003 A 
ATOM      5  C3  PXY d   1       0.767  -0.600  -1.916  0.00  0.00     0.003 A 
ATOM      6  C4  PXY d   1       1.004  -1.948  -1.858  0.00  0.00    -0.082 A 
ATOM      7  C5  PXY d   1       0.525  -2.664  -0.819  0.00  0.00     0.003 A 
ATOM      8  C6  PXY d   1      -0.201  -2.013   0.175  0.00  0.00     0.003 A 
ENDROOT
TORSDOF 0
ENDMDL
