MODEL 1
REMARK minimizedAffinity -3.99867368
REMARK minimizedRMSD -1
REMARK  0 active torsions:
REMARK  status: ('A' for Active; 'I' for Inactive)
ROOT
ATOM      1  C4' PXY d   1       0.338   1.936  -0.605  0.00  0.00     0.077 C 
ATOM      2  C1' PXY d   1      -0.505  -3.771  -0.237  0.00  0.00     0.077 C 
ATOM      3  C1  PXY d   1      -0.296  -2.272  -0.328  0.00  0.00    -0.082 A 
ATOM      4  C2  PXY d   1       0.537  -1.782  -1.231  0.00  0.00     0.003 A 
ATOM      5  C3  PXY d   1       0.763  -0.431  -1.306  0.00  0.00     0.003 A 
ATOM      6  C4  PXY d   1       0.088   0.430  -0.483  0.00  0.00    -0.082 A 
ATOM      7  C5  PXY d   1      -0.772  -0.061   0.434  0.00  0.00     0.003 A 
ATOM      8  C6  PXY d   1      -0.956  -1.438   0.521  0.00  0.00     0.003 A 
ENDROOT
TORSDOF 0
ENDMDL
