MODEL 1
REMARK minimizedAffinity -5.48860598
REMARK minimizedRMSD -1
REMARK  0 active torsions:
REMARK  status: ('A' for Active; 'I' for Inactive)
ROOT
ATOM      1  C4' PXY d   1       0.082   1.916  -0.347  0.00  0.00     0.077 C 
ATOM      2  C1' PXY d   1      -0.331  -3.846  -0.139  0.00  0.00     0.077 C 
ATOM      3  C1  PXY d   1      -0.212  -2.336  -0.202  0.00  0.00    -0.082 A 
ATOM      4  C2  PXY d   1      -0.705  -1.600   0.781  0.00  0.00     0.003 A 
ATOM      5  C3  PXY d   1      -0.635  -0.232   0.726  0.00  0.00     0.003 A 
ATOM      6  C4  PXY d   1      -0.007   0.388  -0.322  0.00  0.00    -0.082 A 
ATOM      7  C5  PXY d   1       0.508  -0.357  -1.323  0.00  0.00     0.003 A 
ATOM      8  C6  PXY d   1       0.390  -1.742  -1.268  0.00  0.00     0.003 A 
ENDROOT
TORSDOF 0
ENDMDL
