MODEL 1
REMARK minimizedAffinity -4.76722431
REMARK minimizedRMSD -1
REMARK  0 active torsions:
REMARK  status: ('A' for Active; 'I' for Inactive)
ROOT
ATOM      1  C4' PXY d   1      -0.108   1.805  -0.625  0.00  0.00     0.077 C 
ATOM      2  C1' PXY d   1       0.426  -3.792   0.716  0.00  0.00     0.077 C 
ATOM      3  C1  PXY d   1       0.294  -2.326   0.354  0.00  0.00    -0.082 A 
ATOM      4  C2  PXY d   1      -0.016  -1.446   1.292  0.00  0.00     0.003 A 
ATOM      5  C3  PXY d   1      -0.171  -0.121   0.976  0.00  0.00     0.003 A 
ATOM      6  C4  PXY d   1       0.045   0.316  -0.303  0.00  0.00    -0.082 A 
ATOM      7  C5  PXY d   1       0.372  -0.574  -1.264  0.00  0.00     0.003 A 
ATOM      8  C6  PXY d   1       0.484  -1.921  -0.931  0.00  0.00     0.003 A 
ENDROOT
TORSDOF 0
ENDMDL
