MODEL 1
REMARK minimizedAffinity -3.44223285
REMARK minimizedRMSD -1
REMARK  0 active torsions:
REMARK  status: ('A' for Active; 'I' for Inactive)
ROOT
ATOM      1  C4' PXY d   1       1.082   2.385   0.052  0.00  0.00     0.077 C 
ATOM      2  C1' PXY d   1      -0.912  -3.029   0.411  0.00  0.00     0.077 C 
ATOM      3  C1  PXY d   1      -0.379  -1.614   0.310  0.00  0.00    -0.082 A 
ATOM      4  C2  PXY d   1      -0.762  -0.706   1.193  0.00  0.00     0.003 A 
ATOM      5  C3  PXY d   1      -0.314   0.586   1.098  0.00  0.00     0.003 A 
ATOM      6  C4  PXY d   1       0.576   0.941   0.121  0.00  0.00    -0.082 A 
ATOM      7  C5  PXY d   1       0.980   0.018  -0.778  0.00  0.00     0.003 A 
ATOM      8  C6  PXY d   1       0.482  -1.278  -0.689  0.00  0.00     0.003 A 
ENDROOT
TORSDOF 0
ENDMDL
