MODEL 1
REMARK minimizedAffinity -4.74607992
REMARK minimizedRMSD -1
REMARK  0 active torsions:
REMARK  status: ('A' for Active; 'I' for Inactive)
ROOT
ATOM      1  C4' PXY d   1       0.186   1.426  -0.169  0.00  0.00     0.077 C 
ATOM      2  C1' PXY d   1      -0.186  -4.343  -0.165  0.00  0.00     0.077 C 
ATOM      3  C1  PXY d   1      -0.097  -2.830  -0.156  0.00  0.00    -0.082 A 
ATOM      4  C2  PXY d   1       0.244  -2.188  -1.262  0.00  0.00     0.003 A 
ATOM      5  C3  PXY d   1       0.361  -0.822  -1.263  0.00  0.00     0.003 A 
ATOM      6  C4  PXY d   1       0.074  -0.101  -0.135  0.00  0.00    -0.082 A 
ATOM      7  C5  PXY d   1      -0.284  -0.748   0.995  0.00  0.00     0.003 A 
ATOM      8  C6  PXY d   1      -0.357  -2.138   0.986  0.00  0.00     0.003 A 
ENDROOT
TORSDOF 0
ENDMDL
