MODEL 1
REMARK minimizedAffinity -4.01532221
REMARK minimizedRMSD -1
REMARK  0 active torsions:
REMARK  status: ('A' for Active; 'I' for Inactive)
ROOT
ATOM      1  C4' PXY d   1       0.132  -3.501   0.699  0.00  0.00     0.077 C 
ATOM      2  C1' PXY d   1       0.125   2.115  -0.670  0.00  0.00     0.077 C 
ATOM      3  C1  PXY d   1       0.123   0.645  -0.299  0.00  0.00    -0.082 A 
ATOM      4  C2  PXY d   1       0.845  -0.209  -1.006  0.00  0.00     0.003 A 
ATOM      5  C3  PXY d   1       0.830  -1.547  -0.704  0.00  0.00     0.003 A 
ATOM      6  C4  PXY d   1       0.111  -2.007   0.366  0.00  0.00    -0.082 A 
ATOM      7  C5  PXY d   1      -0.619  -1.140   1.100  0.00  0.00     0.003 A 
ATOM      8  C6  PXY d   1      -0.623   0.208   0.751  0.00  0.00     0.003 A 
ENDROOT
TORSDOF 0
ENDMDL
