MODEL 1
REMARK minimizedAffinity -3.52292514
REMARK minimizedRMSD -1
REMARK  0 active torsions:
REMARK  status: ('A' for Active; 'I' for Inactive)
ROOT
ATOM      1  C4' PXY d   1       0.319   2.154  -0.114  0.00  0.00     0.077 C 
ATOM      2  C1' PXY d   1      -1.210  -3.420  -0.008  0.00  0.00     0.077 C 
ATOM      3  C1  PXY d   1      -0.800  -1.961  -0.045  0.00  0.00    -0.082 A 
ATOM      4  C2  PXY d   1      -1.046  -1.186   0.999  0.00  0.00     0.003 A 
ATOM      5  C3  PXY d   1      -0.710   0.143   0.970  0.00  0.00     0.003 A 
ATOM      6  C4  PXY d   1      -0.069   0.673  -0.118  0.00  0.00    -0.082 A 
ATOM      7  C5  PXY d   1       0.195  -0.114  -1.182  0.00  0.00     0.003 A 
ATOM      8  C6  PXY d   1      -0.191  -1.451  -1.150  0.00  0.00     0.003 A 
ENDROOT
TORSDOF 0
ENDMDL
