MODEL 1
REMARK minimizedAffinity -3.76856709
REMARK minimizedRMSD -1
REMARK  0 active torsions:
REMARK  status: ('A' for Active; 'I' for Inactive)
ROOT
ATOM      1  C4' PXY d   1       0.310   2.122   0.028  0.00  0.00     0.077 C 
ATOM      2  C1' PXY d   1      -0.183  -3.625   0.403  0.00  0.00     0.077 C 
ATOM      3  C1  PXY d   1      -0.065  -2.117   0.312  0.00  0.00    -0.082 A 
ATOM      4  C2  PXY d   1       0.596  -1.572  -0.697  0.00  0.00     0.003 A 
ATOM      5  C3  PXY d   1       0.740  -0.211  -0.777  0.00  0.00     0.003 A 
ATOM      6  C4  PXY d   1       0.156   0.604   0.155  0.00  0.00    -0.082 A 
ATOM      7  C5  PXY d   1      -0.529   0.056   1.181  0.00  0.00     0.003 A 
ATOM      8  C6  PXY d   1      -0.629  -1.329   1.267  0.00  0.00     0.003 A 
ENDROOT
TORSDOF 0
ENDMDL
