MODEL 1
REMARK minimizedAffinity -4.26599026
REMARK minimizedRMSD -1
REMARK  0 active torsions:
REMARK  status: ('A' for Active; 'I' for Inactive)
ROOT
ATOM      1  C4' PXY d   1       0.368   2.177  -0.247  0.00  0.00     0.077 C 
ATOM      2  C1' PXY d   1      -1.184  -3.389  -0.415  0.00  0.00     0.077 C 
ATOM      3  C1  PXY d   1      -0.768  -1.931  -0.381  0.00  0.00    -0.082 A 
ATOM      4  C2  PXY d   1      -0.946  -1.226   0.725  0.00  0.00     0.003 A 
ATOM      5  C3  PXY d   1      -0.605   0.101   0.763  0.00  0.00     0.003 A 
ATOM      6  C4  PXY d   1      -0.028   0.700  -0.324  0.00  0.00    -0.082 A 
ATOM      7  C5  PXY d   1       0.166  -0.015  -1.453  0.00  0.00     0.003 A 
ATOM      8  C6  PXY d   1      -0.224  -1.351  -1.485  0.00  0.00     0.003 A 
ENDROOT
TORSDOF 0
ENDMDL
