MODEL 1
REMARK minimizedAffinity -1.6663506
REMARK minimizedRMSD -1
REMARK  0 active torsions:
REMARK  status: ('A' for Active; 'I' for Inactive)
ROOT
ATOM      1  C4' PXY d   1       0.601  -2.639  -2.728  0.00  0.00     0.077 C 
ATOM      2  C1' PXY d   1      -1.300  -1.028   2.488  0.00  0.00     0.077 C 
ATOM      3  C1  PXY d   1      -0.799  -1.463   1.124  0.00  0.00    -0.082 A 
ATOM      4  C2  PXY d   1      -0.348  -0.555   0.273  0.00  0.00     0.003 A 
ATOM      5  C3  PXY d   1       0.079  -0.927  -0.975  0.00  0.00     0.003 A 
ATOM      6  C4  PXY d   1       0.094  -2.247  -1.338  0.00  0.00    -0.082 A 
ATOM      7  C5  PXY d   1      -0.354  -3.180  -0.471  0.00  0.00     0.003 A 
ATOM      8  C6  PXY d   1      -0.821  -2.778   0.777  0.00  0.00     0.003 A 
ENDROOT
TORSDOF 0
ENDMDL
