MODEL 1
REMARK minimizedAffinity -5.51758909
REMARK minimizedRMSD -1
REMARK  0 active torsions:
REMARK  status: ('A' for Active; 'I' for Inactive)
ROOT
ATOM      1  C4' PXY d   1      -1.813  -0.723   2.292  0.00  0.00     0.077 C 
ATOM      2  C1' PXY d   1       0.754  -2.481  -2.580  0.00  0.00     0.077 C 
ATOM      3  C1  PXY d   1       0.088  -2.009  -1.302  0.00  0.00    -0.082 A 
ATOM      4  C2  PXY d   1      -0.507  -2.888  -0.512  0.00  0.00     0.003 A 
ATOM      5  C3  PXY d   1      -1.141  -2.474   0.631  0.00  0.00     0.003 A 
ATOM      6  C4  PXY d   1      -1.120  -1.155   0.997  0.00  0.00    -0.082 A 
ATOM      7  C5  PXY d   1      -0.506  -0.254   0.201  0.00  0.00     0.003 A 
ATOM      8  C6  PXY d   1       0.097  -0.688  -0.976  0.00  0.00     0.003 A 
ENDROOT
TORSDOF 0
ENDMDL
