MODEL 1
REMARK minimizedAffinity -4.93494701
REMARK minimizedRMSD -1
REMARK  0 active torsions:
REMARK  status: ('A' for Active; 'I' for Inactive)
ROOT
ATOM      1  C4' PXY d   1      -1.110  -0.360   2.300  0.00  0.00     0.077 C 
ATOM      2  C1' PXY d   1       0.607  -2.910  -2.595  0.00  0.00     0.077 C 
ATOM      3  C1  PXY d   1       0.164  -2.231  -1.314  0.00  0.00    -0.082 A 
ATOM      4  C2  PXY d   1      -0.251  -2.965  -0.294  0.00  0.00     0.003 A 
ATOM      5  C3  PXY d   1      -0.685  -2.366   0.860  0.00  0.00     0.003 A 
ATOM      6  C4  PXY d   1      -0.645  -1.003   0.991  0.00  0.00    -0.082 A 
ATOM      7  C5  PXY d   1      -0.213  -0.248  -0.041  0.00  0.00     0.003 A 
ATOM      8  C6  PXY d   1       0.185  -0.874  -1.219  0.00  0.00     0.003 A 
ENDROOT
TORSDOF 0
ENDMDL
