MODEL 1
REMARK minimizedAffinity -5.60742044
REMARK minimizedRMSD -1
REMARK  0 active torsions:
REMARK  status: ('A' for Active; 'I' for Inactive)
ROOT
ATOM      1  C4' PXY d   1       0.705  -2.234  -2.459  0.00  0.00     0.077 C 
ATOM      2  C1' PXY d   1      -1.141  -0.595   2.768  0.00  0.00     0.077 C 
ATOM      3  C1  PXY d   1      -0.651  -1.035   1.402  0.00  0.00    -0.082 A 
ATOM      4  C2  PXY d   1      -0.582  -0.154   0.417  0.00  0.00     0.003 A 
ATOM      5  C3  PXY d   1      -0.171  -0.542  -0.832  0.00  0.00     0.003 A 
ATOM      6  C4  PXY d   1       0.224  -1.833  -1.062  0.00  0.00    -0.082 A 
ATOM      7  C5  PXY d   1       0.167  -2.735  -0.059  0.00  0.00     0.003 A 
ATOM      8  C6  PXY d   1      -0.292  -2.330   1.191  0.00  0.00     0.003 A 
ENDROOT
TORSDOF 0
ENDMDL
