MODEL 1
REMARK minimizedAffinity -5.58182955
REMARK minimizedRMSD -1
REMARK  0 active torsions:
REMARK  status: ('A' for Active; 'I' for Inactive)
ROOT
ATOM      1  C4' PXY d   1       0.517  -2.443  -2.818  0.00  0.00     0.077 C 
ATOM      2  C1' PXY d   1      -1.359  -0.561   2.315  0.00  0.00     0.077 C 
ATOM      3  C1  PXY d   1      -0.862  -1.065   0.975  0.00  0.00    -0.082 A 
ATOM      4  C2  PXY d   1      -0.618  -0.203   0.001  0.00  0.00     0.003 A 
ATOM      5  C3  PXY d   1      -0.199  -0.645  -1.228  0.00  0.00     0.003 A 
ATOM      6  C4  PXY d   1       0.024  -1.978  -1.445  0.00  0.00    -0.082 A 
ATOM      7  C5  PXY d   1      -0.213  -2.863  -0.454  0.00  0.00     0.003 A 
ATOM      8  C6  PXY d   1      -0.678  -2.398   0.773  0.00  0.00     0.003 A 
ENDROOT
TORSDOF 0
ENDMDL
