MODEL 1
REMARK minimizedAffinity -3.95975924
REMARK minimizedRMSD -1
REMARK  0 active torsions:
REMARK  status: ('A' for Active; 'I' for Inactive)
ROOT
ATOM      1  C4' PXY d   1       0.052   1.475  -0.238  0.00  0.00     0.077 C 
ATOM      2  C1' PXY d   1      -0.010  -4.258  -0.976  0.00  0.00     0.077 C 
ATOM      3  C1  PXY d   1      -0.003  -2.756  -0.773  0.00  0.00    -0.082 A 
ATOM      4  C2  PXY d   1       0.399  -1.965  -1.755  0.00  0.00     0.003 A 
ATOM      5  C3  PXY d   1       0.442  -0.606  -1.577  0.00  0.00     0.003 A 
ATOM      6  C4  PXY d   1       0.019  -0.047  -0.401  0.00  0.00    -0.082 A 
ATOM      7  C5  PXY d   1      -0.402  -0.847   0.602  0.00  0.00     0.003 A 
ATOM      8  C6  PXY d   1      -0.399  -2.226   0.416  0.00  0.00     0.003 A 
ENDROOT
TORSDOF 0
ENDMDL
