MODEL 1
REMARK minimizedAffinity -5.9186039
REMARK minimizedRMSD -1
REMARK  0 active torsions:
REMARK  status: ('A' for Active; 'I' for Inactive)
ROOT
ATOM      1  C4' PXY d   1      -1.741   0.189   1.813  0.00  0.00     0.077 C 
ATOM      2  C1' PXY d   1       0.763  -2.915  -2.371  0.00  0.00     0.077 C 
ATOM      3  C1  PXY d   1       0.114  -2.091  -1.277  0.00  0.00    -0.082 A 
ATOM      4  C2  PXY d   1      -0.479  -2.701  -0.263  0.00  0.00     0.003 A 
ATOM      5  C3  PXY d   1      -1.099  -1.971   0.718  0.00  0.00     0.003 A 
ATOM      6  C4  PXY d   1      -1.065  -0.603   0.690  0.00  0.00    -0.082 A 
ATOM      7  C5  PXY d   1      -0.453   0.027  -0.335  0.00  0.00     0.003 A 
ATOM      8  C6  PXY d   1       0.134  -0.732  -1.343  0.00  0.00     0.003 A 
ENDROOT
TORSDOF 0
ENDMDL
