MODEL 1
REMARK minimizedAffinity -3.55811977
REMARK minimizedRMSD -1
REMARK  0 active torsions:
REMARK  status: ('A' for Active; 'I' for Inactive)
ROOT
ATOM      1  C4' PXY d   1       0.302  -2.971  -2.571  0.00  0.00     0.077 C 
ATOM      2  C1' PXY d   1      -0.905  -0.214   2.364  0.00  0.00     0.077 C 
ATOM      3  C1  PXY d   1      -0.588  -0.948   1.076  0.00  0.00    -0.082 A 
ATOM      4  C2  PXY d   1      -0.004  -0.301   0.081  0.00  0.00     0.003 A 
ATOM      5  C3  PXY d   1       0.261  -0.942  -1.102  0.00  0.00     0.003 A 
ATOM      6  C4  PXY d   1      -0.028  -2.272  -1.249  0.00  0.00    -0.082 A 
ATOM      7  C5  PXY d   1      -0.615  -2.942  -0.235  0.00  0.00     0.003 A 
ATOM      8  C6  PXY d   1      -0.912  -2.263   0.943  0.00  0.00     0.003 A 
ENDROOT
TORSDOF 0
ENDMDL
