MODEL 1
REMARK minimizedAffinity -4.64030313
REMARK minimizedRMSD -1
REMARK  0 active torsions:
REMARK  status: ('A' for Active; 'I' for Inactive)
ROOT
ATOM      1  C4' PXY d   1       1.196  -3.063  -2.669  0.00  0.00     0.077 C 
ATOM      2  C1' PXY d   1      -0.981  -0.145   1.820  0.00  0.00     0.077 C 
ATOM      3  C1  PXY d   1      -0.409  -0.921   0.650  0.00  0.00    -0.082 A 
ATOM      4  C2  PXY d   1       0.212  -0.274  -0.323  0.00  0.00     0.003 A 
ATOM      5  C3  PXY d   1       0.707  -0.957  -1.404  0.00  0.00     0.003 A 
ATOM      6  C4  PXY d   1       0.612  -2.322  -1.464  0.00  0.00    -0.082 A 
ATOM      7  C5  PXY d   1      -0.011  -2.990  -0.470  0.00  0.00     0.003 A 
ATOM      8  C6  PXY d   1      -0.543  -2.274   0.598  0.00  0.00     0.003 A 
ENDROOT
TORSDOF 0
ENDMDL
