MODEL 1
REMARK minimizedAffinity -2.32881856
REMARK minimizedRMSD -1
REMARK  0 active torsions:
REMARK  status: ('A' for Active; 'I' for Inactive)
ROOT
ATOM      1  C4' PXY d   1       0.034   2.295  -0.371  0.00  0.00     0.077 C 
ATOM      2  C1' PXY d   1       0.003  -3.403   0.607  0.00  0.00     0.077 C 
ATOM      3  C1  PXY d   1       0.018  -1.910   0.339  0.00  0.00    -0.082 A 
ATOM      4  C2  PXY d   1      -0.156  -1.065   1.342  0.00  0.00     0.003 A 
ATOM      5  C3  PXY d   1      -0.177   0.287   1.113  0.00  0.00     0.003 A 
ATOM      6  C4  PXY d   1       0.036   0.780  -0.147  0.00  0.00    -0.082 A 
ATOM      7  C5  PXY d   1       0.225  -0.076  -1.173  0.00  0.00     0.003 A 
ATOM      8  C6  PXY d   1       0.202  -1.446  -0.926  0.00  0.00     0.003 A 
ENDROOT
TORSDOF 0
ENDMDL
