MODEL 1
REMARK minimizedAffinity 13.1979446
REMARK minimizedRMSD -1
REMARK  0 active torsions:
REMARK  status: ('A' for Active; 'I' for Inactive)
ROOT
ATOM      1  C   UNL d   1      -1.907   2.483  -2.815  0.00  0.00     0.172 C 
ATOM      2  N   UNL d   1      -2.798   3.426  -2.180  0.00  0.00    -0.070 N 
ATOM      3  C1  UNL d   1      -2.672   4.789  -2.212  0.00  0.00    -0.004 A 
ATOM      4  C2  UNL d   1      -3.716   5.326  -1.491  0.00  0.00    -0.047 A 
ATOM      5  C3  UNL d   1      -4.497   4.248  -1.009  0.00  0.00    -0.047 A 
ATOM      6  C4  UNL d   1      -3.905   3.083  -1.450  0.00  0.00    -0.004 A 
ENDROOT
TORSDOF 0
ENDMDL
