MODEL 1
REMARK minimizedAffinity 10.1686716
REMARK minimizedRMSD -1
REMARK  0 active torsions:
REMARK  status: ('A' for Active; 'I' for Inactive)
ROOT
ATOM      1  C   UNL d   1      -4.805   3.788  -0.740  0.00  0.00     0.172 C 
ATOM      2  N   UNL d   1      -3.748   4.103  -1.673  0.00  0.00    -0.070 N 
ATOM      3  C1  UNL d   1      -3.228   5.349  -1.899  0.00  0.00    -0.004 A 
ATOM      4  C2  UNL d   1      -2.244   5.228  -2.856  0.00  0.00    -0.047 A 
ATOM      5  C3  UNL d   1      -2.171   3.862  -3.219  0.00  0.00    -0.047 A 
ATOM      6  C4  UNL d   1      -3.113   3.188  -2.471  0.00  0.00    -0.004 A 
ENDROOT
TORSDOF 0
ENDMDL
