MODEL 1
REMARK minimizedAffinity 6.10722876
REMARK minimizedRMSD -1
REMARK  0 active torsions:
REMARK  status: ('A' for Active; 'I' for Inactive)
ROOT
ATOM      1  C   UNL d   1       2.638   0.062   2.444  0.00  0.00     0.172 C 
ATOM      2  N   UNL d   1       1.527   0.034   3.367  0.00  0.00    -0.070 N 
ATOM      3  C1  UNL d   1       1.615   0.176   4.726  0.00  0.00    -0.004 A 
ATOM      4  C2  UNL d   1       0.340   0.092   5.243  0.00  0.00    -0.047 A 
ATOM      5  C3  UNL d   1      -0.544  -0.109   4.156  0.00  0.00    -0.047 A 
ATOM      6  C4  UNL d   1       0.217  -0.140   3.007  0.00  0.00    -0.004 A 
ENDROOT
TORSDOF 0
ENDMDL
