MODEL 1
REMARK minimizedAffinity 6.03902292
REMARK minimizedRMSD -1
REMARK  0 active torsions:
REMARK  status: ('A' for Active; 'I' for Inactive)
ROOT
ATOM      1  C   UNL d   1       0.744  -0.868   2.465  0.00  0.00     0.172 C 
ATOM      2  N   UNL d   1       0.280  -0.680   3.819  0.00  0.00    -0.070 N 
ATOM      3  C1  UNL d   1       1.062  -0.346   4.892  0.00  0.00    -0.004 A 
ATOM      4  C2  UNL d   1       0.247  -0.263   6.000  0.00  0.00    -0.047 A 
ATOM      5  C3  UNL d   1      -1.072  -0.558   5.578  0.00  0.00    -0.047 A 
ATOM      6  C4  UNL d   1      -1.022  -0.812   4.224  0.00  0.00    -0.004 A 
ENDROOT
TORSDOF 0
ENDMDL
