MODEL 1
REMARK minimizedAffinity 11.0715265
REMARK minimizedRMSD -1
REMARK  0 active torsions:
REMARK  status: ('A' for Active; 'I' for Inactive)
ROOT
ATOM      1  C   UNL d   1       1.056  -5.990  -6.000  0.00  0.00     0.172 C 
ATOM      2  N   UNL d   1       0.980  -5.346  -4.709  0.00  0.00    -0.070 N 
ATOM      3  C1  UNL d   1       0.816  -4.004  -4.494  0.00  0.00    -0.004 A 
ATOM      4  C2  UNL d   1       0.793  -3.794  -3.133  0.00  0.00    -0.047 A 
ATOM      5  C3  UNL d   1       0.951  -5.054  -2.507  0.00  0.00    -0.047 A 
ATOM      6  C4  UNL d   1       1.064  -5.997  -3.506  0.00  0.00    -0.004 A 
ENDROOT
TORSDOF 0
ENDMDL
