MODEL 1
REMARK minimizedAffinity 0.274389148
REMARK minimizedRMSD -1
REMARK  0 active torsions:
REMARK  status: ('A' for Active; 'I' for Inactive)
ROOT
ATOM      1  C   UNL d   1      -2.664  -3.740   5.999  0.00  0.00     0.172 C 
ATOM      2  N   UNL d   1      -1.606  -2.936   5.432  0.00  0.00    -0.070 N 
ATOM      3  C1  UNL d   1      -1.100  -1.785   5.974  0.00  0.00    -0.004 A 
ATOM      4  C2  UNL d   1      -0.110  -1.323   5.134  0.00  0.00    -0.047 A 
ATOM      5  C3  UNL d   1      -0.018  -2.228   4.049  0.00  0.00    -0.047 A 
ATOM      6  C4  UNL d   1      -0.956  -3.216   4.259  0.00  0.00    -0.004 A 
ENDROOT
TORSDOF 0
ENDMDL
