MODEL 1
REMARK minimizedAffinity 11.5486021
REMARK minimizedRMSD -1
REMARK  0 active torsions:
REMARK  status: ('A' for Active; 'I' for Inactive)
ROOT
ATOM      1  C   UNL d   1       0.932  -0.448   2.409  0.00  0.00     0.172 C 
ATOM      2  N   UNL d   1       2.353  -0.260   2.238  0.00  0.00    -0.070 N 
ATOM      3  C1  UNL d   1       3.098   0.743   2.797  0.00  0.00    -0.004 A 
ATOM      4  C2  UNL d   1       4.405   0.573   2.394  0.00  0.00    -0.047 A 
ATOM      5  C3  UNL d   1       4.447  -0.571   1.563  0.00  0.00    -0.047 A 
ATOM      6  C4  UNL d   1       3.163  -1.068   1.483  0.00  0.00    -0.004 A 
ENDROOT
TORSDOF 0
ENDMDL
