MODEL 1
REMARK minimizedAffinity 7.60142946
REMARK minimizedRMSD -1
REMARK  0 active torsions:
REMARK  status: ('A' for Active; 'I' for Inactive)
ROOT
ATOM      1  C   UNL d   1       1.060   5.912   0.185  0.00  0.00     0.172 C 
ATOM      2  N   UNL d   1       0.756   4.531  -0.109  0.00  0.00    -0.070 N 
ATOM      3  C1  UNL d   1      -0.060   3.718   0.633  0.00  0.00    -0.004 A 
ATOM      4  C2  UNL d   1      -0.092   2.483   0.023  0.00  0.00    -0.047 A 
ATOM      5  C3  UNL d   1       0.734   2.556  -1.124  0.00  0.00    -0.047 A 
ATOM      6  C4  UNL d   1       1.246   3.835  -1.182  0.00  0.00    -0.004 A 
ENDROOT
TORSDOF 0
ENDMDL
