MODEL 1
REMARK minimizedAffinity 1.79077458
REMARK minimizedRMSD -1
REMARK  0 active torsions:
REMARK  status: ('A' for Active; 'I' for Inactive)
ROOT
ATOM      1  C   UNL d   1      -0.081   2.489  -0.094  0.00  0.00     0.172 C 
ATOM      2  N   UNL d   1       0.429   3.840  -0.127  0.00  0.00    -0.070 N 
ATOM      3  C1  UNL d   1      -0.016   4.880   0.645  0.00  0.00    -0.004 A 
ATOM      4  C2  UNL d   1       0.723   5.996   0.316  0.00  0.00    -0.047 A 
ATOM      5  C3  UNL d   1       1.642   5.614  -0.690  0.00  0.00    -0.047 A 
ATOM      6  C4  UNL d   1       1.438   4.274  -0.945  0.00  0.00    -0.004 A 
ENDROOT
TORSDOF 0
ENDMDL
