MODEL 1
REMARK minimizedAffinity 1.65019357
REMARK minimizedRMSD -1
REMARK  0 active torsions:
REMARK  status: ('A' for Active; 'I' for Inactive)
ROOT
ATOM      1  C   UNL d   1      -2.614   3.596  -2.597  0.00  0.00     0.172 C 
ATOM      2  N   UNL d   1      -2.437   4.335  -3.825  0.00  0.00    -0.070 N 
ATOM      3  C1  UNL d   1      -2.245   5.687  -3.923  0.00  0.00    -0.004 A 
ATOM      4  C2  UNL d   1      -2.120   6.000  -5.260  0.00  0.00    -0.047 A 
ATOM      5  C3  UNL d   1      -2.243   4.794  -5.990  0.00  0.00    -0.047 A 
ATOM      6  C4  UNL d   1      -2.439   3.779  -5.077  0.00  0.00    -0.004 A 
ENDROOT
TORSDOF 0
ENDMDL
