MODEL 1
REMARK minimizedAffinity 8.22767544
REMARK minimizedRMSD -1
REMARK  0 active torsions:
REMARK  status: ('A' for Active; 'I' for Inactive)
ROOT
ATOM      1  C   UNL d   1       0.352  -0.150   4.597  0.00  0.00     0.172 C 
ATOM      2  N   UNL d   1       1.029  -0.518   3.376  0.00  0.00    -0.070 N 
ATOM      3  C1  UNL d   1       2.131   0.105   2.855  0.00  0.00    -0.004 A 
ATOM      4  C2  UNL d   1       2.469  -0.543   1.686  0.00  0.00    -0.047 A 
ATOM      5  C3  UNL d   1       1.538  -1.592   1.498  0.00  0.00    -0.047 A 
ATOM      6  C4  UNL d   1       0.657  -1.553   2.559  0.00  0.00    -0.004 A 
ENDROOT
TORSDOF 0
ENDMDL
