MODEL 1
REMARK minimizedAffinity 3.60247755
REMARK minimizedRMSD -1
REMARK  0 active torsions:
REMARK  status: ('A' for Active; 'I' for Inactive)
ROOT
ATOM      1  C   UNL d   1      -0.100   2.875  -0.279  0.00  0.00     0.172 C 
ATOM      2  N   UNL d   1      -1.261   2.851  -1.138  0.00  0.00    -0.070 N 
ATOM      3  C1  UNL d   1      -2.560   2.995  -0.728  0.00  0.00    -0.004 A 
ATOM      4  C2  UNL d   1      -3.365   2.914  -1.844  0.00  0.00    -0.047 A 
ATOM      5  C3  UNL d   1      -2.521   2.713  -2.962  0.00  0.00    -0.047 A 
ATOM      6  C4  UNL d   1      -1.224   2.678  -2.496  0.00  0.00    -0.004 A 
ENDROOT
TORSDOF 0
ENDMDL
