MODEL 1
REMARK minimizedAffinity 1.12954342
REMARK minimizedRMSD -1
REMARK  0 active torsions:
REMARK  status: ('A' for Active; 'I' for Inactive)
ROOT
ATOM      1  C   UNL d   1       0.366   2.495  -0.585  0.00  0.00     0.172 C 
ATOM      2  N   UNL d   1       0.581   3.921  -0.508  0.00  0.00    -0.070 N 
ATOM      3  C1  UNL d   1       0.373   4.702   0.598  0.00  0.00    -0.004 A 
ATOM      4  C2  UNL d   1       0.693   6.000   0.265  0.00  0.00    -0.047 A 
ATOM      5  C3  UNL d   1       1.108   6.000  -1.088  0.00  0.00    -0.047 A 
ATOM      6  C4  UNL d   1       1.029   4.700  -1.542  0.00  0.00    -0.004 A 
ENDROOT
TORSDOF 0
ENDMDL
