MODEL 1
REMARK minimizedAffinity 11.253705
REMARK minimizedRMSD -1
REMARK  0 active torsions:
REMARK  status: ('A' for Active; 'I' for Inactive)
ROOT
ATOM      1  C   UNL d   1       2.153   2.668  -0.453  0.00  0.00     0.172 C 
ATOM      2  N   UNL d   1       1.669   4.019  -0.615  0.00  0.00    -0.070 N 
ATOM      3  C1  UNL d   1       1.692   4.742  -1.777  0.00  0.00    -0.004 A 
ATOM      4  C2  UNL d   1       1.141   5.978  -1.517  0.00  0.00    -0.047 A 
ATOM      5  C3  UNL d   1       0.775   5.999  -0.151  0.00  0.00    -0.047 A 
ATOM      6  C4  UNL d   1       1.113   4.774   0.384  0.00  0.00    -0.004 A 
ENDROOT
TORSDOF 0
ENDMDL
