MODEL 1
REMARK minimizedAffinity 9.15277386
REMARK minimizedRMSD -1
REMARK  0 active torsions:
REMARK  status: ('A' for Active; 'I' for Inactive)
ROOT
ATOM      1  C   UNL d   1      -2.249  -2.928   2.542  0.00  0.00     0.172 C 
ATOM      2  N   UNL d   1      -1.055  -2.116   2.515  0.00  0.00    -0.070 N 
ATOM      3  C1  UNL d   1      -0.014  -2.256   1.637  0.00  0.00    -0.004 A 
ATOM      4  C2  UNL d   1       0.925  -1.294   1.940  0.00  0.00    -0.047 A 
ATOM      5  C3  UNL d   1       0.433  -0.552   3.039  0.00  0.00    -0.047 A 
ATOM      6  C4  UNL d   1      -0.795  -1.082   3.375  0.00  0.00    -0.004 A 
ENDROOT
TORSDOF 0
ENDMDL
