MODEL 1
REMARK minimizedAffinity 3.94537067
REMARK minimizedRMSD -1
REMARK  0 active torsions:
REMARK  status: ('A' for Active; 'I' for Inactive)
ROOT
ATOM      1  C   UNL d   1      -1.078  -3.002   0.155  0.00  0.00     0.172 C 
ATOM      2  N   UNL d   1      -0.065  -2.420   1.004  0.00  0.00    -0.070 N 
ATOM      3  C1  UNL d   1      -0.127  -1.183   1.589  0.00  0.00    -0.004 A 
ATOM      4  C2  UNL d   1       1.029  -1.003   2.317  0.00  0.00    -0.047 A 
ATOM      5  C3  UNL d   1       1.813  -2.171   2.164  0.00  0.00    -0.047 A 
ATOM      6  C4  UNL d   1       1.112  -3.032   1.347  0.00  0.00    -0.004 A 
ENDROOT
TORSDOF 0
ENDMDL
