MODEL 1
REMARK minimizedAffinity 1.87642455
REMARK minimizedRMSD -1
REMARK  0 active torsions:
REMARK  status: ('A' for Active; 'I' for Inactive)
ROOT
ATOM      1  C   UNL d   1       1.713   6.000   0.362  0.00  0.00     0.172 C 
ATOM      2  N   UNL d   1       1.161   4.850  -0.316  0.00  0.00    -0.070 N 
ATOM      3  C1  UNL d   1       0.413   3.863   0.268  0.00  0.00    -0.004 A 
ATOM      4  C2  UNL d   1       0.079   2.952  -0.711  0.00  0.00    -0.047 A 
ATOM      5  C3  UNL d   1       0.647   3.407  -1.925  0.00  0.00    -0.047 A 
ATOM      6  C4  UNL d   1       1.311   4.584  -1.651  0.00  0.00    -0.004 A 
ENDROOT
TORSDOF 0
ENDMDL
