MODEL 1
REMARK minimizedAffinity 5.78988981
REMARK minimizedRMSD -1
REMARK  0 active torsions:
REMARK  status: ('A' for Active; 'I' for Inactive)
ROOT
ATOM      1  C   UNL d   1      -1.832  -3.734   2.559  0.00  0.00     0.172 C 
ATOM      2  N   UNL d   1      -0.974  -2.588   2.746  0.00  0.00    -0.070 N 
ATOM      3  C1  UNL d   1      -1.092  -1.658   3.744  0.00  0.00    -0.004 A 
ATOM      4  C2  UNL d   1      -0.088  -0.729   3.576  0.00  0.00    -0.047 A 
ATOM      5  C3  UNL d   1       0.659  -1.114   2.437  0.00  0.00    -0.047 A 
ATOM      6  C4  UNL d   1       0.088  -2.268   1.943  0.00  0.00    -0.004 A 
ENDROOT
TORSDOF 0
ENDMDL
