MODEL 1
REMARK minimizedAffinity -2.60152864
REMARK minimizedRMSD -1
REMARK  0 active torsions:
REMARK  status: ('A' for Active; 'I' for Inactive)
ROOT
ATOM      1  C2' OXE d   1      -3.154   0.211  -2.993  0.00  0.00     0.078 C 
ATOM      2  C1' OXE d   1      -1.359  -1.925  -3.307  0.00  0.00     0.078 C 
ATOM      3  C1  OXE d   1      -1.224  -1.068  -2.073  0.00  0.00    -0.078 A 
ATOM      4  C2  OXE d   1      -2.076   0.003  -1.951  0.00  0.00    -0.078 A 
ATOM      5  C3  OXE d   1      -2.030   0.793  -0.806  0.00  0.00     0.003 A 
ATOM      6  C4  OXE d   1      -1.024   0.601   0.149  0.00  0.00    -0.002 A 
ATOM      7  C5  OXE d   1      -0.120  -0.460   0.023  0.00  0.00    -0.002 A 
ATOM      8  C6  OXE d   1      -0.233  -1.327  -1.058  0.00  0.00     0.003 A 
ENDROOT
TORSDOF 0
ENDMDL
