MODEL 1
REMARK minimizedAffinity -6.05586004
REMARK minimizedRMSD -1
REMARK  0 active torsions:
REMARK  status: ('A' for Active; 'I' for Inactive)
ROOT
ATOM      1  C2' OXE d   1      -0.611  -0.050  -0.381  0.00  0.00     0.078 C 
ATOM      2  C1' OXE d   1       1.877   1.250  -0.414  0.00  0.00     0.078 C 
ATOM      3  C1  OXE d   1       1.752  -0.010   0.405  0.00  0.00    -0.078 A 
ATOM      4  C2  OXE d   1       0.519  -0.614   0.453  0.00  0.00    -0.078 A 
ATOM      5  C3  OXE d   1       0.363  -1.809   1.150  0.00  0.00     0.003 A 
ATOM      6  C4  OXE d   1       1.410  -2.319   1.927  0.00  0.00    -0.002 A 
ATOM      7  C5  OXE d   1       2.664  -1.697   1.924  0.00  0.00    -0.002 A 
ATOM      8  C6  OXE d   1       2.863  -0.569   1.136  0.00  0.00     0.003 A 
ENDROOT
TORSDOF 0
ENDMDL
