MODEL 1
REMARK minimizedAffinity -4.36377335
REMARK minimizedRMSD -1
REMARK  0 active torsions:
REMARK  status: ('A' for Active; 'I' for Inactive)
ROOT
ATOM      1  C2' OXE d   1       1.128   1.694  -0.171  0.00  0.00     0.078 C 
ATOM      2  C1' OXE d   1      -1.073  -0.044  -0.297  0.00  0.00     0.078 C 
ATOM      3  C1  OXE d   1       0.062  -0.412   0.625  0.00  0.00    -0.078 A 
ATOM      4  C2  OXE d   1       1.156   0.421   0.645  0.00  0.00    -0.078 A 
ATOM      5  C3  OXE d   1       2.207   0.157   1.519  0.00  0.00     0.003 A 
ATOM      6  C4  OXE d   1       2.229  -1.029   2.263  0.00  0.00    -0.002 A 
ATOM      7  C5  OXE d   1       1.144  -1.910   2.227  0.00  0.00    -0.002 A 
ATOM      8  C6  OXE d   1       0.036  -1.596   1.448  0.00  0.00     0.003 A 
ENDROOT
TORSDOF 0
ENDMDL
