MODEL 1
REMARK minimizedAffinity -6.35958099
REMARK minimizedRMSD -1
REMARK  0 active torsions:
REMARK  status: ('A' for Active; 'I' for Inactive)
ROOT
ATOM      1  C2' OXE d   1      -0.772   0.179   0.640  0.00  0.00     0.078 C 
ATOM      2  C1' OXE d   1       1.563   1.581  -0.043  0.00  0.00     0.078 C 
ATOM      3  C1  OXE d   1       1.719   0.231   0.611  0.00  0.00    -0.078 A 
ATOM      4  C2  OXE d   1       0.572  -0.428   0.984  0.00  0.00    -0.078 A 
ATOM      5  C3  OXE d   1       0.658  -1.700   1.541  0.00  0.00     0.003 A 
ATOM      6  C4  OXE d   1       1.904  -2.250   1.865  0.00  0.00    -0.002 A 
ATOM      7  C5  OXE d   1       3.085  -1.579   1.530  0.00  0.00    -0.002 A 
ATOM      8  C6  OXE d   1       3.010  -0.359   0.865  0.00  0.00     0.003 A 
ENDROOT
TORSDOF 0
ENDMDL
