MODEL 1
REMARK minimizedAffinity -2.41608191
REMARK minimizedRMSD -1
REMARK  0 active torsions:
REMARK  status: ('A' for Active; 'I' for Inactive)
ROOT
ATOM      1  C2' OXE d   1      -1.824  -0.102  -0.049  0.00  0.00     0.078 C 
ATOM      2  C1' OXE d   1      -0.055  -1.943   1.119  0.00  0.00     0.078 C 
ATOM      3  C1  OXE d   1       0.442  -0.537   0.891  0.00  0.00    -0.078 A 
ATOM      4  C2  OXE d   1      -0.415   0.344   0.276  0.00  0.00    -0.078 A 
ATOM      5  C3  OXE d   1      -0.026   1.668   0.091  0.00  0.00     0.003 A 
ATOM      6  C4  OXE d   1       1.283   2.070   0.385  0.00  0.00    -0.002 A 
ATOM      7  C5  OXE d   1       2.184   1.177   0.975  0.00  0.00    -0.002 A 
ATOM      8  C6  OXE d   1       1.767  -0.115   1.273  0.00  0.00     0.003 A 
ENDROOT
TORSDOF 0
ENDMDL
