MODEL 1
REMARK minimizedAffinity -5.24416208
REMARK minimizedRMSD -1
REMARK  0 active torsions:
REMARK  status: ('A' for Active; 'I' for Inactive)
ROOT
ATOM      1  C2' OXE d   1      -1.221  -0.322   0.002  0.00  0.00     0.078 C 
ATOM      2  C1' OXE d   1       0.751   1.674  -0.100  0.00  0.00     0.078 C 
ATOM      3  C1  OXE d   1       1.140   0.329   0.462  0.00  0.00    -0.078 A 
ATOM      4  C2  OXE d   1       0.156  -0.627   0.552  0.00  0.00    -0.078 A 
ATOM      5  C3  OXE d   1       0.474  -1.901   1.012  0.00  0.00     0.003 A 
ATOM      6  C4  OXE d   1       1.747  -2.172   1.527  0.00  0.00    -0.002 A 
ATOM      7  C5  OXE d   1       2.753  -1.200   1.482  0.00  0.00    -0.002 A 
ATOM      8  C6  OXE d   1       2.478   0.039   0.915  0.00  0.00     0.003 A 
ENDROOT
TORSDOF 0
ENDMDL
