MODEL 1
REMARK minimizedAffinity -5.37732458
REMARK minimizedRMSD -1
REMARK  0 active torsions:
REMARK  status: ('A' for Active; 'I' for Inactive)
ROOT
ATOM      1  C2' OXE d   1       3.649  -1.245   2.569  0.00  0.00     0.078 C 
ATOM      2  C1' OXE d   1       1.340  -2.842   2.622  0.00  0.00     0.078 C 
ATOM      3  C1  OXE d   1       1.317  -1.600   1.766  0.00  0.00    -0.078 A 
ATOM      4  C2  OXE d   1       2.434  -0.800   1.783  0.00  0.00    -0.078 A 
ATOM      5  C3  OXE d   1       2.486   0.328   0.970  0.00  0.00     0.003 A 
ATOM      6  C4  OXE d   1       1.356   0.739   0.254  0.00  0.00    -0.002 A 
ATOM      7  C5  OXE d   1       0.194  -0.041   0.254  0.00  0.00    -0.002 A 
ATOM      8  C6  OXE d   1       0.173  -1.233   0.970  0.00  0.00     0.003 A 
ENDROOT
TORSDOF 0
ENDMDL
