MODEL 1
REMARK minimizedAffinity 1.53508103
REMARK minimizedRMSD -1
REMARK  0 active torsions:
REMARK  status: ('A' for Active; 'I' for Inactive)
ROOT
ATOM      1  C   UNL d   1      -1.444   0.405   1.312  0.00  0.00     0.020 A 
ATOM      2  C1  UNL d   1      -1.901  -0.493   2.276  0.00  0.00     0.020 A 
ATOM      3  C2  UNL d   1      -0.987  -1.225   3.037  0.00  0.00     0.034 A 
ATOM      4  C3  UNL d   1       0.388  -1.060   2.836  0.00  0.00     0.017 A 
ATOM      5  C4  UNL d   1       0.846  -0.159   1.868  0.00  0.00     0.017 A 
ATOM      6  C5  UNL d   1      -0.074   0.572   1.109  0.00  0.00     0.034 A 
ATOM      7 Cl   UNL d   1       2.527   0.099   1.562  0.00  0.00    -0.070 Cl
ATOM      8 Cl1  UNL d   1       1.462  -1.998   3.813  0.00  0.00    -0.070 Cl
ENDROOT
TORSDOF 0
ENDMDL
