MODEL 1
REMARK minimizedAffinity -1.66731775
REMARK minimizedRMSD -1
REMARK  0 active torsions:
REMARK  status: ('A' for Active; 'I' for Inactive)
ROOT
ATOM      1  C   UNL d   1       0.504  -6.000  -5.682  0.00  0.00     0.020 A 
ATOM      2  C1  UNL d   1       1.882  -5.982  -5.472  0.00  0.00     0.020 A 
ATOM      3  C2  UNL d   1       2.394  -5.590  -4.233  0.00  0.00     0.034 A 
ATOM      4  C3  UNL d   1       1.527  -5.215  -3.200  0.00  0.00     0.017 A 
ATOM      5  C4  UNL d   1       0.144  -5.233  -3.412  0.00  0.00     0.017 A 
ATOM      6  C5  UNL d   1      -0.363  -5.626  -4.654  0.00  0.00     0.034 A 
ATOM      7 Cl   UNL d   1      -0.988  -4.784  -2.186  0.00  0.00    -0.070 Cl
ATOM      8 Cl1  UNL d   1       2.230  -4.742  -1.694  0.00  0.00    -0.070 Cl
ENDROOT
TORSDOF 0
ENDMDL
