MODEL 1
REMARK minimizedAffinity -1.0519861
REMARK minimizedRMSD -1
REMARK  0 active torsions:
REMARK  status: ('A' for Active; 'I' for Inactive)
ROOT
ATOM      1  C   UNL d   1       1.296  -0.782   2.780  0.00  0.00     0.020 A 
ATOM      2  C1  UNL d   1       0.452  -0.054   1.943  0.00  0.00     0.020 A 
ATOM      3  C2  UNL d   1      -0.931  -0.223   2.027  0.00  0.00     0.034 A 
ATOM      4  C3  UNL d   1      -1.476  -1.122   2.951  0.00  0.00     0.017 A 
ATOM      5  C4  UNL d   1      -0.628  -1.852   3.792  0.00  0.00     0.017 A 
ATOM      6  C5  UNL d   1       0.757  -1.679   3.703  0.00  0.00     0.034 A 
ATOM      7 Cl   UNL d   1      -1.226  -2.981   4.957  0.00  0.00    -0.070 Cl
ATOM      8 Cl1  UNL d   1      -3.195  -1.280   3.001  0.00  0.00    -0.070 Cl
ENDROOT
TORSDOF 0
ENDMDL
