MODEL 1
REMARK minimizedAffinity 0.252113014
REMARK minimizedRMSD -1
REMARK  0 active torsions:
REMARK  status: ('A' for Active; 'I' for Inactive)
ROOT
ATOM      1  C   UNL d   1      -1.832  -1.284   4.062  0.00  0.00     0.020 A 
ATOM      2  C1  UNL d   1      -2.143  -0.895   2.760  0.00  0.00     0.020 A 
ATOM      3  C2  UNL d   1      -1.120  -0.641   1.843  0.00  0.00     0.034 A 
ATOM      4  C3  UNL d   1       0.219  -0.776   2.227  0.00  0.00     0.017 A 
ATOM      5  C4  UNL d   1       0.530  -1.167   3.535  0.00  0.00     0.017 A 
ATOM      6  C5  UNL d   1      -0.498  -1.420   4.448  0.00  0.00     0.034 A 
ATOM      7 Cl   UNL d   1       2.159  -1.356   4.082  0.00  0.00    -0.070 Cl
ATOM      8 Cl1  UNL d   1       1.432  -0.447   1.042  0.00  0.00    -0.070 Cl
ENDROOT
TORSDOF 0
ENDMDL
