MODEL 1
REMARK minimizedAffinity 6.7115941
REMARK minimizedRMSD -1
REMARK  0 active torsions:
REMARK  status: ('A' for Active; 'I' for Inactive)
ROOT
ATOM      1  C   UNL d   1       2.481  -1.954   5.150  0.00  0.00     0.020 A 
ATOM      2  C1  UNL d   1       1.270  -2.080   5.829  0.00  0.00     0.020 A 
ATOM      3  C2  UNL d   1       0.072  -1.765   5.184  0.00  0.00     0.034 A 
ATOM      4  C3  UNL d   1       0.083  -1.323   3.856  0.00  0.00     0.017 A 
ATOM      5  C4  UNL d   1       1.299  -1.197   3.175  0.00  0.00     0.017 A 
ATOM      6  C5  UNL d   1       2.496  -1.514   3.826  0.00  0.00     0.034 A 
ATOM      7 Cl   UNL d   1       1.392  -0.658   1.536  0.00  0.00    -0.070 Cl
ATOM      8 Cl1  UNL d   1      -1.436  -0.951   3.121  0.00  0.00    -0.070 Cl
ENDROOT
TORSDOF 0
ENDMDL
