MODEL 1
REMARK minimizedAffinity 3.08980584
REMARK minimizedRMSD -1
REMARK  0 active torsions:
REMARK  status: ('A' for Active; 'I' for Inactive)
ROOT
ATOM      1  C   UNL d   1       2.822  -5.447  -5.445  0.00  0.00     0.020 A 
ATOM      2  C1  UNL d   1       2.947  -5.806  -4.104  0.00  0.00     0.020 A 
ATOM      3  C2  UNL d   1       1.806  -5.971  -3.316  0.00  0.00     0.034 A 
ATOM      4  C3  UNL d   1       0.535  -5.778  -3.869  0.00  0.00     0.017 A 
ATOM      5  C4  UNL d   1       0.410  -5.418  -5.216  0.00  0.00     0.017 A 
ATOM      6  C5  UNL d   1       1.556  -5.253  -6.000  0.00  0.00     0.034 A 
ATOM      7 Cl   UNL d   1      -1.124  -5.162  -5.968  0.00  0.00    -0.070 Cl
ATOM      8 Cl1  UNL d   1      -0.833  -6.000  -2.836  0.00  0.00    -0.070 Cl
ENDROOT
TORSDOF 0
ENDMDL
