MODEL 1
REMARK minimizedAffinity 3.32111192
REMARK minimizedRMSD -1
REMARK  0 active torsions:
REMARK  status: ('A' for Active; 'I' for Inactive)
ROOT
ATOM      1  C   UNL d   1       1.938  -1.772   4.733  0.00  0.00     0.020 A 
ATOM      2  C1  UNL d   1       1.006  -2.652   5.283  0.00  0.00     0.020 A 
ATOM      3  C2  UNL d   1      -0.242  -2.814   4.679  0.00  0.00     0.034 A 
ATOM      4  C3  UNL d   1      -0.563  -2.096   3.521  0.00  0.00     0.017 A 
ATOM      5  C4  UNL d   1       0.373  -1.213   2.970  0.00  0.00     0.017 A 
ATOM      6  C5  UNL d   1       1.621  -1.054   3.579  0.00  0.00     0.034 A 
ATOM      7 Cl   UNL d   1       0.050  -0.292   1.543  0.00  0.00    -0.070 Cl
ATOM      8 Cl1  UNL d   1      -2.125  -2.347   2.827  0.00  0.00    -0.070 Cl
ENDROOT
TORSDOF 0
ENDMDL
