MODEL 1
REMARK minimizedAffinity 0.197115511
REMARK minimizedRMSD -1
REMARK  0 active torsions:
REMARK  status: ('A' for Active; 'I' for Inactive)
ROOT
ATOM      1  C   UNL d   1       1.928  -1.373   3.408  0.00  0.00     0.020 A 
ATOM      2  C1  UNL d   1       1.008  -1.610   4.429  0.00  0.00     0.020 A 
ATOM      3  C2  UNL d   1      -0.337  -1.280   4.247  0.00  0.00     0.034 A 
ATOM      4  C3  UNL d   1      -0.765  -0.710   3.042  0.00  0.00     0.017 A 
ATOM      5  C4  UNL d   1       0.160  -0.473   2.018  0.00  0.00     0.017 A 
ATOM      6  C5  UNL d   1       1.505  -0.806   2.206  0.00  0.00     0.034 A 
ATOM      7 Cl   UNL d   1      -0.293   0.226   0.504  0.00  0.00    -0.070 Cl
ATOM      8 Cl1  UNL d   1      -2.442  -0.327   2.885  0.00  0.00    -0.070 Cl
ENDROOT
TORSDOF 0
ENDMDL
