MODEL 1
REMARK minimizedAffinity -2.5941391
REMARK minimizedRMSD -1
REMARK  0 active torsions:
REMARK  status: ('A' for Active; 'I' for Inactive)
ROOT
ATOM      1  N1  IND d   1      -1.059   1.256  -0.874  0.00  0.00    -0.196 N 
ATOM      2  C2  IND d   1      -1.203   0.346   0.136  0.00  0.00     0.054 A 
ATOM      3  C3  IND d   1      -0.352  -0.690  -0.041  0.00  0.00    -0.031 A 
ATOM      4  C4  IND d   1       1.434  -1.048  -1.860  0.00  0.00     0.051 A 
ATOM      5  C5  IND d   1       1.915  -0.505  -3.019  0.00  0.00    -0.031 A 
ATOM      6  C6  IND d   1       1.421   0.677  -3.531  0.00  0.00     0.015 A 
ATOM      7  C7  IND d   1       0.431   1.370  -2.894  0.00  0.00    -0.016 A 
ATOM      8  C8  IND d   1      -0.065   0.819  -1.721  0.00  0.00    -0.047 A 
ATOM      9  C9  IND d   1       0.403  -0.402  -1.219  0.00  0.00    -0.096 A 
ATOM     10  HN1 IND d   1      -1.514   1.981  -0.964  0.00  0.00     0.298 HD
ENDROOT
TORSDOF 0
ENDMDL
