MODEL 1
REMARK minimizedAffinity -3.92998338
REMARK minimizedRMSD -1
REMARK  0 active torsions:
REMARK  status: ('A' for Active; 'I' for Inactive)
ROOT
ATOM      1  N1  IND d   1       1.616  -0.542   1.374  0.00  0.00    -0.196 N 
ATOM      2  C2  IND d   1       2.002  -1.409   0.390  0.00  0.00     0.054 A 
ATOM      3  C3  IND d   1       0.964  -1.678  -0.434  0.00  0.00    -0.031 A 
ATOM      4  C4  IND d   1      -1.429  -0.727  -0.414  0.00  0.00     0.051 A 
ATOM      5  C5  IND d   1      -2.264   0.071   0.315  0.00  0.00    -0.031 A 
ATOM      6  C6  IND d   1      -1.840   0.722   1.456  0.00  0.00     0.015 A 
ATOM      7  C7  IND d   1      -0.555   0.606   1.906  0.00  0.00    -0.016 A 
ATOM      8  C8  IND d   1       0.294  -0.210   1.172  0.00  0.00    -0.047 A 
ATOM      9  C9  IND d   1      -0.142  -0.906   0.037  0.00  0.00    -0.096 A 
ATOM     10  HN1 IND d   1       2.115  -0.253   2.012  0.00  0.00     0.298 HD
ENDROOT
TORSDOF 0
ENDMDL
