MODEL 1
REMARK minimizedAffinity -2.39484811
REMARK minimizedRMSD -1
REMARK  0 active torsions:
REMARK  status: ('A' for Active; 'I' for Inactive)
ROOT
ATOM      1  N1  IND d   1       1.239  -1.436   0.741  0.00  0.00    -0.196 N 
ATOM      2  C2  IND d   1       2.463  -1.036   1.202  0.00  0.00     0.054 A 
ATOM      3  C3  IND d   1       2.336   0.064   1.978  0.00  0.00    -0.031 A 
ATOM      4  C4  IND d   1       0.208   1.314   2.709  0.00  0.00     0.051 A 
ATOM      5  C5  IND d   1      -1.145   1.344   2.514  0.00  0.00    -0.031 A 
ATOM      6  C6  IND d   1      -1.785   0.428   1.703  0.00  0.00     0.015 A 
ATOM      7  C7  IND d   1      -1.094  -0.562   1.064  0.00  0.00    -0.016 A 
ATOM      8  C8  IND d   1       0.280  -0.591   1.255  0.00  0.00    -0.047 A 
ATOM      9  C9  IND d   1       0.940   0.361   2.042  0.00  0.00    -0.096 A 
ATOM     10  HN1 IND d   1       1.094  -2.103   0.219  0.00  0.00     0.298 HD
ENDROOT
TORSDOF 0
ENDMDL
