MODEL 1
REMARK minimizedAffinity 1.48633313
REMARK minimizedRMSD -1
REMARK  0 active torsions:
REMARK  status: ('A' for Active; 'I' for Inactive)
ROOT
ATOM      1  N1  IND d   1       1.536  -0.785   1.273  0.00  0.00    -0.196 N 
ATOM      2  C2  IND d   1       1.677  -1.034  -0.064  0.00  0.00     0.054 A 
ATOM      3  C3  IND d   1       0.515  -0.793  -0.712  0.00  0.00    -0.031 A 
ATOM      4  C4  IND d   1      -1.712   0.114   0.205  0.00  0.00     0.051 A 
ATOM      5  C5  IND d   1      -2.338   0.456   1.372  0.00  0.00    -0.031 A 
ATOM      6  C6  IND d   1      -1.690   0.403   2.589  0.00  0.00     0.015 A 
ATOM      7  C7  IND d   1      -0.383   0.016   2.684  0.00  0.00    -0.016 A 
ATOM      8  C8  IND d   1       0.253  -0.339   1.503  0.00  0.00    -0.047 A 
ATOM      9  C9  IND d   1      -0.412  -0.328   0.270  0.00  0.00    -0.096 A 
ATOM     10  HN1 IND d   1       2.146  -0.890   1.870  0.00  0.00     0.298 HD
ENDROOT
TORSDOF 0
ENDMDL
