MODEL 1
REMARK minimizedAffinity 0.490278691
REMARK minimizedRMSD -1
REMARK  0 active torsions:
REMARK  status: ('A' for Active; 'I' for Inactive)
ROOT
ATOM      1  N1  IND d   1       0.622   2.279   1.940  0.00  0.00    -0.196 N 
ATOM      2  C2  IND d   1       1.279   3.050   2.858  0.00  0.00     0.054 A 
ATOM      3  C3  IND d   1       1.194   2.493   4.087  0.00  0.00    -0.031 A 
ATOM      4  C4  IND d   1       0.114   0.269   4.803  0.00  0.00     0.051 A 
ATOM      5  C5  IND d   1      -0.639  -0.766   4.324  0.00  0.00    -0.031 A 
ATOM      6  C6  IND d   1      -1.016  -0.842   2.999  0.00  0.00     0.015 A 
ATOM      7  C7  IND d   1      -0.642   0.113   2.097  0.00  0.00    -0.016 A 
ATOM      8  C8  IND d   1       0.117   1.169   2.581  0.00  0.00    -0.047 A 
ATOM      9  C9  IND d   1       0.466   1.273   3.933  0.00  0.00    -0.096 A 
ATOM     10  HN1 IND d   1       0.538   2.458   1.103  0.00  0.00     0.298 HD
ENDROOT
TORSDOF 0
ENDMDL
