MODEL 1
REMARK minimizedAffinity 10.8844624
REMARK minimizedRMSD -1
REMARK  0 active torsions:
REMARK  status: ('A' for Active; 'I' for Inactive)
ROOT
ATOM      1  C   UNL d   1      -5.996  -1.775   0.059  0.00  0.00    -0.002 A 
ATOM      2  C1  UNL d   1      -5.415  -2.179  -1.134  0.00  0.00     0.010 A 
ATOM      3  C2  UNL d   1      -4.789  -3.423  -1.234  0.00  0.00     0.041 A 
ATOM      4  C3  UNL d   1      -4.757  -4.263  -0.103  0.00  0.00    -0.075 A 
ATOM      5  S   UNL d   1      -4.047  -5.830   0.009  0.00  0.00     0.015 SA
ATOM      6  C4  UNL d   1      -4.499  -5.999   1.644  0.00  0.00     0.022 A 
ATOM      7  C5  UNL d   1      -5.175  -4.897   2.109  0.00  0.00     0.026 A 
ATOM      8  C6  UNL d   1      -5.336  -3.878   1.110  0.00  0.00    -0.082 A 
ATOM      9  C7  UNL d   1      -5.962  -2.610   1.179  0.00  0.00     0.045 A 
ENDROOT
TORSDOF 0
ENDMDL
