MODEL 1
REMARK minimizedAffinity 5.15171957
REMARK minimizedRMSD -1
REMARK  0 active torsions:
REMARK  status: ('A' for Active; 'I' for Inactive)
ROOT
ATOM      1  C   UNL d   1      -3.869   1.373   3.295  0.00  0.00    -0.002 A 
ATOM      2  C1  UNL d   1      -3.340   2.540   2.763  0.00  0.00     0.010 A 
ATOM      3  C2  UNL d   1      -2.458   2.491   1.682  0.00  0.00     0.041 A 
ATOM      4  C3  UNL d   1      -2.115   1.238   1.138  0.00  0.00    -0.075 A 
ATOM      5  S   UNL d   1      -1.055   0.935  -0.188  0.00  0.00     0.015 SA
ATOM      6  C4  UNL d   1      -1.280  -0.751  -0.080  0.00  0.00     0.022 A 
ATOM      7  C5  UNL d   1      -2.140  -1.092   0.938  0.00  0.00     0.026 A 
ATOM      8  C6  UNL d   1      -2.636   0.049   1.656  0.00  0.00    -0.082 A 
ATOM      9  C7  UNL d   1      -3.527   0.131   2.753  0.00  0.00     0.045 A 
ENDROOT
TORSDOF 0
ENDMDL
