MODEL 1
REMARK minimizedAffinity 11.9162817
REMARK minimizedRMSD -1
REMARK  0 active torsions:
REMARK  status: ('A' for Active; 'I' for Inactive)
ROOT
ATOM      1  C   UNL d   1      -3.908  -5.972   0.230  0.00  0.00    -0.002 A 
ATOM      2  C1  UNL d   1      -5.276  -5.996  -0.003  0.00  0.00     0.010 A 
ATOM      3  C2  UNL d   1      -5.999  -4.806  -0.107  0.00  0.00     0.041 A 
ATOM      4  C3  UNL d   1      -5.318  -3.580   0.025  0.00  0.00    -0.075 A 
ATOM      5  S   UNL d   1      -5.997  -1.998  -0.067  0.00  0.00     0.015 SA
ATOM      6  C4  UNL d   1      -4.487  -1.254   0.199  0.00  0.00     0.022 A 
ATOM      7  C5  UNL d   1      -3.479  -2.175   0.358  0.00  0.00     0.026 A 
ATOM      8  C6  UNL d   1      -3.941  -3.531   0.259  0.00  0.00    -0.082 A 
ATOM      9  C7  UNL d   1      -3.236  -4.754   0.361  0.00  0.00     0.045 A 
ENDROOT
TORSDOF 0
ENDMDL
