MODEL 1
REMARK minimizedAffinity 16.7901554
REMARK minimizedRMSD -1
REMARK  0 active torsions:
REMARK  status: ('A' for Active; 'I' for Inactive)
ROOT
ATOM      1  C   UNL d   1       5.984  -0.890   3.527  0.00  0.00    -0.002 A 
ATOM      2  C1  UNL d   1       5.995  -0.905   4.915  0.00  0.00     0.010 A 
ATOM      3  C2  UNL d   1       5.997  -2.115   5.612  0.00  0.00     0.041 A 
ATOM      4  C3  UNL d   1       5.990  -3.321   4.883  0.00  0.00    -0.075 A 
ATOM      5  S   UNL d   1       5.992  -4.922   5.523  0.00  0.00     0.015 SA
ATOM      6  C4  UNL d   1       5.980  -5.623   3.970  0.00  0.00     0.022 A 
ATOM      7  C5  UNL d   1       5.974  -4.674   2.976  0.00  0.00     0.026 A 
ATOM      8  C6  UNL d   1       5.981  -3.331   3.486  0.00  0.00    -0.082 A 
ATOM      9  C7  UNL d   1       5.978  -2.088   2.808  0.00  0.00     0.045 A 
ENDROOT
TORSDOF 0
ENDMDL
