MODEL 1
REMARK minimizedAffinity 9.78890133
REMARK minimizedRMSD -1
REMARK  0 active torsions:
REMARK  status: ('A' for Active; 'I' for Inactive)
ROOT
ATOM      1  C   UNL d   1      -2.582   3.854   2.861  0.00  0.00    -0.002 A 
ATOM      2  C1  UNL d   1      -3.940   3.595   2.739  0.00  0.00     0.010 A 
ATOM      3  C2  UNL d   1      -4.387   2.378   2.221  0.00  0.00     0.041 A 
ATOM      4  C3  UNL d   1      -3.437   1.415   1.827  0.00  0.00    -0.075 A 
ATOM      5  S   UNL d   1      -3.753  -0.147   1.168  0.00  0.00     0.015 SA
ATOM      6  C4  UNL d   1      -2.092  -0.508   1.034  0.00  0.00     0.022 A 
ATOM      7  C5  UNL d   1      -1.303   0.527   1.476  0.00  0.00     0.026 A 
ATOM      8  C6  UNL d   1      -2.065   1.652   1.941  0.00  0.00    -0.082 A 
ATOM      9  C7  UNL d   1      -1.643   2.896   2.469  0.00  0.00     0.045 A 
ENDROOT
TORSDOF 0
ENDMDL
