MODEL 1
REMARK minimizedAffinity 11.572526
REMARK minimizedRMSD -1
REMARK  0 active torsions:
REMARK  status: ('A' for Active; 'I' for Inactive)
ROOT
ATOM      1  C   UNL d   1      -5.791  -3.042  -5.368  0.00  0.00    -0.002 A 
ATOM      2  C1  UNL d   1      -5.171  -4.213  -5.780  0.00  0.00     0.010 A 
ATOM      3  C2  UNL d   1      -3.793  -4.248  -5.999  0.00  0.00     0.041 A 
ATOM      4  C3  UNL d   1      -3.040  -3.075  -5.793  0.00  0.00    -0.075 A 
ATOM      5  S   UNL d   1      -1.339  -2.882  -5.998  0.00  0.00     0.015 SA
ATOM      6  C4  UNL d   1      -1.395  -1.241  -5.542  0.00  0.00     0.022 A 
ATOM      7  C5  UNL d   1      -2.673  -0.833  -5.238  0.00  0.00     0.026 A 
ATOM      8  C6  UNL d   1      -3.642  -1.884  -5.377  0.00  0.00    -0.082 A 
ATOM      9  C7  UNL d   1      -5.041  -1.881  -5.165  0.00  0.00     0.045 A 
ENDROOT
TORSDOF 0
ENDMDL
