MODEL 1
REMARK minimizedAffinity 19.7296906
REMARK minimizedRMSD -1
REMARK  0 active torsions:
REMARK  status: ('A' for Active; 'I' for Inactive)
ROOT
ATOM      1  C   UNL d   1      -3.648  -3.595   0.603  0.00  0.00    -0.002 A 
ATOM      2  C1  UNL d   1      -2.272  -3.775   0.596  0.00  0.00     0.010 A 
ATOM      3  C2  UNL d   1      -1.414  -2.708   0.869  0.00  0.00     0.041 A 
ATOM      4  C3  UNL d   1      -1.968  -1.444   1.154  0.00  0.00    -0.075 A 
ATOM      5  S   UNL d   1      -1.112   0.007   1.520  0.00  0.00     0.015 SA
ATOM      6  C4  UNL d   1      -2.553   0.901   1.694  0.00  0.00     0.022 A 
ATOM      7  C5  UNL d   1      -3.669   0.127   1.482  0.00  0.00     0.026 A 
ATOM      8  C6  UNL d   1      -3.350  -1.238   1.168  0.00  0.00    -0.082 A 
ATOM      9  C7  UNL d   1      -4.193  -2.340   0.886  0.00  0.00     0.045 A 
ENDROOT
TORSDOF 0
ENDMDL
