MODEL 1
REMARK minimizedAffinity 14.2775545
REMARK minimizedRMSD -1
REMARK  0 active torsions:
REMARK  status: ('A' for Active; 'I' for Inactive)
ROOT
ATOM      1  C   UNL d   1       2.106   5.976  -4.460  0.00  0.00    -0.002 A 
ATOM      2  C1  UNL d   1       1.608   5.161  -5.466  0.00  0.00     0.010 A 
ATOM      3  C2  UNL d   1       2.389   4.134  -6.000  0.00  0.00     0.041 A 
ATOM      4  C3  UNL d   1       3.691   3.936  -5.498  0.00  0.00    -0.075 A 
ATOM      5  S   UNL d   1       4.827   2.740  -5.999  0.00  0.00     0.015 SA
ATOM      6  C4  UNL d   1       6.000   3.282  -4.887  0.00  0.00     0.022 A 
ATOM      7  C5  UNL d   1       5.552   4.349  -4.144  0.00  0.00     0.026 A 
ATOM      8  C6  UNL d   1       4.214   4.743  -4.484  0.00  0.00    -0.082 A 
ATOM      9  C7  UNL d   1       3.398   5.777  -3.964  0.00  0.00     0.045 A 
ENDROOT
TORSDOF 0
ENDMDL
