MODEL 1
REMARK minimizedAffinity 18.6381226
REMARK minimizedRMSD -1
REMARK  0 active torsions:
REMARK  status: ('A' for Active; 'I' for Inactive)
ROOT
ATOM      1  C   UNL d   1       5.999  -5.963   5.275  0.00  0.00    -0.002 A 
ATOM      2  C1  UNL d   1       5.992  -5.944   3.887  0.00  0.00     0.010 A 
ATOM      3  C2  UNL d   1       5.920  -4.735   3.193  0.00  0.00     0.041 A 
ATOM      4  C3  UNL d   1       5.855  -3.532   3.924  0.00  0.00    -0.075 A 
ATOM      5  S   UNL d   1       5.762  -1.933   3.288  0.00  0.00     0.015 SA
ATOM      6  C4  UNL d   1       5.729  -1.236   4.843  0.00  0.00     0.022 A 
ATOM      7  C5  UNL d   1       5.787  -2.186   5.835  0.00  0.00     0.026 A 
ATOM      8  C6  UNL d   1       5.861  -3.525   5.322  0.00  0.00    -0.082 A 
ATOM      9  C7  UNL d   1       5.934  -4.768   5.996  0.00  0.00     0.045 A 
ENDROOT
TORSDOF 0
ENDMDL
