MODEL 1
REMARK minimizedAffinity -4.57828331
REMARK minimizedRMSD -1
REMARK  1 active torsions:
REMARK  status: ('A' for Active; 'I' for Inactive)
REMARK    1  A    between atoms: C1_2  and  C2_3 
ROOT
ATOM      1  C2  UNL d   1      -0.441   0.621   0.027  0.00  0.00    -0.076 A 
ATOM      2  C3  UNL d   1       0.323   0.284   1.158  0.00  0.00     0.004 A 
ATOM      3  C4  UNL d   1      -0.279  -0.231   2.304  0.00  0.00    -0.003 A 
ATOM      4  C5  UNL d   1      -1.656  -0.419   2.339  0.00  0.00     0.000 A 
ATOM      5  C6  UNL d   1      -2.429  -0.107   1.220  0.00  0.00     0.000 A 
ATOM      6  C7  UNL d   1      -1.835   0.398   0.051  0.00  0.00    -0.073 A 
ATOM      7  C8  UNL d   1      -2.716   0.723  -1.124  0.00  0.00     0.078 C 
ENDROOT
BRANCH   1   8
ATOM      8  C1  UNL d   1       0.264   1.201  -1.177  0.00  0.00     0.053 C 
ATOM      9  C   UNL d   1       0.893   0.131  -2.056  0.00  0.00     0.018 C 
ENDBRANCH   1   8
TORSDOF 1
ENDMDL
