MODEL 1
REMARK minimizedAffinity -3.79963255
REMARK minimizedRMSD -1
REMARK  1 active torsions:
REMARK  status: ('A' for Active; 'I' for Inactive)
REMARK    1  A    between atoms: C1_2  and  C2_3 
ROOT
ATOM      1  C2  UNL d   1      -1.012  -0.220   0.763  0.00  0.00    -0.076 A 
ATOM      2  C3  UNL d   1       0.207  -0.023   1.434  0.00  0.00     0.004 A 
ATOM      3  C4  UNL d   1       1.090   0.980   1.038  0.00  0.00    -0.003 A 
ATOM      4  C5  UNL d   1       0.767   1.803  -0.035  0.00  0.00     0.000 A 
ATOM      5  C6  UNL d   1      -0.446   1.633  -0.701  0.00  0.00     0.000 A 
ATOM      6  C7  UNL d   1      -1.354   0.637  -0.304  0.00  0.00    -0.073 A 
ATOM      7  C8  UNL d   1      -2.646   0.494  -1.062  0.00  0.00     0.078 C 
ENDROOT
BRANCH   1   8
ATOM      8  C1  UNL d   1      -1.917  -1.342   1.221  0.00  0.00     0.053 C 
ATOM      9  C   UNL d   1      -1.156  -2.630   1.493  0.00  0.00     0.018 C 
ENDBRANCH   1   8
TORSDOF 1
ENDMDL
