MODEL 1
REMARK minimizedAffinity -5.41375875
REMARK minimizedRMSD -1
REMARK  1 active torsions:
REMARK  status: ('A' for Active; 'I' for Inactive)
REMARK    1  A    between atoms: C1_2  and  C2_3 
ROOT
ATOM      1  C2  UNL d   1      -1.923   0.244   0.945  0.00  0.00    -0.076 A 
ATOM      2  C3  UNL d   1      -1.885   0.718  -0.378  0.00  0.00     0.004 A 
ATOM      3  C4  UNL d   1      -0.693   0.732  -1.101  0.00  0.00    -0.003 A 
ATOM      4  C5  UNL d   1       0.479   0.270  -0.513  0.00  0.00     0.000 A 
ATOM      5  C6  UNL d   1       0.456  -0.221   0.792  0.00  0.00     0.000 A 
ATOM      6  C7  UNL d   1      -0.740  -0.257   1.529  0.00  0.00    -0.073 A 
ATOM      7  C8  UNL d   1      -0.706  -0.791   2.935  0.00  0.00     0.078 C 
ENDROOT
BRANCH   1   8
ATOM      8  C1  UNL d   1      -3.239   0.278   1.689  0.00  0.00     0.053 C 
ATOM      9  C   UNL d   1      -3.379   1.511   2.568  0.00  0.00     0.018 C 
ENDBRANCH   1   8
TORSDOF 1
ENDMDL
