MODEL 1
REMARK minimizedAffinity -2.59160352
REMARK minimizedRMSD -1
REMARK  1 active torsions:
REMARK  status: ('A' for Active; 'I' for Inactive)
REMARK    1  A    between atoms: C1_2  and  C2_3 
ROOT
ATOM      1  C2  UNL d   1      -1.721   0.576   1.546  0.00  0.00    -0.076 A 
ATOM      2  C3  UNL d   1      -1.926   0.561   0.155  0.00  0.00     0.004 A 
ATOM      3  C4  UNL d   1      -0.869   0.329  -0.724  0.00  0.00    -0.003 A 
ATOM      4  C5  UNL d   1       0.410   0.108  -0.226  0.00  0.00     0.000 A 
ATOM      5  C6  UNL d   1       0.628   0.103   1.152  0.00  0.00     0.000 A 
ATOM      6  C7  UNL d   1      -0.429   0.319   2.052  0.00  0.00    -0.073 A 
ATOM      7  C8  UNL d   1      -0.136   0.308   3.527  0.00  0.00     0.078 C 
ENDROOT
BRANCH   1   8
ATOM      8  C1  UNL d   1      -2.901   0.860   2.448  0.00  0.00     0.053 C 
ATOM      9  C   UNL d   1      -2.945   2.308   2.912  0.00  0.00     0.018 C 
ENDBRANCH   1   8
TORSDOF 1
ENDMDL
