MODEL 1
REMARK minimizedAffinity -2.44424748
REMARK minimizedRMSD -1
REMARK  1 active torsions:
REMARK  status: ('A' for Active; 'I' for Inactive)
REMARK    1  A    between atoms: C1_2  and  C2_3 
ROOT
ATOM      1  C2  UNL d   1      -0.094   0.834  -0.049  0.00  0.00    -0.076 A 
ATOM      2  C3  UNL d   1       1.144   0.740   0.610  0.00  0.00     0.004 A 
ATOM      3  C4  UNL d   1       1.210   0.566   1.991  0.00  0.00    -0.003 A 
ATOM      4  C5  UNL d   1       0.039   0.482   2.736  0.00  0.00     0.000 A 
ATOM      5  C6  UNL d   1      -1.198   0.556   2.096  0.00  0.00     0.000 A 
ATOM      6  C7  UNL d   1      -1.282   0.715   0.702  0.00  0.00    -0.073 A 
ATOM      7  C8  UNL d   1      -2.643   0.794   0.066  0.00  0.00     0.078 C 
ENDROOT
BRANCH   1   8
ATOM      8  C1  UNL d   1      -0.103   1.051  -1.546  0.00  0.00     0.053 C 
ATOM      9  C   UNL d   1       0.978   0.251  -2.257  0.00  0.00     0.018 C 
ENDBRANCH   1   8
TORSDOF 1
ENDMDL
