MODEL 1
REMARK minimizedAffinity -4.34579611
REMARK minimizedRMSD -1
REMARK  1 active torsions:
REMARK  status: ('A' for Active; 'I' for Inactive)
REMARK    1  A    between atoms: C1_2  and  C2_3 
ROOT
ATOM      1  C2  UNL d   1      -0.416   0.320   1.158  0.00  0.00    -0.076 A 
ATOM      2  C3  UNL d   1       0.037  -0.357   2.304  0.00  0.00     0.004 A 
ATOM      3  C4  UNL d   1      -0.864  -0.883   3.229  0.00  0.00    -0.003 A 
ATOM      4  C5  UNL d   1      -2.231  -0.741   3.022  0.00  0.00     0.000 A 
ATOM      5  C6  UNL d   1      -2.698  -0.088   1.882  0.00  0.00     0.000 A 
ATOM      6  C7  UNL d   1      -1.804   0.434   0.932  0.00  0.00    -0.073 A 
ATOM      7  C8  UNL d   1      -2.363   1.134  -0.277  0.00  0.00     0.078 C 
ENDROOT
BRANCH   1   8
ATOM      8  C1  UNL d   1       0.608   0.893   0.204  0.00  0.00     0.053 C 
ATOM      9  C   UNL d   1       1.050  -0.112  -0.849  0.00  0.00     0.018 C 
ENDBRANCH   1   8
TORSDOF 1
ENDMDL
