MODEL 1
REMARK minimizedAffinity -2.71938682
REMARK minimizedRMSD -1
REMARK  1 active torsions:
REMARK  status: ('A' for Active; 'I' for Inactive)
REMARK    1  A    between atoms: C1_2  and  C2_3 
ROOT
ATOM      1  C2  UNL d   1      -0.608   0.493   1.248  0.00  0.00    -0.076 A 
ATOM      2  C3  UNL d   1       0.713   0.790   0.871  0.00  0.00     0.004 A 
ATOM      3  C4  UNL d   1       1.026   1.124  -0.446  0.00  0.00    -0.003 A 
ATOM      4  C5  UNL d   1       0.023   1.167  -1.407  0.00  0.00     0.000 A 
ATOM      5  C6  UNL d   1      -1.296   0.893  -1.048  0.00  0.00     0.000 A 
ATOM      6  C7  UNL d   1      -1.631   0.571   0.279  0.00  0.00    -0.073 A 
ATOM      7  C8  UNL d   1      -3.069   0.278   0.609  0.00  0.00     0.078 C 
ENDROOT
BRANCH   1   8
ATOM      8  C1  UNL d   1      -0.883   0.111   2.684  0.00  0.00     0.053 C 
ATOM      9  C   UNL d   1      -0.692   1.276   3.644  0.00  0.00     0.018 C 
ENDBRANCH   1   8
TORSDOF 1
ENDMDL
