MODEL 1
REMARK minimizedAffinity -4.44525719
REMARK minimizedRMSD -1
REMARK  1 active torsions:
REMARK  status: ('A' for Active; 'I' for Inactive)
REMARK    1  A    between atoms: C1_2  and  C2_3 
ROOT
ATOM      1  C2  UNL d   1      -0.391   0.353   0.836  0.00  0.00    -0.076 A 
ATOM      2  C3  UNL d   1      -1.778   0.138   0.752  0.00  0.00     0.004 A 
ATOM      3  C4  UNL d   1      -2.500  -0.324   1.851  0.00  0.00    -0.003 A 
ATOM      4  C5  UNL d   1      -1.847  -0.579   3.052  0.00  0.00     0.000 A 
ATOM      5  C6  UNL d   1      -0.475  -0.355   3.158  0.00  0.00     0.000 A 
ATOM      6  C7  UNL d   1       0.265   0.127   2.065  0.00  0.00    -0.073 A 
ATOM      7  C8  UNL d   1       1.744   0.345   2.234  0.00  0.00     0.078 C 
ENDROOT
BRANCH   1   8
ATOM      8  C1  UNL d   1       0.344   0.830  -0.396  0.00  0.00     0.053 C 
ATOM      9  C   UNL d   1       0.719  -0.312  -1.329  0.00  0.00     0.018 C 
ENDBRANCH   1   8
TORSDOF 1
ENDMDL
