MODEL 1
REMARK minimizedAffinity -1.78143454
REMARK minimizedRMSD -1
REMARK  1 active torsions:
REMARK  status: ('A' for Active; 'I' for Inactive)
REMARK    1  A    between atoms: C1_2  and  C2_3 
ROOT
ATOM      1  C2  UNL d   1      -0.362   0.228   0.226  0.00  0.00    -0.076 A 
ATOM      2  C3  UNL d   1       0.880   0.243   0.883  0.00  0.00     0.004 A 
ATOM      3  C4  UNL d   1       0.981  -0.079   2.235  0.00  0.00    -0.003 A 
ATOM      4  C5  UNL d   1      -0.159  -0.423   2.953  0.00  0.00     0.000 A 
ATOM      5  C6  UNL d   1      -1.398  -0.461   2.313  0.00  0.00     0.000 A 
ATOM      6  C7  UNL d   1      -1.514  -0.154   0.947  0.00  0.00    -0.073 A 
ATOM      7  C8  UNL d   1      -2.876  -0.204   0.309  0.00  0.00     0.078 C 
ENDROOT
BRANCH   1   8
ATOM      8  C1  UNL d   1      -0.414   0.614  -1.235  0.00  0.00     0.053 C 
ATOM      9  C   UNL d   1       0.596  -0.152  -2.076  0.00  0.00     0.018 C 
ENDBRANCH   1   8
TORSDOF 1
ENDMDL
