MODEL 1
REMARK minimizedAffinity -3.80823731
REMARK minimizedRMSD -1
REMARK  1 active torsions:
REMARK  status: ('A' for Active; 'I' for Inactive)
REMARK    1  A    between atoms: C1_2  and  C2_3 
ROOT
ATOM      1  C2  UNL d   1      -0.142   0.243   0.670  0.00  0.00    -0.076 A 
ATOM      2  C3  UNL d   1      -1.296  -0.421   0.217  0.00  0.00     0.004 A 
ATOM      3  C4  UNL d   1      -2.127  -1.101   1.104  0.00  0.00    -0.003 A 
ATOM      4  C5  UNL d   1      -1.818  -1.129   2.460  0.00  0.00     0.000 A 
ATOM      5  C6  UNL d   1      -0.688  -0.461   2.929  0.00  0.00     0.000 A 
ATOM      6  C7  UNL d   1       0.152   0.243   2.050  0.00  0.00    -0.073 A 
ATOM      7  C8  UNL d   1       1.362   0.940   2.610  0.00  0.00     0.078 C 
ENDROOT
BRANCH   1   8
ATOM      8  C1  UNL d   1       0.736   0.942  -0.344  0.00  0.00     0.053 C 
ATOM      9  C   UNL d   1       1.244  -0.001  -1.424  0.00  0.00     0.018 C 
ENDBRANCH   1   8
TORSDOF 1
ENDMDL
