MODEL 1
REMARK minimizedAffinity -4.77274036
REMARK minimizedRMSD -1
REMARK  1 active torsions:
REMARK  status: ('A' for Active; 'I' for Inactive)
REMARK    1  A    between atoms: C1_2  and  C2_3 
ROOT
ATOM      1  C2  UNL d   1      -0.488   0.184   0.572  0.00  0.00    -0.076 A 
ATOM      2  C3  UNL d   1       0.423  -0.228   1.561  0.00  0.00     0.004 A 
ATOM      3  C4  UNL d   1      -0.020  -0.648   2.814  0.00  0.00    -0.003 A 
ATOM      4  C5  UNL d   1      -1.381  -0.665   3.098  0.00  0.00     0.000 A 
ATOM      5  C6  UNL d   1      -2.300  -0.276   2.123  0.00  0.00     0.000 A 
ATOM      6  C7  UNL d   1      -1.870   0.135   0.850  0.00  0.00    -0.073 A 
ATOM      7  C8  UNL d   1      -2.904   0.549  -0.162  0.00  0.00     0.078 C 
ENDROOT
BRANCH   1   8
ATOM      8  C1  UNL d   1       0.053   0.656  -0.759  0.00  0.00     0.053 C 
ATOM      9  C   UNL d   1       0.302  -0.490  -1.726  0.00  0.00     0.018 C 
ENDBRANCH   1   8
TORSDOF 1
ENDMDL
