MODEL 1
REMARK minimizedAffinity -2.36478066
REMARK minimizedRMSD -1
REMARK  1 active torsions:
REMARK  status: ('A' for Active; 'I' for Inactive)
REMARK    1  A    between atoms: C1_2  and  C2_3 
ROOT
ATOM      1  C2  UNL d   1       0.270   0.217   0.427  0.00  0.00    -0.076 A 
ATOM      2  C3  UNL d   1       1.449   0.837   0.877  0.00  0.00     0.004 A 
ATOM      3  C4  UNL d   1       1.629   1.143   2.224  0.00  0.00    -0.003 A 
ATOM      4  C5  UNL d   1       0.633   0.834   3.145  0.00  0.00     0.000 A 
ATOM      5  C6  UNL d   1      -0.535   0.203   2.719  0.00  0.00     0.000 A 
ATOM      6  C7  UNL d   1      -0.725  -0.127   1.366  0.00  0.00    -0.073 A 
ATOM      7  C8  UNL d   1      -2.008  -0.802   0.962  0.00  0.00     0.078 C 
ENDROOT
BRANCH   1   8
ATOM      8  C1  UNL d   1       0.119  -0.067  -1.050  0.00  0.00     0.053 C 
ATOM      9  C   UNL d   1       1.420   0.124  -1.816  0.00  0.00     0.018 C 
ENDBRANCH   1   8
TORSDOF 1
ENDMDL
