MODEL 1
REMARK minimizedAffinity -2.29282951
REMARK minimizedRMSD -1
REMARK  1 active torsions:
REMARK  status: ('A' for Active; 'I' for Inactive)
REMARK    1  A    between atoms: C1_2  and  C2_3 
ROOT
ATOM      1  C2  UNL d   1      -0.268   0.312   0.240  0.00  0.00    -0.076 A 
ATOM      2  C3  UNL d   1       0.958   0.234   0.922  0.00  0.00     0.004 A 
ATOM      3  C4  UNL d   1       1.002  -0.016   2.293  0.00  0.00    -0.003 A 
ATOM      4  C5  UNL d   1      -0.181  -0.192   3.003  0.00  0.00     0.000 A 
ATOM      5  C6  UNL d   1      -1.406  -0.136   2.339  0.00  0.00     0.000 A 
ATOM      6  C7  UNL d   1      -1.466   0.099   0.954  0.00  0.00    -0.073 A 
ATOM      7  C8  UNL d   1      -2.815   0.155   0.290  0.00  0.00     0.078 C 
ENDROOT
BRANCH   1   8
ATOM      8  C1  UNL d   1      -0.254   0.612  -1.242  0.00  0.00     0.053 C 
ATOM      9  C   UNL d   1       0.864  -0.115  -1.974  0.00  0.00     0.018 C 
ENDBRANCH   1   8
TORSDOF 1
ENDMDL
