MODEL 1
REMARK minimizedAffinity 8.56677151
REMARK minimizedRMSD -1
REMARK  0 active torsions:
REMARK  status: ('A' for Active; 'I' for Inactive)
ROOT
ATOM      1  C   UNL d   1      -6.000   0.388  -4.133  0.00  0.00     0.020 A 
ATOM      2  C1  UNL d   1      -5.004  -0.261  -4.862  0.00  0.00     0.020 A 
ATOM      3  C2  UNL d   1      -3.943   0.469  -5.399  0.00  0.00     0.034 A 
ATOM      4  C3  UNL d   1      -3.874   1.854  -5.209  0.00  0.00     0.017 A 
ATOM      5  C4  UNL d   1      -4.873   2.506  -4.477  0.00  0.00     0.017 A 
ATOM      6  C5  UNL d   1      -5.934   1.769  -3.941  0.00  0.00     0.034 A 
ATOM      7 Cl   UNL d   1      -4.856   4.212  -4.200  0.00  0.00    -0.070 Cl
ATOM      8 Cl1  UNL d   1      -2.532   2.695  -5.901  0.00  0.00    -0.070 Cl
ENDROOT
TORSDOF 0
ENDMDL
