MODEL 1
REMARK minimizedAffinity 12.4310446
REMARK minimizedRMSD -1
REMARK  0 active torsions:
REMARK  status: ('A' for Active; 'I' for Inactive)
ROOT
ATOM      1  C   UNL d   1      -5.939   5.647   5.374  0.00  0.00     0.020 A 
ATOM      2  C1  UNL d   1      -5.633   5.769   4.020  0.00  0.00     0.020 A 
ATOM      3  C2  UNL d   1      -5.387   4.628   3.254  0.00  0.00     0.034 A 
ATOM      4  C3  UNL d   1      -5.446   3.359   3.842  0.00  0.00     0.017 A 
ATOM      5  C4  UNL d   1      -5.754   3.238   5.202  0.00  0.00     0.017 A 
ATOM      6  C5  UNL d   1      -5.999   4.384   5.964  0.00  0.00     0.034 A 
ATOM      7 Cl   UNL d   1      -5.846   1.707   5.999  0.00  0.00    -0.070 Cl
ATOM      8 Cl1  UNL d   1      -5.131   1.991   2.836  0.00  0.00    -0.070 Cl
ENDROOT
TORSDOF 0
ENDMDL
