MODEL 1
REMARK minimizedAffinity 15.5678196
REMARK minimizedRMSD -1
REMARK  0 active torsions:
REMARK  status: ('A' for Active; 'I' for Inactive)
ROOT
ATOM      1  C   UNL d   1      -0.027  -5.104  -2.171  0.00  0.00     0.020 A 
ATOM      2  C1  UNL d   1      -1.354  -4.873  -2.532  0.00  0.00     0.020 A 
ATOM      3  C2  UNL d   1      -1.804  -3.567  -2.737  0.00  0.00     0.034 A 
ATOM      4  C3  UNL d   1      -0.927  -2.487  -2.581  0.00  0.00     0.017 A 
ATOM      5  C4  UNL d   1       0.405  -2.721  -2.218  0.00  0.00     0.017 A 
ATOM      6  C5  UNL d   1       0.850  -4.030  -2.014  0.00  0.00     0.034 A 
ATOM      7 Cl   UNL d   1       1.546  -1.440  -2.007  0.00  0.00    -0.070 Cl
ATOM      8 Cl1  UNL d   1      -1.552  -0.899  -2.851  0.00  0.00    -0.070 Cl
ENDROOT
TORSDOF 0
ENDMDL
