MODEL 1
REMARK minimizedAffinity 12.6530237
REMARK minimizedRMSD -1
REMARK  0 active torsions:
REMARK  status: ('A' for Active; 'I' for Inactive)
ROOT
ATOM      1  C   UNL d   1       5.814   0.381  -0.049  0.00  0.00     0.020 A 
ATOM      2  C1  UNL d   1       5.060   1.464  -0.501  0.00  0.00     0.020 A 
ATOM      3  C2  UNL d   1       3.675   1.342  -0.635  0.00  0.00     0.034 A 
ATOM      4  C3  UNL d   1       3.040   0.136  -0.317  0.00  0.00     0.017 A 
ATOM      5  C4  UNL d   1       3.798  -0.950   0.136  0.00  0.00     0.017 A 
ATOM      6  C5  UNL d   1       5.184  -0.823   0.269  0.00  0.00     0.034 A 
ATOM      7 Cl   UNL d   1       3.086  -2.470   0.548  0.00  0.00    -0.070 Cl
ATOM      8 Cl1  UNL d   1       1.324   0.056  -0.506  0.00  0.00    -0.070 Cl
ENDROOT
TORSDOF 0
ENDMDL
