MODEL 1
REMARK minimizedAffinity 7.10373688
REMARK minimizedRMSD -1
REMARK  0 active torsions:
REMARK  status: ('A' for Active; 'I' for Inactive)
ROOT
ATOM      1  C   UNL d   1       2.480  -1.531   0.672  0.00  0.00     0.020 A 
ATOM      2  C1  UNL d   1       3.314  -0.750  -0.127  0.00  0.00     0.020 A 
ATOM      3  C2  UNL d   1       3.441  -1.033  -1.488  0.00  0.00     0.034 A 
ATOM      4  C3  UNL d   1       2.733  -2.099  -2.055  0.00  0.00     0.017 A 
ATOM      5  C4  UNL d   1       1.896  -2.882  -1.252  0.00  0.00     0.017 A 
ATOM      6  C5  UNL d   1       1.772  -2.595   0.111  0.00  0.00     0.034 A 
ATOM      7 Cl   UNL d   1       0.991  -4.214  -1.879  0.00  0.00    -0.070 Cl
ATOM      8 Cl1  UNL d   1       2.937  -2.391  -3.746  0.00  0.00    -0.070 Cl
ENDROOT
TORSDOF 0
ENDMDL
