MODEL 1
REMARK minimizedAffinity 10.3589706
REMARK minimizedRMSD -1
REMARK  0 active torsions:
REMARK  status: ('A' for Active; 'I' for Inactive)
ROOT
ATOM      1  C   UNL d   1       0.224  -4.931  -1.784  0.00  0.00     0.020 A 
ATOM      2  C1  UNL d   1       0.464  -5.180  -3.134  0.00  0.00     0.020 A 
ATOM      3  C2  UNL d   1       1.441  -4.451  -3.816  0.00  0.00     0.034 A 
ATOM      4  C3  UNL d   1       2.182  -3.470  -3.147  0.00  0.00     0.017 A 
ATOM      5  C4  UNL d   1       1.940  -3.221  -1.791  0.00  0.00     0.017 A 
ATOM      6  C5  UNL d   1       0.961  -3.954  -1.113  0.00  0.00     0.034 A 
ATOM      7 Cl   UNL d   1       2.813  -2.026  -0.898  0.00  0.00    -0.070 Cl
ATOM      8 Cl1  UNL d   1       3.374  -2.607  -4.051  0.00  0.00    -0.070 Cl
ENDROOT
TORSDOF 0
ENDMDL
