MODEL 1
REMARK minimizedAffinity 12.7453384
REMARK minimizedRMSD -1
REMARK  0 active torsions:
REMARK  status: ('A' for Active; 'I' for Inactive)
ROOT
ATOM      1  C   UNL d   1       5.970  -1.499  -2.813  0.00  0.00     0.020 A 
ATOM      2  C1  UNL d   1       4.980  -0.599  -2.420  0.00  0.00     0.020 A 
ATOM      3  C2  UNL d   1       3.634  -0.952  -2.527  0.00  0.00     0.034 A 
ATOM      4  C3  UNL d   1       3.273  -2.208  -3.029  0.00  0.00     0.017 A 
ATOM      5  C4  UNL d   1       4.267  -3.111  -3.423  0.00  0.00     0.017 A 
ATOM      6  C5  UNL d   1       5.614  -2.752  -3.313  0.00  0.00     0.034 A 
ATOM      7 Cl   UNL d   1       3.900  -4.678  -4.051  0.00  0.00    -0.070 Cl
ATOM      8 Cl1  UNL d   1       1.588  -2.578  -3.133  0.00  0.00    -0.070 Cl
ENDROOT
TORSDOF 0
ENDMDL
