MODEL 1
REMARK minimizedAffinity 7.08222914
REMARK minimizedRMSD -1
REMARK  1 active torsions:
REMARK  status: ('A' for Active; 'I' for Inactive)
REMARK    1  A    between atoms: C1_2  and  C2_3 
ROOT
ATOM      1  C2  UNL d   1       1.372  -1.781   0.688  0.00  0.00    -0.077 A 
ATOM      2  C3  UNL d   1       2.670  -1.261   0.591  0.00  0.00     0.002 A 
ATOM      3  C4  UNL d   1       3.078  -0.591  -0.564  0.00  0.00     0.002 A 
ATOM      4  C5  UNL d   1       2.194  -0.432  -1.628  0.00  0.00    -0.004 A 
ATOM      5  C6  UNL d   1       0.901  -0.947  -1.542  0.00  0.00     0.002 A 
ATOM      6  C7  UNL d   1       0.491  -1.618  -0.389  0.00  0.00     0.002 A 
ENDROOT
BRANCH   1   7
ATOM      7  C1  UNL d   1       0.914  -2.460   1.952  0.00  0.00     0.055 C 
ATOM      8  C   UNL d   1      -0.294  -1.756   2.553  0.00  0.00     0.019 C 
ENDBRANCH   1   7
TORSDOF 1
ENDMDL
