MODEL 1
REMARK minimizedAffinity 8.10345459
REMARK minimizedRMSD -1
REMARK  1 active torsions:
REMARK  status: ('A' for Active; 'I' for Inactive)
REMARK    1  A    between atoms: C1_2  and  C2_3 
ROOT
ATOM      1  C2  UNL d   1      -3.394   0.803  -3.854  0.00  0.00    -0.077 A 
ATOM      2  C3  UNL d   1      -2.781  -0.367  -4.325  0.00  0.00     0.002 A 
ATOM      3  C4  UNL d   1      -3.338  -1.077  -5.390  0.00  0.00     0.002 A 
ATOM      4  C5  UNL d   1      -4.508  -0.623  -5.996  0.00  0.00    -0.004 A 
ATOM      5  C6  UNL d   1      -5.126   0.538  -5.534  0.00  0.00     0.002 A 
ATOM      6  C7  UNL d   1      -4.571   1.248  -4.468  0.00  0.00     0.002 A 
ENDROOT
BRANCH   1   7
ATOM      7  C1  UNL d   1      -2.768   1.597  -2.737  0.00  0.00     0.055 C 
ATOM      8  C   UNL d   1      -2.504   3.034  -3.161  0.00  0.00     0.019 C 
ENDBRANCH   1   7
TORSDOF 1
ENDMDL
