MODEL 1
REMARK minimizedAffinity 3.19223237
REMARK minimizedRMSD -1
REMARK  1 active torsions:
REMARK  status: ('A' for Active; 'I' for Inactive)
REMARK    1  A    between atoms: C1_2  and  C2_3 
ROOT
ATOM      1  C2  UNL d   1      -4.677   1.466  -5.388  0.00  0.00    -0.077 A 
ATOM      2  C3  UNL d   1      -5.601   0.896  -4.501  0.00  0.00     0.002 A 
ATOM      3  C4  UNL d   1      -5.569  -0.474  -4.232  0.00  0.00     0.002 A 
ATOM      4  C5  UNL d   1      -4.614  -1.283  -4.843  0.00  0.00    -0.004 A 
ATOM      5  C6  UNL d   1      -3.692  -0.726  -5.728  0.00  0.00     0.002 A 
ATOM      6  C7  UNL d   1      -3.723   0.643  -5.998  0.00  0.00     0.002 A 
ENDROOT
BRANCH   1   7
ATOM      7  C1  UNL d   1      -4.678   2.951  -5.640  0.00  0.00     0.055 C 
ATOM      8  C   UNL d   1      -6.000   3.582  -5.229  0.00  0.00     0.019 C 
ENDBRANCH   1   7
TORSDOF 1
ENDMDL
