MODEL 1
REMARK minimizedAffinity 4.9359417
REMARK minimizedRMSD -1
REMARK  1 active torsions:
REMARK  status: ('A' for Active; 'I' for Inactive)
REMARK    1  A    between atoms: C1_2  and  C2_3 
ROOT
ATOM      1  C2  UNL d   1      -1.736  -0.134   2.504  0.00  0.00    -0.077 A 
ATOM      2  C3  UNL d   1      -1.364  -1.119   1.578  0.00  0.00     0.002 A 
ATOM      3  C4  UNL d   1      -0.124  -1.754   1.682  0.00  0.00     0.002 A 
ATOM      4  C5  UNL d   1       0.751  -1.413   2.711  0.00  0.00    -0.004 A 
ATOM      5  C6  UNL d   1       0.391  -0.432   3.635  0.00  0.00     0.002 A 
ATOM      6  C7  UNL d   1      -0.847   0.204   3.532  0.00  0.00     0.002 A 
ENDROOT
BRANCH   1   7
ATOM      7  C1  UNL d   1      -3.092   0.517   2.422  0.00  0.00     0.055 C 
ATOM      8  C   UNL d   1      -3.627   0.855   3.806  0.00  0.00     0.019 C 
ENDBRANCH   1   7
TORSDOF 1
ENDMDL
