MODEL 1
REMARK minimizedAffinity 0.469454974
REMARK minimizedRMSD -1
REMARK  1 active torsions:
REMARK  status: ('A' for Active; 'I' for Inactive)
REMARK    1  A    between atoms: C1_2  and  C2_3 
ROOT
ATOM      1  C2  UNL d   1       1.999   0.423  -1.795  0.00  0.00    -0.077 A 
ATOM      2  C3  UNL d   1       2.438   1.332  -0.822  0.00  0.00     0.002 A 
ATOM      3  C4  UNL d   1       2.408   2.705  -1.073  0.00  0.00     0.002 A 
ATOM      4  C5  UNL d   1       1.936   3.181  -2.295  0.00  0.00    -0.004 A 
ATOM      5  C6  UNL d   1       1.498   2.285  -3.269  0.00  0.00     0.002 A 
ATOM      6  C7  UNL d   1       1.529   0.912  -3.020  0.00  0.00     0.002 A 
ENDROOT
BRANCH   1   7
ATOM      7  C1  UNL d   1       1.985  -1.056  -1.507  0.00  0.00     0.055 C 
ATOM      8  C   UNL d   1       1.621  -1.334  -0.056  0.00  0.00     0.019 C 
ENDBRANCH   1   7
TORSDOF 1
ENDMDL
