MODEL 1
REMARK minimizedAffinity 5.22852421
REMARK minimizedRMSD -1
REMARK  1 active torsions:
REMARK  status: ('A' for Active; 'I' for Inactive)
REMARK    1  A    between atoms: C1_2  and  C2_3 
ROOT
ATOM      1  C2  UNL d   1      -4.373   1.150   3.922  0.00  0.00    -0.077 A 
ATOM      2  C3  UNL d   1      -3.311   0.316   3.546  0.00  0.00     0.002 A 
ATOM      3  C4  UNL d   1      -3.196  -0.129   2.228  0.00  0.00     0.002 A 
ATOM      4  C5  UNL d   1      -4.136   0.257   1.275  0.00  0.00    -0.004 A 
ATOM      5  C6  UNL d   1      -5.197   1.085   1.640  0.00  0.00     0.002 A 
ATOM      6  C7  UNL d   1      -5.314   1.530   2.957  0.00  0.00     0.002 A 
ENDROOT
BRANCH   1   7
ATOM      7  C1  UNL d   1      -4.472   1.672   5.332  0.00  0.00     0.055 C 
ATOM      8  C   UNL d   1      -4.098   3.145   5.405  0.00  0.00     0.019 C 
ENDBRANCH   1   7
TORSDOF 1
ENDMDL
