MODEL 1
REMARK minimizedAffinity 10.3113499
REMARK minimizedRMSD -1
REMARK  1 active torsions:
REMARK  status: ('A' for Active; 'I' for Inactive)
REMARK    1  A    between atoms: C1_2  and  C2_3 
ROOT
ATOM      1  C2  UNL d   1       1.787   1.320  -2.021  0.00  0.00    -0.077 A 
ATOM      2  C3  UNL d   1       1.874  -0.079  -1.997  0.00  0.00     0.002 A 
ATOM      3  C4  UNL d   1       2.500  -0.729  -0.932  0.00  0.00     0.002 A 
ATOM      4  C5  UNL d   1       3.040   0.011   0.118  0.00  0.00    -0.004 A 
ATOM      5  C6  UNL d   1       2.961   1.403   0.102  0.00  0.00     0.002 A 
ATOM      6  C7  UNL d   1       2.337   2.055  -0.962  0.00  0.00     0.002 A 
ENDROOT
BRANCH   1   7
ATOM      7  C1  UNL d   1       1.069   2.021  -3.144  0.00  0.00     0.055 C 
ATOM      8  C   UNL d   1      -0.315   2.484  -2.713  0.00  0.00     0.019 C 
ENDBRANCH   1   7
TORSDOF 1
ENDMDL
