MODEL 1
REMARK minimizedAffinity -1.12733054
REMARK minimizedRMSD -1
REMARK  0 active torsions:
REMARK  status: ('A' for Active; 'I' for Inactive)
ROOT
ATOM      1  C   UNL d   1       5.999  -0.005  -5.514  0.00  0.00     0.078 C 
ATOM      2  C1  UNL d   1       4.981   1.095  -5.554  0.00  0.00    -0.077 A 
ATOM      3  C2  UNL d   1       5.318   2.404  -5.191  0.00  0.00    -0.001 A 
ATOM      4  C3  UNL d   1       4.358   3.416  -5.223  0.00  0.00     0.003 A 
ATOM      5  C4  UNL d   1       3.053   3.130  -5.618  0.00  0.00    -0.005 A 
ATOM      6  C5  UNL d   1       2.706   1.829  -5.980  0.00  0.00     0.003 A 
ATOM      7  C6  UNL d   1       3.666   0.816  -5.948  0.00  0.00    -0.001 A 
ENDROOT
TORSDOF 0
ENDMDL
