MODEL 1
REMARK minimizedAffinity -1.51010609
REMARK minimizedRMSD -1
REMARK  0 active torsions:
REMARK  status: ('A' for Active; 'I' for Inactive)
ROOT
ATOM      1  C   UNL d   1       2.170  -5.989   2.647  0.00  0.00     0.078 C 
ATOM      2  C1  UNL d   1       3.255  -6.000   3.681  0.00  0.00    -0.077 A 
ATOM      3  C2  UNL d   1       2.950  -5.998   5.047  0.00  0.00    -0.001 A 
ATOM      4  C3  UNL d   1       3.971  -5.999   5.999  0.00  0.00     0.003 A 
ATOM      5  C4  UNL d   1       5.304  -6.000   5.595  0.00  0.00    -0.005 A 
ATOM      6  C5  UNL d   1       5.618  -5.999   4.237  0.00  0.00     0.003 A 
ATOM      7  C6  UNL d   1       4.599  -5.999   3.284  0.00  0.00    -0.001 A 
ENDROOT
TORSDOF 0
ENDMDL
