MODEL 1
REMARK minimizedAffinity -0.366425335
REMARK minimizedRMSD -1
REMARK  0 active torsions:
REMARK  status: ('A' for Active; 'I' for Inactive)
ROOT
ATOM      1  C   UNL d   1       1.892   0.361  -3.791  0.00  0.00     0.078 C 
ATOM      2  C1  UNL d   1       3.326   0.446  -4.221  0.00  0.00    -0.077 A 
ATOM      3  C2  UNL d   1       4.361   0.487  -3.278  0.00  0.00    -0.001 A 
ATOM      4  C3  UNL d   1       5.690   0.576  -3.693  0.00  0.00     0.003 A 
ATOM      5  C4  UNL d   1       5.998   0.626  -5.051  0.00  0.00    -0.005 A 
ATOM      6  C5  UNL d   1       4.976   0.588  -5.996  0.00  0.00     0.003 A 
ATOM      7  C6  UNL d   1       3.645   0.499  -5.584  0.00  0.00    -0.001 A 
ENDROOT
TORSDOF 0
ENDMDL
