MODEL 1
REMARK minimizedAffinity 0.779569566
REMARK minimizedRMSD -1
REMARK  0 active torsions:
REMARK  status: ('A' for Active; 'I' for Inactive)
ROOT
ATOM      1  C   UNL d   1       1.905  -2.332  -0.120  0.00  0.00     0.078 C 
ATOM      2  C1  UNL d   1       0.852  -3.278   0.375  0.00  0.00    -0.077 A 
ATOM      3  C2  UNL d   1       1.181  -4.342   1.224  0.00  0.00    -0.001 A 
ATOM      4  C3  UNL d   1       0.192  -5.221   1.670  0.00  0.00     0.003 A 
ATOM      5  C4  UNL d   1      -1.132  -5.045   1.271  0.00  0.00    -0.005 A 
ATOM      6  C5  UNL d   1      -1.468  -3.990   0.425  0.00  0.00     0.003 A 
ATOM      7  C6  UNL d   1      -0.481  -3.111  -0.022  0.00  0.00    -0.001 A 
ENDROOT
TORSDOF 0
ENDMDL
