MODEL 1
REMARK minimizedAffinity -0.280288935
REMARK minimizedRMSD -1
REMARK  0 active torsions:
REMARK  status: ('A' for Active; 'I' for Inactive)
ROOT
ATOM      1  C   UNL d   1       0.685  -3.114  -2.600  0.00  0.00     0.078 C 
ATOM      2  C1  UNL d   1       0.858  -1.662  -2.267  0.00  0.00    -0.077 A 
ATOM      3  C2  UNL d   1       0.894  -1.227  -0.936  0.00  0.00    -0.001 A 
ATOM      4  C3  UNL d   1       1.046   0.128  -0.641  0.00  0.00     0.003 A 
ATOM      5  C4  UNL d   1       1.161   1.060  -1.670  0.00  0.00    -0.005 A 
ATOM      6  C5  UNL d   1       1.124   0.637  -2.997  0.00  0.00     0.003 A 
ATOM      7  C6  UNL d   1       0.973  -0.718  -3.295  0.00  0.00    -0.001 A 
ENDROOT
TORSDOF 0
ENDMDL
