MODEL 1
REMARK minimizedAffinity -3.88199759
REMARK minimizedRMSD -1
REMARK  0 active torsions:
REMARK  status: ('A' for Active; 'I' for Inactive)
ROOT
ATOM      1  C   UNL d   1       0.588   1.886  -1.065  0.00  0.00     0.078 C 
ATOM      2  C1  UNL d   1       0.946   0.615  -1.776  0.00  0.00    -0.077 A 
ATOM      3  C2  UNL d   1       0.978   0.555  -3.174  0.00  0.00    -0.001 A 
ATOM      4  C3  UNL d   1       1.304  -0.638  -3.822  0.00  0.00     0.003 A 
ATOM      5  C4  UNL d   1       1.600  -1.779  -3.079  0.00  0.00    -0.005 A 
ATOM      6  C5  UNL d   1       1.569  -1.729  -1.687  0.00  0.00     0.003 A 
ATOM      7  C6  UNL d   1       1.243  -0.538  -1.038  0.00  0.00    -0.001 A 
ENDROOT
TORSDOF 0
ENDMDL
