MODEL 1
REMARK minimizedAffinity 0.852407813
REMARK minimizedRMSD -1
REMARK  0 active torsions:
REMARK  status: ('A' for Active; 'I' for Inactive)
ROOT
ATOM      1  C   UNL d   1       6.000   0.027  -6.000  0.00  0.00     0.078 C 
ATOM      2  C1  UNL d   1       5.219   1.260  -5.654  0.00  0.00    -0.077 A 
ATOM      3  C2  UNL d   1       3.888   1.175  -5.228  0.00  0.00    -0.001 A 
ATOM      4  C3  UNL d   1       3.170   2.331  -4.920  0.00  0.00     0.003 A 
ATOM      5  C4  UNL d   1       3.775   3.581  -5.035  0.00  0.00    -0.005 A 
ATOM      6  C5  UNL d   1       5.098   3.676  -5.460  0.00  0.00     0.003 A 
ATOM      7  C6  UNL d   1       5.818   2.521  -5.769  0.00  0.00    -0.001 A 
ENDROOT
TORSDOF 0
ENDMDL
