MODEL 1
REMARK minimizedAffinity 1.18738461
REMARK minimizedRMSD -1
REMARK  0 active torsions:
REMARK  status: ('A' for Active; 'I' for Inactive)
ROOT
ATOM      1  C   UNL d   1       1.452  -2.760  -3.373  0.00  0.00     0.078 C 
ATOM      2  C1  UNL d   1       1.157  -1.446  -2.714  0.00  0.00    -0.077 A 
ATOM      3  C2  UNL d   1       0.895  -1.370  -1.341  0.00  0.00    -0.001 A 
ATOM      4  C3  UNL d   1       0.611  -0.141  -0.742  0.00  0.00     0.003 A 
ATOM      5  C4  UNL d   1       0.587   1.021  -1.510  0.00  0.00    -0.005 A 
ATOM      6  C5  UNL d   1       0.844   0.956  -2.878  0.00  0.00     0.003 A 
ATOM      7  C6  UNL d   1       1.127  -0.272  -3.478  0.00  0.00    -0.001 A 
ENDROOT
TORSDOF 0
ENDMDL
