MODEL 1
REMARK minimizedAffinity 0.603006661
REMARK minimizedRMSD -1
REMARK  0 active torsions:
REMARK  status: ('A' for Active; 'I' for Inactive)
ROOT
ATOM      1  C   UNL d   1       2.206   0.104  -4.606  0.00  0.00     0.078 C 
ATOM      2  C1  UNL d   1       1.731  -0.784  -3.494  0.00  0.00    -0.077 A 
ATOM      3  C2  UNL d   1       1.532  -0.279  -2.203  0.00  0.00    -0.001 A 
ATOM      4  C3  UNL d   1       1.099  -1.118  -1.176  0.00  0.00     0.003 A 
ATOM      5  C4  UNL d   1       0.863  -2.468  -1.428  0.00  0.00    -0.005 A 
ATOM      6  C5  UNL d   1       1.060  -2.980  -2.709  0.00  0.00     0.003 A 
ATOM      7  C6  UNL d   1       1.493  -2.142  -3.738  0.00  0.00    -0.001 A 
ENDROOT
TORSDOF 0
ENDMDL
