MODEL 1
REMARK minimizedAffinity -2.39609599
REMARK minimizedRMSD -1
REMARK  0 active torsions:
REMARK  status: ('A' for Active; 'I' for Inactive)
ROOT
ATOM      1  C   UNL d   1       0.513  -2.199   0.014  0.00  0.00     0.078 C 
ATOM      2  C1  UNL d   1       0.682  -1.002  -0.873  0.00  0.00    -0.077 A 
ATOM      3  C2  UNL d   1       0.422   0.289  -0.399  0.00  0.00    -0.001 A 
ATOM      4  C3  UNL d   1       0.575   1.394  -1.239  0.00  0.00     0.003 A 
ATOM      5  C4  UNL d   1       0.986   1.217  -2.559  0.00  0.00    -0.005 A 
ATOM      6  C5  UNL d   1       1.245  -0.064  -3.040  0.00  0.00     0.003 A 
ATOM      7  C6  UNL d   1       1.093  -1.170  -2.202  0.00  0.00    -0.001 A 
ENDROOT
TORSDOF 0
ENDMDL
