MODEL 1
REMARK minimizedAffinity 2.09421849
REMARK minimizedRMSD -1
REMARK  0 active torsions:
REMARK  status: ('A' for Active; 'I' for Inactive)
ROOT
ATOM      1  C   UNL d   1       2.788   3.905  -5.589  0.00  0.00     0.078 C 
ATOM      2  C1  UNL d   1       3.907   2.935  -5.350  0.00  0.00    -0.077 A 
ATOM      3  C2  UNL d   1       3.914   1.677  -5.964  0.00  0.00    -0.001 A 
ATOM      4  C3  UNL d   1       4.957   0.781  -5.725  0.00  0.00     0.003 A 
ATOM      5  C4  UNL d   1       6.000   1.132  -4.870  0.00  0.00    -0.005 A 
ATOM      6  C5  UNL d   1       6.000   2.381  -4.252  0.00  0.00     0.003 A 
ATOM      7  C6  UNL d   1       4.958   3.279  -4.490  0.00  0.00    -0.001 A 
ENDROOT
TORSDOF 0
ENDMDL
