MODEL 1
REMARK minimizedAffinity -4.19477224
REMARK minimizedRMSD -1
REMARK  0 active torsions:
REMARK  status: ('A' for Active; 'I' for Inactive)
ROOT
ATOM      1  C   UNL d   1       1.971  -0.023  -4.603  0.00  0.00     0.078 C 
ATOM      2  C1  UNL d   1       1.519   0.028  -3.174  0.00  0.00    -0.077 A 
ATOM      3  C2  UNL d   1       1.003   1.208  -2.622  0.00  0.00    -0.001 A 
ATOM      4  C3  UNL d   1       0.596   1.244  -1.288  0.00  0.00     0.003 A 
ATOM      5  C4  UNL d   1       0.700   0.104  -0.493  0.00  0.00    -0.005 A 
ATOM      6  C5  UNL d   1       1.214  -1.074  -1.033  0.00  0.00     0.003 A 
ATOM      7  C6  UNL d   1       1.622  -1.112  -2.367  0.00  0.00    -0.001 A 
ENDROOT
TORSDOF 0
ENDMDL
