MODEL 1
REMARK minimizedAffinity 0.540201604
REMARK minimizedRMSD -1
REMARK  0 active torsions:
REMARK  status: ('A' for Active; 'I' for Inactive)
ROOT
ATOM      1  C   UNL d   1       1.272  -0.740  -4.642  0.00  0.00     0.078 C 
ATOM      2  C1  UNL d   1       1.127  -0.515  -3.166  0.00  0.00    -0.077 A 
ATOM      3  C2  UNL d   1       1.445  -1.522  -2.248  0.00  0.00    -0.001 A 
ATOM      4  C3  UNL d   1       1.297  -1.302  -0.878  0.00  0.00     0.003 A 
ATOM      5  C4  UNL d   1       0.828  -0.074  -0.414  0.00  0.00    -0.005 A 
ATOM      6  C5  UNL d   1       0.507   0.934  -1.320  0.00  0.00     0.003 A 
ATOM      7  C6  UNL d   1       0.655   0.715  -2.691  0.00  0.00    -0.001 A 
ENDROOT
TORSDOF 0
ENDMDL
