MODEL 1
REMARK minimizedAffinity 1.48112035
REMARK minimizedRMSD -1
REMARK  0 active torsions:
REMARK  status: ('A' for Active; 'I' for Inactive)
ROOT
ATOM      1  C   UNL d   1       1.199   1.472  -3.734  0.00  0.00     0.078 C 
ATOM      2  C1  UNL d   1       1.101   0.469  -2.623  0.00  0.00    -0.077 A 
ATOM      3  C2  UNL d   1       0.805  -0.874  -2.888  0.00  0.00    -0.001 A 
ATOM      4  C3  UNL d   1       0.708  -1.795  -1.844  0.00  0.00     0.003 A 
ATOM      5  C4  UNL d   1       0.903  -1.383  -0.527  0.00  0.00    -0.005 A 
ATOM      6  C5  UNL d   1       1.195  -0.048  -0.253  0.00  0.00     0.003 A 
ATOM      7  C6  UNL d   1       1.293   0.874  -1.297  0.00  0.00    -0.001 A 
ENDROOT
TORSDOF 0
ENDMDL
