MODEL 1
REMARK minimizedAffinity -0.797819912
REMARK minimizedRMSD -1
REMARK  0 active torsions:
REMARK  status: ('A' for Active; 'I' for Inactive)
ROOT
ATOM      1  C   UNL d   1       1.347  -2.430  -3.004  0.00  0.00     0.078 C 
ATOM      2  C1  UNL d   1       1.184  -1.009  -2.552  0.00  0.00    -0.077 A 
ATOM      3  C2  UNL d   1       0.671  -0.710  -1.284  0.00  0.00    -0.001 A 
ATOM      4  C3  UNL d   1       0.515   0.617  -0.881  0.00  0.00     0.003 A 
ATOM      5  C4  UNL d   1       0.869   1.656  -1.740  0.00  0.00    -0.005 A 
ATOM      6  C5  UNL d   1       1.378   1.368  -3.004  0.00  0.00     0.003 A 
ATOM      7  C6  UNL d   1       1.535   0.041  -3.409  0.00  0.00    -0.001 A 
ENDROOT
TORSDOF 0
ENDMDL
