MODEL 1
REMARK minimizedAffinity -0.290294558
REMARK minimizedRMSD -1
REMARK  0 active torsions:
REMARK  status: ('A' for Active; 'I' for Inactive)
ROOT
ATOM      1  C   UNL d   1       1.416  -2.575  -2.851  0.00  0.00     0.078 C 
ATOM      2  C1  UNL d   1       1.186  -1.104  -2.669  0.00  0.00    -0.077 A 
ATOM      3  C2  UNL d   1       0.649  -0.601  -1.477  0.00  0.00    -0.001 A 
ATOM      4  C3  UNL d   1       0.431   0.770  -1.325  0.00  0.00     0.003 A 
ATOM      5  C4  UNL d   1       0.746   1.647  -2.361  0.00  0.00    -0.005 A 
ATOM      6  C5  UNL d   1       1.278   1.155  -3.551  0.00  0.00     0.003 A 
ATOM      7  C6  UNL d   1       1.497  -0.214  -3.705  0.00  0.00    -0.001 A 
ENDROOT
TORSDOF 0
ENDMDL
