MODEL 1
REMARK minimizedAffinity 1.31684482
REMARK minimizedRMSD -1
REMARK  0 active torsions:
REMARK  status: ('A' for Active; 'I' for Inactive)
ROOT
ATOM      1  C   UNL d   1      -3.202   1.193   5.116  0.00  0.00     0.078 C 
ATOM      2  C1  UNL d   1      -3.555   2.644   4.974  0.00  0.00    -0.077 A 
ATOM      3  C2  UNL d   1      -3.131   3.385   3.865  0.00  0.00    -0.001 A 
ATOM      4  C3  UNL d   1      -3.458   4.736   3.751  0.00  0.00     0.003 A 
ATOM      5  C4  UNL d   1      -4.211   5.360   4.745  0.00  0.00    -0.005 A 
ATOM      6  C5  UNL d   1      -4.636   4.631   5.854  0.00  0.00     0.003 A 
ATOM      7  C6  UNL d   1      -4.309   3.279   5.969  0.00  0.00    -0.001 A 
ENDROOT
TORSDOF 0
ENDMDL
