MODEL 1
REMARK minimizedAffinity -1.976421
REMARK minimizedRMSD -1
REMARK  0 active torsions:
REMARK  status: ('A' for Active; 'I' for Inactive)
ROOT
ATOM      1  C   UNL d   1       0.608   1.133  -1.221  0.00  0.00     0.078 C 
ATOM      2  C1  UNL d   1       0.989   0.224  -2.350  0.00  0.00    -0.077 A 
ATOM      3  C2  UNL d   1       0.891  -1.167  -2.220  0.00  0.00    -0.001 A 
ATOM      4  C3  UNL d   1       1.259  -2.002  -3.277  0.00  0.00     0.003 A 
ATOM      5  C4  UNL d   1       1.727  -1.456  -4.470  0.00  0.00    -0.005 A 
ATOM      6  C5  UNL d   1       1.830  -0.074  -4.608  0.00  0.00     0.003 A 
ATOM      7  C6  UNL d   1       1.463   0.763  -3.553  0.00  0.00    -0.001 A 
ENDROOT
TORSDOF 0
ENDMDL
