MODEL 1
REMARK minimizedAffinity -2.97612643
REMARK minimizedRMSD -1
REMARK  0 active torsions:
REMARK  status: ('A' for Active; 'I' for Inactive)
ROOT
ATOM      1  C   UNL d   1      -4.161  -5.900  -4.607  0.00  0.00     0.077 C 
ATOM      2  C1  UNL d   1      -4.487  -4.885  -3.552  0.00  0.00    -0.074 A 
ATOM      3  C2  UNL d   1      -5.166  -5.253  -2.385  0.00  0.00    -0.005 A 
ATOM      4  C3  UNL d   1      -5.454  -4.300  -1.409  0.00  0.00     0.006 A 
ATOM      5  C4  UNL d   1      -5.067  -2.971  -1.589  0.00  0.00    -0.005 A 
ATOM      6  C5  UNL d   1      -4.387  -2.585  -2.748  0.00  0.00    -0.074 A 
ATOM      7  C6  UNL d   1      -3.956  -1.163  -2.953  0.00  0.00     0.077 C 
ATOM      8  C7  UNL d   1      -4.095  -3.550  -3.722  0.00  0.00    -0.001 A 
ENDROOT
TORSDOF 0
ENDMDL
