MODEL 1
REMARK minimizedAffinity -1.09487307
REMARK minimizedRMSD -1
REMARK  0 active torsions:
REMARK  status: ('A' for Active; 'I' for Inactive)
ROOT
ATOM      1  C   UNL d   1      -5.977  -2.389  -1.575  0.00  0.00     0.077 C 
ATOM      2  C1  UNL d   1      -5.757  -3.649  -2.358  0.00  0.00    -0.074 A 
ATOM      3  C2  UNL d   1      -5.373  -4.833  -1.721  0.00  0.00    -0.005 A 
ATOM      4  C3  UNL d   1      -5.181  -6.000  -2.461  0.00  0.00     0.006 A 
ATOM      5  C4  UNL d   1      -5.371  -5.994  -3.844  0.00  0.00    -0.005 A 
ATOM      6  C5  UNL d   1      -5.756  -4.820  -4.498  0.00  0.00    -0.074 A 
ATOM      7  C6  UNL d   1      -5.974  -4.799  -5.982  0.00  0.00     0.077 C 
ATOM      8  C7  UNL d   1      -5.954  -3.653  -3.746  0.00  0.00    -0.001 A 
ENDROOT
TORSDOF 0
ENDMDL
