MODEL 1
REMARK minimizedAffinity 3.88948822
REMARK minimizedRMSD -1
REMARK  0 active torsions:
REMARK  status: ('A' for Active; 'I' for Inactive)
ROOT
ATOM      1  C   UNL d   1       0.212  -3.997   0.395  0.00  0.00     0.077 C 
ATOM      2  C1  UNL d   1       0.671  -3.150   1.545  0.00  0.00    -0.074 A 
ATOM      3  C2  UNL d   1       0.755  -3.678   2.838  0.00  0.00    -0.005 A 
ATOM      4  C3  UNL d   1       1.192  -2.881   3.896  0.00  0.00     0.006 A 
ATOM      5  C4  UNL d   1       1.549  -1.551   3.673  0.00  0.00    -0.005 A 
ATOM      6  C5  UNL d   1       1.472  -1.006   2.387  0.00  0.00    -0.074 A 
ATOM      7  C6  UNL d   1       1.861   0.420   2.128  0.00  0.00     0.077 C 
ATOM      8  C7  UNL d   1       1.038  -1.815   1.328  0.00  0.00    -0.001 A 
ENDROOT
TORSDOF 0
ENDMDL
