MODEL 1
REMARK minimizedAffinity -0.624108493
REMARK minimizedRMSD -1
REMARK  0 active torsions:
REMARK  status: ('A' for Active; 'I' for Inactive)
ROOT
ATOM      1  C   UNL d   1      -5.804  -3.098  -1.847  0.00  0.00     0.077 C 
ATOM      2  C1  UNL d   1      -5.163  -4.105  -2.755  0.00  0.00    -0.074 A 
ATOM      3  C2  UNL d   1      -3.906  -4.642  -2.458  0.00  0.00    -0.005 A 
ATOM      4  C3  UNL d   1      -3.327  -5.585  -3.307  0.00  0.00     0.006 A 
ATOM      5  C4  UNL d   1      -3.997  -6.000  -4.459  0.00  0.00    -0.005 A 
ATOM      6  C5  UNL d   1      -5.254  -5.474  -4.771  0.00  0.00    -0.074 A 
ATOM      7  C6  UNL d   1      -5.992  -5.916  -6.000  0.00  0.00     0.077 C 
ATOM      8  C7  UNL d   1      -5.833  -4.532  -3.909  0.00  0.00    -0.001 A 
ENDROOT
TORSDOF 0
ENDMDL
