MODEL 1
REMARK minimizedAffinity 3.0638876
REMARK minimizedRMSD -1
REMARK  0 active torsions:
REMARK  status: ('A' for Active; 'I' for Inactive)
ROOT
ATOM      1  C   UNL d   1      -5.187  -3.248  -1.839  0.00  0.00     0.077 C 
ATOM      2  C1  UNL d   1      -4.911  -3.514  -3.288  0.00  0.00    -0.074 A 
ATOM      3  C2  UNL d   1      -4.009  -2.722  -4.006  0.00  0.00    -0.005 A 
ATOM      4  C3  UNL d   1      -3.755  -2.988  -5.351  0.00  0.00     0.006 A 
ATOM      5  C4  UNL d   1      -4.399  -4.047  -5.992  0.00  0.00    -0.005 A 
ATOM      6  C5  UNL d   1      -5.303  -4.851  -5.291  0.00  0.00    -0.074 A 
ATOM      7  C6  UNL d   1      -5.997  -5.999  -5.962  0.00  0.00     0.077 C 
ATOM      8  C7  UNL d   1      -5.548  -4.581  -3.937  0.00  0.00    -0.001 A 
ENDROOT
TORSDOF 0
ENDMDL
