MODEL 1
REMARK minimizedAffinity 7.02219582
REMARK minimizedRMSD -1
REMARK  0 active torsions:
REMARK  status: ('A' for Active; 'I' for Inactive)
ROOT
ATOM      1  C   UNL d   1      -5.939  -4.176  -2.072  0.00  0.00     0.077 C 
ATOM      2  C1  UNL d   1      -5.445  -4.551  -3.437  0.00  0.00    -0.074 A 
ATOM      3  C2  UNL d   1      -5.956  -5.669  -4.104  0.00  0.00    -0.005 A 
ATOM      4  C3  UNL d   1      -5.493  -6.000  -5.378  0.00  0.00     0.006 A 
ATOM      5  C4  UNL d   1      -4.517  -5.218  -5.996  0.00  0.00    -0.005 A 
ATOM      6  C5  UNL d   1      -3.995  -4.096  -5.345  0.00  0.00    -0.074 A 
ATOM      7  C6  UNL d   1      -2.952  -3.239  -5.999  0.00  0.00     0.077 C 
ATOM      8  C7  UNL d   1      -4.470  -3.766  -4.068  0.00  0.00    -0.001 A 
ENDROOT
TORSDOF 0
ENDMDL
