MODEL 1
REMARK minimizedAffinity 12.5022497
REMARK minimizedRMSD -1
REMARK  1 active torsions:
REMARK  status: ('A' for Active; 'I' for Inactive)
REMARK    1  A    between atoms: C1_2  and  C2_3 
ROOT
ATOM      1  C2  UNL d   1      -0.688   3.735   1.371  0.00  0.00    -0.076 A 
ATOM      2  C3  UNL d   1      -1.294   4.995   1.518  0.00  0.00     0.004 A 
ATOM      3  C4  UNL d   1      -1.099   6.000   0.571  0.00  0.00    -0.003 A 
ATOM      4  C5  UNL d   1      -0.295   5.760  -0.538  0.00  0.00     0.000 A 
ATOM      5  C6  UNL d   1       0.299   4.510  -0.709  0.00  0.00     0.000 A 
ATOM      6  C7  UNL d   1       0.099   3.481   0.227  0.00  0.00    -0.073 A 
ATOM      7  C8  UNL d   1       0.769   2.155  -0.004  0.00  0.00     0.078 C 
ENDROOT
BRANCH   1   8
ATOM      8  C1  UNL d   1      -0.914   2.693   2.443  0.00  0.00     0.053 C 
ATOM      9  C   UNL d   1       0.388   2.148   3.009  0.00  0.00     0.018 C 
ENDBRANCH   1   8
TORSDOF 1
ENDMDL
