MODEL 1
REMARK minimizedAffinity 13.1576405
REMARK minimizedRMSD -1
REMARK  1 active torsions:
REMARK  status: ('A' for Active; 'I' for Inactive)
REMARK    1  A    between atoms: C1_2  and  C2_3 
ROOT
ATOM      1  C2  UNL d   1       4.018  -4.629  -2.539  0.00  0.00    -0.076 A 
ATOM      2  C3  UNL d   1       4.997  -4.469  -3.536  0.00  0.00     0.004 A 
ATOM      3  C4  UNL d   1       4.855  -5.073  -4.784  0.00  0.00    -0.003 A 
ATOM      4  C5  UNL d   1       3.731  -5.846  -5.056  0.00  0.00     0.000 A 
ATOM      5  C6  UNL d   1       2.742  -6.000  -4.085  0.00  0.00     0.000 A 
ATOM      6  C7  UNL d   1       2.862  -5.385  -2.827  0.00  0.00    -0.073 A 
ATOM      7  C8  UNL d   1       1.768  -5.590  -1.816  0.00  0.00     0.078 C 
ENDROOT
BRANCH   1   8
ATOM      8  C1  UNL d   1       4.240  -3.972  -1.195  0.00  0.00     0.053 C 
ATOM      9  C   UNL d   1       5.286  -4.694  -0.359  0.00  0.00     0.018 C 
ENDBRANCH   1   8
TORSDOF 1
ENDMDL
