MODEL 1
REMARK minimizedAffinity -2.60333586
REMARK minimizedRMSD -1
REMARK  0 active torsions:
REMARK  status: ('A' for Active; 'I' for Inactive)
ROOT
ATOM      1  C4' PXY d   1       0.005  -0.145   3.094  0.00  0.00     0.077 C 
ATOM      2  C1' PXY d   1       0.447   0.428  -2.641  0.00  0.00     0.077 C 
ATOM      3  C1  PXY d   1       0.344   0.279  -1.136  0.00  0.00    -0.082 A 
ATOM      4  C2  PXY d   1      -0.654  -0.414  -0.614  0.00  0.00     0.003 A 
ATOM      5  C3  PXY d   1      -0.781  -0.531   0.747  0.00  0.00     0.003 A 
ATOM      6  C4  PXY d   1       0.154   0.023   1.580  0.00  0.00    -0.082 A 
ATOM      7  C5  PXY d   1       1.182   0.723   1.054  0.00  0.00     0.003 A 
ATOM      8  C6  PXY d   1       1.269   0.865  -0.328  0.00  0.00     0.003 A 
ENDROOT
TORSDOF 0
ENDMDL
