MODEL 1
REMARK minimizedAffinity -4.12081194
REMARK minimizedRMSD -1
REMARK  0 active torsions:
REMARK  status: ('A' for Active; 'I' for Inactive)
ROOT
ATOM      1  C4' PXY d   1       0.723   0.471  -2.225  0.00  0.00     0.077 C 
ATOM      2  C1' PXY d   1      -0.693  -0.488   3.297  0.00  0.00     0.077 C 
ATOM      3  C1  PXY d   1      -0.332  -0.244   1.845  0.00  0.00    -0.082 A 
ATOM      4  C2  PXY d   1       0.897   0.135   1.532  0.00  0.00     0.003 A 
ATOM      5  C3  PXY d   1       1.232   0.390   0.227  0.00  0.00     0.003 A 
ATOM      6  C4  PXY d   1       0.315   0.204  -0.773  0.00  0.00    -0.082 A 
ATOM      7  C5  PXY d   1      -0.937  -0.192  -0.462  0.00  0.00     0.003 A 
ATOM      8  C6  PXY d   1      -1.269  -0.407   0.872  0.00  0.00     0.003 A 
ENDROOT
TORSDOF 0
ENDMDL
