MODEL 1
REMARK minimizedAffinity -2.90127468
REMARK minimizedRMSD -1
REMARK  0 active torsions:
REMARK  status: ('A' for Active; 'I' for Inactive)
ROOT
ATOM      1  C4' PXY d   1       0.540  -0.068  -2.188  0.00  0.00     0.077 C 
ATOM      2  C1' PXY d   1      -1.204  -0.345   3.317  0.00  0.00     0.077 C 
ATOM      3  C1  PXY d   1      -0.740  -0.261   1.876  0.00  0.00    -0.082 A 
ATOM      4  C2  PXY d   1      -1.452  -0.844   0.925  0.00  0.00     0.003 A 
ATOM      5  C3  PXY d   1      -1.030  -0.806  -0.379  0.00  0.00     0.003 A 
ATOM      6  C4  PXY d   1       0.104  -0.119  -0.721  0.00  0.00    -0.082 A 
ATOM      7  C5  PXY d   1       0.830   0.488   0.243  0.00  0.00     0.003 A 
ATOM      8  C6  PXY d   1       0.407   0.402   1.566  0.00  0.00     0.003 A 
ENDROOT
TORSDOF 0
ENDMDL
