MODEL 1
REMARK minimizedAffinity -3.35809684
REMARK minimizedRMSD -1
REMARK  0 active torsions:
REMARK  status: ('A' for Active; 'I' for Inactive)
ROOT
ATOM      1  C4' PXY d   1       0.605  -0.226  -2.078  0.00  0.00     0.077 C 
ATOM      2  C1' PXY d   1      -0.681  -0.605   3.545  0.00  0.00     0.077 C 
ATOM      3  C1  PXY d   1      -0.333  -0.500   2.073  0.00  0.00    -0.082 A 
ATOM      4  C2  PXY d   1      -1.296  -0.552   1.168  0.00  0.00     0.003 A 
ATOM      5  C3  PXY d   1      -0.996  -0.490  -0.169  0.00  0.00     0.003 A 
ATOM      6  C4  PXY d   1       0.299  -0.320  -0.581  0.00  0.00    -0.082 A 
ATOM      7  C5  PXY d   1       1.286  -0.254   0.338  0.00  0.00     0.003 A 
ATOM      8  C6  PXY d   1       0.964  -0.360   1.688  0.00  0.00     0.003 A 
ENDROOT
TORSDOF 0
ENDMDL
