MODEL 1
REMARK minimizedAffinity -5.22562456
REMARK minimizedRMSD -1
REMARK  0 active torsions:
REMARK  status: ('A' for Active; 'I' for Inactive)
ROOT
ATOM      1  C4' PXY d   1       0.469   0.417  -1.884  0.00  0.00     0.077 C 
ATOM      2  C1' PXY d   1      -0.631  -0.728   3.674  0.00  0.00     0.077 C 
ATOM      3  C1  PXY d   1      -0.332  -0.421   2.220  0.00  0.00    -0.082 A 
ATOM      4  C2  PXY d   1      -1.317  -0.416   1.336  0.00  0.00     0.003 A 
ATOM      5  C3  PXY d   1      -1.059  -0.172   0.012  0.00  0.00     0.003 A 
ATOM      6  C4  PXY d   1       0.212   0.122  -0.404  0.00  0.00    -0.082 A 
ATOM      7  C5  PXY d   1       1.221   0.129   0.493  0.00  0.00     0.003 A 
ATOM      8  C6  PXY d   1       0.945  -0.162   1.826  0.00  0.00     0.003 A 
ENDROOT
TORSDOF 0
ENDMDL
