MODEL 1
REMARK minimizedAffinity -4.7280941
REMARK minimizedRMSD -1
REMARK  0 active torsions:
REMARK  status: ('A' for Active; 'I' for Inactive)
ROOT
ATOM      1  C4' PXY d   1      -0.748  -0.800   3.182  0.00  0.00     0.077 C 
ATOM      2  C1' PXY d   1       0.652   0.810  -2.190  0.00  0.00     0.077 C 
ATOM      3  C1  PXY d   1       0.272   0.391  -0.784  0.00  0.00    -0.082 A 
ATOM      4  C2  PXY d   1       1.185   0.412   0.174  0.00  0.00     0.003 A 
ATOM      5  C3  PXY d   1       0.867   0.006   1.444  0.00  0.00     0.003 A 
ATOM      6  C4  PXY d   1      -0.412  -0.376   1.750  0.00  0.00    -0.082 A 
ATOM      7  C5  PXY d   1      -1.351  -0.390   0.781  0.00  0.00     0.003 A 
ATOM      8  C6  PXY d   1      -0.998  -0.013  -0.512  0.00  0.00     0.003 A 
ENDROOT
TORSDOF 0
ENDMDL
