MODEL 1
REMARK minimizedAffinity -2.52358341
REMARK minimizedRMSD -1
REMARK  0 active torsions:
REMARK  status: ('A' for Active; 'I' for Inactive)
ROOT
ATOM      1  C4' PXY d   1       1.003   0.288  -2.464  0.00  0.00     0.077 C 
ATOM      2  C1' PXY d   1      -0.600  -0.270   3.062  0.00  0.00     0.077 C 
ATOM      3  C1  PXY d   1      -0.170  -0.115   1.616  0.00  0.00    -0.082 A 
ATOM      4  C2  PXY d   1      -1.033  -0.372   0.646  0.00  0.00     0.003 A 
ATOM      5  C3  PXY d   1      -0.651  -0.268  -0.667  0.00  0.00     0.003 A 
ATOM      6  C4  PXY d   1       0.610   0.154  -0.990  0.00  0.00    -0.082 A 
ATOM      7  C5  PXY d   1       1.493   0.428  -0.006  0.00  0.00     0.003 A 
ATOM      8  C6  PXY d   1       1.099   0.277   1.320  0.00  0.00     0.003 A 
ENDROOT
TORSDOF 0
ENDMDL
