MODEL 1
REMARK minimizedAffinity -4.04858351
REMARK minimizedRMSD -1
REMARK  0 active torsions:
REMARK  status: ('A' for Active; 'I' for Inactive)
ROOT
ATOM      1  C4' PXY d   1       0.497   0.011  -2.219  0.00  0.00     0.077 C 
ATOM      2  C1' PXY d   1      -0.689  -0.734   3.389  0.00  0.00     0.077 C 
ATOM      3  C1  PXY d   1      -0.388  -0.547   1.915  0.00  0.00    -0.082 A 
ATOM      4  C2  PXY d   1       0.820  -0.159   1.539  0.00  0.00     0.003 A 
ATOM      5  C3  PXY d   1       1.100   0.046   0.212  0.00  0.00     0.003 A 
ATOM      6  C4  PXY d   1       0.150  -0.200  -0.743  0.00  0.00    -0.082 A 
ATOM      7  C5  PXY d   1      -1.081  -0.606  -0.367  0.00  0.00     0.003 A 
ATOM      8  C6  PXY d   1      -1.358  -0.768   0.987  0.00  0.00     0.003 A 
ENDROOT
TORSDOF 0
ENDMDL
