MODEL 1
REMARK minimizedAffinity -5.24785662
REMARK minimizedRMSD -1
REMARK  0 active torsions:
REMARK  status: ('A' for Active; 'I' for Inactive)
ROOT
ATOM      1  C4' PXY d   1      -1.204  -1.321   3.610  0.00  0.00     0.077 C 
ATOM      2  C1' PXY d   1       0.634   0.621  -1.515  0.00  0.00     0.077 C 
ATOM      3  C1  PXY d   1       0.140   0.112  -0.175  0.00  0.00    -0.082 A 
ATOM      4  C2  PXY d   1       0.883   0.286   0.906  0.00  0.00     0.003 A 
ATOM      5  C3  PXY d   1       0.466  -0.196   2.120  0.00  0.00     0.003 A 
ATOM      6  C4  PXY d   1      -0.749  -0.815   2.239  0.00  0.00    -0.082 A 
ATOM      7  C5  PXY d   1      -1.519  -0.987   1.143  0.00  0.00     0.003 A 
ATOM      8  C6  PXY d   1      -1.058  -0.527  -0.088  0.00  0.00     0.003 A 
ENDROOT
TORSDOF 0
ENDMDL
