MODEL 1
REMARK minimizedAffinity -0.964336336
REMARK minimizedRMSD -1
REMARK  0 active torsions:
REMARK  status: ('A' for Active; 'I' for Inactive)
ROOT
ATOM      1  C4' PXY d   1       0.980  -1.092  -3.078  0.00  0.00     0.077 C 
ATOM      2  C1' PXY d   1      -0.135   1.103   2.152  0.00  0.00     0.077 C 
ATOM      3  C1  PXY d   1       0.145   0.528   0.777  0.00  0.00    -0.082 A 
ATOM      4  C2  PXY d   1       1.221  -0.217   0.587  0.00  0.00     0.003 A 
ATOM      5  C3  PXY d   1       1.506  -0.719  -0.657  0.00  0.00     0.003 A 
ATOM      6  C4  PXY d   1       0.653  -0.499  -1.705  0.00  0.00    -0.082 A 
ATOM      7  C5  PXY d   1      -0.453   0.252  -1.516  0.00  0.00     0.003 A 
ATOM      8  C6  PXY d   1      -0.703   0.786  -0.255  0.00  0.00     0.003 A 
ENDROOT
TORSDOF 0
ENDMDL
