MODEL 1
REMARK minimizedAffinity -4.20918989
REMARK minimizedRMSD -1
REMARK  0 active torsions:
REMARK  status: ('A' for Active; 'I' for Inactive)
ROOT
ATOM      1  C4' PXY d   1      -0.880  -1.004   3.365  0.00  0.00     0.077 C 
ATOM      2  C1' PXY d   1       0.308   0.921  -1.955  0.00  0.00     0.077 C 
ATOM      3  C1  PXY d   1       0.009   0.417  -0.557  0.00  0.00    -0.082 A 
ATOM      4  C2  PXY d   1      -1.102  -0.265  -0.331  0.00  0.00     0.003 A 
ATOM      5  C3  PXY d   1      -1.403  -0.701   0.933  0.00  0.00     0.003 A 
ATOM      6  C4  PXY d   1      -0.533  -0.483   1.967  0.00  0.00    -0.082 A 
ATOM      7  C5  PXY d   1       0.608   0.203   1.743  0.00  0.00     0.003 A 
ATOM      8  C6  PXY d   1       0.876   0.673   0.461  0.00  0.00     0.003 A 
ENDROOT
TORSDOF 0
ENDMDL
