MODEL 1
REMARK minimizedAffinity -2.52762294
REMARK minimizedRMSD -1
REMARK  0 active torsions:
REMARK  status: ('A' for Active; 'I' for Inactive)
ROOT
ATOM      1  C4' PXY d   1       0.881   0.271  -1.421  0.00  0.00     0.077 C 
ATOM      2  C1' PXY d   1      -1.077  -0.841   3.903  0.00  0.00     0.077 C 
ATOM      3  C1  PXY d   1      -0.560  -0.537   2.511  0.00  0.00    -0.082 A 
ATOM      4  C2  PXY d   1      -1.060  -1.186   1.472  0.00  0.00     0.003 A 
ATOM      5  C3  PXY d   1      -0.581  -0.947   0.209  0.00  0.00     0.003 A 
ATOM      6  C4  PXY d   1       0.382   0.004   0.002  0.00  0.00    -0.082 A 
ATOM      7  C5  PXY d   1       0.890   0.677   1.056  0.00  0.00     0.003 A 
ATOM      8  C6  PXY d   1       0.420   0.391   2.334  0.00  0.00     0.003 A 
ENDROOT
TORSDOF 0
ENDMDL
