MODEL 1
REMARK minimizedAffinity -3.09343886
REMARK minimizedRMSD -1
REMARK  0 active torsions:
REMARK  status: ('A' for Active; 'I' for Inactive)
ROOT
ATOM      1  C4' PXY d   1       0.178   0.189  -2.540  0.00  0.00     0.077 C 
ATOM      2  C1' PXY d   1      -0.138   0.192   3.232  0.00  0.00     0.077 C 
ATOM      3  C1  PXY d   1      -0.064   0.182   1.718  0.00  0.00    -0.082 A 
ATOM      4  C2  PXY d   1       1.032   0.611   1.113  0.00  0.00     0.003 A 
ATOM      5  C3  PXY d   1       1.104   0.638  -0.256  0.00  0.00     0.003 A 
ATOM      6  C4  PXY d   1       0.063   0.173  -1.013  0.00  0.00    -0.082 A 
ATOM      7  C5  PXY d   1      -1.055  -0.277  -0.404  0.00  0.00     0.003 A 
ATOM      8  C6  PXY d   1      -1.123  -0.258   0.986  0.00  0.00     0.003 A 
ENDROOT
TORSDOF 0
ENDMDL
