MODEL 1
REMARK minimizedAffinity -6.19519138
REMARK minimizedRMSD -1
REMARK  0 active torsions:
REMARK  status: ('A' for Active; 'I' for Inactive)
ROOT
ATOM      1  C4' PXY d   1      -0.746  -0.747   3.197  0.00  0.00     0.077 C 
ATOM      2  C1' PXY d   1       0.891   0.525  -2.199  0.00  0.00     0.077 C 
ATOM      3  C1  PXY d   1       0.474   0.186  -0.782  0.00  0.00    -0.082 A 
ATOM      4  C2  PXY d   1      -0.809   0.036  -0.496  0.00  0.00     0.003 A 
ATOM      5  C3  PXY d   1      -1.207  -0.238   0.787  0.00  0.00     0.003 A 
ATOM      6  C4  PXY d   1      -0.278  -0.414   1.778  0.00  0.00    -0.082 A 
ATOM      7  C5  PXY d   1       1.034  -0.274   1.492  0.00  0.00     0.003 A 
ATOM      8  C6  PXY d   1       1.414   0.046   0.191  0.00  0.00     0.003 A 
ENDROOT
TORSDOF 0
ENDMDL
