MODEL 1
REMARK minimizedAffinity -3.68926263
REMARK minimizedRMSD -1
REMARK  0 active torsions:
REMARK  status: ('A' for Active; 'I' for Inactive)
ROOT
ATOM      1  C4' PXY d   1      -0.399  -1.400   3.204  0.00  0.00     0.077 C 
ATOM      2  C1' PXY d   1       0.065   1.209  -1.934  0.00  0.00     0.077 C 
ATOM      3  C1  PXY d   1      -0.044   0.526  -0.584  0.00  0.00    -0.082 A 
ATOM      4  C2  PXY d   1      -1.045  -0.306  -0.351  0.00  0.00     0.003 A 
ATOM      5  C3  PXY d   1      -1.177  -0.907   0.874  0.00  0.00     0.003 A 
ATOM      6  C4  PXY d   1      -0.244  -0.695   1.853  0.00  0.00    -0.082 A 
ATOM      7  C5  PXY d   1       0.787   0.145   1.620  0.00  0.00     0.003 A 
ATOM      8  C6  PXY d   1       0.879   0.777   0.383  0.00  0.00     0.003 A 
ENDROOT
TORSDOF 0
ENDMDL
