MODEL 1
REMARK minimizedAffinity -2.45807981
REMARK minimizedRMSD -1
REMARK  0 active torsions:
REMARK  status: ('A' for Active; 'I' for Inactive)
ROOT
ATOM      1  C4' PXY d   1      -1.247  -0.366   3.425  0.00  0.00     0.077 C 
ATOM      2  C1' PXY d   1       0.515   0.521  -2.009  0.00  0.00     0.077 C 
ATOM      3  C1  PXY d   1       0.041   0.293  -0.587  0.00  0.00    -0.082 A 
ATOM      4  C2  PXY d   1       0.920   0.280   0.401  0.00  0.00     0.003 A 
ATOM      5  C3  PXY d   1       0.513   0.043   1.689  0.00  0.00     0.003 A 
ATOM      6  C4  PXY d   1      -0.815  -0.130   1.975  0.00  0.00    -0.082 A 
ATOM      7  C5  PXY d   1      -1.720  -0.108   0.973  0.00  0.00     0.003 A 
ATOM      8  C6  PXY d   1      -1.281   0.093  -0.332  0.00  0.00     0.003 A 
ENDROOT
TORSDOF 0
ENDMDL
