MODEL 1
REMARK minimizedAffinity -4.91889
REMARK minimizedRMSD -1
REMARK  0 active torsions:
REMARK  status: ('A' for Active; 'I' for Inactive)
ROOT
ATOM      1  C4' PXY d   1       0.697  -0.575  -1.541  0.00  0.00     0.077 C 
ATOM      2  C1' PXY d   1      -1.815  -0.114   3.645  0.00  0.00     0.077 C 
ATOM      3  C1  PXY d   1      -1.145  -0.231   2.290  0.00  0.00    -0.082 A 
ATOM      4  C2  PXY d   1      -1.872  -0.128   1.190  0.00  0.00     0.003 A 
ATOM      5  C3  PXY d   1      -1.288  -0.264  -0.043  0.00  0.00     0.003 A 
ATOM      6  C4  PXY d   1       0.064  -0.453  -0.152  0.00  0.00    -0.082 A 
ATOM      7  C5  PXY d   1       0.815  -0.549   0.966  0.00  0.00     0.003 A 
ATOM      8  C6  PXY d   1       0.195  -0.450   2.209  0.00  0.00     0.003 A 
ENDROOT
TORSDOF 0
ENDMDL
