MODEL 1
REMARK minimizedAffinity -3.95497298
REMARK minimizedRMSD -1
REMARK  0 active torsions:
REMARK  status: ('A' for Active; 'I' for Inactive)
ROOT
ATOM      1  C4' PXY d   1       0.531   0.192  -2.564  0.00  0.00     0.077 C 
ATOM      2  C1' PXY d   1      -0.320  -0.128   3.144  0.00  0.00     0.077 C 
ATOM      3  C1  PXY d   1      -0.108  -0.051   1.645  0.00  0.00    -0.082 A 
ATOM      4  C2  PXY d   1       1.114   0.115   1.165  0.00  0.00     0.003 A 
ATOM      5  C3  PXY d   1       1.320   0.219  -0.187  0.00  0.00     0.003 A 
ATOM      6  C4  PXY d   1       0.271   0.099  -1.058  0.00  0.00    -0.082 A 
ATOM      7  C5  PXY d   1      -0.977  -0.081  -0.577  0.00  0.00     0.003 A 
ATOM      8  C6  PXY d   1      -1.170  -0.143   0.800  0.00  0.00     0.003 A 
ENDROOT
TORSDOF 0
ENDMDL
