MODEL 1
REMARK minimizedAffinity -4.77524042
REMARK minimizedRMSD -1
REMARK  0 active torsions:
REMARK  status: ('A' for Active; 'I' for Inactive)
ROOT
ATOM      1  C4' PXY d   1       0.607  -0.137  -2.343  0.00  0.00     0.077 C 
ATOM      2  C1' PXY d   1      -0.513  -0.536   3.314  0.00  0.00     0.077 C 
ATOM      3  C1  PXY d   1      -0.230  -0.440   1.828  0.00  0.00    -0.082 A 
ATOM      4  C2  PXY d   1       0.983  -0.110   1.414  0.00  0.00     0.003 A 
ATOM      5  C3  PXY d   1       1.249   0.013   0.075  0.00  0.00     0.003 A 
ATOM      6  C4  PXY d   1       0.277  -0.256  -0.852  0.00  0.00    -0.082 A 
ATOM      7  C5  PXY d   1      -0.960  -0.603  -0.438  0.00  0.00     0.003 A 
ATOM      8  C6  PXY d   1      -1.220  -0.683   0.927  0.00  0.00     0.003 A 
ENDROOT
TORSDOF 0
ENDMDL
