MODEL 1
REMARK minimizedAffinity -2.88073039
REMARK minimizedRMSD -1
REMARK  0 active torsions:
REMARK  status: ('A' for Active; 'I' for Inactive)
ROOT
ATOM      1  C1  DEN d   1      -0.885  -1.240   2.037  0.00  0.00     0.130 A 
ATOM      2  C2  DEN d   1      -0.608  -0.660   3.349  0.00  0.00    -0.031 A 
ATOM      3  C3  DEN d   1       0.220   0.546   3.149  0.00  0.00     0.027 A 
ATOM      4  C4  DEN d   1       1.091   1.570   0.948  0.00  0.00     0.027 A 
ATOM      5  C5  DEN d   1       1.125   1.426  -0.421  0.00  0.00    -0.003 A 
ATOM      6  C6  DEN d   1       0.524   0.373  -1.059  0.00  0.00     0.001 A 
ATOM      7  C7  DEN d   1      -0.175  -0.553  -0.331  0.00  0.00     0.017 A 
ATOM      8  C8  DEN d   1      -0.206  -0.418   1.051  0.00  0.00    -0.094 A 
ATOM      9  C9  DEN d   1       0.397   0.660   1.676  0.00  0.00    -0.072 A 
ENDROOT
TORSDOF 0
ENDMDL
