MODEL 1
REMARK minimizedAffinity -5.51338053
REMARK minimizedRMSD -1
REMARK  0 active torsions:
REMARK  status: ('A' for Active; 'I' for Inactive)
ROOT
ATOM      1  C1  DEN d   1      -1.122  -0.278  -0.660  0.00  0.00     0.130 A 
ATOM      2  C2  DEN d   1      -0.028  -0.013  -1.590  0.00  0.00    -0.031 A 
ATOM      3  C3  DEN d   1       1.215   0.128  -0.805  0.00  0.00     0.027 A 
ATOM      4  C4  DEN d   1       1.550  -0.043   1.747  0.00  0.00     0.027 A 
ATOM      5  C5  DEN d   1       0.913  -0.243   2.952  0.00  0.00    -0.003 A 
ATOM      6  C6  DEN d   1      -0.440  -0.434   3.040  0.00  0.00     0.001 A 
ATOM      7  C7  DEN d   1      -1.196  -0.473   1.898  0.00  0.00     0.017 A 
ATOM      8  C8  DEN d   1      -0.562  -0.264   0.680  0.00  0.00    -0.094 A 
ATOM      9  C9  DEN d   1       0.809  -0.086   0.611  0.00  0.00    -0.072 A 
ENDROOT
TORSDOF 0
ENDMDL
