MODEL 1
REMARK minimizedAffinity -1.27643156
REMARK minimizedRMSD -1
REMARK  0 active torsions:
REMARK  status: ('A' for Active; 'I' for Inactive)
ROOT
ATOM      1  C1  DEN d   1      -0.833  -1.695   2.013  0.00  0.00     0.130 A 
ATOM      2  C2  DEN d   1      -0.708  -0.870   3.211  0.00  0.00    -0.031 A 
ATOM      3  C3  DEN d   1       0.096   0.319   2.864  0.00  0.00     0.027 A 
ATOM      4  C4  DEN d   1       1.150   0.961   0.599  0.00  0.00     0.027 A 
ATOM      5  C5  DEN d   1       1.325   0.568  -0.709  0.00  0.00    -0.003 A 
ATOM      6  C6  DEN d   1       0.827  -0.614  -1.189  0.00  0.00     0.001 A 
ATOM      7  C7  DEN d   1       0.089  -1.424  -0.366  0.00  0.00     0.017 A 
ATOM      8  C8  DEN d   1      -0.086  -1.037   0.956  0.00  0.00    -0.094 A 
ATOM      9  C9  DEN d   1       0.416   0.167   1.419  0.00  0.00    -0.072 A 
ENDROOT
TORSDOF 0
ENDMDL
