MODEL 1
REMARK minimizedAffinity -5.12887955
REMARK minimizedRMSD -1
REMARK  0 active torsions:
REMARK  status: ('A' for Active; 'I' for Inactive)
ROOT
ATOM      1  C1  DEN d   1       1.343   1.305   0.262  0.00  0.00     0.130 A 
ATOM      2  C2  DEN d   1       0.945   1.051  -1.120  0.00  0.00    -0.031 A 
ATOM      3  C3  DEN d   1      -0.172   0.086  -1.103  0.00  0.00     0.027 A 
ATOM      4  C4  DEN d   1      -1.320  -1.033   0.917  0.00  0.00     0.027 A 
ATOM      5  C5  DEN d   1      -1.321  -1.139   2.290  0.00  0.00    -0.003 A 
ATOM      6  C6  DEN d   1      -0.420  -0.470   3.076  0.00  0.00     0.001 A 
ATOM      7  C7  DEN d   1       0.492   0.371   2.495  0.00  0.00     0.017 A 
ATOM      8  C8  DEN d   1       0.505   0.478   1.111  0.00  0.00    -0.094 A 
ATOM      9  C9  DEN d   1      -0.423  -0.198   0.335  0.00  0.00    -0.072 A 
ENDROOT
TORSDOF 0
ENDMDL
