MODEL 1
REMARK minimizedAffinity -2.70856881
REMARK minimizedRMSD -1
REMARK  0 active torsions:
REMARK  status: ('A' for Active; 'I' for Inactive)
ROOT
ATOM      1  C1  DEN d   1      -1.995  -0.892   1.145  0.00  0.00     0.130 A 
ATOM      2  C2  DEN d   1      -1.346  -0.917   2.452  0.00  0.00    -0.031 A 
ATOM      3  C3  DEN d   1       0.043  -0.444   2.281  0.00  0.00     0.027 A 
ATOM      4  C4  DEN d   1       1.242   0.324   0.131  0.00  0.00     0.027 A 
ATOM      5  C5  DEN d   1       1.103   0.509  -1.227  0.00  0.00    -0.003 A 
ATOM      6  C6  DEN d   1      -0.058   0.211  -1.889  0.00  0.00     0.001 A 
ATOM      7  C7  DEN d   1      -1.141  -0.247  -1.187  0.00  0.00     0.017 A 
ATOM      8  C8  DEN d   1      -1.007  -0.443   0.181  0.00  0.00    -0.094 A 
ATOM      9  C9  DEN d   1       0.171  -0.124   0.834  0.00  0.00    -0.072 A 
ENDROOT
TORSDOF 0
ENDMDL
