MODEL 1
REMARK minimizedAffinity -4.00929356
REMARK minimizedRMSD -1
REMARK  0 active torsions:
REMARK  status: ('A' for Active; 'I' for Inactive)
ROOT
ATOM      1  C1  DEN d   1       1.140   0.946   0.154  0.00  0.00     0.130 A 
ATOM      2  C2  DEN d   1       0.634   0.591  -1.169  0.00  0.00    -0.031 A 
ATOM      3  C3  DEN d   1      -0.523  -0.309  -0.988  0.00  0.00     0.027 A 
ATOM      4  C4  DEN d   1      -1.576  -1.178   1.200  0.00  0.00     0.027 A 
ATOM      5  C5  DEN d   1      -1.485  -1.159   2.575  0.00  0.00    -0.003 A 
ATOM      6  C6  DEN d   1      -0.500  -0.471   3.232  0.00  0.00     0.001 A 
ATOM      7  C7  DEN d   1       0.407   0.265   2.516  0.00  0.00     0.017 A 
ATOM      8  C8  DEN d   1       0.326   0.245   1.130  0.00  0.00    -0.094 A 
ATOM      9  C9  DEN d   1      -0.684  -0.447   0.485  0.00  0.00    -0.072 A 
ENDROOT
TORSDOF 0
ENDMDL
