MODEL 1
REMARK minimizedAffinity -5.50043011
REMARK minimizedRMSD -1
REMARK  0 active torsions:
REMARK  status: ('A' for Active; 'I' for Inactive)
ROOT
ATOM      1  C1  DEN d   1       0.756  -0.253   1.913  0.00  0.00     0.130 A 
ATOM      2  C2  DEN d   1       0.014  -0.492   3.148  0.00  0.00    -0.031 A 
ATOM      3  C3  DEN d   1      -1.425  -0.345   2.852  0.00  0.00     0.027 A 
ATOM      4  C4  DEN d   1      -2.572   0.222   0.613  0.00  0.00     0.027 A 
ATOM      5  C5  DEN d   1      -2.357   0.523  -0.714  0.00  0.00    -0.003 A 
ATOM      6  C6  DEN d   1      -1.099   0.619  -1.246  0.00  0.00     0.001 A 
ATOM      7  C7  DEN d   1      -0.007   0.368  -0.457  0.00  0.00     0.017 A 
ATOM      8  C8  DEN d   1      -0.216   0.071   0.883  0.00  0.00    -0.094 A 
ATOM      9  C9  DEN d   1      -1.496  -0.033   1.399  0.00  0.00    -0.072 A 
ENDROOT
TORSDOF 0
ENDMDL
