MODEL 1
REMARK minimizedAffinity -6.70777035
REMARK minimizedRMSD -1
REMARK  0 active torsions:
REMARK  status: ('A' for Active; 'I' for Inactive)
ROOT
ATOM      1  C1  DEN d   1      -1.991  -0.110   2.810  0.00  0.00     0.130 A 
ATOM      2  C2  DEN d   1      -3.225  -0.116   2.029  0.00  0.00    -0.031 A 
ATOM      3  C3  DEN d   1      -2.869   0.100   0.612  0.00  0.00     0.027 A 
ATOM      4  C4  DEN d   1      -0.540   0.434  -0.444  0.00  0.00     0.027 A 
ATOM      5  C5  DEN d   1       0.809   0.528  -0.180  0.00  0.00    -0.003 A 
ATOM      6  C6  DEN d   1       1.312   0.451   1.091  0.00  0.00     0.001 A 
ATOM      7  C7  DEN d   1       0.464   0.229   2.144  0.00  0.00     0.017 A 
ATOM      8  C8  DEN d   1      -0.898   0.140   1.887  0.00  0.00    -0.094 A 
ATOM      9  C9  DEN d   1      -1.386   0.209   0.593  0.00  0.00    -0.072 A 
ENDROOT
TORSDOF 0
ENDMDL
