MODEL 1
REMARK minimizedAffinity -5.91475582
REMARK minimizedRMSD -1
REMARK  0 active torsions:
REMARK  status: ('A' for Active; 'I' for Inactive)
ROOT
ATOM      1  C1  DEN d   1       1.631   0.401   1.683  0.00  0.00     0.130 A 
ATOM      2  C2  DEN d   1       1.095  -0.087   2.951  0.00  0.00    -0.031 A 
ATOM      3  C3  DEN d   1      -0.360  -0.284   2.786  0.00  0.00     0.027 A 
ATOM      4  C4  DEN d   1      -1.825   0.115   0.701  0.00  0.00     0.027 A 
ATOM      5  C5  DEN d   1      -1.821   0.538  -0.610  0.00  0.00    -0.003 A 
ATOM      6  C6  DEN d   1      -0.681   0.973  -1.233  0.00  0.00     0.001 A 
ATOM      7  C7  DEN d   1       0.511   0.954  -0.559  0.00  0.00     0.017 A 
ATOM      8  C8  DEN d   1       0.513   0.535   0.766  0.00  0.00    -0.094 A 
ATOM      9  C9  DEN d   1      -0.647   0.087   1.374  0.00  0.00    -0.072 A 
ENDROOT
TORSDOF 0
ENDMDL
