MODEL 1
REMARK minimizedAffinity -3.20153236
REMARK minimizedRMSD -1
REMARK  0 active torsions:
REMARK  status: ('A' for Active; 'I' for Inactive)
ROOT
ATOM      1  C1  DEN d   1      -1.295  -0.616   1.793  0.00  0.00     0.130 A 
ATOM      2  C2  DEN d   1      -0.427  -0.403   2.949  0.00  0.00    -0.031 A 
ATOM      3  C3  DEN d   1       0.886   0.057   2.454  0.00  0.00     0.027 A 
ATOM      4  C4  DEN d   1       1.655   0.463   0.026  0.00  0.00     0.027 A 
ATOM      5  C5  DEN d   1       1.273   0.408  -1.296  0.00  0.00    -0.003 A 
ATOM      6  C6  DEN d   1       0.031  -0.022  -1.680  0.00  0.00     0.001 A 
ATOM      7  C7  DEN d   1      -0.891  -0.370  -0.729  0.00  0.00     0.017 A 
ATOM      8  C8  DEN d   1      -0.511  -0.324   0.606  0.00  0.00    -0.094 A 
ATOM      9  C9  DEN d   1       0.746   0.125   0.975  0.00  0.00    -0.072 A 
ENDROOT
TORSDOF 0
ENDMDL
