MODEL 1
REMARK minimizedAffinity -4.79904175
REMARK minimizedRMSD -1
REMARK  0 active torsions:
REMARK  status: ('A' for Active; 'I' for Inactive)
ROOT
ATOM      1  C1  DEN d   1      -1.291  -0.045  -1.227  0.00  0.00     0.130 A 
ATOM      2  C2  DEN d   1      -0.134   0.365  -2.018  0.00  0.00    -0.031 A 
ATOM      3  C3  DEN d   1       1.041   0.405  -1.124  0.00  0.00     0.027 A 
ATOM      4  C4  DEN d   1       1.180  -0.132   1.395  0.00  0.00     0.027 A 
ATOM      5  C5  DEN d   1       0.456  -0.513   2.503  0.00  0.00    -0.003 A 
ATOM      6  C6  DEN d   1      -0.895  -0.730   2.454  0.00  0.00     0.001 A 
ATOM      7  C7  DEN d   1      -1.559  -0.611   1.261  0.00  0.00     0.017 A 
ATOM      8  C8  DEN d   1      -0.837  -0.220   0.141  0.00  0.00    -0.094 A 
ATOM      9  C9  DEN d   1       0.531  -0.017   0.209  0.00  0.00    -0.072 A 
ENDROOT
TORSDOF 0
ENDMDL
