MODEL 1
REMARK minimizedAffinity -2.63630152
REMARK minimizedRMSD -1
REMARK  0 active torsions:
REMARK  status: ('A' for Active; 'I' for Inactive)
ROOT
ATOM      1  C1  DEN d   1      -1.617  -0.543   1.930  0.00  0.00     0.130 A 
ATOM      2  C2  DEN d   1      -0.910  -0.332   3.190  0.00  0.00    -0.031 A 
ATOM      3  C3  DEN d   1       0.471   0.084   2.874  0.00  0.00     0.027 A 
ATOM      4  C4  DEN d   1       1.576   0.425   0.568  0.00  0.00     0.027 A 
ATOM      5  C5  DEN d   1       1.377   0.356  -0.793  0.00  0.00    -0.003 A 
ATOM      6  C6  DEN d   1       0.187  -0.047  -1.337  0.00  0.00     0.001 A 
ATOM      7  C7  DEN d   1      -0.866  -0.353  -0.516  0.00  0.00     0.017 A 
ATOM      8  C8  DEN d   1      -0.671  -0.293   0.857  0.00  0.00    -0.094 A 
ATOM      9  C9  DEN d   1       0.536   0.128   1.388  0.00  0.00    -0.072 A 
ENDROOT
TORSDOF 0
ENDMDL
