MODEL 1
REMARK minimizedAffinity -4.93426752
REMARK minimizedRMSD -1
REMARK  0 active torsions:
REMARK  status: ('A' for Active; 'I' for Inactive)
ROOT
ATOM      1  C1  DEN d   1       1.157   0.549  -0.009  0.00  0.00     0.130 A 
ATOM      2  C2  DEN d   1       0.574   0.722  -1.336  0.00  0.00    -0.031 A 
ATOM      3  C3  DEN d   1      -0.863   0.393  -1.250  0.00  0.00     0.027 A 
ATOM      4  C4  DEN d   1      -2.236  -0.360   0.800  0.00  0.00     0.027 A 
ATOM      5  C5  DEN d   1      -2.175  -0.660   2.142  0.00  0.00    -0.003 A 
ATOM      6  C6  DEN d   1      -1.002  -0.612   2.849  0.00  0.00     0.001 A 
ATOM      7  C7  DEN d   1       0.150  -0.212   2.226  0.00  0.00     0.017 A 
ATOM      8  C8  DEN d   1       0.098   0.086   0.870  0.00  0.00    -0.094 A 
ATOM      9  C9  DEN d   1      -1.100   0.043   0.176  0.00  0.00    -0.072 A 
ENDROOT
TORSDOF 0
ENDMDL
