MODEL 1
REMARK minimizedAffinity -3.13028526
REMARK minimizedRMSD -1
REMARK  0 active torsions:
REMARK  status: ('A' for Active; 'I' for Inactive)
ROOT
ATOM      1  C2' OXE d   1      -1.006   0.370   1.399  0.00  0.00     0.078 C 
ATOM      2  C1' OXE d   1       0.251  -1.084  -0.647  0.00  0.00     0.078 C 
ATOM      3  C1  OXE d   1       1.009   0.067  -0.034  0.00  0.00    -0.078 A 
ATOM      4  C2  OXE d   1       0.368   0.802   0.934  0.00  0.00    -0.078 A 
ATOM      5  C3  OXE d   1       1.042   1.840   1.570  0.00  0.00     0.003 A 
ATOM      6  C4  OXE d   1       2.308   2.240   1.127  0.00  0.00    -0.002 A 
ATOM      7  C5  OXE d   1       2.963   1.530   0.115  0.00  0.00    -0.002 A 
ATOM      8  C6  OXE d   1       2.346   0.417  -0.445  0.00  0.00     0.003 A 
ENDROOT
TORSDOF 0
ENDMDL
