MODEL 1
REMARK minimizedAffinity -4.30465317
REMARK minimizedRMSD -1
REMARK  0 active torsions:
REMARK  status: ('A' for Active; 'I' for Inactive)
ROOT
ATOM      1  C2' OXE d   1       0.933   2.871   0.875  0.00  0.00     0.078 C 
ATOM      2  C1' OXE d   1       2.260   0.888  -0.603  0.00  0.00     0.078 C 
ATOM      3  C1  OXE d   1       0.931   0.533   0.016  0.00  0.00    -0.078 A 
ATOM      4  C2  OXE d   1       0.311   1.495   0.776  0.00  0.00    -0.078 A 
ATOM      5  C3  OXE d   1      -0.943   1.239   1.324  0.00  0.00     0.003 A 
ATOM      6  C4  OXE d   1      -1.507  -0.040   1.236  0.00  0.00    -0.002 A 
ATOM      7  C5  OXE d   1      -0.873  -1.046   0.500  0.00  0.00    -0.002 A 
ATOM      8  C6  OXE d   1       0.323  -0.764  -0.151  0.00  0.00     0.003 A 
ENDROOT
TORSDOF 0
ENDMDL
