MODEL 1
REMARK minimizedAffinity -5.57940531
REMARK minimizedRMSD -1
REMARK  0 active torsions:
REMARK  status: ('A' for Active; 'I' for Inactive)
ROOT
ATOM      1  C2' OXE d   1       2.695   1.130  -1.266  0.00  0.00     0.078 C 
ATOM      2  C1' OXE d   1       0.975   2.582   0.412  0.00  0.00     0.078 C 
ATOM      3  C1  OXE d   1       0.570   1.179   0.033  0.00  0.00    -0.078 A 
ATOM      4  C2  OXE d   1       1.395   0.493  -0.826  0.00  0.00    -0.078 A 
ATOM      5  C3  OXE d   1       1.096  -0.824  -1.164  0.00  0.00     0.003 A 
ATOM      6  C4  OXE d   1      -0.114  -1.402  -0.761  0.00  0.00    -0.002 A 
ATOM      7  C5  OXE d   1      -0.987  -0.706   0.082  0.00  0.00    -0.002 A 
ATOM      8  C6  OXE d   1      -0.641   0.567   0.522  0.00  0.00     0.003 A 
ENDROOT
TORSDOF 0
ENDMDL
