MODEL 1
REMARK minimizedAffinity -3.80208015
REMARK minimizedRMSD -1
REMARK  0 active torsions:
REMARK  status: ('A' for Active; 'I' for Inactive)
ROOT
ATOM      1  C2' OXE d   1      -1.528  -0.137   1.882  0.00  0.00     0.078 C 
ATOM      2  C1' OXE d   1      -0.309  -0.974  -0.503  0.00  0.00     0.078 C 
ATOM      3  C1  OXE d   1       0.115   0.352   0.076  0.00  0.00    -0.078 A 
ATOM      4  C2  OXE d   1      -0.520   0.776   1.218  0.00  0.00    -0.078 A 
ATOM      5  C3  OXE d   1      -0.129   1.966   1.824  0.00  0.00     0.003 A 
ATOM      6  C4  OXE d   1       0.797   2.809   1.197  0.00  0.00    -0.002 A 
ATOM      7  C5  OXE d   1       1.428   2.416   0.012  0.00  0.00    -0.002 A 
ATOM      8  C6  OXE d   1       1.130   1.174  -0.538  0.00  0.00     0.003 A 
ENDROOT
TORSDOF 0
ENDMDL
