MODEL 1
REMARK minimizedAffinity -4.46746063
REMARK minimizedRMSD -1
REMARK  0 active torsions:
REMARK  status: ('A' for Active; 'I' for Inactive)
ROOT
ATOM      1  C2' OXE d   1      -1.930  -0.621   2.365  0.00  0.00     0.078 C 
ATOM      2  C1' OXE d   1      -1.088  -1.719  -0.078  0.00  0.00     0.078 C 
ATOM      3  C1  OXE d   1      -0.413  -0.456   0.396  0.00  0.00    -0.078 A 
ATOM      4  C2  OXE d   1      -0.863   0.100   1.569  0.00  0.00    -0.078 A 
ATOM      5  C3  OXE d   1      -0.238   1.234   2.079  0.00  0.00     0.003 A 
ATOM      6  C4  OXE d   1       0.741   1.900   1.333  0.00  0.00    -0.002 A 
ATOM      7  C5  OXE d   1       1.187   1.373   0.116  0.00  0.00    -0.002 A 
ATOM      8  C6  OXE d   1       0.651   0.175  -0.345  0.00  0.00     0.003 A 
ENDROOT
TORSDOF 0
ENDMDL
