MODEL 1
REMARK minimizedAffinity -1.93684256
REMARK minimizedRMSD -1
REMARK  0 active torsions:
REMARK  status: ('A' for Active; 'I' for Inactive)
ROOT
ATOM      1  C2' OXE d   1       1.149   2.543   1.320  0.00  0.00     0.078 C 
ATOM      2  C1' OXE d   1       2.554   0.990  -0.549  0.00  0.00     0.078 C 
ATOM      3  C1  OXE d   1       1.153   0.562  -0.189  0.00  0.00    -0.078 A 
ATOM      4  C2  OXE d   1       0.490   1.301   0.761  0.00  0.00    -0.078 A 
ATOM      5  C3  OXE d   1      -0.824   0.981   1.089  0.00  0.00     0.003 A 
ATOM      6  C4  OXE d   1      -1.422  -0.176   0.575  0.00  0.00    -0.002 A 
ATOM      7  C5  OXE d   1      -0.750  -0.965  -0.364  0.00  0.00    -0.002 A 
ATOM      8  C6  OXE d   1       0.519  -0.587  -0.788  0.00  0.00     0.003 A 
ENDROOT
TORSDOF 0
ENDMDL
