MODEL 1
REMARK minimizedAffinity -5.10306644
REMARK minimizedRMSD -1
REMARK  0 active torsions:
REMARK  status: ('A' for Active; 'I' for Inactive)
ROOT
ATOM      1  C2' OXE d   1      -1.025   0.777   1.348  0.00  0.00     0.078 C 
ATOM      2  C1' OXE d   1       0.894   2.753   0.808  0.00  0.00     0.078 C 
ATOM      3  C1  OXE d   1       1.121   1.377   0.235  0.00  0.00    -0.078 A 
ATOM      4  C2  OXE d   1       0.201   0.404   0.543  0.00  0.00    -0.078 A 
ATOM      5  C3  OXE d   1       0.334  -0.869  -0.005  0.00  0.00     0.003 A 
ATOM      6  C4  OXE d   1       1.477  -1.209  -0.740  0.00  0.00    -0.002 A 
ATOM      7  C5  OXE d   1       2.446  -0.243  -1.031  0.00  0.00    -0.002 A 
ATOM      8  C6  OXE d   1       2.263   1.062  -0.589  0.00  0.00     0.003 A 
ENDROOT
TORSDOF 0
ENDMDL
