MODEL 1
REMARK minimizedAffinity -4.17245245
REMARK minimizedRMSD -1
REMARK  0 active torsions:
REMARK  status: ('A' for Active; 'I' for Inactive)
ROOT
ATOM      1  C2' OXE d   1       2.253   1.209  -0.915  0.00  0.00     0.078 C 
ATOM      2  C1' OXE d   1       1.076   2.874   1.014  0.00  0.00     0.078 C 
ATOM      3  C1  OXE d   1       0.489   1.498   0.820  0.00  0.00    -0.078 A 
ATOM      4  C2  OXE d   1       1.041   0.707  -0.158  0.00  0.00    -0.078 A 
ATOM      5  C3  OXE d   1       0.574  -0.591  -0.341  0.00  0.00     0.003 A 
ATOM      6  C4  OXE d   1      -0.553  -1.043   0.356  0.00  0.00    -0.002 A 
ATOM      7  C5  OXE d   1      -1.156  -0.239   1.329  0.00  0.00    -0.002 A 
ATOM      8  C6  OXE d   1      -0.622   1.016   1.603  0.00  0.00     0.003 A 
ENDROOT
TORSDOF 0
ENDMDL
