MODEL 1
REMARK minimizedAffinity -5.76071692
REMARK minimizedRMSD -1
REMARK  0 active torsions:
REMARK  status: ('A' for Active; 'I' for Inactive)
ROOT
ATOM      1  C2' OXE d   1      -1.382  -0.806   1.658  0.00  0.00     0.078 C 
ATOM      2  C1' OXE d   1       0.186  -1.135  -0.648  0.00  0.00     0.078 C 
ATOM      3  C1  OXE d   1       0.229   0.203   0.047  0.00  0.00    -0.078 A 
ATOM      4  C2  OXE d   1      -0.577   0.370   1.148  0.00  0.00    -0.078 A 
ATOM      5  C3  OXE d   1      -0.534   1.567   1.858  0.00  0.00     0.003 A 
ATOM      6  C4  OXE d   1       0.205   2.653   1.374  0.00  0.00    -0.002 A 
ATOM      7  C5  OXE d   1       1.002   2.516   0.232  0.00  0.00    -0.002 A 
ATOM      8  C6  OXE d   1       1.058   1.288  -0.417  0.00  0.00     0.003 A 
ENDROOT
TORSDOF 0
ENDMDL
