MODEL 1
REMARK minimizedAffinity -4.09279966
REMARK minimizedRMSD -1
REMARK  0 active torsions:
REMARK  status: ('A' for Active; 'I' for Inactive)
ROOT
ATOM      1  C2' OXE d   1      -0.295  -0.920  -0.635  0.00  0.00     0.078 C 
ATOM      2  C1' OXE d   1      -1.069  -0.342   2.001  0.00  0.00     0.078 C 
ATOM      3  C1  OXE d   1      -0.062   0.571   1.347  0.00  0.00    -0.078 A 
ATOM      4  C2  OXE d   1       0.346   0.253   0.074  0.00  0.00    -0.078 A 
ATOM      5  C3  OXE d   1       1.232   1.093  -0.596  0.00  0.00     0.003 A 
ATOM      6  C4  OXE d   1       1.828   2.170   0.071  0.00  0.00    -0.002 A 
ATOM      7  C5  OXE d   1       1.457   2.488   1.382  0.00  0.00    -0.002 A 
ATOM      8  C6  OXE d   1       0.484   1.725   2.018  0.00  0.00     0.003 A 
ENDROOT
TORSDOF 0
ENDMDL
