MODEL 1
REMARK minimizedAffinity -4.97614145
REMARK minimizedRMSD -1
REMARK  0 active torsions:
REMARK  status: ('A' for Active; 'I' for Inactive)
ROOT
ATOM      1  C2' OXE d   1      -0.639  -1.063  -0.564  0.00  0.00     0.078 C 
ATOM      2  C1' OXE d   1      -1.788  -0.015   1.773  0.00  0.00     0.078 C 
ATOM      3  C1  OXE d   1      -0.593   0.701   1.194  0.00  0.00    -0.078 A 
ATOM      4  C2  OXE d   1      -0.009   0.154   0.077  0.00  0.00    -0.078 A 
ATOM      5  C3  OXE d   1       1.062   0.805  -0.530  0.00  0.00     0.003 A 
ATOM      6  C4  OXE d   1       1.646   1.925   0.075  0.00  0.00    -0.002 A 
ATOM      7  C5  OXE d   1       1.091   2.475   1.235  0.00  0.00    -0.002 A 
ATOM      8  C6  OXE d   1      -0.052   1.901   1.782  0.00  0.00     0.003 A 
ENDROOT
TORSDOF 0
ENDMDL
