MODEL 1
REMARK minimizedAffinity -5.14024544
REMARK minimizedRMSD -1
REMARK  0 active torsions:
REMARK  status: ('A' for Active; 'I' for Inactive)
ROOT
ATOM      1  C2' OXE d   1      -0.427  -0.799  -0.504  0.00  0.00     0.078 C 
ATOM      2  C1' OXE d   1      -1.671   0.491   1.656  0.00  0.00     0.078 C 
ATOM      3  C1  OXE d   1      -0.333   1.015   1.200  0.00  0.00    -0.078 A 
ATOM      4  C2  OXE d   1       0.291   0.348   0.173  0.00  0.00    -0.078 A 
ATOM      5  C3  OXE d   1       1.502   0.823  -0.323  0.00  0.00     0.003 A 
ATOM      6  C4  OXE d   1       2.164   1.879   0.316  0.00  0.00    -0.002 A 
ATOM      7  C5  OXE d   1       1.565   2.547   1.389  0.00  0.00    -0.002 A 
ATOM      8  C6  OXE d   1       0.300   2.155   1.816  0.00  0.00     0.003 A 
ENDROOT
TORSDOF 0
ENDMDL
