MODEL 1
REMARK minimizedAffinity -5.07419109
REMARK minimizedRMSD -1
REMARK  0 active torsions:
REMARK  status: ('A' for Active; 'I' for Inactive)
ROOT
ATOM      1  C2' OXE d   1       0.705   2.332   1.366  0.00  0.00     0.078 C 
ATOM      2  C1' OXE d   1      -1.607   0.908   2.076  0.00  0.00     0.078 C 
ATOM      3  C1  OXE d   1      -0.689   0.292   1.050  0.00  0.00    -0.078 A 
ATOM      4  C2  OXE d   1       0.416   1.018   0.674  0.00  0.00    -0.078 A 
ATOM      5  C3  OXE d   1       1.324   0.472  -0.228  0.00  0.00     0.003 A 
ATOM      6  C4  OXE d   1       1.044  -0.740  -0.871  0.00  0.00    -0.002 A 
ATOM      7  C5  OXE d   1      -0.096  -1.476  -0.532  0.00  0.00    -0.002 A 
ATOM      8  C6  OXE d   1      -0.949  -0.995   0.455  0.00  0.00     0.003 A 
ENDROOT
TORSDOF 0
ENDMDL
