MODEL 1
REMARK minimizedAffinity -1.84653127
REMARK minimizedRMSD -1
REMARK  0 active torsions:
REMARK  status: ('A' for Active; 'I' for Inactive)
ROOT
ATOM      1  C2' OXE d   1       1.882  -0.443  -0.867  0.00  0.00     0.078 C 
ATOM      2  C1' OXE d   1      -0.755  -1.359  -0.569  0.00  0.00     0.078 C 
ATOM      3  C1  OXE d   1      -0.321  -0.179   0.265  0.00  0.00    -0.078 A 
ATOM      4  C2  OXE d   1       0.984   0.233   0.147  0.00  0.00    -0.078 A 
ATOM      5  C3  OXE d   1       1.421   1.350   0.852  0.00  0.00     0.003 A 
ATOM      6  C4  OXE d   1       0.587   1.963   1.795  0.00  0.00    -0.002 A 
ATOM      7  C5  OXE d   1      -0.734   1.534   1.961  0.00  0.00    -0.002 A 
ATOM      8  C6  OXE d   1      -1.216   0.494   1.174  0.00  0.00     0.003 A 
ENDROOT
TORSDOF 0
ENDMDL
