MODEL 1
REMARK minimizedAffinity -0.693971038
REMARK minimizedRMSD -1
REMARK  3 active torsions:
REMARK  status: ('A' for Active; 'I' for Inactive)
REMARK    1  A    between atoms: C3'_2  and  C2'_3 
REMARK    2  A    between atoms: C2'_3  and  C1'_4 
REMARK    3  A    between atoms: C1'_4  and  C1_5 
ROOT
ATOM      1  C1  N4B d   1       3.772   1.320  -1.673  0.00  0.00    -0.075 A 
ATOM      2  C2  N4B d   1       4.277   1.712  -0.413  0.00  0.00     0.002 A 
ATOM      3  C3  N4B d   1       3.600   1.374   0.733  0.00  0.00     0.002 A 
ATOM      4  C4  N4B d   1       2.411   0.666   0.644  0.00  0.00    -0.004 A 
ATOM      5  C5  N4B d   1       1.943   0.270  -0.574  0.00  0.00     0.002 A 
ATOM      6  C6  N4B d   1       2.615   0.598  -1.735  0.00  0.00     0.002 A 
ENDROOT
BRANCH   1   7
ATOM      7  C1' N4B d   1       4.431   1.739  -2.958  0.00  0.00     0.057 C 
BRANCH   7   8
ATOM      8  C2' N4B d   1       5.559   2.718  -2.646  0.00  0.00     0.009 C 
BRANCH   8   9
ATOM      9  C3' N4B d   1       5.621   3.853  -3.654  0.00  0.00     0.004 C 
ATOM     10  C4' N4B d   1       5.691   5.203  -3.004  0.00  0.00     0.003 C 
ENDBRANCH   8   9
ENDBRANCH   7   8
ENDBRANCH   1   7
TORSDOF 3
ENDMDL
