MODEL 1
REMARK minimizedAffinity 2.7880621
REMARK minimizedRMSD -1
REMARK  3 active torsions:
REMARK  status: ('A' for Active; 'I' for Inactive)
REMARK    1  A    between atoms: C3'_2  and  C2'_3 
REMARK    2  A    between atoms: C2'_3  and  C1'_4 
REMARK    3  A    between atoms: C1'_4  and  C1_5 
ROOT
ATOM      1  C1  N4B d   1       0.434   1.833  -0.067  0.00  0.00    -0.075 A 
ATOM      2  C2  N4B d   1       0.697   2.512   1.143  0.00  0.00     0.002 A 
ATOM      3  C3  N4B d   1      -0.186   3.457   1.606  0.00  0.00     0.002 A 
ATOM      4  C4  N4B d   1      -1.324   3.751   0.870  0.00  0.00    -0.004 A 
ATOM      5  C5  N4B d   1      -1.584   3.072  -0.284  0.00  0.00     0.002 A 
ATOM      6  C6  N4B d   1      -0.707   2.117  -0.760  0.00  0.00     0.002 A 
ENDROOT
BRANCH   1   7
ATOM      7  C1' N4B d   1       1.412   0.854  -0.657  0.00  0.00     0.057 C 
BRANCH   7   8
ATOM      8  C2' N4B d   1       2.617   0.730   0.271  0.00  0.00     0.009 C 
BRANCH   8   9
ATOM      9  C3' N4B d   1       3.792   1.564  -0.209  0.00  0.00     0.004 C 
ATOM     10  C4' N4B d   1       3.820   1.724  -1.700  0.00  0.00     0.003 C 
ENDBRANCH   8   9
ENDBRANCH   7   8
ENDBRANCH   1   7
TORSDOF 3
ENDMDL
