MODEL 1
REMARK minimizedAffinity 6.37286615
REMARK minimizedRMSD -1
REMARK  3 active torsions:
REMARK  status: ('A' for Active; 'I' for Inactive)
REMARK    1  A    between atoms: C3'_2  and  C2'_3 
REMARK    2  A    between atoms: C2'_3  and  C1'_4 
REMARK    3  A    between atoms: C1'_4  and  C1_5 
ROOT
ATOM      1  C1  N4B d   1       4.147   1.313  -2.118  0.00  0.00    -0.075 A 
ATOM      2  C2  N4B d   1       4.313   1.635  -0.753  0.00  0.00     0.002 A 
ATOM      3  C3  N4B d   1       3.442   1.132   0.182  0.00  0.00     0.002 A 
ATOM      4  C4  N4B d   1       2.391   0.324  -0.224  0.00  0.00    -0.004 A 
ATOM      5  C5  N4B d   1       2.253  -0.003  -1.542  0.00  0.00     0.002 A 
ATOM      6  C6  N4B d   1       3.123   0.492  -2.492  0.00  0.00     0.002 A 
ENDROOT
BRANCH   1   7
ATOM      7  C1' N4B d   1       5.023   1.908  -3.186  0.00  0.00     0.057 C 
BRANCH   7   8
ATOM      8  C2' N4B d   1       5.974   2.917  -2.550  0.00  0.00     0.009 C 
BRANCH   8   9
ATOM      9  C3' N4B d   1       5.959   4.250  -3.278  0.00  0.00     0.004 C 
ATOM     10  C4' N4B d   1       5.981   5.423  -2.343  0.00  0.00     0.003 C 
ENDBRANCH   8   9
ENDBRANCH   7   8
ENDBRANCH   1   7
TORSDOF 3
ENDMDL
