MODEL 1
REMARK minimizedAffinity -2.30937696
REMARK minimizedRMSD -1
REMARK  3 active torsions:
REMARK  status: ('A' for Active; 'I' for Inactive)
REMARK    1  A    between atoms: C3'_2  and  C2'_3 
REMARK    2  A    between atoms: C2'_3  and  C1'_4 
REMARK    3  A    between atoms: C1'_4  and  C1_5 
ROOT
ATOM      1  C1  N4B d   1      -3.395   0.620  -4.112  0.00  0.00    -0.075 A 
ATOM      2  C2  N4B d   1      -3.400   1.472  -5.238  0.00  0.00     0.002 A 
ATOM      3  C3  N4B d   1      -4.538   1.604  -5.995  0.00  0.00     0.002 A 
ATOM      4  C4  N4B d   1      -5.673   0.881  -5.658  0.00  0.00    -0.004 A 
ATOM      5  C5  N4B d   1      -5.668   0.080  -4.554  0.00  0.00     0.002 A 
ATOM      6  C6  N4B d   1      -4.532  -0.059  -3.782  0.00  0.00     0.002 A 
ENDROOT
BRANCH   1   7
ATOM      7  C1' N4B d   1      -2.149   0.378  -3.305  0.00  0.00     0.057 C 
BRANCH   7   8
ATOM      8  C2' N4B d   1      -2.226  -1.006  -2.668  0.00  0.00     0.009 C 
BRANCH   8   9
ATOM      9  C3' N4B d   1      -1.515  -1.055  -1.326  0.00  0.00     0.004 C 
ATOM     10  C4' N4B d   1      -1.710  -2.359  -0.612  0.00  0.00     0.003 C 
ENDBRANCH   8   9
ENDBRANCH   7   8
ENDBRANCH   1   7
TORSDOF 3
ENDMDL
