MODEL 1
REMARK minimizedAffinity 11.9776411
REMARK minimizedRMSD -1
REMARK  3 active torsions:
REMARK  status: ('A' for Active; 'I' for Inactive)
REMARK    1  A    between atoms: C3'_2  and  C2'_3 
REMARK    2  A    between atoms: C2'_3  and  C1'_4 
REMARK    3  A    between atoms: C1'_4  and  C1_5 
ROOT
ATOM      1  C1  N4B d   1      -0.493   3.097   0.283  0.00  0.00    -0.075 A 
ATOM      2  C2  N4B d   1       0.336   3.104   1.427  0.00  0.00     0.002 A 
ATOM      3  C3  N4B d   1       0.378   4.213   2.236  0.00  0.00     0.002 A 
ATOM      4  C4  N4B d   1      -0.381   5.328   1.913  0.00  0.00    -0.004 A 
ATOM      5  C5  N4B d   1      -1.198   5.303   0.821  0.00  0.00     0.002 A 
ATOM      6  C6  N4B d   1      -1.254   4.194   0.001  0.00  0.00     0.002 A 
ENDROOT
BRANCH   1   7
ATOM      7  C1' N4B d   1      -0.508   1.940  -0.678  0.00  0.00     0.057 C 
BRANCH   7   8
ATOM      8  C2' N4B d   1      -1.921   1.368  -0.752  0.00  0.00     0.009 C 
BRANCH   8   9
ATOM      9  C3' N4B d   1      -2.002   0.174  -1.687  0.00  0.00     0.004 C 
ATOM     10  C4' N4B d   1      -1.272  -1.026  -1.161  0.00  0.00     0.003 C 
ENDBRANCH   8   9
ENDBRANCH   7   8
ENDBRANCH   1   7
TORSDOF 3
ENDMDL
