MODEL 1
REMARK minimizedAffinity 8.72280121
REMARK minimizedRMSD -1
REMARK  3 active torsions:
REMARK  status: ('A' for Active; 'I' for Inactive)
REMARK    1  A    between atoms: C3'_2  and  C2'_3 
REMARK    2  A    between atoms: C2'_3  and  C1'_4 
REMARK    3  A    between atoms: C1'_4  and  C1_5 
ROOT
ATOM      1  C1  N4B d   1       4.097   1.158  -1.875  0.00  0.00    -0.075 A 
ATOM      2  C2  N4B d   1       4.518   1.512  -0.575  0.00  0.00     0.002 A 
ATOM      3  C3  N4B d   1       3.814   1.069   0.519  0.00  0.00     0.002 A 
ATOM      4  C4  N4B d   1       2.681   0.292   0.336  0.00  0.00    -0.004 A 
ATOM      5  C5  N4B d   1       2.295  -0.066  -0.923  0.00  0.00     0.002 A 
ATOM      6  C6  N4B d   1       2.995   0.368  -2.030  0.00  0.00     0.002 A 
ENDROOT
BRANCH   1   7
ATOM      7  C1' N4B d   1       4.784   1.689  -3.104  0.00  0.00     0.057 C 
BRANCH   7   8
ATOM      8  C2' N4B d   1       5.893   2.649  -2.683  0.00  0.00     0.009 C 
BRANCH   8   9
ATOM      9  C3' N4B d   1       5.998   3.841  -3.618  0.00  0.00     0.004 C 
ATOM     10  C4' N4B d   1       5.650   5.137  -2.949  0.00  0.00     0.003 C 
ENDBRANCH   8   9
ENDBRANCH   7   8
ENDBRANCH   1   7
TORSDOF 3
ENDMDL
