MODEL 1
REMARK minimizedAffinity 16.4057598
REMARK minimizedRMSD -1
REMARK  3 active torsions:
REMARK  status: ('A' for Active; 'I' for Inactive)
REMARK    1  A    between atoms: C3'_2  and  C2'_3 
REMARK    2  A    between atoms: C2'_3  and  C1'_4 
REMARK    3  A    between atoms: C1'_4  and  C1_5 
ROOT
ATOM      1  C1  N4B d   1      -5.131   0.373  -5.080  0.00  0.00    -0.075 A 
ATOM      2  C2  N4B d   1      -3.827   0.059  -4.638  0.00  0.00     0.002 A 
ATOM      3  C3  N4B d   1      -3.299  -1.185  -4.885  0.00  0.00     0.002 A 
ATOM      4  C4  N4B d   1      -4.060  -2.133  -5.553  0.00  0.00    -0.004 A 
ATOM      5  C5  N4B d   1      -5.310  -1.813  -5.998  0.00  0.00     0.002 A 
ATOM      6  C6  N4B d   1      -5.851  -0.565  -5.761  0.00  0.00     0.002 A 
ENDROOT
BRANCH   1   7
ATOM      7  C1' N4B d   1      -5.782   1.690  -4.758  0.00  0.00     0.057 C 
BRANCH   7   8
ATOM      8  C2' N4B d   1      -5.253   2.757  -5.712  0.00  0.00     0.009 C 
BRANCH   8   9
ATOM      9  C3' N4B d   1      -4.232   3.662  -5.043  0.00  0.00     0.004 C 
ATOM     10  C4' N4B d   1      -3.180   4.152  -5.992  0.00  0.00     0.003 C 
ENDBRANCH   8   9
ENDBRANCH   7   8
ENDBRANCH   1   7
TORSDOF 3
ENDMDL
