MODEL 1
REMARK minimizedAffinity -4.61789846
REMARK minimizedRMSD -1
REMARK  2 active torsions:
REMARK  status: ('A' for Active; 'I' for Inactive)
REMARK    1  A    between atoms: C1_2  and  C2_3 
REMARK    2  A    between atoms: C2_3  and  C3_4 
ROOT
ATOM      1  C3  UNL d   1      -0.378   0.771   2.205  0.00  0.00    -0.075 A 
ATOM      2  C4  UNL d   1      -0.301   2.171   2.168  0.00  0.00     0.002 A 
ATOM      3  C5  UNL d   1       0.939   2.812   2.151  0.00  0.00     0.002 A 
ATOM      4  C6  UNL d   1       2.113   2.064   2.180  0.00  0.00    -0.004 A 
ATOM      5  C7  UNL d   1       2.049   0.673   2.233  0.00  0.00     0.002 A 
ATOM      6  C8  UNL d   1       0.810   0.029   2.246  0.00  0.00     0.002 A 
ENDROOT
BRANCH   1   7
ATOM      7  C2  UNL d   1      -1.716   0.071   2.194  0.00  0.00     0.056 C 
BRANCH   7   8
ATOM      8  C1  UNL d   1      -2.361  -0.021   0.807  0.00  0.00     0.007 C 
ATOM      9  C   UNL d   1      -1.345  -0.153  -0.319  0.00  0.00     0.009 C 
ENDBRANCH   7   8
ENDBRANCH   1   7
TORSDOF 2
ENDMDL
