MODEL 1
REMARK minimizedAffinity -0.741502166
REMARK minimizedRMSD -1
REMARK  2 active torsions:
REMARK  status: ('A' for Active; 'I' for Inactive)
REMARK    1  A    between atoms: C1_2  and  C2_3 
REMARK    2  A    between atoms: C2_3  and  C3_4 
ROOT
ATOM      1  C3  UNL d   1       1.276   2.841   0.395  0.00  0.00    -0.075 A 
ATOM      2  C4  UNL d   1       0.066   2.147   0.548  0.00  0.00     0.002 A 
ATOM      3  C5  UNL d   1       0.024   0.759   0.414  0.00  0.00     0.002 A 
ATOM      4  C6  UNL d   1       1.184   0.050   0.114  0.00  0.00    -0.004 A 
ATOM      5  C7  UNL d   1       2.388   0.730  -0.057  0.00  0.00     0.002 A 
ATOM      6  C8  UNL d   1       2.435   2.118   0.082  0.00  0.00     0.002 A 
ENDROOT
BRANCH   1   7
ATOM      7  C2  UNL d   1       1.335   4.340   0.569  0.00  0.00     0.056 C 
BRANCH   7   8
ATOM      8  C1  UNL d   1       2.691   4.858   1.056  0.00  0.00     0.007 C 
ATOM      9  C   UNL d   1       3.239   5.997   0.207  0.00  0.00     0.009 C 
ENDBRANCH   7   8
ENDBRANCH   1   7
TORSDOF 2
ENDMDL
