MODEL 1
REMARK minimizedAffinity -1.74772584
REMARK minimizedRMSD -1
REMARK  2 active torsions:
REMARK  status: ('A' for Active; 'I' for Inactive)
REMARK    1  A    between atoms: C1_2  and  C2_3 
REMARK    2  A    between atoms: C2_3  and  C3_4 
ROOT
ATOM      1  C3  UNL d   1       0.373  -0.216   0.554  0.00  0.00    -0.075 A 
ATOM      2  C4  UNL d   1      -0.257   0.584   1.518  0.00  0.00     0.002 A 
ATOM      3  C5  UNL d   1      -1.639   0.774   1.487  0.00  0.00     0.002 A 
ATOM      4  C6  UNL d   1      -2.405   0.176   0.489  0.00  0.00    -0.004 A 
ATOM      5  C7  UNL d   1      -1.788  -0.608  -0.483  0.00  0.00     0.002 A 
ATOM      6  C8  UNL d   1      -0.406  -0.803  -0.452  0.00  0.00     0.002 A 
ENDROOT
BRANCH   1   7
ATOM      7  C2  UNL d   1       1.864  -0.449   0.599  0.00  0.00     0.056 C 
BRANCH   7   8
ATOM      8  C1  UNL d   1       2.700   0.826   0.451  0.00  0.00     0.007 C 
ATOM      9  C   UNL d   1       2.811   1.308  -0.990  0.00  0.00     0.009 C 
ENDBRANCH   7   8
ENDBRANCH   1   7
TORSDOF 2
ENDMDL
