MODEL 1
REMARK minimizedAffinity -2.67205286
REMARK minimizedRMSD -1
REMARK  2 active torsions:
REMARK  status: ('A' for Active; 'I' for Inactive)
REMARK    1  A    between atoms: C1_2  and  C2_3 
REMARK    2  A    between atoms: C2_3  and  C3_4 
ROOT
ATOM      1  C3  UNL d   1       0.360  -0.134  -0.534  0.00  0.00    -0.075 A 
ATOM      2  C4  UNL d   1      -0.700   0.183   0.328  0.00  0.00     0.002 A 
ATOM      3  C5  UNL d   1      -0.511   0.190   1.710  0.00  0.00     0.002 A 
ATOM      4  C6  UNL d   1       0.735  -0.127   2.247  0.00  0.00    -0.004 A 
ATOM      5  C7  UNL d   1       1.791  -0.459   1.401  0.00  0.00     0.002 A 
ATOM      6  C8  UNL d   1       1.605  -0.463   0.017  0.00  0.00     0.002 A 
ENDROOT
BRANCH   1   7
ATOM      7  C2  UNL d   1       0.169  -0.115  -2.032  0.00  0.00     0.056 C 
BRANCH   7   8
ATOM      8  C1  UNL d   1       1.185   0.754  -2.780  0.00  0.00     0.007 C 
ATOM      9  C   UNL d   1       0.767   1.072  -4.209  0.00  0.00     0.009 C 
ENDBRANCH   7   8
ENDBRANCH   1   7
TORSDOF 2
ENDMDL
