MODEL 1
REMARK minimizedAffinity -5.89275265
REMARK minimizedRMSD -1
REMARK  2 active torsions:
REMARK  status: ('A' for Active; 'I' for Inactive)
REMARK    1  A    between atoms: C1_2  and  C2_3 
REMARK    2  A    between atoms: C2_3  and  C3_4 
ROOT
ATOM      1  C3  UNL d   1       0.417  -0.055   0.115  0.00  0.00    -0.075 A 
ATOM      2  C4  UNL d   1       1.552   0.085   0.928  0.00  0.00     0.002 A 
ATOM      3  C5  UNL d   1       1.420   0.399   2.281  0.00  0.00     0.002 A 
ATOM      4  C6  UNL d   1       0.155   0.588   2.835  0.00  0.00    -0.004 A 
ATOM      5  C7  UNL d   1      -0.978   0.468   2.033  0.00  0.00     0.002 A 
ATOM      6  C8  UNL d   1      -0.849   0.149   0.680  0.00  0.00     0.002 A 
ENDROOT
BRANCH   1   7
ATOM      7  C2  UNL d   1       0.552  -0.425  -1.343  0.00  0.00     0.056 C 
BRANCH   7   8
ATOM      8  C1  UNL d   1       1.798   0.156  -2.021  0.00  0.00     0.007 C 
ATOM      9  C   UNL d   1       1.616   0.383  -3.515  0.00  0.00     0.009 C 
ENDBRANCH   7   8
ENDBRANCH   1   7
TORSDOF 2
ENDMDL
