MODEL 1
REMARK minimizedAffinity -6.35194445
REMARK minimizedRMSD -1
REMARK  2 active torsions:
REMARK  status: ('A' for Active; 'I' for Inactive)
REMARK    1  A    between atoms: C1_2  and  C2_3 
REMARK    2  A    between atoms: C2_3  and  C3_4 
ROOT
ATOM      1  C3  UNL d   1       1.054  -0.019   0.326  0.00  0.00    -0.075 A 
ATOM      2  C4  UNL d   1       2.166  -0.153   1.170  0.00  0.00     0.002 A 
ATOM      3  C5  UNL d   1       2.093   0.246   2.505  0.00  0.00     0.002 A 
ATOM      4  C6  UNL d   1       0.915   0.793   3.009  0.00  0.00    -0.004 A 
ATOM      5  C7  UNL d   1      -0.190   0.946   2.174  0.00  0.00     0.002 A 
ATOM      6  C8  UNL d   1      -0.122   0.543   0.839  0.00  0.00     0.002 A 
ENDROOT
BRANCH   1   7
ATOM      7  C2  UNL d   1       1.117  -0.477  -1.112  0.00  0.00     0.056 C 
BRANCH   7   8
ATOM      8  C1  UNL d   1       2.268   0.141  -1.914  0.00  0.00     0.007 C 
ATOM      9  C   UNL d   1       1.943   0.319  -3.391  0.00  0.00     0.009 C 
ENDBRANCH   7   8
ENDBRANCH   1   7
TORSDOF 2
ENDMDL
