MODEL 1
REMARK minimizedAffinity -3.4295454
REMARK minimizedRMSD -1
REMARK  2 active torsions:
REMARK  status: ('A' for Active; 'I' for Inactive)
REMARK    1  A    between atoms: C1_2  and  C2_3 
REMARK    2  A    between atoms: C2_3  and  C3_4 
ROOT
ATOM      1  C3  UNL d   1       1.004  -0.285  -1.842  0.00  0.00    -0.075 A 
ATOM      2  C4  UNL d   1       2.001  -1.057  -1.228  0.00  0.00     0.002 A 
ATOM      3  C5  UNL d   1       2.006  -1.237   0.156  0.00  0.00     0.002 A 
ATOM      4  C6  UNL d   1       1.023  -0.640   0.942  0.00  0.00    -0.004 A 
ATOM      5  C7  UNL d   1       0.038   0.143   0.345  0.00  0.00     0.002 A 
ATOM      6  C8  UNL d   1       0.028   0.321  -1.040  0.00  0.00     0.002 A 
ENDROOT
BRANCH   1   7
ATOM      7  C2  UNL d   1       0.976  -0.111  -3.341  0.00  0.00     0.056 C 
BRANCH   7   8
ATOM      8  C1  UNL d   1       1.903   0.993  -3.859  0.00  0.00     0.007 C 
ATOM      9  C   UNL d   1       1.201   2.333  -4.037  0.00  0.00     0.009 C 
ENDBRANCH   7   8
ENDBRANCH   1   7
TORSDOF 2
ENDMDL
