MODEL 1
REMARK minimizedAffinity -3.11009526
REMARK minimizedRMSD -1
REMARK  2 active torsions:
REMARK  status: ('A' for Active; 'I' for Inactive)
REMARK    1  A    between atoms: C1_2  and  C2_3 
REMARK    2  A    between atoms: C2_3  and  C3_4 
ROOT
ATOM      1  C3  UNL d   1       0.101  -0.333  -0.827  0.00  0.00    -0.075 A 
ATOM      2  C4  UNL d   1      -1.097  -0.088  -0.140  0.00  0.00     0.002 A 
ATOM      3  C5  UNL d   1      -1.095   0.099   1.243  0.00  0.00     0.002 A 
ATOM      4  C6  UNL d   1       0.100   0.033   1.956  0.00  0.00    -0.004 A 
ATOM      5  C7  UNL d   1       1.294  -0.226   1.286  0.00  0.00     0.002 A 
ATOM      6  C8  UNL d   1       1.295  -0.409  -0.098  0.00  0.00     0.002 A 
ENDROOT
BRANCH   1   7
ATOM      7  C2  UNL d   1       0.110  -0.507  -2.327  0.00  0.00     0.056 C 
BRANCH   7   8
ATOM      8  C1  UNL d   1       1.008   0.491  -3.065  0.00  0.00     0.007 C 
ATOM      9  C   UNL d   1       0.338   1.115  -4.283  0.00  0.00     0.009 C 
ENDBRANCH   7   8
ENDBRANCH   1   7
TORSDOF 2
ENDMDL
