MODEL 1
REMARK minimizedAffinity -4.15268564
REMARK minimizedRMSD -1
REMARK  2 active torsions:
REMARK  status: ('A' for Active; 'I' for Inactive)
REMARK    1  A    between atoms: C1_2  and  C2_3 
REMARK    2  A    between atoms: C2_3  and  C3_4 
ROOT
ATOM      1  C3  UNL d   1       0.683  -0.385  -1.512  0.00  0.00    -0.075 A 
ATOM      2  C4  UNL d   1       1.844   0.395  -1.617  0.00  0.00     0.002 A 
ATOM      3  C5  UNL d   1       2.235   0.920  -2.849  0.00  0.00     0.002 A 
ATOM      4  C6  UNL d   1       1.478   0.665  -3.990  0.00  0.00    -0.004 A 
ATOM      5  C7  UNL d   1       0.332  -0.122  -3.900  0.00  0.00     0.002 A 
ATOM      6  C8  UNL d   1      -0.064  -0.645  -2.668  0.00  0.00     0.002 A 
ENDROOT
BRANCH   1   7
ATOM      7  C2  UNL d   1       0.238  -0.932  -0.176  0.00  0.00     0.056 C 
BRANCH   7   8
ATOM      8  C1  UNL d   1      -1.225  -0.628   0.166  0.00  0.00     0.007 C 
ATOM      9  C   UNL d   1      -1.382   0.482   1.197  0.00  0.00     0.009 C 
ENDBRANCH   7   8
ENDBRANCH   1   7
TORSDOF 2
ENDMDL
