MODEL 1
REMARK minimizedAffinity -2.77305889
REMARK minimizedRMSD -1
REMARK  2 active torsions:
REMARK  status: ('A' for Active; 'I' for Inactive)
REMARK    1  A    between atoms: C1_2  and  C2_3 
REMARK    2  A    between atoms: C2_3  and  C3_4 
ROOT
ATOM      1  C3  UNL d   1      -0.402  -0.650   3.191  0.00  0.00    -0.075 A 
ATOM      2  C4  UNL d   1       0.372  -0.779   2.029  0.00  0.00     0.002 A 
ATOM      3  C5  UNL d   1      -0.175  -0.489   0.778  0.00  0.00     0.002 A 
ATOM      4  C6  UNL d   1      -1.502  -0.078   0.673  0.00  0.00    -0.004 A 
ATOM      5  C7  UNL d   1      -2.285   0.037   1.820  0.00  0.00     0.002 A 
ATOM      6  C8  UNL d   1      -1.739  -0.248   3.073  0.00  0.00     0.002 A 
ENDROOT
BRANCH   1   7
ATOM      7  C2  UNL d   1       0.193  -0.933   4.550  0.00  0.00     0.056 C 
BRANCH   7   8
ATOM      8  C1  UNL d   1       0.532  -2.409   4.788  0.00  0.00     0.007 C 
ATOM      9  C   UNL d   1       1.764  -2.609   5.659  0.00  0.00     0.009 C 
ENDBRANCH   7   8
ENDBRANCH   1   7
TORSDOF 2
ENDMDL
