MODEL 1
REMARK minimizedAffinity 3.69330454
REMARK minimizedRMSD -1
REMARK  0 active torsions:
REMARK  status: ('A' for Active; 'I' for Inactive)
ROOT
ATOM      1  C4' PXY d   1       1.123  -0.840   0.251  0.00  0.00     0.077 C 
ATOM      2  C1' PXY d   1       2.070   2.455  -4.403  0.00  0.00     0.077 C 
ATOM      3  C1  PXY d   1       1.819   1.602  -3.176  0.00  0.00    -0.082 A 
ATOM      4  C2  PXY d   1       2.417   0.427  -3.062  0.00  0.00     0.003 A 
ATOM      5  C3  PXY d   1       2.176  -0.371  -1.974  0.00  0.00     0.003 A 
ATOM      6  C4  PXY d   1       1.355   0.060  -0.967  0.00  0.00    -0.082 A 
ATOM      7  C5  PXY d   1       0.749   1.262  -1.070  0.00  0.00     0.003 A 
ATOM      8  C6  PXY d   1       0.975   2.039  -2.202  0.00  0.00     0.003 A 
ENDROOT
TORSDOF 0
ENDMDL
