MODEL 1
REMARK minimizedAffinity -3.22955322
REMARK minimizedRMSD -1
REMARK  0 active torsions:
REMARK  status: ('A' for Active; 'I' for Inactive)
ROOT
ATOM      1  C4' PXY d   1       1.910  -0.574   0.656  0.00  0.00     0.077 C 
ATOM      2  C1' PXY d   1       1.009   1.187  -4.775  0.00  0.00     0.077 C 
ATOM      3  C1  PXY d   1       1.234   0.730  -3.347  0.00  0.00    -0.082 A 
ATOM      4  C2  PXY d   1       2.468   0.559  -2.901  0.00  0.00     0.003 A 
ATOM      5  C3  PXY d   1       2.688   0.116  -1.623  0.00  0.00     0.003 A 
ATOM      6  C4  PXY d   1       1.636  -0.105  -0.775  0.00  0.00    -0.082 A 
ATOM      7  C5  PXY d   1       0.374   0.077  -1.219  0.00  0.00     0.003 A 
ATOM      8  C6  PXY d   1       0.171   0.488  -2.533  0.00  0.00     0.003 A 
ENDROOT
TORSDOF 0
ENDMDL
