MODEL 1
REMARK minimizedAffinity 5.5050292
REMARK minimizedRMSD -1
REMARK  0 active torsions:
REMARK  status: ('A' for Active; 'I' for Inactive)
ROOT
ATOM      1  C4' PXY d   1       3.484  -2.647  -4.524  0.00  0.00     0.077 C 
ATOM      2  C1' PXY d   1       2.272   3.004  -4.460  0.00  0.00     0.077 C 
ATOM      3  C1  PXY d   1       2.578   1.520  -4.471  0.00  0.00    -0.082 A 
ATOM      4  C2  PXY d   1       3.835   1.112  -4.550  0.00  0.00     0.003 A 
ATOM      5  C3  PXY d   1       4.128  -0.227  -4.594  0.00  0.00     0.003 A 
ATOM      6  C4  PXY d   1       3.128  -1.158  -4.501  0.00  0.00    -0.082 A 
ATOM      7  C5  PXY d   1       1.845  -0.750  -4.408  0.00  0.00     0.003 A 
ATOM      8  C6  PXY d   1       1.565   0.614  -4.407  0.00  0.00     0.003 A 
ENDROOT
TORSDOF 0
ENDMDL
