MODEL 1
REMARK minimizedAffinity 6.3356719
REMARK minimizedRMSD -1
REMARK  0 active torsions:
REMARK  status: ('A' for Active; 'I' for Inactive)
ROOT
ATOM      1  C4' PXY d   1       1.419   1.849   2.438  0.00  0.00     0.077 C 
ATOM      2  C1' PXY d   1      -1.735  -2.152   5.169  0.00  0.00     0.077 C 
ATOM      3  C1  PXY d   1      -0.899  -1.112   4.449  0.00  0.00    -0.082 A 
ATOM      4  C2  PXY d   1      -0.996   0.161   4.798  0.00  0.00     0.003 A 
ATOM      5  C3  PXY d   1      -0.271   1.118   4.137  0.00  0.00     0.003 A 
ATOM      6  C4  PXY d   1       0.601   0.763   3.143  0.00  0.00    -0.082 A 
ATOM      7  C5  PXY d   1       0.713  -0.534   2.788  0.00  0.00     0.003 A 
ATOM      8  C6  PXY d   1      -0.062  -1.486   3.445  0.00  0.00     0.003 A 
ENDROOT
TORSDOF 0
ENDMDL
