MODEL 1
REMARK minimizedAffinity 1.63269114
REMARK minimizedRMSD -1
REMARK  0 active torsions:
REMARK  status: ('A' for Active; 'I' for Inactive)
ROOT
ATOM      1  C4' PXY d   1       2.996   1.717   3.431  0.00  0.00     0.077 C 
ATOM      2  C1' PXY d   1      -0.076  -1.123  -0.558  0.00  0.00     0.077 C 
ATOM      3  C1  PXY d   1       0.740  -0.378   0.480  0.00  0.00    -0.082 A 
ATOM      4  C2  PXY d   1       0.429  -0.491   1.761  0.00  0.00     0.003 A 
ATOM      5  C3  PXY d   1       1.136   0.201   2.711  0.00  0.00     0.003 A 
ATOM      6  C4  PXY d   1       2.206   0.975   2.350  0.00  0.00    -0.082 A 
ATOM      7  C5  PXY d   1       2.537   1.087   1.045  0.00  0.00     0.003 A 
ATOM      8  C6  PXY d   1       1.780   0.409   0.094  0.00  0.00     0.003 A 
ENDROOT
TORSDOF 0
ENDMDL
