MODEL 1
REMARK minimizedAffinity 1.86664093
REMARK minimizedRMSD -1
REMARK  0 active torsions:
REMARK  status: ('A' for Active; 'I' for Inactive)
ROOT
ATOM      1  C4' PXY d   1       5.730  -3.025  -3.518  0.00  0.00     0.077 C 
ATOM      2  C1' PXY d   1       3.327   2.229  -3.328  0.00  0.00     0.077 C 
ATOM      3  C1  PXY d   1       3.951   0.848  -3.367  0.00  0.00    -0.082 A 
ATOM      4  C2  PXY d   1       5.090   0.663  -4.015  0.00  0.00     0.003 A 
ATOM      5  C3  PXY d   1       5.651  -0.586  -4.087  0.00  0.00     0.003 A 
ATOM      6  C4  PXY d   1       5.069  -1.646  -3.445  0.00  0.00    -0.082 A 
ATOM      7  C5  PXY d   1       3.913  -1.463  -2.772  0.00  0.00     0.003 A 
ATOM      8  C6  PXY d   1       3.337  -0.196  -2.746  0.00  0.00     0.003 A 
ENDROOT
TORSDOF 0
ENDMDL
