MODEL 1
REMARK minimizedAffinity 14.9033241
REMARK minimizedRMSD -1
REMARK  0 active torsions:
REMARK  status: ('A' for Active; 'I' for Inactive)
ROOT
ATOM      1  C4' PXY d   1       2.609   1.956  -6.000  0.00  0.00     0.077 C 
ATOM      2  C1' PXY d   1       3.393  -0.887  -1.028  0.00  0.00     0.077 C 
ATOM      3  C1  PXY d   1       3.190  -0.130  -2.326  0.00  0.00    -0.082 A 
ATOM      4  C2  PXY d   1       2.409  -0.639  -3.264  0.00  0.00     0.003 A 
ATOM      5  C3  PXY d   1       2.240   0.017  -4.457  0.00  0.00     0.003 A 
ATOM      6  C4  PXY d   1       2.835   1.231  -4.670  0.00  0.00    -0.082 A 
ATOM      7  C5  PXY d   1       3.625   1.762  -3.713  0.00  0.00     0.003 A 
ATOM      8  C6  PXY d   1       3.816   1.061  -2.525  0.00  0.00     0.003 A 
ENDROOT
TORSDOF 0
ENDMDL
