MODEL 1
REMARK minimizedAffinity 7.94807434
REMARK minimizedRMSD -1
REMARK  0 active torsions:
REMARK  status: ('A' for Active; 'I' for Inactive)
ROOT
ATOM      1  C4' PXY d   1      -3.251  -3.985  -5.244  0.00  0.00     0.077 C 
ATOM      2  C1' PXY d   1       2.119  -5.784  -4.088  0.00  0.00     0.077 C 
ATOM      3  C1  PXY d   1       0.716  -5.301  -4.395  0.00  0.00    -0.082 A 
ATOM      4  C2  PXY d   1      -0.314  -5.834  -3.758  0.00  0.00     0.003 A 
ATOM      5  C3  PXY d   1      -1.592  -5.431  -4.046  0.00  0.00     0.003 A 
ATOM      6  C4  PXY d   1      -1.816  -4.436  -4.959  0.00  0.00    -0.082 A 
ATOM      7  C5  PXY d   1      -0.770  -3.879  -5.606  0.00  0.00     0.003 A 
ATOM      8  C6  PXY d   1       0.517  -4.331  -5.328  0.00  0.00     0.003 A 
ENDROOT
TORSDOF 0
ENDMDL
