MODEL 1
REMARK minimizedAffinity -2.54483533
REMARK minimizedRMSD -1
REMARK  0 active torsions:
REMARK  status: ('A' for Active; 'I' for Inactive)
ROOT
ATOM      1  N1  IND d   1       0.963   0.625   0.431  0.00  0.00    -0.196 N 
ATOM      2  C2  IND d   1      -0.344   0.527   0.819  0.00  0.00     0.054 A 
ATOM      3  C3  IND d   1      -1.115   0.134  -0.219  0.00  0.00    -0.031 A 
ATOM      4  C4  IND d   1      -0.428  -0.502  -2.617  0.00  0.00     0.051 A 
ATOM      5  C5  IND d   1       0.651  -0.535  -3.456  0.00  0.00    -0.031 A 
ATOM      6  C6  IND d   1       1.915  -0.179  -3.033  0.00  0.00     0.015 A 
ATOM      7  C7  IND d   1       2.150   0.215  -1.746  0.00  0.00    -0.016 A 
ATOM      8  C8  IND d   1       1.056   0.256  -0.893  0.00  0.00    -0.047 A 
ATOM      9  C9  IND d   1      -0.237  -0.063  -1.329  0.00  0.00    -0.096 A 
ATOM     10  HN1 IND d   1       1.618   0.874   0.930  0.00  0.00     0.298 HD
ENDROOT
TORSDOF 0
ENDMDL
