MODEL 1
REMARK minimizedAffinity 7.82264233
REMARK minimizedRMSD -1
REMARK  0 active torsions:
REMARK  status: ('A' for Active; 'I' for Inactive)
ROOT
ATOM      1  N1  IND d   1       1.290   1.061   0.209  0.00  0.00    -0.196 N 
ATOM      2  C2  IND d   1       1.732   2.281  -0.221  0.00  0.00     0.054 A 
ATOM      3  C3  IND d   1       1.905   2.273  -1.562  0.00  0.00    -0.031 A 
ATOM      4  C4  IND d   1       1.427   0.399  -3.261  0.00  0.00     0.051 A 
ATOM      5  C5  IND d   1       1.047  -0.911  -3.342  0.00  0.00    -0.031 A 
ATOM      6  C6  IND d   1       0.719  -1.645  -2.220  0.00  0.00     0.015 A 
ATOM      7  C7  IND d   1       0.748  -1.090  -0.972  0.00  0.00    -0.016 A 
ATOM      8  C8  IND d   1       1.141   0.238  -0.886  0.00  0.00    -0.047 A 
ATOM      9  C9  IND d   1       1.516   0.976  -2.016  0.00  0.00    -0.096 A 
ATOM     10  HN1 IND d   1       1.131   0.843   1.026  0.00  0.00     0.298 HD
ENDROOT
TORSDOF 0
ENDMDL
