MODEL 1
REMARK minimizedAffinity -3.1957674
REMARK minimizedRMSD -1
REMARK  0 active torsions:
REMARK  status: ('A' for Active; 'I' for Inactive)
ROOT
ATOM      1  N1  IND d   1       2.118   1.236  -1.992  0.00  0.00    -0.196 N 
ATOM      2  C2  IND d   1       1.892   0.364  -3.020  0.00  0.00     0.054 A 
ATOM      3  C3  IND d   1       0.980  -0.566  -2.657  0.00  0.00    -0.031 A 
ATOM      4  C4  IND d   1      -0.346  -0.786  -0.461  0.00  0.00     0.051 A 
ATOM      5  C5  IND d   1      -0.457  -0.245   0.789  0.00  0.00    -0.031 A 
ATOM      6  C6  IND d   1       0.298   0.842   1.183  0.00  0.00     0.015 A 
ATOM      7  C7  IND d   1       1.187   1.436   0.334  0.00  0.00    -0.016 A 
ATOM      8  C8  IND d   1       1.308   0.885  -0.934  0.00  0.00    -0.047 A 
ATOM      9  C9  IND d   1       0.576  -0.243  -1.325  0.00  0.00    -0.096 A 
ATOM     10  HN1 IND d   1       2.672   1.893  -2.004  0.00  0.00     0.298 HD
ENDROOT
TORSDOF 0
ENDMDL
