MODEL 1
REMARK minimizedAffinity -4.40386629
REMARK minimizedRMSD -1
REMARK  0 active torsions:
REMARK  status: ('A' for Active; 'I' for Inactive)
ROOT
ATOM      1  N1  IND d   1      -0.778  -1.220  -0.392  0.00  0.00    -0.196 N 
ATOM      2  C2  IND d   1      -1.301  -0.436   0.598  0.00  0.00     0.054 A 
ATOM      3  C3  IND d   1      -0.698   0.774   0.608  0.00  0.00    -0.031 A 
ATOM      4  C4  IND d   1       1.100   1.719  -0.974  0.00  0.00     0.051 A 
ATOM      5  C5  IND d   1       1.916   1.364  -2.012  0.00  0.00    -0.031 A 
ATOM      6  C6  IND d   1       1.873   0.105  -2.575  0.00  0.00     0.015 A 
ATOM      7  C7  IND d   1       1.000  -0.846  -2.128  0.00  0.00    -0.016 A 
ATOM      8  C8  IND d   1       0.175  -0.492  -1.070  0.00  0.00    -0.047 A 
ATOM      9  C9  IND d   1       0.244   0.770  -0.466  0.00  0.00    -0.096 A 
ATOM     10  HN1 IND d   1      -1.006  -2.031  -0.563  0.00  0.00     0.298 HD
ENDROOT
TORSDOF 0
ENDMDL
