MODEL 1
REMARK minimizedAffinity -2.3950007
REMARK minimizedRMSD -1
REMARK  0 active torsions:
REMARK  status: ('A' for Active; 'I' for Inactive)
ROOT
ATOM      1  N1  IND d   1       0.904   1.239   0.587  0.00  0.00    -0.196 N 
ATOM      2  C2  IND d   1      -0.036   0.531   1.283  0.00  0.00     0.054 A 
ATOM      3  C3  IND d   1      -0.603  -0.405   0.489  0.00  0.00    -0.031 A 
ATOM      4  C4  IND d   1      -0.071  -1.018  -1.953  0.00  0.00     0.051 A 
ATOM      5  C5  IND d   1       0.687  -0.627  -3.022  0.00  0.00    -0.031 A 
ATOM      6  C6  IND d   1       1.575   0.426  -2.940  0.00  0.00     0.015 A 
ATOM      7  C7  IND d   1       1.748   1.122  -1.777  0.00  0.00    -0.016 A 
ATOM      8  C8  IND d   1       0.976   0.732  -0.692  0.00  0.00    -0.047 A 
ATOM      9  C9  IND d   1       0.042  -0.308  -0.782  0.00  0.00    -0.096 A 
ATOM     10  HN1 IND d   1       1.372   1.891   0.896  0.00  0.00     0.298 HD
ENDROOT
TORSDOF 0
ENDMDL
