MODEL 1
REMARK minimizedAffinity -4.89881945
REMARK minimizedRMSD -1
REMARK  0 active torsions:
REMARK  status: ('A' for Active; 'I' for Inactive)
ROOT
ATOM      1  N1  IND d   1      -0.329  -0.756   0.959  0.00  0.00    -0.196 N 
ATOM      2  C2  IND d   1      -0.278  -2.099   0.706  0.00  0.00     0.054 A 
ATOM      3  C3  IND d   1       0.256  -2.327  -0.515  0.00  0.00    -0.031 A 
ATOM      4  C4  IND d   1       1.208  -0.653  -2.223  0.00  0.00     0.051 A 
ATOM      5  C5  IND d   1       1.349   0.687  -2.455  0.00  0.00    -0.031 A 
ATOM      6  C6  IND d   1       0.932   1.633  -1.541  0.00  0.00     0.015 A 
ATOM      7  C7  IND d   1       0.366   1.272  -0.351  0.00  0.00    -0.016 A 
ATOM      8  C8  IND d   1       0.215  -0.087  -0.115  0.00  0.00    -0.047 A 
ATOM      9  C9  IND d   1       0.597  -1.050  -1.057  0.00  0.00    -0.096 A 
ATOM     10  HN1 IND d   1      -0.647  -0.391   1.670  0.00  0.00     0.298 HD
ENDROOT
TORSDOF 0
ENDMDL
