MODEL 1
REMARK minimizedAffinity -3.08955097
REMARK minimizedRMSD -1
REMARK  0 active torsions:
REMARK  status: ('A' for Active; 'I' for Inactive)
ROOT
ATOM      1  N1  IND d   1       0.437   1.115  -1.198  0.00  0.00    -0.196 N 
ATOM      2  C2  IND d   1       0.980   0.684  -2.376  0.00  0.00     0.054 A 
ATOM      3  C3  IND d   1       1.121  -0.660  -2.365  0.00  0.00    -0.031 A 
ATOM      4  C4  IND d   1       0.432  -2.362  -0.560  0.00  0.00     0.051 A 
ATOM      5  C5  IND d   1      -0.069  -2.443   0.709  0.00  0.00    -0.031 A 
ATOM      6  C6  IND d   1      -0.438  -1.319   1.421  0.00  0.00     0.015 A 
ATOM      7  C7  IND d   1      -0.328  -0.068   0.883  0.00  0.00    -0.016 A 
ATOM      8  C8  IND d   1       0.187   0.018  -0.403  0.00  0.00    -0.047 A 
ATOM      9  C9  IND d   1       0.603  -1.115  -1.113  0.00  0.00    -0.096 A 
ATOM     10  HN1 IND d   1       0.278   1.934  -0.988  0.00  0.00     0.298 HD
ENDROOT
TORSDOF 0
ENDMDL
