MODEL 1
REMARK minimizedAffinity -2.07649636
REMARK minimizedRMSD -1
REMARK  0 active torsions:
REMARK  status: ('A' for Active; 'I' for Inactive)
ROOT
ATOM      1  N1  IND d   1      -0.731  -1.267   0.258  0.00  0.00    -0.196 N 
ATOM      2  C2  IND d   1      -0.942  -0.342   1.241  0.00  0.00     0.054 A 
ATOM      3  C3  IND d   1      -0.319   0.819   0.936  0.00  0.00    -0.031 A 
ATOM      4  C4  IND d   1       1.016   1.454  -1.172  0.00  0.00     0.051 A 
ATOM      5  C5  IND d   1       1.510   0.928  -2.332  0.00  0.00    -0.031 A 
ATOM      6  C6  IND d   1       1.276  -0.382  -2.698  0.00  0.00     0.015 A 
ATOM      7  C7  IND d   1       0.525  -1.215  -1.918  0.00  0.00    -0.016 A 
ATOM      8  C8  IND d   1       0.028  -0.687  -0.735  0.00  0.00    -0.047 A 
ATOM      9  C9  IND d   1       0.298   0.629  -0.338  0.00  0.00    -0.096 A 
ATOM     10  HN1 IND d   1      -1.023  -2.076   0.259  0.00  0.00     0.298 HD
ENDROOT
TORSDOF 0
ENDMDL
