MODEL 1
REMARK minimizedAffinity -3.78871822
REMARK minimizedRMSD -1
REMARK  0 active torsions:
REMARK  status: ('A' for Active; 'I' for Inactive)
ROOT
ATOM      1  N1  IND d   1       0.142  -2.289  -0.029  0.00  0.00    -0.196 N 
ATOM      2  C2  IND d   1      -0.326  -2.066   1.236  0.00  0.00     0.054 A 
ATOM      3  C3  IND d   1      -0.202  -0.759   1.559  0.00  0.00    -0.031 A 
ATOM      4  C4  IND d   1       0.647   1.206   0.129  0.00  0.00     0.051 A 
ATOM      5  C5  IND d   1       1.216   1.491  -1.080  0.00  0.00    -0.031 A 
ATOM      6  C6  IND d   1       1.458   0.512  -2.021  0.00  0.00     0.015 A 
ATOM      7  C7  IND d   1       1.128  -0.794  -1.791  0.00  0.00    -0.016 A 
ATOM      8  C8  IND d   1       0.557  -1.088  -0.561  0.00  0.00    -0.047 A 
ATOM      9  C9  IND d   1       0.348  -0.105   0.414  0.00  0.00    -0.096 A 
ATOM     10  HN1 IND d   1       0.171  -3.052  -0.425  0.00  0.00     0.298 HD
ENDROOT
TORSDOF 0
ENDMDL
