MODEL 1
REMARK minimizedAffinity -1.9043442
REMARK minimizedRMSD -1
REMARK  0 active torsions:
REMARK  status: ('A' for Active; 'I' for Inactive)
ROOT
ATOM      1  N1  IND d   1      -3.081  -0.405   1.936  0.00  0.00    -0.196 N 
ATOM      2  C2  IND d   1      -4.204  -0.143   1.201  0.00  0.00     0.054 A 
ATOM      3  C3  IND d   1      -4.706   1.069   1.526  0.00  0.00    -0.031 A 
ATOM      4  C4  IND d   1      -3.789   2.835   3.159  0.00  0.00     0.051 A 
ATOM      5  C5  IND d   1      -2.807   3.036   4.088  0.00  0.00    -0.031 A 
ATOM      6  C6  IND d   1      -1.845   2.082   4.351  0.00  0.00     0.015 A 
ATOM      7  C7  IND d   1      -1.823   0.891   3.683  0.00  0.00    -0.016 A 
ATOM      8  C8  IND d   1      -2.822   0.680   2.744  0.00  0.00    -0.047 A 
ATOM      9  C9  IND d   1      -3.826   1.627   2.503  0.00  0.00    -0.096 A 
ATOM     10  HN1 IND d   1      -2.614  -1.127   1.899  0.00  0.00     0.298 HD
ENDROOT
TORSDOF 0
ENDMDL
