MODEL 1
REMARK minimizedAffinity 3.81912327
REMARK minimizedRMSD -1
REMARK  0 active torsions:
REMARK  status: ('A' for Active; 'I' for Inactive)
ROOT
ATOM      1  N1  IND d   1       1.855  -0.282  -1.549  0.00  0.00    -0.196 N 
ATOM      2  C2  IND d   1       1.968   1.080  -1.521  0.00  0.00     0.054 A 
ATOM      3  C3  IND d   1       1.126   1.603  -0.602  0.00  0.00    -0.031 A 
ATOM      4  C4  IND d   1      -0.453   0.405   1.039  0.00  0.00     0.051 A 
ATOM      5  C5  IND d   1      -0.930  -0.834   1.366  0.00  0.00    -0.031 A 
ATOM      6  C6  IND d   1      -0.491  -1.976   0.726  0.00  0.00     0.015 A 
ATOM      7  C7  IND d   1       0.453  -1.922  -0.260  0.00  0.00    -0.016 A 
ATOM      8  C8  IND d   1       0.933  -0.665  -0.599  0.00  0.00    -0.047 A 
ATOM      9  C9  IND d   1       0.461   0.501   0.017  0.00  0.00    -0.096 A 
ATOM     10  HN1 IND d   1       2.287  -0.811  -2.071  0.00  0.00     0.298 HD
ENDROOT
TORSDOF 0
ENDMDL
