MODEL 1
REMARK minimizedAffinity -0.938400149
REMARK minimizedRMSD -1
REMARK  0 active torsions:
REMARK  status: ('A' for Active; 'I' for Inactive)
ROOT
ATOM      1  N1  IND d   1      -2.160   1.045  -5.984  0.00  0.00    -0.196 N 
ATOM      2  C2  IND d   1      -1.430   2.201  -5.977  0.00  0.00     0.054 A 
ATOM      3  C3  IND d   1      -2.250   3.275  -5.989  0.00  0.00    -0.031 A 
ATOM      4  C4  IND d   1      -4.822   3.371  -5.919  0.00  0.00     0.051 A 
ATOM      5  C5  IND d   1      -5.931   2.573  -5.955  0.00  0.00    -0.031 A 
ATOM      6  C6  IND d   1      -5.838   1.197  -6.000  0.00  0.00     0.015 A 
ATOM      7  C7  IND d   1      -4.627   0.565  -6.000  0.00  0.00    -0.016 A 
ATOM      8  C8  IND d   1      -3.498   1.372  -5.971  0.00  0.00    -0.047 A 
ATOM      9  C9  IND d   1      -3.586   2.770  -5.969  0.00  0.00    -0.096 A 
ATOM     10  HN1 IND d   1      -1.838   0.248  -5.996  0.00  0.00     0.298 HD
ENDROOT
TORSDOF 0
ENDMDL
