MODEL 1
REMARK minimizedAffinity -5.34850931
REMARK minimizedRMSD -1
REMARK  0 active torsions:
REMARK  status: ('A' for Active; 'I' for Inactive)
ROOT
ATOM      1  N1  IND d   1       1.534  -1.046  -2.811  0.00  0.00    -0.196 N 
ATOM      2  C2  IND d   1       2.357  -0.048  -3.254  0.00  0.00     0.054 A 
ATOM      3  C3  IND d   1       2.267   1.030  -2.444  0.00  0.00    -0.031 A 
ATOM      4  C4  IND d   1       0.912   1.340  -0.277  0.00  0.00     0.051 A 
ATOM      5  C5  IND d   1      -0.017   0.720   0.511  0.00  0.00    -0.031 A 
ATOM      6  C6  IND d   1      -0.484  -0.547   0.227  0.00  0.00     0.015 A 
ATOM      7  C7  IND d   1      -0.029  -1.249  -0.853  0.00  0.00    -0.016 A 
ATOM      8  C8  IND d   1       0.909  -0.619  -1.659  0.00  0.00    -0.047 A 
ATOM      9  C9  IND d   1       1.356   0.683  -1.400  0.00  0.00    -0.096 A 
ATOM     10  HN1 IND d   1       1.424  -1.811  -3.187  0.00  0.00     0.298 HD
ENDROOT
TORSDOF 0
ENDMDL
