MODEL 1
REMARK minimizedAffinity -2.71385765
REMARK minimizedRMSD -1
REMARK  0 active torsions:
REMARK  status: ('A' for Active; 'I' for Inactive)
ROOT
ATOM      1  O1  BZF d   1       3.350   0.214  -1.206  0.00  0.00    -0.204 OA
ATOM      2  C2  BZF d   1       3.958  -1.001  -1.457  0.00  0.00     0.174 A 
ATOM      3  C3  BZF d   1       3.386  -1.982  -0.729  0.00  0.00    -0.012 A 
ATOM      4  C3A BZF d   1       2.296  -1.356  -0.045  0.00  0.00    -0.107 A 
ATOM      5  C4  BZF d   1       1.342  -1.813   0.818  0.00  0.00     0.055 A 
ATOM      6  C5  BZF d   1       0.466  -0.929   1.364  0.00  0.00    -0.016 A 
ATOM      7  C6  BZF d   1       0.519   0.418   1.073  0.00  0.00     0.022 A 
ATOM      8  C7  BZF d   1       1.444   0.919   0.219  0.00  0.00     0.029 A 
ATOM      9  C7A BZF d   1       2.310   0.023  -0.360  0.00  0.00     0.058 A 
ENDROOT
TORSDOF 0
ENDMDL
