MODEL 1
REMARK minimizedAffinity -2.39582682
REMARK minimizedRMSD -1
REMARK  0 active torsions:
REMARK  status: ('A' for Active; 'I' for Inactive)
ROOT
ATOM      1  O1  BZF d   1       3.054  -1.786  -1.359  0.00  0.00    -0.204 OA
ATOM      2  C2  BZF d   1       3.970  -0.799  -1.667  0.00  0.00     0.174 A 
ATOM      3  C3  BZF d   1       3.651   0.358  -1.051  0.00  0.00    -0.012 A 
ATOM      4  C3A BZF d   1       2.514   0.051  -0.240  0.00  0.00    -0.107 A 
ATOM      5  C4  BZF d   1       1.748   0.786   0.620  0.00  0.00     0.055 A 
ATOM      6  C5  BZF d   1       0.664   0.207   1.199  0.00  0.00    -0.016 A 
ATOM      7  C6  BZF d   1       0.313  -1.102   0.937  0.00  0.00     0.022 A 
ATOM      8  C7  BZF d   1       1.045  -1.872   0.096  0.00  0.00     0.029 A 
ATOM      9  C7A BZF d   1       2.160  -1.299  -0.465  0.00  0.00     0.058 A 
ENDROOT
TORSDOF 0
ENDMDL
