MODEL 1
REMARK minimizedAffinity -3.68664169
REMARK minimizedRMSD -1
REMARK  0 active torsions:
REMARK  status: ('A' for Active; 'I' for Inactive)
ROOT
ATOM      1  O1  BZF d   1       1.651  -1.334   1.024  0.00  0.00    -0.204 OA
ATOM      2  C2  BZF d   1       0.779  -0.271   1.159  0.00  0.00     0.174 A 
ATOM      3  C3  BZF d   1       1.064   0.698   0.266  0.00  0.00    -0.012 A 
ATOM      4  C3A BZF d   1       2.126   0.171  -0.536  0.00  0.00    -0.107 A 
ATOM      5  C4  BZF d   1       2.829   0.658  -1.600  0.00  0.00     0.055 A 
ATOM      6  C5  BZF d   1       3.853  -0.078  -2.107  0.00  0.00    -0.016 A 
ATOM      7  C6  BZF d   1       4.203  -1.300  -1.572  0.00  0.00     0.022 A 
ATOM      8  C7  BZF d   1       3.532  -1.827  -0.519  0.00  0.00     0.029 A 
ATOM      9  C7A BZF d   1       2.476  -1.101  -0.025  0.00  0.00     0.058 A 
ENDROOT
TORSDOF 0
ENDMDL
