MODEL 1
REMARK minimizedAffinity -0.727625012
REMARK minimizedRMSD -1
REMARK  0 active torsions:
REMARK  status: ('A' for Active; 'I' for Inactive)
ROOT
ATOM      1  O1  BZF d   1       4.223   0.866  -2.045  0.00  0.00    -0.204 OA
ATOM      2  C2  BZF d   1       5.070  -0.170  -2.389  0.00  0.00     0.174 A 
ATOM      3  C3  BZF d   1       4.702  -1.313  -1.776  0.00  0.00    -0.012 A 
ATOM      4  C3A BZF d   1       3.498  -0.992  -1.073  0.00  0.00    -0.107 A 
ATOM      5  C4  BZF d   1       2.646  -1.717  -0.289  0.00  0.00     0.055 A 
ATOM      6  C5  BZF d   1       1.600  -1.088   0.308  0.00  0.00    -0.016 A 
ATOM      7  C6  BZF d   1       1.379   0.264   0.148  0.00  0.00     0.022 A 
ATOM      8  C7  BZF d   1       2.194   1.024  -0.624  0.00  0.00     0.029 A 
ATOM      9  C7A BZF d   1       3.232   0.385  -1.255  0.00  0.00     0.058 A 
ENDROOT
TORSDOF 0
ENDMDL
