MODEL 1
REMARK minimizedAffinity -2.20271158
REMARK minimizedRMSD -1
REMARK  0 active torsions:
REMARK  status: ('A' for Active; 'I' for Inactive)
ROOT
ATOM      1  O1  BZF d   1       3.281   0.837  -1.422  0.00  0.00    -0.204 OA
ATOM      2  C2  BZF d   1       4.014  -0.170  -2.019  0.00  0.00     0.174 A 
ATOM      3  C3  BZF d   1       3.664  -1.375  -1.525  0.00  0.00    -0.012 A 
ATOM      4  C3A BZF d   1       2.583  -1.112  -0.625  0.00  0.00    -0.107 A 
ATOM      5  C4  BZF d   1       1.801  -1.910   0.161  0.00  0.00     0.055 A 
ATOM      6  C5  BZF d   1       0.881  -1.333   0.978  0.00  0.00    -0.016 A 
ATOM      7  C6  BZF d   1       0.720   0.036   1.038  0.00  0.00     0.022 A 
ATOM      8  C7  BZF d   1       1.469   0.867   0.273  0.00  0.00     0.029 A 
ATOM      9  C7A BZF d   1       2.377   0.286  -0.578  0.00  0.00     0.058 A 
ENDROOT
TORSDOF 0
ENDMDL
