MODEL 1
REMARK minimizedAffinity -3.25581956
REMARK minimizedRMSD -1
REMARK  0 active torsions:
REMARK  status: ('A' for Active; 'I' for Inactive)
ROOT
ATOM      1  O1  BZF d   1       3.883  -1.294  -1.551  0.00  0.00    -0.204 OA
ATOM      2  C2  BZF d   1       4.602  -0.515  -2.436  0.00  0.00     0.174 A 
ATOM      3  C3  BZF d   1       4.084   0.728  -2.510  0.00  0.00    -0.012 A 
ATOM      4  C3A BZF d   1       3.028   0.753  -1.545  0.00  0.00    -0.107 A 
ATOM      5  C4  BZF d   1       2.149   1.717  -1.140  0.00  0.00     0.055 A 
ATOM      6  C5  BZF d   1       1.193   1.398  -0.229  0.00  0.00    -0.016 A 
ATOM      7  C6  BZF d   1       1.083   0.125   0.293  0.00  0.00     0.022 A 
ATOM      8  C7  BZF d   1       1.935  -0.862  -0.074  0.00  0.00     0.029 A 
ATOM      9  C7A BZF d   1       2.923  -0.534  -0.970  0.00  0.00     0.058 A 
ENDROOT
TORSDOF 0
ENDMDL
