MODEL 1
REMARK minimizedAffinity 3.54556823
REMARK minimizedRMSD -1
REMARK  0 active torsions:
REMARK  status: ('A' for Active; 'I' for Inactive)
ROOT
ATOM      1  O1  BZF d   1       3.710  -0.483  -1.532  0.00  0.00    -0.204 OA
ATOM      2  C2  BZF d   1       3.606  -1.808  -1.909  0.00  0.00     0.174 A 
ATOM      3  C3  BZF d   1       2.582  -2.409  -1.268  0.00  0.00    -0.012 A 
ATOM      4  C3A BZF d   1       1.953  -1.372  -0.509  0.00  0.00    -0.107 A 
ATOM      5  C4  BZF d   1       0.870  -1.343   0.322  0.00  0.00     0.055 A 
ATOM      6  C5  BZF d   1       0.562  -0.185   0.965  0.00  0.00    -0.016 A 
ATOM      7  C6  BZF d   1       1.317   0.958   0.804  0.00  0.00     0.022 A 
ATOM      8  C7  BZF d   1       2.398   0.978  -0.014  0.00  0.00     0.029 A 
ATOM      9  C7A BZF d   1       2.692  -0.180  -0.691  0.00  0.00     0.058 A 
ENDROOT
TORSDOF 0
ENDMDL
