MODEL 1
REMARK minimizedAffinity -0.720526695
REMARK minimizedRMSD -1
REMARK  0 active torsions:
REMARK  status: ('A' for Active; 'I' for Inactive)
ROOT
ATOM      1  O1  BZF d   1       3.603   0.247  -0.960  0.00  0.00    -0.204 OA
ATOM      2  C2  BZF d   1       3.879  -0.644  -1.979  0.00  0.00     0.174 A 
ATOM      3  C3  BZF d   1       3.075  -1.724  -1.900  0.00  0.00    -0.012 A 
ATOM      4  C3A BZF d   1       2.182  -1.451  -0.816  0.00  0.00    -0.107 A 
ATOM      5  C4  BZF d   1       1.143  -2.140  -0.258  0.00  0.00     0.055 A 
ATOM      6  C5  BZF d   1       0.524  -1.628   0.837  0.00  0.00    -0.016 A 
ATOM      7  C6  BZF d   1       0.920  -0.435   1.405  0.00  0.00     0.022 A 
ATOM      8  C7  BZF d   1       1.942   0.287   0.884  0.00  0.00     0.029 A 
ATOM      9  C7A BZF d   1       2.549  -0.211  -0.243  0.00  0.00     0.058 A 
ENDROOT
TORSDOF 0
ENDMDL
