MODEL 1
REMARK minimizedAffinity -0.436068445
REMARK minimizedRMSD -1
REMARK  0 active torsions:
REMARK  status: ('A' for Active; 'I' for Inactive)
ROOT
ATOM      1  O1  BZF d   1       0.829   2.130   0.567  0.00  0.00    -0.204 OA
ATOM      2  C2  BZF d   1       1.622   2.906  -0.258  0.00  0.00     0.174 A 
ATOM      3  C3  BZF d   1       2.551   2.150  -0.877  0.00  0.00    -0.012 A 
ATOM      4  C3A BZF d   1       2.267   0.804  -0.481  0.00  0.00    -0.107 A 
ATOM      5  C4  BZF d   1       2.833  -0.402  -0.779  0.00  0.00     0.055 A 
ATOM      6  C5  BZF d   1       2.364  -1.521  -0.169  0.00  0.00    -0.016 A 
ATOM      7  C6  BZF d   1       1.334  -1.471   0.748  0.00  0.00     0.022 A 
ATOM      8  C7  BZF d   1       0.737  -0.298   1.072  0.00  0.00     0.029 A 
ATOM      9  C7A BZF d   1       1.187   0.831   0.432  0.00  0.00     0.058 A 
ENDROOT
TORSDOF 0
ENDMDL
