MODEL 1
REMARK minimizedAffinity -4.51439714
REMARK minimizedRMSD -1
REMARK  0 active torsions:
REMARK  status: ('A' for Active; 'I' for Inactive)
ROOT
ATOM      1  O1  BZF d   1       1.043  -1.812   1.350  0.00  0.00    -0.204 OA
ATOM      2  C2  BZF d   1       0.176  -0.842   1.814  0.00  0.00     0.174 A 
ATOM      3  C3  BZF d   1       0.398   0.334   1.192  0.00  0.00    -0.012 A 
ATOM      4  C3A BZF d   1       1.408   0.060   0.217  0.00  0.00    -0.107 A 
ATOM      5  C4  BZF d   1       2.039   0.825  -0.722  0.00  0.00     0.055 A 
ATOM      6  C5  BZF d   1       3.032   0.271  -1.467  0.00  0.00    -0.016 A 
ATOM      7  C6  BZF d   1       3.422  -1.041  -1.296  0.00  0.00     0.022 A 
ATOM      8  C7  BZF d   1       2.822  -1.841  -0.380  0.00  0.00     0.029 A 
ATOM      9  C7A BZF d   1       1.796  -1.293   0.351  0.00  0.00     0.058 A 
ENDROOT
TORSDOF 0
ENDMDL
