MODEL 1
REMARK minimizedAffinity -0.487471521
REMARK minimizedRMSD -1
REMARK  0 active torsions:
REMARK  status: ('A' for Active; 'I' for Inactive)
ROOT
ATOM      1  O1  BZF d   1       0.345  -2.737   1.361  0.00  0.00    -0.204 OA
ATOM      2  C2  BZF d   1      -0.619  -1.835   1.767  0.00  0.00     0.174 A 
ATOM      3  C3  BZF d   1      -0.278  -0.579   1.412  0.00  0.00    -0.012 A 
ATOM      4  C3A BZF d   1       0.932  -0.715   0.660  0.00  0.00    -0.107 A 
ATOM      5  C4  BZF d   1       1.749   0.176   0.026  0.00  0.00     0.055 A 
ATOM      6  C5  BZF d   1       2.893  -0.273  -0.554  0.00  0.00    -0.016 A 
ATOM      7  C6  BZF d   1       3.253  -1.604  -0.514  0.00  0.00     0.022 A 
ATOM      8  C7  BZF d   1       2.472  -2.526   0.099  0.00  0.00     0.029 A 
ATOM      9  C7A BZF d   1       1.299  -2.081   0.657  0.00  0.00     0.058 A 
ENDROOT
TORSDOF 0
ENDMDL
