MODEL 1
REMARK minimizedAffinity -2.94454885
REMARK minimizedRMSD -1
REMARK  0 active torsions:
REMARK  status: ('A' for Active; 'I' for Inactive)
ROOT
ATOM      1  O1  BZF d   1       3.398   0.853  -1.464  0.00  0.00    -0.204 OA
ATOM      2  C2  BZF d   1       4.345  -0.061  -1.883  0.00  0.00     0.174 A 
ATOM      3  C3  BZF d   1       4.036  -1.301  -1.453  0.00  0.00    -0.012 A 
ATOM      4  C3A BZF d   1       2.772  -1.168  -0.796  0.00  0.00    -0.107 A 
ATOM      5  C4  BZF d   1       1.939  -2.054  -0.174  0.00  0.00     0.055 A 
ATOM      6  C5  BZF d   1       0.813  -1.590   0.429  0.00  0.00    -0.016 A 
ATOM      7  C6  BZF d   1       0.492  -0.248   0.434  0.00  0.00     0.022 A 
ATOM      8  C7  BZF d   1       1.285   0.668  -0.174  0.00  0.00     0.029 A 
ATOM      9  C7A BZF d   1       2.406   0.198  -0.813  0.00  0.00     0.058 A 
ENDROOT
TORSDOF 0
ENDMDL
