MODEL 1
REMARK minimizedAffinity -3.93037438
REMARK minimizedRMSD -1
REMARK  0 active torsions:
REMARK  status: ('A' for Active; 'I' for Inactive)
ROOT
ATOM      1  O1  BZF d   1       3.497   0.904  -1.716  0.00  0.00    -0.204 OA
ATOM      2  C2  BZF d   1       4.351  -0.097  -2.135  0.00  0.00     0.174 A 
ATOM      3  C3  BZF d   1       4.029  -1.273  -1.558  0.00  0.00    -0.012 A 
ATOM      4  C3A BZF d   1       2.847  -1.008  -0.798  0.00  0.00    -0.107 A 
ATOM      5  C4  BZF d   1       2.041  -1.784  -0.015  0.00  0.00     0.055 A 
ATOM      6  C5  BZF d   1       1.006  -1.203   0.648  0.00  0.00    -0.016 A 
ATOM      7  C6  BZF d   1       0.752   0.150   0.554  0.00  0.00     0.022 A 
ATOM      8  C7  BZF d   1       1.521   0.959  -0.214  0.00  0.00     0.029 A 
ATOM      9  C7A BZF d   1       2.547   0.369  -0.911  0.00  0.00     0.058 A 
ENDROOT
TORSDOF 0
ENDMDL
