MODEL 1
REMARK minimizedAffinity -3.67430067
REMARK minimizedRMSD -1
REMARK  0 active torsions:
REMARK  status: ('A' for Active; 'I' for Inactive)
ROOT
ATOM      1  O1  BZF d   1       4.307  -1.146  -1.840  0.00  0.00    -0.204 OA
ATOM      2  C2  BZF d   1       4.448   0.159  -2.273  0.00  0.00     0.174 A 
ATOM      3  C3  BZF d   1       3.415   0.916  -1.852  0.00  0.00    -0.012 A 
ATOM      4  C3A BZF d   1       2.623   0.051  -1.033  0.00  0.00    -0.107 A 
ATOM      5  C4  BZF d   1       1.473   0.229  -0.317  0.00  0.00     0.055 A 
ATOM      6  C5  BZF d   1       0.918  -0.838   0.316  0.00  0.00    -0.016 A 
ATOM      7  C6  BZF d   1       1.483  -2.095   0.252  0.00  0.00     0.022 A 
ATOM      8  C7  BZF d   1       2.626  -2.319  -0.441  0.00  0.00     0.029 A 
ATOM      9  C7A BZF d   1       3.207  -1.236  -1.055  0.00  0.00     0.058 A 
ENDROOT
TORSDOF 0
ENDMDL
