MODEL 1
REMARK minimizedAffinity -1.974702
REMARK minimizedRMSD -1
REMARK  0 active torsions:
REMARK  status: ('A' for Active; 'I' for Inactive)
ROOT
ATOM      1  O1  BZF d   1       2.559  -2.116  -0.009  0.00  0.00    -0.204 OA
ATOM      2  C2  BZF d   1       1.567  -1.559   0.775  0.00  0.00     0.174 A 
ATOM      3  C3  BZF d   1       1.505  -0.225   0.592  0.00  0.00    -0.012 A 
ATOM      4  C3A BZF d   1       2.460   0.060  -0.434  0.00  0.00    -0.107 A 
ATOM      5  C4  BZF d   1       2.848   1.208  -1.064  0.00  0.00     0.055 A 
ATOM      6  C5  BZF d   1       3.859   1.155  -1.970  0.00  0.00    -0.016 A 
ATOM      7  C6  BZF d   1       4.506  -0.027  -2.268  0.00  0.00     0.022 A 
ATOM      8  C7  BZF d   1       4.153  -1.192  -1.673  0.00  0.00     0.029 A 
ATOM      9  C7A BZF d   1       3.109  -1.148  -0.781  0.00  0.00     0.058 A 
ENDROOT
TORSDOF 0
ENDMDL
