MODEL 1
REMARK minimizedAffinity -4.77035904
REMARK minimizedRMSD -1
REMARK  0 active torsions:
REMARK  status: ('A' for Active; 'I' for Inactive)
ROOT
ATOM      1  O1  BZF d   1       3.494   0.857  -2.037  0.00  0.00    -0.204 OA
ATOM      2  C2  BZF d   1       4.345  -0.153  -2.444  0.00  0.00     0.174 A 
ATOM      3  C3  BZF d   1       4.072  -1.300  -1.791  0.00  0.00    -0.012 A 
ATOM      4  C3A BZF d   1       2.923  -1.013  -0.988  0.00  0.00    -0.107 A 
ATOM      5  C4  BZF d   1       2.169  -1.757  -0.127  0.00  0.00     0.055 A 
ATOM      6  C5  BZF d   1       1.158  -1.157   0.554  0.00  0.00    -0.016 A 
ATOM      7  C6  BZF d   1       0.875   0.184   0.401  0.00  0.00     0.022 A 
ATOM      8  C7  BZF d   1       1.592   0.963  -0.447  0.00  0.00     0.029 A 
ATOM      9  C7A BZF d   1       2.594   0.352  -1.160  0.00  0.00     0.058 A 
ENDROOT
TORSDOF 0
ENDMDL
