MODEL 1
REMARK minimizedAffinity -6.26348543
REMARK minimizedRMSD -1
REMARK  0 active torsions:
REMARK  status: ('A' for Active; 'I' for Inactive)
ROOT
ATOM      1  O1  BZF d   1       1.347  -0.974   0.371  0.00  0.00    -0.204 OA
ATOM      2  C2  BZF d   1       0.613   0.189   0.502  0.00  0.00     0.174 A 
ATOM      3  C3  BZF d   1       1.204   1.205  -0.160  0.00  0.00    -0.012 A 
ATOM      4  C3A BZF d   1       2.331   0.620  -0.818  0.00  0.00    -0.107 A 
ATOM      5  C4  BZF d   1       3.300   1.118  -1.642  0.00  0.00     0.055 A 
ATOM      6  C5  BZF d   1       4.301   0.297  -2.056  0.00  0.00    -0.016 A 
ATOM      7  C6  BZF d   1       4.368  -1.023  -1.660  0.00  0.00     0.022 A 
ATOM      8  C7  BZF d   1       3.428  -1.563  -0.848  0.00  0.00     0.029 A 
ATOM      9  C7A BZF d   1       2.396  -0.745  -0.455  0.00  0.00     0.058 A 
ENDROOT
TORSDOF 0
ENDMDL
