MODEL 1
REMARK minimizedAffinity -3.48875785
REMARK minimizedRMSD -1
REMARK  0 active torsions:
REMARK  status: ('A' for Active; 'I' for Inactive)
ROOT
ATOM      1  O1  BZF d   1       1.897  -2.203   0.621  0.00  0.00    -0.204 OA
ATOM      2  C2  BZF d   1       0.826  -1.685   1.323  0.00  0.00     0.174 A 
ATOM      3  C3  BZF d   1       0.586  -0.409   0.957  0.00  0.00    -0.012 A 
ATOM      4  C3A BZF d   1       1.510  -0.141  -0.102  0.00  0.00    -0.107 A 
ATOM      5  C4  BZF d   1       1.749   0.951  -0.886  0.00  0.00     0.055 A 
ATOM      6  C5  BZF d   1       2.773   0.912  -1.779  0.00  0.00    -0.016 A 
ATOM      7  C6  BZF d   1       3.579  -0.199  -1.911  0.00  0.00     0.022 A 
ATOM      8  C7  BZF d   1       3.377  -1.309  -1.159  0.00  0.00     0.029 A 
ATOM      9  C7A BZF d   1       2.323  -1.285  -0.279  0.00  0.00     0.058 A 
ENDROOT
TORSDOF 0
ENDMDL
