MODEL 1
REMARK minimizedAffinity -2.85753226
REMARK minimizedRMSD -1
REMARK  0 active torsions:
REMARK  status: ('A' for Active; 'I' for Inactive)
ROOT
ATOM      1  C4' PXY d   1       1.079   1.553  -4.163  0.00  0.00     0.077 C 
ATOM      2  C1' PXY d   1       1.813  -0.637   1.135  0.00  0.00     0.077 C 
ATOM      3  C1  PXY d   1       1.627  -0.052  -0.251  0.00  0.00    -0.082 A 
ATOM      4  C2  PXY d   1       0.647  -0.495  -1.021  0.00  0.00     0.003 A 
ATOM      5  C3  PXY d   1       0.484   0.000  -2.289  0.00  0.00     0.003 A 
ATOM      6  C4  PXY d   1       1.299   0.998  -2.754  0.00  0.00    -0.082 A 
ATOM      7  C5  PXY d   1       2.294   1.463  -1.969  0.00  0.00     0.003 A 
ATOM      8  C6  PXY d   1       2.469   0.918  -0.700  0.00  0.00     0.003 A 
ENDROOT
TORSDOF 0
ENDMDL
