MODEL 1
REMARK minimizedAffinity 0.947387397
REMARK minimizedRMSD -1
REMARK  0 active torsions:
REMARK  status: ('A' for Active; 'I' for Inactive)
ROOT
ATOM      1  C4' PXY d   1       0.068   0.907  -3.285  0.00  0.00     0.077 C 
ATOM      2  C1' PXY d   1      -2.339  -0.178   1.858  0.00  0.00     0.077 C 
ATOM      3  C1  PXY d   1      -1.717   0.115   0.506  0.00  0.00    -0.082 A 
ATOM      4  C2  PXY d   1      -0.916  -0.778  -0.052  0.00  0.00     0.003 A 
ATOM      5  C3  PXY d   1      -0.320  -0.516  -1.259  0.00  0.00     0.003 A 
ATOM      6  C4  PXY d   1      -0.589   0.650  -1.926  0.00  0.00    -0.082 A 
ATOM      7  C5  PXY d   1      -1.414   1.561  -1.367  0.00  0.00     0.003 A 
ATOM      8  C6  PXY d   1      -1.976   1.293  -0.123  0.00  0.00     0.003 A 
ENDROOT
TORSDOF 0
ENDMDL
