MODEL 1
REMARK minimizedAffinity -2.94758391
REMARK minimizedRMSD -1
REMARK  0 active torsions:
REMARK  status: ('A' for Active; 'I' for Inactive)
ROOT
ATOM      1  C4' PXY d   1      -0.216   0.693   3.790  0.00  0.00     0.077 C 
ATOM      2  C1' PXY d   1      -0.751  -1.304  -1.608  0.00  0.00     0.077 C 
ATOM      3  C1  PXY d   1      -0.600  -0.787  -0.191  0.00  0.00    -0.082 A 
ATOM      4  C2  PXY d   1      -1.669  -0.385   0.476  0.00  0.00     0.003 A 
ATOM      5  C3  PXY d   1      -1.546   0.116   1.747  0.00  0.00     0.003 A 
ATOM      6  C4  PXY d   1      -0.323   0.155   2.361  0.00  0.00    -0.082 A 
ATOM      7  C5  PXY d   1       0.772  -0.264   1.690  0.00  0.00     0.003 A 
ATOM      8  C6  PXY d   1       0.631  -0.730   0.386  0.00  0.00     0.003 A 
ENDROOT
TORSDOF 0
ENDMDL
