MODEL 1
REMARK minimizedAffinity 0.863326669
REMARK minimizedRMSD -1
REMARK  0 active torsions:
REMARK  status: ('A' for Active; 'I' for Inactive)
ROOT
ATOM      1  C4' PXY d   1      -3.445   1.006  -0.264  0.00  0.00     0.077 C 
ATOM      2  C1' PXY d   1       1.922  -0.901   0.725  0.00  0.00     0.077 C 
ATOM      3  C1  PXY d   1       0.510  -0.407   0.477  0.00  0.00    -0.082 A 
ATOM      4  C2  PXY d   1       0.117  -0.144  -0.759  0.00  0.00     0.003 A 
ATOM      5  C3  PXY d   1      -1.145   0.335  -0.998  0.00  0.00     0.003 A 
ATOM      6  C4  PXY d   1      -2.032   0.495   0.033  0.00  0.00    -0.082 A 
ATOM      7  C5  PXY d   1      -1.642   0.219   1.295  0.00  0.00     0.003 A 
ATOM      8  C6  PXY d   1      -0.343  -0.227   1.522  0.00  0.00     0.003 A 
ENDROOT
TORSDOF 0
ENDMDL
