MODEL 1
REMARK minimizedAffinity -4.53220606
REMARK minimizedRMSD -1
REMARK  0 active torsions:
REMARK  status: ('A' for Active; 'I' for Inactive)
ROOT
ATOM      1  C4' PXY d   1       2.132  -0.247   2.156  0.00  0.00     0.077 C 
ATOM      2  C1' PXY d   1      -3.235   1.025   0.428  0.00  0.00     0.077 C 
ATOM      3  C1  PXY d   1      -1.828   0.701   0.890  0.00  0.00    -0.082 A 
ATOM      4  C2  PXY d   1      -0.993   0.092   0.065  0.00  0.00     0.003 A 
ATOM      5  C3  PXY d   1       0.273  -0.238   0.477  0.00  0.00     0.003 A 
ATOM      6  C4  PXY d   1       0.705   0.108   1.729  0.00  0.00    -0.082 A 
ATOM      7  C5  PXY d   1      -0.137   0.739   2.573  0.00  0.00     0.003 A 
ATOM      8  C6  PXY d   1      -1.432   1.028   2.150  0.00  0.00     0.003 A 
ENDROOT
TORSDOF 0
ENDMDL
