MODEL 1
REMARK minimizedAffinity 2.24704385
REMARK minimizedRMSD -1
REMARK  0 active torsions:
REMARK  status: ('A' for Active; 'I' for Inactive)
ROOT
ATOM      1  C4' PXY d   1      -4.930  -2.676  -1.280  0.00  0.00     0.077 C 
ATOM      2  C1' PXY d   1      -1.255   1.066   1.150  0.00  0.00     0.077 C 
ATOM      3  C1  PXY d   1      -2.209   0.077   0.510  0.00  0.00    -0.082 A 
ATOM      4  C2  PXY d   1      -3.398   0.487   0.098  0.00  0.00     0.003 A 
ATOM      5  C3  PXY d   1      -4.285  -0.400  -0.454  0.00  0.00     0.003 A 
ATOM      6  C4  PXY d   1      -3.931  -1.710  -0.636  0.00  0.00    -0.082 A 
ATOM      7  C5  PXY d   1      -2.716  -2.135  -0.229  0.00  0.00     0.003 A 
ATOM      8  C6  PXY d   1      -1.846  -1.227   0.367  0.00  0.00     0.003 A 
ENDROOT
TORSDOF 0
ENDMDL
