MODEL 1
REMARK minimizedAffinity -3.00774431
REMARK minimizedRMSD -1
REMARK  0 active torsions:
REMARK  status: ('A' for Active; 'I' for Inactive)
ROOT
ATOM      1  C4' PXY d   1      -2.224  -0.716  -0.384  0.00  0.00     0.077 C 
ATOM      2  C1' PXY d   1       1.362   1.268   3.692  0.00  0.00     0.077 C 
ATOM      3  C1  PXY d   1       0.414   0.742   2.633  0.00  0.00    -0.082 A 
ATOM      4  C2  PXY d   1       0.847   0.571   1.394  0.00  0.00     0.003 A 
ATOM      5  C3  PXY d   1      -0.005   0.127   0.416  0.00  0.00     0.003 A 
ATOM      6  C4  PXY d   1      -1.300  -0.196   0.721  0.00  0.00    -0.082 A 
ATOM      7  C5  PXY d   1      -1.747  -0.035   1.984  0.00  0.00     0.003 A 
ATOM      8  C6  PXY d   1      -0.877   0.456   2.953  0.00  0.00     0.003 A 
ENDROOT
TORSDOF 0
ENDMDL
