MODEL 1
REMARK minimizedAffinity 3.4559238
REMARK minimizedRMSD -1
REMARK  1 active torsions:
REMARK  status: ('A' for Active; 'I' for Inactive)
REMARK    1  A    between atoms: N_2  and  C1_3 
ROOT
ATOM      1  C1  UNL d   1      -3.885  -5.912  -4.454  0.00  0.00     0.143 A 
ATOM      2  C2  UNL d   1      -3.127  -5.912  -3.278  0.00  0.00    -0.057 A 
ATOM      3  C3  UNL d   1      -1.728  -5.925  -3.317  0.00  0.00     0.033 A 
ATOM      4  C4  UNL d   1      -1.060  -5.968  -4.536  0.00  0.00    -0.042 A 
ATOM      5  C5  UNL d   1      -1.793  -5.994  -5.717  0.00  0.00     0.033 A 
ATOM      6  C6  UNL d   1      -3.191  -5.974  -5.672  0.00  0.00    -0.057 A 
ENDROOT
BRANCH   1   7
ATOM      7  N   UNL d   1      -5.279  -5.999  -4.481  0.00  0.00    -0.732 N 
ATOM      8  C   UNL d   1      -5.999  -5.922  -5.734  0.00  0.00     0.284 C 
ATOM      9  H3  UNL d   1      -5.637  -6.702  -3.838  0.00  0.00     0.395 HD
ENDBRANCH   1   7
TORSDOF 1
ENDMDL
