MODEL 1
REMARK minimizedAffinity -2.27800083
REMARK minimizedRMSD -1
REMARK  1 active torsions:
REMARK  status: ('A' for Active; 'I' for Inactive)
REMARK    1  A    between atoms: N_2  and  C1_3 
ROOT
ATOM      1  C1  UNL d   1       0.720   3.986  -4.001  0.00  0.00     0.143 A 
ATOM      2  C2  UNL d   1      -0.616   4.402  -3.983  0.00  0.00    -0.057 A 
ATOM      3  C3  UNL d   1      -1.124   5.257  -4.968  0.00  0.00     0.033 A 
ATOM      4  C4  UNL d   1      -0.294   5.737  -5.976  0.00  0.00    -0.042 A 
ATOM      5  C5  UNL d   1       1.044   5.357  -6.000  0.00  0.00     0.033 A 
ATOM      6  C6  UNL d   1       1.543   4.497  -5.017  0.00  0.00    -0.057 A 
ENDROOT
BRANCH   1   7
ATOM      7  N   UNL d   1       1.308   3.216  -2.995  0.00  0.00    -0.732 N 
ATOM      8  C   UNL d   1       0.745   1.936  -2.621  0.00  0.00     0.284 C 
ATOM      9  H3  UNL d   1       2.324   3.225  -3.043  0.00  0.00     0.395 HD
ENDBRANCH   1   7
TORSDOF 1
ENDMDL
