MODEL 1
REMARK minimizedAffinity -0.942533851
REMARK minimizedRMSD -1
REMARK  1 active torsions:
REMARK  status: ('A' for Active; 'I' for Inactive)
REMARK    1  A    between atoms: N_2  and  C1_3 
ROOT
ATOM      1  C1  UNL d   1      -4.077  -4.564   1.049  0.00  0.00     0.143 A 
ATOM      2  C2  UNL d   1      -2.978  -5.337   0.662  0.00  0.00    -0.057 A 
ATOM      3  C3  UNL d   1      -2.248  -5.034  -0.494  0.00  0.00     0.033 A 
ATOM      4  C4  UNL d   1      -2.625  -3.966  -1.302  0.00  0.00    -0.042 A 
ATOM      5  C5  UNL d   1      -3.729  -3.199  -0.950  0.00  0.00     0.033 A 
ATOM      6  C6  UNL d   1      -4.450  -3.502   0.209  0.00  0.00    -0.057 A 
ENDROOT
BRANCH   1   7
ATOM      7  N   UNL d   1      -4.902  -4.873   2.133  0.00  0.00    -0.732 N 
ATOM      8  C   UNL d   1      -5.808  -6.000   2.072  0.00  0.00     0.284 C 
ATOM      9  H3  UNL d   1      -4.425  -4.771   3.026  0.00  0.00     0.395 HD
ENDBRANCH   1   7
TORSDOF 1
ENDMDL
