MODEL 1
REMARK minimizedAffinity 8.00088978
REMARK minimizedRMSD -1
REMARK  1 active torsions:
REMARK  status: ('A' for Active; 'I' for Inactive)
REMARK    1  A    between atoms: N_2  and  C1_3 
ROOT
ATOM      1  C1  UNL d   1      -5.999  -3.033  -4.407  0.00  0.00     0.143 A 
ATOM      2  C2  UNL d   1      -5.962  -2.195  -3.288  0.00  0.00    -0.057 A 
ATOM      3  C3  UNL d   1      -5.968  -0.802  -3.423  0.00  0.00     0.033 A 
ATOM      4  C4  UNL d   1      -5.982  -0.220  -4.686  0.00  0.00    -0.042 A 
ATOM      5  C5  UNL d   1      -5.995  -1.033  -5.814  0.00  0.00     0.033 A 
ATOM      6  C6  UNL d   1      -5.995  -2.424  -5.672  0.00  0.00    -0.057 A 
ENDROOT
BRANCH   1   7
ATOM      7  N   UNL d   1      -5.896  -4.425  -4.341  0.00  0.00    -0.732 N 
ATOM      8  C   UNL d   1      -5.954  -5.226  -5.545  0.00  0.00     0.284 C 
ATOM      9  H3  UNL d   1      -5.194  -4.730  -3.671  0.00  0.00     0.395 HD
ENDBRANCH   1   7
TORSDOF 1
ENDMDL
