MODEL 1
REMARK minimizedAffinity 3.6761992
REMARK minimizedRMSD -1
REMARK  1 active torsions:
REMARK  status: ('A' for Active; 'I' for Inactive)
REMARK    1  A    between atoms: N_2  and  C1_3 
ROOT
ATOM      1  C1  UNL d   1      -3.606  -0.330   2.511  0.00  0.00     0.143 A 
ATOM      2  C2  UNL d   1      -2.455  -1.059   2.196  0.00  0.00    -0.057 A 
ATOM      3  C3  UNL d   1      -1.404  -1.190   3.112  0.00  0.00     0.033 A 
ATOM      4  C4  UNL d   1      -1.474  -0.566   4.353  0.00  0.00    -0.042 A 
ATOM      5  C5  UNL d   1      -2.598   0.185   4.679  0.00  0.00     0.033 A 
ATOM      6  C6  UNL d   1      -3.647   0.306   3.762  0.00  0.00    -0.057 A 
ENDROOT
BRANCH   1   7
ATOM      7  N   UNL d   1      -4.642  -0.081   1.607  0.00  0.00    -0.732 N 
ATOM      8  C   UNL d   1      -5.425   1.132   1.699  0.00  0.00     0.284 C 
ATOM      9  H3  UNL d   1      -4.399  -0.348   0.656  0.00  0.00     0.395 HD
ENDBRANCH   1   7
TORSDOF 1
ENDMDL
