MODEL 1
REMARK minimizedAffinity 8.43916893
REMARK minimizedRMSD -1
REMARK  1 active torsions:
REMARK  status: ('A' for Active; 'I' for Inactive)
REMARK    1  A    between atoms: N_2  and  C1_3 
ROOT
ATOM      1  C1  UNL d   1       0.538   3.738  -3.641  0.00  0.00     0.143 A 
ATOM      2  C2  UNL d   1      -0.668   4.445  -3.608  0.00  0.00    -0.057 A 
ATOM      3  C3  UNL d   1      -1.175   5.070  -4.754  0.00  0.00     0.033 A 
ATOM      4  C4  UNL d   1      -0.466   5.023  -5.950  0.00  0.00    -0.042 A 
ATOM      5  C5  UNL d   1       0.748   4.347  -6.000  0.00  0.00     0.033 A 
ATOM      6  C6  UNL d   1       1.245   3.719  -4.854  0.00  0.00    -0.057 A 
ENDROOT
BRANCH   1   7
ATOM      7  N   UNL d   1       1.143   3.179  -2.513  0.00  0.00    -0.732 N 
ATOM      8  C   UNL d   1       1.582   1.800  -2.518  0.00  0.00     0.284 C 
ATOM      9  H3  UNL d   1       1.792   3.820  -2.062  0.00  0.00     0.395 HD
ENDBRANCH   1   7
TORSDOF 1
ENDMDL
