MODEL 1
REMARK minimizedAffinity 6.80798483
REMARK minimizedRMSD -1
REMARK  1 active torsions:
REMARK  status: ('A' for Active; 'I' for Inactive)
REMARK    1  A    between atoms: N_2  and  C1_3 
ROOT
ATOM      1  C1  UNL d   1      -5.862  -0.153  -3.318  0.00  0.00     0.143 A 
ATOM      2  C2  UNL d   1      -5.928  -0.585  -1.989  0.00  0.00    -0.057 A 
ATOM      3  C3  UNL d   1      -5.992   0.330  -0.931  0.00  0.00     0.033 A 
ATOM      4  C4  UNL d   1      -5.962   1.697  -1.183  0.00  0.00    -0.042 A 
ATOM      5  C5  UNL d   1      -5.872   2.149  -2.495  0.00  0.00     0.033 A 
ATOM      6  C6  UNL d   1      -5.815   1.231  -3.548  0.00  0.00    -0.057 A 
ENDROOT
BRANCH   1   7
ATOM      7  N   UNL d   1      -5.697  -1.012  -4.408  0.00  0.00    -0.732 N 
ATOM      8  C   UNL d   1      -5.110  -0.534  -5.641  0.00  0.00     0.284 C 
ATOM      9  H3  UNL d   1      -5.380  -1.938  -4.128  0.00  0.00     0.395 HD
ENDBRANCH   1   7
TORSDOF 1
ENDMDL
