MODEL 1
REMARK minimizedAffinity 1.95148015
REMARK minimizedRMSD -1
REMARK  1 active torsions:
REMARK  status: ('A' for Active; 'I' for Inactive)
REMARK    1  A    between atoms: N_2  and  C1_3 
ROOT
ATOM      1  C1  UNL d   1       0.929   4.424  -4.347  0.00  0.00     0.143 A 
ATOM      2  C2  UNL d   1       0.370   5.707  -4.355  0.00  0.00    -0.057 A 
ATOM      3  C3  UNL d   1      -0.762   6.000  -5.124  0.00  0.00     0.033 A 
ATOM      4  C4  UNL d   1      -1.340   5.019  -5.924  0.00  0.00    -0.042 A 
ATOM      5  C5  UNL d   1      -0.786   3.745  -5.951  0.00  0.00     0.033 A 
ATOM      6  C6  UNL d   1       0.341   3.456  -5.176  0.00  0.00    -0.057 A 
ENDROOT
BRANCH   1   7
ATOM      7  N   UNL d   1       2.112   4.096  -3.680  0.00  0.00    -0.732 N 
ATOM      8  C   UNL d   1       2.187   2.913  -2.849  0.00  0.00     0.284 C 
ATOM      9  H3  UNL d   1       2.938   4.253  -4.254  0.00  0.00     0.395 HD
ENDBRANCH   1   7
TORSDOF 1
ENDMDL
