MODEL 1
REMARK minimizedAffinity 3.32450032
REMARK minimizedRMSD -1
REMARK  1 active torsions:
REMARK  status: ('A' for Active; 'I' for Inactive)
REMARK    1  A    between atoms: N_2  and  C1_3 
ROOT
ATOM      1  C1  UNL d   1      -5.968   1.822  -2.273  0.00  0.00     0.143 A 
ATOM      2  C2  UNL d   1      -5.947   2.185  -3.623  0.00  0.00    -0.057 A 
ATOM      3  C3  UNL d   1      -5.967   1.218  -4.636  0.00  0.00     0.033 A 
ATOM      4  C4  UNL d   1      -5.979  -0.135  -4.313  0.00  0.00    -0.042 A 
ATOM      5  C5  UNL d   1      -5.975  -0.520  -2.977  0.00  0.00     0.033 A 
ATOM      6  C6  UNL d   1      -5.961   0.451  -1.971  0.00  0.00    -0.057 A 
ENDROOT
BRANCH   1   7
ATOM      7  N   UNL d   1      -5.850   2.733  -1.220  0.00  0.00    -0.732 N 
ATOM      8  C   UNL d   1      -5.912   4.158  -1.468  0.00  0.00     0.284 C 
ATOM      9  H3  UNL d   1      -6.354   2.433  -0.389  0.00  0.00     0.395 HD
ENDBRANCH   1   7
TORSDOF 1
ENDMDL
