MODEL 1
REMARK minimizedAffinity 0.227697104
REMARK minimizedRMSD -1
REMARK  1 active torsions:
REMARK  status: ('A' for Active; 'I' for Inactive)
REMARK    1  A    between atoms: N_2  and  C1_3 
ROOT
ATOM      1  C1  UNL d   1      -2.008  -0.759   3.413  0.00  0.00     0.143 A 
ATOM      2  C2  UNL d   1      -2.136  -1.536   2.256  0.00  0.00    -0.057 A 
ATOM      3  C3  UNL d   1      -3.377  -2.047   1.858  0.00  0.00     0.033 A 
ATOM      4  C4  UNL d   1      -4.511  -1.814   2.629  0.00  0.00    -0.042 A 
ATOM      5  C5  UNL d   1      -4.404  -1.066   3.796  0.00  0.00     0.033 A 
ATOM      6  C6  UNL d   1      -3.163  -0.553   4.184  0.00  0.00    -0.057 A 
ENDROOT
BRANCH   1   7
ATOM      7  N   UNL d   1      -0.786  -0.306   3.914  0.00  0.00    -0.732 N 
ATOM      8  C   UNL d   1       0.151  -1.228   4.519  0.00  0.00     0.284 C 
ATOM      9  H3  UNL d   1      -0.353   0.391   3.312  0.00  0.00     0.395 HD
ENDBRANCH   1   7
TORSDOF 1
ENDMDL
