MODEL 1
REMARK minimizedAffinity 1.5396477
REMARK minimizedRMSD -1
REMARK  1 active torsions:
REMARK  status: ('A' for Active; 'I' for Inactive)
REMARK    1  A    between atoms: N_2  and  C1_3 
ROOT
ATOM      1  C1  UNL d   1      -3.267  -1.069   2.763  0.00  0.00     0.143 A 
ATOM      2  C2  UNL d   1      -3.134  -1.706   1.525  0.00  0.00    -0.057 A 
ATOM      3  C3  UNL d   1      -4.066  -2.658   1.094  0.00  0.00     0.033 A 
ATOM      4  C4  UNL d   1      -5.135  -3.013   1.910  0.00  0.00    -0.042 A 
ATOM      5  C5  UNL d   1      -5.273  -2.411   3.156  0.00  0.00     0.033 A 
ATOM      6  C6  UNL d   1      -4.343  -1.456   3.578  0.00  0.00    -0.057 A 
ENDROOT
BRANCH   1   7
ATOM      7  N   UNL d   1      -2.321  -0.187   3.290  0.00  0.00    -0.732 N 
ATOM      8  C   UNL d   1      -0.906  -0.458   3.158  0.00  0.00     0.284 C 
ATOM      9  H3  UNL d   1      -2.573   0.788   3.141  0.00  0.00     0.395 HD
ENDBRANCH   1   7
TORSDOF 1
ENDMDL
