MODEL 1
REMARK minimizedAffinity 0.589273691
REMARK minimizedRMSD -1
REMARK  1 active torsions:
REMARK  status: ('A' for Active; 'I' for Inactive)
REMARK    1  A    between atoms: N_2  and  C1_3 
ROOT
ATOM      1  C1  UNL d   1      -5.901  -0.262  -3.547  0.00  0.00     0.143 A 
ATOM      2  C2  UNL d   1      -5.965   1.127  -3.698  0.00  0.00    -0.057 A 
ATOM      3  C3  UNL d   1      -5.999   1.978  -2.587  0.00  0.00     0.033 A 
ATOM      4  C4  UNL d   1      -6.000   1.451  -1.300  0.00  0.00    -0.042 A 
ATOM      5  C5  UNL d   1      -5.962   0.072  -1.125  0.00  0.00     0.033 A 
ATOM      6  C6  UNL d   1      -5.921  -0.772  -2.239  0.00  0.00    -0.057 A 
ENDROOT
BRANCH   1   7
ATOM      7  N   UNL d   1      -5.964  -1.165  -4.611  0.00  0.00    -0.732 N 
ATOM      8  C   UNL d   1      -5.817  -0.706  -5.976  0.00  0.00     0.284 C 
ATOM      9  H3  UNL d   1      -5.478  -2.036  -4.411  0.00  0.00     0.395 HD
ENDBRANCH   1   7
TORSDOF 1
ENDMDL
