MODEL 1
REMARK minimizedAffinity -1.99550807
REMARK minimizedRMSD -1
REMARK  1 active torsions:
REMARK  status: ('A' for Active; 'I' for Inactive)
REMARK    1  A    between atoms: C1_2  and  C2_3 
ROOT
ATOM      1  C2  UNL d   1       0.753  -1.025  -1.059  0.00  0.00    -0.076 A 
ATOM      2  C3  UNL d   1       1.751  -0.102  -1.417  0.00  0.00     0.004 A 
ATOM      3  C4  UNL d   1       1.544   1.269  -1.276  0.00  0.00    -0.003 A 
ATOM      4  C5  UNL d   1       0.336   1.739  -0.773  0.00  0.00     0.000 A 
ATOM      5  C6  UNL d   1      -0.658   0.837  -0.396  0.00  0.00     0.000 A 
ATOM      6  C7  UNL d   1      -0.460  -0.549  -0.517  0.00  0.00    -0.073 A 
ATOM      7  C8  UNL d   1      -1.568  -1.477  -0.100  0.00  0.00     0.078 C 
ENDROOT
BRANCH   1   8
ATOM      8  C1  UNL d   1       1.024  -2.499  -1.260  0.00  0.00     0.053 C 
ATOM      9  C   UNL d   1       0.966  -2.908  -2.724  0.00  0.00     0.018 C 
ENDBRANCH   1   8
TORSDOF 1
ENDMDL
