MODEL 1
REMARK minimizedAffinity -1.90004349
REMARK minimizedRMSD -1
REMARK  1 active torsions:
REMARK  status: ('A' for Active; 'I' for Inactive)
REMARK    1  A    between atoms: C1_2  and  C2_3 
ROOT
ATOM      1  C2  UNL d   1       0.171  -0.126   0.046  0.00  0.00    -0.076 A 
ATOM      2  C3  UNL d   1      -0.308   0.977  -0.682  0.00  0.00     0.004 A 
ATOM      3  C4  UNL d   1      -1.250   1.845  -0.131  0.00  0.00    -0.003 A 
ATOM      4  C5  UNL d   1      -1.726   1.625   1.156  0.00  0.00     0.000 A 
ATOM      5  C6  UNL d   1      -1.249   0.546   1.899  0.00  0.00     0.000 A 
ATOM      6  C7  UNL d   1      -0.288  -0.330   1.365  0.00  0.00    -0.073 A 
ATOM      7  C8  UNL d   1       0.188  -1.481   2.208  0.00  0.00     0.078 C 
ENDROOT
BRANCH   1   8
ATOM      8  C1  UNL d   1       1.171  -1.049  -0.613  0.00  0.00     0.053 C 
ATOM      9  C   UNL d   1       0.573  -1.818  -1.780  0.00  0.00     0.018 C 
ENDBRANCH   1   8
TORSDOF 1
ENDMDL
