MODEL 1
REMARK minimizedAffinity -3.75433207
REMARK minimizedRMSD -1
REMARK  1 active torsions:
REMARK  status: ('A' for Active; 'I' for Inactive)
REMARK    1  A    between atoms: C1_2  and  C2_3 
ROOT
ATOM      1  C2  UNL d   1       0.133   0.193  -0.193  0.00  0.00    -0.076 A 
ATOM      2  C3  UNL d   1      -0.290   1.136  -1.147  0.00  0.00     0.004 A 
ATOM      3  C4  UNL d   1      -1.083   2.221  -0.779  0.00  0.00    -0.003 A 
ATOM      4  C5  UNL d   1      -1.467   2.382   0.548  0.00  0.00     0.000 A 
ATOM      5  C6  UNL d   1      -1.042   1.466   1.510  0.00  0.00     0.000 A 
ATOM      6  C7  UNL d   1      -0.228   0.375   1.159  0.00  0.00    -0.073 A 
ATOM      7  C8  UNL d   1       0.196  -0.585   2.236  0.00  0.00     0.078 C 
ENDROOT
BRANCH   1   8
ATOM      8  C1  UNL d   1       0.970  -0.979  -0.655  0.00  0.00     0.053 C 
ATOM      9  C   UNL d   1       0.393  -1.656  -1.889  0.00  0.00     0.018 C 
ENDBRANCH   1   8
TORSDOF 1
ENDMDL
