MODEL 1
REMARK minimizedAffinity -3.9598546
REMARK minimizedRMSD -1
REMARK  1 active torsions:
REMARK  status: ('A' for Active; 'I' for Inactive)
REMARK    1  A    between atoms: C1_2  and  C2_3 
ROOT
ATOM      1  C2  UNL d   1      -0.606   0.436   0.905  0.00  0.00    -0.076 A 
ATOM      2  C3  UNL d   1      -0.375   1.177  -0.267  0.00  0.00     0.004 A 
ATOM      3  C4  UNL d   1       0.474   0.697  -1.263  0.00  0.00    -0.003 A 
ATOM      4  C5  UNL d   1       1.105  -0.532  -1.104  0.00  0.00     0.000 A 
ATOM      5  C6  UNL d   1       0.874  -1.288   0.045  0.00  0.00     0.000 A 
ATOM      6  C7  UNL d   1       0.008  -0.826   1.051  0.00  0.00    -0.073 A 
ATOM      7  C8  UNL d   1      -0.200  -1.680   2.272  0.00  0.00     0.078 C 
ENDROOT
BRANCH   1   8
ATOM      8  C1  UNL d   1      -1.515   1.019   1.963  0.00  0.00     0.053 C 
ATOM      9  C   UNL d   1      -2.243   2.265   1.483  0.00  0.00     0.018 C 
ENDBRANCH   1   8
TORSDOF 1
ENDMDL
