MODEL 1
REMARK minimizedAffinity -5.85307121
REMARK minimizedRMSD -1
REMARK  1 active torsions:
REMARK  status: ('A' for Active; 'I' for Inactive)
REMARK    1  A    between atoms: C1_2  and  C2_3 
ROOT
ATOM      1  C2  UNL d   1      -0.022   0.087   0.000  0.00  0.00    -0.076 A 
ATOM      2  C3  UNL d   1      -0.393   1.210  -0.760  0.00  0.00     0.004 A 
ATOM      3  C4  UNL d   1      -1.126   2.250  -0.193  0.00  0.00    -0.003 A 
ATOM      4  C5  UNL d   1      -1.500   2.185   1.145  0.00  0.00     0.000 A 
ATOM      5  C6  UNL d   1      -1.125   1.087   1.919  0.00  0.00     0.000 A 
ATOM      6  C7  UNL d   1      -0.372   0.038   1.366  0.00  0.00    -0.073 A 
ATOM      7  C8  UNL d   1       0.000  -1.125   2.246  0.00  0.00     0.078 C 
ENDROOT
BRANCH   1   8
ATOM      8  C1  UNL d   1       0.750  -1.023  -0.677  0.00  0.00     0.053 C 
ATOM      9  C   UNL d   1       0.001  -1.617  -1.860  0.00  0.00     0.018 C 
ENDBRANCH   1   8
TORSDOF 1
ENDMDL
