MODEL 1
REMARK minimizedAffinity -1.943663
REMARK minimizedRMSD -1
REMARK  1 active torsions:
REMARK  status: ('A' for Active; 'I' for Inactive)
REMARK    1  A    between atoms: C1_2  and  C2_3 
ROOT
ATOM      1  C2  UNL d   1      -0.491   1.481   0.436  0.00  0.00    -0.076 A 
ATOM      2  C3  UNL d   1      -0.021   2.267  -0.631  0.00  0.00     0.004 A 
ATOM      3  C4  UNL d   1       0.998   1.810  -1.465  0.00  0.00    -0.003 A 
ATOM      4  C5  UNL d   1       1.563   0.558  -1.247  0.00  0.00     0.000 A 
ATOM      5  C6  UNL d   1       1.097  -0.242  -0.204  0.00  0.00     0.000 A 
ATOM      6  C7  UNL d   1       0.059   0.197   0.636  0.00  0.00    -0.073 A 
ATOM      7  C8  UNL d   1      -0.400  -0.705   1.748  0.00  0.00     0.078 C 
ENDROOT
BRANCH   1   8
ATOM      8  C1  UNL d   1      -1.579   2.041   1.324  0.00  0.00     0.053 C 
ATOM      9  C   UNL d   1      -1.033   2.958   2.407  0.00  0.00     0.018 C 
ENDBRANCH   1   8
TORSDOF 1
ENDMDL
