MODEL 1
REMARK minimizedAffinity -4.7993865
REMARK minimizedRMSD -1
REMARK  1 active torsions:
REMARK  status: ('A' for Active; 'I' for Inactive)
REMARK    1  A    between atoms: C1_2  and  C2_3 
ROOT
ATOM      1  C2  UNL d   1      -0.451   1.044   0.226  0.00  0.00    -0.076 A 
ATOM      2  C3  UNL d   1      -1.366   1.349   1.249  0.00  0.00     0.004 A 
ATOM      3  C4  UNL d   1      -1.820   2.653   1.441  0.00  0.00    -0.003 A 
ATOM      4  C5  UNL d   1      -1.365   3.674   0.613  0.00  0.00     0.000 A 
ATOM      5  C6  UNL d   1      -0.470   3.387  -0.417  0.00  0.00     0.000 A 
ATOM      6  C7  UNL d   1      -0.016   2.075  -0.635  0.00  0.00    -0.073 A 
ATOM      7  C8  UNL d   1       0.954   1.823  -1.757  0.00  0.00     0.078 C 
ENDROOT
BRANCH   1   8
ATOM      8  C1  UNL d   1       0.027  -0.383   0.083  0.00  0.00     0.053 C 
ATOM      9  C   UNL d   1       0.719  -0.895   1.337  0.00  0.00     0.018 C 
ENDBRANCH   1   8
TORSDOF 1
ENDMDL
