MODEL 1
REMARK minimizedAffinity -5.81366253
REMARK minimizedRMSD -1
REMARK  1 active torsions:
REMARK  status: ('A' for Active; 'I' for Inactive)
REMARK    1  A    between atoms: C1_2  and  C2_3 
ROOT
ATOM      1  C2  UNL d   1       0.194   0.934   0.212  0.00  0.00    -0.076 A 
ATOM      2  C3  UNL d   1      -0.319   0.399   1.406  0.00  0.00     0.004 A 
ATOM      3  C4  UNL d   1      -1.291   1.080   2.137  0.00  0.00    -0.003 A 
ATOM      4  C5  UNL d   1      -1.767   2.306   1.685  0.00  0.00     0.000 A 
ATOM      5  C6  UNL d   1      -1.282   2.842   0.493  0.00  0.00     0.000 A 
ATOM      6  C7  UNL d   1      -0.314   2.161  -0.265  0.00  0.00    -0.073 A 
ATOM      7  C8  UNL d   1       0.178   2.789  -1.540  0.00  0.00     0.078 C 
ENDROOT
BRANCH   1   8
ATOM      8  C1  UNL d   1       1.267   0.163  -0.524  0.00  0.00     0.053 C 
ATOM      9  C   UNL d   1       0.919  -1.308  -0.690  0.00  0.00     0.018 C 
ENDBRANCH   1   8
TORSDOF 1
ENDMDL
