MODEL 1
REMARK minimizedAffinity -5.23988199
REMARK minimizedRMSD -1
REMARK  1 active torsions:
REMARK  status: ('A' for Active; 'I' for Inactive)
REMARK    1  A    between atoms: C1_2  and  C2_3 
ROOT
ATOM      1  C2  UNL d   1       0.066   0.698  -0.207  0.00  0.00    -0.076 A 
ATOM      2  C3  UNL d   1      -0.583  -0.044   0.795  0.00  0.00     0.004 A 
ATOM      3  C4  UNL d   1      -1.544   0.544   1.615  0.00  0.00    -0.003 A 
ATOM      4  C5  UNL d   1      -1.873   1.885   1.446  0.00  0.00     0.000 A 
ATOM      5  C6  UNL d   1      -1.252   2.632   0.445  0.00  0.00     0.000 A 
ATOM      6  C7  UNL d   1      -0.293   2.050  -0.401  0.00  0.00    -0.073 A 
ATOM      7  C8  UNL d   1       0.349   2.904  -1.459  0.00  0.00     0.078 C 
ENDROOT
BRANCH   1   8
ATOM      8  C1  UNL d   1       1.120   0.014  -1.048  0.00  0.00     0.053 C 
ATOM      9  C   UNL d   1       0.990  -1.501  -1.026  0.00  0.00     0.018 C 
ENDBRANCH   1   8
TORSDOF 1
ENDMDL
