MODEL 1
REMARK minimizedAffinity -4.60023403
REMARK minimizedRMSD -1
REMARK  1 active torsions:
REMARK  status: ('A' for Active; 'I' for Inactive)
REMARK    1  A    between atoms: C1_2  and  C2_3 
ROOT
ATOM      1  C2  UNL d   1      -0.248   2.150   0.567  0.00  0.00    -0.076 A 
ATOM      2  C3  UNL d   1       0.523   1.773  -0.546  0.00  0.00     0.004 A 
ATOM      3  C4  UNL d   1       0.925   0.451  -0.726  0.00  0.00    -0.003 A 
ATOM      4  C5  UNL d   1       0.561  -0.517   0.204  0.00  0.00     0.000 A 
ATOM      5  C6  UNL d   1      -0.219  -0.165   1.305  0.00  0.00     0.000 A 
ATOM      6  C7  UNL d   1      -0.646   1.161   1.493  0.00  0.00    -0.073 A 
ATOM      7  C8  UNL d   1      -1.481   1.486   2.701  0.00  0.00     0.078 C 
ENDROOT
BRANCH   1   8
ATOM      8  C1  UNL d   1      -0.632   3.604   0.724  0.00  0.00     0.053 C 
ATOM      9  C   UNL d   1       0.295   4.537  -0.040  0.00  0.00     0.018 C 
ENDBRANCH   1   8
TORSDOF 1
ENDMDL
