MODEL 1
REMARK minimizedAffinity -4.22065353
REMARK minimizedRMSD -1
REMARK  1 active torsions:
REMARK  status: ('A' for Active; 'I' for Inactive)
REMARK    1  A    between atoms: C1_2  and  C2_3 
ROOT
ATOM      1  C2  UNL d   1       0.007   0.252   0.147  0.00  0.00    -0.076 A 
ATOM      2  C3  UNL d   1      -0.910   1.024  -0.587  0.00  0.00     0.004 A 
ATOM      3  C4  UNL d   1      -1.983   1.653   0.042  0.00  0.00    -0.003 A 
ATOM      4  C5  UNL d   1      -2.156   1.520   1.415  0.00  0.00     0.000 A 
ATOM      5  C6  UNL d   1      -1.245   0.773   2.161  0.00  0.00     0.000 A 
ATOM      6  C7  UNL d   1      -0.149   0.146   1.545  0.00  0.00    -0.073 A 
ATOM      7  C8  UNL d   1       0.799  -0.652   2.398  0.00  0.00     0.078 C 
ENDROOT
BRANCH   1   8
ATOM      8  C1  UNL d   1       1.136  -0.429  -0.594  0.00  0.00     0.053 C 
ATOM      9  C   UNL d   1       0.668  -1.643  -1.380  0.00  0.00     0.018 C 
ENDBRANCH   1   8
TORSDOF 1
ENDMDL
