MODEL 1
REMARK minimizedAffinity -5.40469265
REMARK minimizedRMSD -1
REMARK  1 active torsions:
REMARK  status: ('A' for Active; 'I' for Inactive)
REMARK    1  A    between atoms: C1_2  and  C2_3 
ROOT
ATOM      1  C2  UNL d   1      -0.220   0.972   0.062  0.00  0.00    -0.076 A 
ATOM      2  C3  UNL d   1      -0.827   0.245   1.101  0.00  0.00     0.004 A 
ATOM      3  C4  UNL d   1      -1.747   0.850   1.956  0.00  0.00    -0.003 A 
ATOM      4  C5  UNL d   1      -2.075   2.190   1.787  0.00  0.00     0.000 A 
ATOM      5  C6  UNL d   1      -1.495   2.921   0.750  0.00  0.00     0.000 A 
ATOM      6  C7  UNL d   1      -0.578   2.323  -0.131  0.00  0.00    -0.073 A 
ATOM      7  C8  UNL d   1       0.021   3.161  -1.228  0.00  0.00     0.078 C 
ENDROOT
BRANCH   1   8
ATOM      8  C1  UNL d   1       0.790   0.271  -0.818  0.00  0.00     0.053 C 
ATOM      9  C   UNL d   1       0.389  -1.161  -1.140  0.00  0.00     0.018 C 
ENDBRANCH   1   8
TORSDOF 1
ENDMDL
