MODEL 1
REMARK minimizedAffinity -3.91361976
REMARK minimizedRMSD -1
REMARK  0 active torsions:
REMARK  status: ('A' for Active; 'I' for Inactive)
ROOT
ATOM      1  C   UNL d   1       0.862   0.258  -0.238  0.00  0.00     0.172 C 
ATOM      2  N   UNL d   1      -0.558   0.051  -0.401  0.00  0.00    -0.070 N 
ATOM      3  C1  UNL d   1      -1.334  -0.788   0.353  0.00  0.00    -0.004 A 
ATOM      4  C2  UNL d   1      -2.628  -0.700  -0.114  0.00  0.00    -0.047 A 
ATOM      5  C3  UNL d   1      -2.629   0.223  -1.187  0.00  0.00    -0.047 A 
ATOM      6  C4  UNL d   1      -1.335   0.673  -1.343  0.00  0.00    -0.004 A 
ENDROOT
TORSDOF 0
ENDMDL
