MODEL 1
REMARK minimizedAffinity -3.40561271
REMARK minimizedRMSD -1
REMARK  0 active torsions:
REMARK  status: ('A' for Active; 'I' for Inactive)
ROOT
ATOM      1  C   UNL d   1      -3.261  -0.255   0.106  0.00  0.00     0.172 C 
ATOM      2  N   UNL d   1      -1.833  -0.204  -0.102  0.00  0.00    -0.070 N 
ATOM      3  C1  UNL d   1      -0.882  -0.656   0.774  0.00  0.00    -0.004 A 
ATOM      4  C2  UNL d   1       0.354  -0.428   0.210  0.00  0.00    -0.047 A 
ATOM      5  C3  UNL d   1       0.139   0.181  -1.049  0.00  0.00    -0.047 A 
ATOM      6  C4  UNL d   1      -1.224   0.308  -1.217  0.00  0.00    -0.004 A 
ENDROOT
TORSDOF 0
ENDMDL
