MODEL 1
REMARK minimizedAffinity -2.35981822
REMARK minimizedRMSD -1
REMARK  0 active torsions:
REMARK  status: ('A' for Active; 'I' for Inactive)
ROOT
ATOM      1  C   UNL d   1       0.800  -0.368   1.051  0.00  0.00     0.172 C 
ATOM      2  N   UNL d   1       1.530   0.875   1.139  0.00  0.00    -0.070 N 
ATOM      3  C1  UNL d   1       1.830   1.545   2.295  0.00  0.00    -0.004 A 
ATOM      4  C2  UNL d   1       2.533   2.680   1.955  0.00  0.00    -0.047 A 
ATOM      5  C3  UNL d   1       2.658   2.694   0.545  0.00  0.00    -0.047 A 
ATOM      6  C4  UNL d   1       2.029   1.565   0.065  0.00  0.00    -0.004 A 
ENDROOT
TORSDOF 0
ENDMDL
