MODEL 1
REMARK minimizedAffinity -2.69730425
REMARK minimizedRMSD -1
REMARK  0 active torsions:
REMARK  status: ('A' for Active; 'I' for Inactive)
ROOT
ATOM      1  C   UNL d   1       0.887   0.257  -0.007  0.00  0.00     0.172 C 
ATOM      2  N   UNL d   1      -0.484  -0.116  -0.265  0.00  0.00    -0.070 N 
ATOM      3  C1  UNL d   1      -1.247   0.324  -1.314  0.00  0.00    -0.004 A 
ATOM      4  C2  UNL d   1      -2.491  -0.260  -1.205  0.00  0.00    -0.047 A 
ATOM      5  C3  UNL d   1      -2.475  -1.077  -0.050  0.00  0.00    -0.047 A 
ATOM      6  C4  UNL d   1      -1.221  -0.969   0.513  0.00  0.00    -0.004 A 
ENDROOT
TORSDOF 0
ENDMDL
