MODEL 1
REMARK minimizedAffinity -1.80171132
REMARK minimizedRMSD -1
REMARK  0 active torsions:
REMARK  status: ('A' for Active; 'I' for Inactive)
ROOT
ATOM      1  C   UNL d   1      -0.218   0.613  -1.670  0.00  0.00     0.172 C 
ATOM      2  N   UNL d   1      -1.197  -0.187  -0.973  0.00  0.00    -0.070 N 
ATOM      3  C1  UNL d   1      -1.213  -0.436   0.373  0.00  0.00    -0.004 A 
ATOM      4  C2  UNL d   1      -2.302  -1.236   0.642  0.00  0.00    -0.047 A 
ATOM      5  C3  UNL d   1      -2.964  -1.476  -0.585  0.00  0.00    -0.047 A 
ATOM      6  C4  UNL d   1      -2.259  -0.815  -1.569  0.00  0.00    -0.004 A 
ENDROOT
TORSDOF 0
ENDMDL
