MODEL 1
REMARK minimizedAffinity -0.701928914
REMARK minimizedRMSD -1
REMARK  0 active torsions:
REMARK  status: ('A' for Active; 'I' for Inactive)
ROOT
ATOM      1  C   UNL d   1       0.403  -1.544   1.178  0.00  0.00     0.172 C 
ATOM      2  N   UNL d   1      -0.286  -0.728   0.206  0.00  0.00    -0.070 N 
ATOM      3  C1  UNL d   1      -1.126  -1.190  -0.772  0.00  0.00    -0.004 A 
ATOM      4  C2  UNL d   1      -1.579  -0.102  -1.488  0.00  0.00    -0.047 A 
ATOM      5  C3  UNL d   1      -0.990   1.053  -0.921  0.00  0.00    -0.047 A 
ATOM      6  C4  UNL d   1      -0.194   0.636   0.126  0.00  0.00    -0.004 A 
ENDROOT
TORSDOF 0
ENDMDL
