MODEL 1
REMARK minimizedAffinity -4.09419775
REMARK minimizedRMSD -1
REMARK  0 active torsions:
REMARK  status: ('A' for Active; 'I' for Inactive)
ROOT
ATOM      1  C   UNL d   1       1.422  -0.066   0.246  0.00  0.00     0.172 C 
ATOM      2  N   UNL d   1       0.047  -0.143  -0.191  0.00  0.00    -0.070 N 
ATOM      3  C1  UNL d   1      -0.975  -0.747   0.491  0.00  0.00    -0.004 A 
ATOM      4  C2  UNL d   1      -2.124  -0.603  -0.256  0.00  0.00    -0.047 A 
ATOM      5  C3  UNL d   1      -1.780   0.112  -1.428  0.00  0.00    -0.047 A 
ATOM      6  C4  UNL d   1      -0.430   0.384  -1.362  0.00  0.00    -0.004 A 
ENDROOT
TORSDOF 0
ENDMDL
