MODEL 1
REMARK minimizedAffinity -3.1282568
REMARK minimizedRMSD -1
REMARK  0 active torsions:
REMARK  status: ('A' for Active; 'I' for Inactive)
ROOT
ATOM      1  C   UNL d   1       0.345   0.689   0.207  0.00  0.00     0.172 C 
ATOM      2  N   UNL d   1      -0.921   0.050  -0.064  0.00  0.00    -0.070 N 
ATOM      3  C1  UNL d   1      -1.329  -0.430  -1.281  0.00  0.00    -0.004 A 
ATOM      4  C2  UNL d   1      -2.590  -0.963  -1.123  0.00  0.00    -0.047 A 
ATOM      5  C3  UNL d   1      -2.953  -0.798   0.235  0.00  0.00    -0.047 A 
ATOM      6  C4  UNL d   1      -1.901  -0.169   0.867  0.00  0.00    -0.004 A 
ENDROOT
TORSDOF 0
ENDMDL
