MODEL 1
REMARK minimizedAffinity -3.39582372
REMARK minimizedRMSD -1
REMARK  0 active torsions:
REMARK  status: ('A' for Active; 'I' for Inactive)
ROOT
ATOM      1  C   UNL d   1       1.145   0.238   0.600  0.00  0.00     0.172 C 
ATOM      2  N   UNL d   1      -0.182   0.016   0.075  0.00  0.00    -0.070 N 
ATOM      3  C1  UNL d   1      -0.597   0.305  -1.198  0.00  0.00    -0.004 A 
ATOM      4  C2  UNL d   1      -1.923  -0.053  -1.301  0.00  0.00    -0.047 A 
ATOM      5  C3  UNL d   1      -2.321  -0.574  -0.047  0.00  0.00    -0.047 A 
ATOM      6  C4  UNL d   1      -1.224  -0.519   0.787  0.00  0.00    -0.004 A 
ENDROOT
TORSDOF 0
ENDMDL
