MODEL 1
REMARK minimizedAffinity -3.55504799
REMARK minimizedRMSD -1
REMARK  0 active torsions:
REMARK  status: ('A' for Active; 'I' for Inactive)
ROOT
ATOM      1  C   UNL d   1       0.731   0.400   0.011  0.00  0.00     0.172 C 
ATOM      2  N   UNL d   1      -0.608  -0.113  -0.160  0.00  0.00    -0.070 N 
ATOM      3  C1  UNL d   1      -1.323  -0.107  -1.328  0.00  0.00    -0.004 A 
ATOM      4  C2  UNL d   1      -2.549  -0.684  -1.075  0.00  0.00    -0.047 A 
ATOM      5  C3  UNL d   1      -2.572  -1.050   0.292  0.00  0.00    -0.047 A 
ATOM      6  C4  UNL d   1      -1.358  -0.685   0.834  0.00  0.00    -0.004 A 
ENDROOT
TORSDOF 0
ENDMDL
