MODEL 1
REMARK minimizedAffinity -3.84222698
REMARK minimizedRMSD -1
REMARK  0 active torsions:
REMARK  status: ('A' for Active; 'I' for Inactive)
ROOT
ATOM      1  C   UNL d   1       0.913   0.277   0.337  0.00  0.00     0.172 C 
ATOM      2  N   UNL d   1      -0.427   0.055  -0.154  0.00  0.00    -0.070 N 
ATOM      3  C1  UNL d   1      -0.899   0.432  -1.383  0.00  0.00    -0.004 A 
ATOM      4  C2  UNL d   1      -2.218   0.042  -1.467  0.00  0.00    -0.047 A 
ATOM      5  C3  UNL d   1      -2.551  -0.591  -0.245  0.00  0.00    -0.047 A 
ATOM      6  C4  UNL d   1      -1.424  -0.569   0.549  0.00  0.00    -0.004 A 
ENDROOT
TORSDOF 0
ENDMDL
