MODEL 1
REMARK minimizedAffinity -2.97185373
REMARK minimizedRMSD -1
REMARK  0 active torsions:
REMARK  status: ('A' for Active; 'I' for Inactive)
ROOT
ATOM      1  C   UNL d   1       0.995   0.393   0.284  0.00  0.00     0.172 C 
ATOM      2  N   UNL d   1      -0.267   0.134  -0.368  0.00  0.00    -0.070 N 
ATOM      3  C1  UNL d   1      -0.578   0.457  -1.662  0.00  0.00    -0.004 A 
ATOM      4  C2  UNL d   1      -1.871   0.045  -1.900  0.00  0.00    -0.047 A 
ATOM      5  C3  UNL d   1      -2.354  -0.546  -0.708  0.00  0.00    -0.047 A 
ATOM      6  C4  UNL d   1      -1.340  -0.477   0.224  0.00  0.00    -0.004 A 
ENDROOT
TORSDOF 0
ENDMDL
