MODEL 1
REMARK minimizedAffinity -3.30378652
REMARK minimizedRMSD -1
REMARK  0 active torsions:
REMARK  status: ('A' for Active; 'I' for Inactive)
ROOT
ATOM      1  C   UNL d   1      -2.720  -0.725  -0.098  0.00  0.00     0.172 C 
ATOM      2  N   UNL d   1      -1.330  -0.504   0.228  0.00  0.00    -0.070 N 
ATOM      3  C1  UNL d   1      -0.544  -1.336   0.979  0.00  0.00    -0.004 A 
ATOM      4  C2  UNL d   1       0.712  -0.773   1.058  0.00  0.00    -0.047 A 
ATOM      5  C3  UNL d   1       0.679   0.439   0.329  0.00  0.00    -0.047 A 
ATOM      6  C4  UNL d   1      -0.597   0.581  -0.174  0.00  0.00    -0.004 A 
ENDROOT
TORSDOF 0
ENDMDL
