MODEL 1
REMARK minimizedAffinity -3.88948727
REMARK minimizedRMSD -1
REMARK  0 active torsions:
REMARK  status: ('A' for Active; 'I' for Inactive)
ROOT
ATOM      1  C   UNL d   1       1.008   0.034   0.164  0.00  0.00     0.172 C 
ATOM      2  N   UNL d   1      -0.352  -0.439   0.055  0.00  0.00    -0.070 N 
ATOM      3  C1  UNL d   1      -0.983  -1.266   0.946  0.00  0.00    -0.004 A 
ATOM      4  C2  UNL d   1      -2.265  -1.481   0.487  0.00  0.00    -0.047 A 
ATOM      5  C3  UNL d   1      -2.409  -0.760  -0.722  0.00  0.00    -0.047 A 
ATOM      6  C4  UNL d   1      -1.210  -0.124  -0.965  0.00  0.00    -0.004 A 
ENDROOT
TORSDOF 0
ENDMDL
