MODEL 1
REMARK minimizedAffinity -3.19568658
REMARK minimizedRMSD -1
REMARK  0 active torsions:
REMARK  status: ('A' for Active; 'I' for Inactive)
ROOT
ATOM      1  C   UNL d   1       1.120   0.018   0.320  0.00  0.00     0.172 C 
ATOM      2  N   UNL d   1      -0.201  -0.013  -0.261  0.00  0.00    -0.070 N 
ATOM      3  C1  UNL d   1      -0.513   0.316  -1.553  0.00  0.00    -0.004 A 
ATOM      4  C2  UNL d   1      -1.872   0.156  -1.714  0.00  0.00    -0.047 A 
ATOM      5  C3  UNL d   1      -2.396  -0.284  -0.475  0.00  0.00    -0.047 A 
ATOM      6  C4  UNL d   1      -1.340  -0.381   0.406  0.00  0.00    -0.004 A 
ENDROOT
TORSDOF 0
ENDMDL
