MODEL 1
REMARK minimizedAffinity -3.44402766
REMARK minimizedRMSD -1
REMARK  0 active torsions:
REMARK  status: ('A' for Active; 'I' for Inactive)
ROOT
ATOM      1  C   UNL d   1      -2.833  -0.764  -0.006  0.00  0.00     0.172 C 
ATOM      2  N   UNL d   1      -1.435  -0.529   0.271  0.00  0.00    -0.070 N 
ATOM      3  C1  UNL d   1      -0.588   0.232  -0.490  0.00  0.00    -0.004 A 
ATOM      4  C2  UNL d   1       0.654   0.206   0.108  0.00  0.00    -0.047 A 
ATOM      5  C3  UNL d   1       0.549  -0.599   1.267  0.00  0.00    -0.047 A 
ATOM      6  C4  UNL d   1      -0.755  -1.041   1.344  0.00  0.00    -0.004 A 
ENDROOT
TORSDOF 0
ENDMDL
