MODEL 1
REMARK minimizedAffinity -1.04898357
REMARK minimizedRMSD -1
REMARK  1 active torsions:
REMARK  status: ('A' for Active; 'I' for Inactive)
REMARK    1  A    between atoms: C3_4  and  O_7 
ROOT
ATOM      1  C   UNL d   1       0.267  -3.890   4.815  0.00  0.00    -0.033 A 
ATOM      2  C1  UNL d   1      -1.065  -3.620   4.496  0.00  0.00     0.039 A 
ATOM      3  C2  UNL d   1      -1.373  -2.640   3.550  0.00  0.00    -0.080 A 
ATOM      4  C3  UNL d   1      -0.342  -1.941   2.929  0.00  0.00     0.150 A 
ATOM      5  C4  UNL d   1       0.987  -2.207   3.239  0.00  0.00    -0.007 A 
ATOM      6  C5  UNL d   1       1.294  -3.184   4.185  0.00  0.00     0.039 A 
ENDROOT
BRANCH   4   7
ATOM      7  O   UNL d   1      -0.594  -0.973   2.003  0.00  0.00    -0.526 OA
ATOM      8  H5  UNL d   1      -1.557  -0.878   1.911  0.00  0.00     0.418 HD
ENDBRANCH   4   7
TORSDOF 1
ENDMDL
