MODEL 1
REMARK minimizedAffinity 1.63089025
REMARK minimizedRMSD -1
REMARK  1 active torsions:
REMARK  status: ('A' for Active; 'I' for Inactive)
REMARK    1  A    between atoms: C3_4  and  O_7 
ROOT
ATOM      1  C   UNL d   1      -4.067  -4.674   5.911  0.00  0.00    -0.033 A 
ATOM      2  C1  UNL d   1      -3.571  -4.264   4.672  0.00  0.00     0.039 A 
ATOM      3  C2  UNL d   1      -4.207  -4.664   3.495  0.00  0.00    -0.080 A 
ATOM      4  C3  UNL d   1      -5.338  -5.472   3.571  0.00  0.00     0.150 A 
ATOM      5  C4  UNL d   1      -5.841  -5.881   4.802  0.00  0.00    -0.007 A 
ATOM      6  C5  UNL d   1      -5.203  -5.481   5.976  0.00  0.00     0.039 A 
ENDROOT
BRANCH   4   7
ATOM      7  O   UNL d   1      -5.991  -5.892   2.450  0.00  0.00    -0.526 OA
ATOM      8  H5  UNL d   1      -5.514  -5.556   1.673  0.00  0.00     0.418 HD
ENDBRANCH   4   7
TORSDOF 1
ENDMDL
