MODEL 1
REMARK minimizedAffinity -3.43166232
REMARK minimizedRMSD -1
REMARK  1 active torsions:
REMARK  status: ('A' for Active; 'I' for Inactive)
REMARK    1  A    between atoms: C3_4  and  O_7 
ROOT
ATOM      1  C   UNL d   1      -0.091  -5.999  -4.785  0.00  0.00    -0.033 A 
ATOM      2  C1  UNL d   1      -0.775  -5.782  -3.587  0.00  0.00     0.039 A 
ATOM      3  C2  UNL d   1      -2.006  -5.124  -3.593  0.00  0.00    -0.080 A 
ATOM      4  C3  UNL d   1      -2.543  -4.690  -4.802  0.00  0.00     0.150 A 
ATOM      5  C4  UNL d   1      -1.870  -4.906  -5.999  0.00  0.00    -0.007 A 
ATOM      6  C5  UNL d   1      -0.640  -5.562  -5.991  0.00  0.00     0.039 A 
ENDROOT
BRANCH   4   7
ATOM      7  O   UNL d   1      -3.740  -4.039  -4.857  0.00  0.00    -0.526 OA
ATOM      8  H5  UNL d   1      -4.076  -3.935  -3.951  0.00  0.00     0.418 HD
ENDBRANCH   4   7
TORSDOF 1
ENDMDL
