MODEL 1
REMARK minimizedAffinity -0.468028635
REMARK minimizedRMSD -1
REMARK  1 active torsions:
REMARK  status: ('A' for Active; 'I' for Inactive)
REMARK    1  A    between atoms: C3_4  and  O_7 
ROOT
ATOM      1  C   UNL d   1       0.693  -0.324  -0.222  0.00  0.00    -0.033 A 
ATOM      2  C1  UNL d   1      -0.327  -0.446   0.723  0.00  0.00     0.039 A 
ATOM      3  C2  UNL d   1      -0.294  -1.482   1.659  0.00  0.00    -0.080 A 
ATOM      4  C3  UNL d   1       0.763  -2.387   1.639  0.00  0.00     0.150 A 
ATOM      5  C4  UNL d   1       1.785  -2.270   0.702  0.00  0.00    -0.007 A 
ATOM      6  C5  UNL d   1       1.750  -1.235  -0.232  0.00  0.00     0.039 A 
ENDROOT
BRANCH   4   7
ATOM      7  O   UNL d   1       0.836  -3.417   2.529  0.00  0.00    -0.526 OA
ATOM      8  H5  UNL d   1       0.048  -3.390   3.097  0.00  0.00     0.418 HD
ENDBRANCH   4   7
TORSDOF 1
ENDMDL
