MODEL 1
REMARK minimizedAffinity 0.837989271
REMARK minimizedRMSD -1
REMARK  1 active torsions:
REMARK  status: ('A' for Active; 'I' for Inactive)
REMARK    1  A    between atoms: C3_4  and  O_7 
ROOT
ATOM      1  C   UNL d   1       0.083  -0.716   0.270  0.00  0.00    -0.033 A 
ATOM      2  C1  UNL d   1      -0.763   0.384   0.422  0.00  0.00     0.039 A 
ATOM      3  C2  UNL d   1      -2.053   0.354  -0.112  0.00  0.00    -0.080 A 
ATOM      4  C3  UNL d   1      -2.483  -0.780  -0.796  0.00  0.00     0.150 A 
ATOM      5  C4  UNL d   1      -1.647  -1.881  -0.948  0.00  0.00    -0.007 A 
ATOM      6  C5  UNL d   1      -0.359  -1.849  -0.414  0.00  0.00     0.039 A 
ENDROOT
BRANCH   4   7
ATOM      7  O   UNL d   1      -3.732  -0.853  -1.339  0.00  0.00    -0.526 OA
ATOM      8  H5  UNL d   1      -4.187  -0.009  -1.180  0.00  0.00     0.418 HD
ENDBRANCH   4   7
TORSDOF 1
ENDMDL
