MODEL 1
REMARK minimizedAffinity 6.69659567
REMARK minimizedRMSD -1
REMARK  1 active torsions:
REMARK  status: ('A' for Active; 'I' for Inactive)
REMARK    1  A    between atoms: C3_4  and  O_7 
ROOT
ATOM      1  C   UNL d   1       0.883  -3.498   4.910  0.00  0.00    -0.033 A 
ATOM      2  C1  UNL d   1      -0.395  -2.948   4.792  0.00  0.00     0.039 A 
ATOM      3  C2  UNL d   1      -0.800  -2.368   3.589  0.00  0.00    -0.080 A 
ATOM      4  C3  UNL d   1       0.081  -2.346   2.511  0.00  0.00     0.150 A 
ATOM      5  C4  UNL d   1       1.354  -2.896   2.619  0.00  0.00    -0.007 A 
ATOM      6  C5  UNL d   1       1.757  -3.474   3.822  0.00  0.00     0.039 A 
ENDROOT
BRANCH   4   7
ATOM      7  O   UNL d   1      -0.267  -1.786   1.317  0.00  0.00    -0.526 OA
ATOM      8  H5  UNL d   1      -1.164  -1.421   1.399  0.00  0.00     0.418 HD
ENDBRANCH   4   7
TORSDOF 1
ENDMDL
