MODEL 1
REMARK minimizedAffinity 3.10534024
REMARK minimizedRMSD -1
REMARK  1 active torsions:
REMARK  status: ('A' for Active; 'I' for Inactive)
REMARK    1  A    between atoms: C3_4  and  O_7 
ROOT
ATOM      1  C   UNL d   1      -0.863   2.673  -4.351  0.00  0.00    -0.033 A 
ATOM      2  C1  UNL d   1       0.064   2.728  -3.308  0.00  0.00     0.039 A 
ATOM      3  C2  UNL d   1      -0.371   2.674  -1.982  0.00  0.00    -0.080 A 
ATOM      4  C3  UNL d   1      -1.732   2.564  -1.713  0.00  0.00     0.150 A 
ATOM      5  C4  UNL d   1      -2.661   2.505  -2.747  0.00  0.00    -0.007 A 
ATOM      6  C5  UNL d   1      -2.225   2.560  -4.070  0.00  0.00     0.039 A 
ENDROOT
BRANCH   4   7
ATOM      7  O   UNL d   1      -2.204   2.512  -0.435  0.00  0.00    -0.526 OA
ATOM      8  H5  UNL d   1      -1.452   2.592   0.174  0.00  0.00     0.418 HD
ENDBRANCH   4   7
TORSDOF 1
ENDMDL
