MODEL 1
REMARK minimizedAffinity 2.76093459
REMARK minimizedRMSD -1
REMARK  1 active torsions:
REMARK  status: ('A' for Active; 'I' for Inactive)
REMARK    1  A    between atoms: C3_4  and  O_7 
ROOT
ATOM      1  C   UNL d   1       4.777   1.928  -3.324  0.00  0.00    -0.033 A 
ATOM      2  C1  UNL d   1       4.254   2.907  -2.477  0.00  0.00     0.039 A 
ATOM      3  C2  UNL d   1       2.872   3.039  -2.328  0.00  0.00    -0.080 A 
ATOM      4  C3  UNL d   1       2.025   2.186  -3.029  0.00  0.00     0.150 A 
ATOM      5  C4  UNL d   1       2.539   1.206  -3.872  0.00  0.00    -0.007 A 
ATOM      6  C5  UNL d   1       3.919   1.076  -4.020  0.00  0.00     0.039 A 
ENDROOT
BRANCH   4   7
ATOM      7  O   UNL d   1       0.669   2.280  -2.920  0.00  0.00    -0.526 OA
ATOM      8  H5  UNL d   1       0.459   3.020  -2.326  0.00  0.00     0.418 HD
ENDBRANCH   4   7
TORSDOF 1
ENDMDL
