MODEL 1
REMARK minimizedAffinity 4.32275343
REMARK minimizedRMSD -1
REMARK  1 active torsions:
REMARK  status: ('A' for Active; 'I' for Inactive)
REMARK    1  A    between atoms: C3_4  and  O_7 
ROOT
ATOM      1  C   UNL d   1       0.649  -3.329   4.625  0.00  0.00    -0.033 A 
ATOM      2  C1  UNL d   1      -0.513  -2.582   4.423  0.00  0.00     0.039 A 
ATOM      3  C2  UNL d   1      -0.718  -1.921   3.210  0.00  0.00    -0.080 A 
ATOM      4  C3  UNL d   1       0.245  -2.016   2.209  0.00  0.00     0.150 A 
ATOM      5  C4  UNL d   1       1.404  -2.761   2.403  0.00  0.00    -0.007 A 
ATOM      6  C5  UNL d   1       1.607  -3.420   3.614  0.00  0.00     0.039 A 
ENDROOT
BRANCH   4   7
ATOM      7  O   UNL d   1       0.092  -1.384   1.011  0.00  0.00    -0.526 OA
ATOM      8  H5  UNL d   1      -0.741  -0.884   1.031  0.00  0.00     0.418 HD
ENDBRANCH   4   7
TORSDOF 1
ENDMDL
