MODEL 1
REMARK minimizedAffinity 0.984310687
REMARK minimizedRMSD -1
REMARK  1 active torsions:
REMARK  status: ('A' for Active; 'I' for Inactive)
REMARK    1  A    between atoms: C3_4  and  O_7 
ROOT
ATOM      1  C   UNL d   1       0.731  -1.226   0.606  0.00  0.00    -0.033 A 
ATOM      2  C1  UNL d   1      -0.050  -0.097   0.863  0.00  0.00     0.039 A 
ATOM      3  C2  UNL d   1      -1.388  -0.067   0.468  0.00  0.00    -0.080 A 
ATOM      4  C3  UNL d   1      -1.934  -1.171  -0.182  0.00  0.00     0.150 A 
ATOM      5  C4  UNL d   1      -1.163  -2.300  -0.437  0.00  0.00    -0.007 A 
ATOM      6  C5  UNL d   1       0.174  -2.328  -0.043  0.00  0.00     0.039 A 
ENDROOT
BRANCH   4   7
ATOM      7  O   UNL d   1      -3.234  -1.186  -0.591  0.00  0.00    -0.526 OA
ATOM      8  H5  UNL d   1      -3.636  -0.328  -0.373  0.00  0.00     0.418 HD
ENDBRANCH   4   7
TORSDOF 1
ENDMDL
