MODEL 1
REMARK minimizedAffinity 3.15606785
REMARK minimizedRMSD -1
REMARK  1 active torsions:
REMARK  status: ('A' for Active; 'I' for Inactive)
REMARK    1  A    between atoms: C3_4  and  O_7 
ROOT
ATOM      1  C   UNL d   1      -3.340  -3.971  -5.999  0.00  0.00    -0.033 A 
ATOM      2  C1  UNL d   1      -3.257  -5.365  -6.000  0.00  0.00     0.039 A 
ATOM      3  C2  UNL d   1      -2.142  -6.000  -5.450  0.00  0.00    -0.080 A 
ATOM      4  C3  UNL d   1      -1.119  -5.231  -4.902  0.00  0.00     0.150 A 
ATOM      5  C4  UNL d   1      -1.197  -3.842  -4.894  0.00  0.00    -0.007 A 
ATOM      6  C5  UNL d   1      -2.311  -3.210  -5.445  0.00  0.00     0.039 A 
ENDROOT
BRANCH   4   7
ATOM      7  O   UNL d   1      -0.009  -5.805  -4.357  0.00  0.00    -0.526 OA
ATOM      8  H5  UNL d   1      -0.080  -6.769  -4.459  0.00  0.00     0.418 HD
ENDBRANCH   4   7
TORSDOF 1
ENDMDL
