MODEL 1
REMARK minimizedAffinity -0.84873569
REMARK minimizedRMSD -1
REMARK  1 active torsions:
REMARK  status: ('A' for Active; 'I' for Inactive)
REMARK    1  A    between atoms: C3_4  and  O_7 
ROOT
ATOM      1  C   UNL d   1       3.809   1.479  -2.637  0.00  0.00    -0.033 A 
ATOM      2  C1  UNL d   1       3.887   2.671  -3.360  0.00  0.00     0.039 A 
ATOM      3  C2  UNL d   1       2.725   3.263  -3.859  0.00  0.00    -0.080 A 
ATOM      4  C3  UNL d   1       1.494   2.655  -3.627  0.00  0.00     0.150 A 
ATOM      5  C4  UNL d   1       1.410   1.470  -2.904  0.00  0.00    -0.007 A 
ATOM      6  C5  UNL d   1       2.571   0.879  -2.408  0.00  0.00     0.039 A 
ENDROOT
BRANCH   4   7
ATOM      7  O   UNL d   1       0.334   3.194  -4.098  0.00  0.00    -0.526 OA
ATOM      8  H5  UNL d   1       0.549   3.996  -4.603  0.00  0.00     0.418 HD
ENDBRANCH   4   7
TORSDOF 1
ENDMDL
