MODEL 1
REMARK minimizedAffinity 6.52748299
REMARK minimizedRMSD -1
REMARK  1 active torsions:
REMARK  status: ('A' for Active; 'I' for Inactive)
REMARK    1  A    between atoms: C3_4  and  O_7 
ROOT
ATOM      1  C   UNL d   1      -1.461   2.668  -3.481  0.00  0.00    -0.033 A 
ATOM      2  C1  UNL d   1      -1.566   2.702  -2.089  0.00  0.00     0.039 A 
ATOM      3  C2  UNL d   1      -2.626   3.381  -1.484  0.00  0.00    -0.080 A 
ATOM      4  C3  UNL d   1      -3.573   4.018  -2.281  0.00  0.00     0.150 A 
ATOM      5  C4  UNL d   1      -3.477   3.984  -3.668  0.00  0.00    -0.007 A 
ATOM      6  C5  UNL d   1      -2.417   3.307  -4.271  0.00  0.00     0.039 A 
ENDROOT
BRANCH   4   7
ATOM      7  O   UNL d   1      -4.622   4.697  -1.736  0.00  0.00    -0.526 OA
ATOM      8  H5  UNL d   1      -4.544   4.659  -0.768  0.00  0.00     0.418 HD
ENDBRANCH   4   7
TORSDOF 1
ENDMDL
