MODEL 1
REMARK minimizedAffinity -5.11990643
REMARK minimizedRMSD -1
REMARK  1 active torsions:
REMARK  status: ('A' for Active; 'I' for Inactive)
REMARK    1  A    between atoms: C3_4  and  O_7 
ROOT
ATOM      1  C   UNL d   1      -0.232  -2.304   1.768  0.00  0.00    -0.033 A 
ATOM      2  C1  UNL d   1      -1.145  -2.327   0.712  0.00  0.00     0.039 A 
ATOM      3  C2  UNL d   1      -2.516  -2.253   0.970  0.00  0.00    -0.080 A 
ATOM      4  C3  UNL d   1      -2.959  -2.157   2.286  0.00  0.00     0.150 A 
ATOM      5  C4  UNL d   1      -2.054  -2.130   3.343  0.00  0.00    -0.007 A 
ATOM      6  C5  UNL d   1      -0.687  -2.205   3.083  0.00  0.00     0.039 A 
ENDROOT
BRANCH   4   7
ATOM      7  O   UNL d   1      -4.287  -2.088   2.588  0.00  0.00    -0.526 OA
ATOM      8  H5  UNL d   1      -4.793  -2.146   1.760  0.00  0.00     0.418 HD
ENDBRANCH   4   7
TORSDOF 1
ENDMDL
