MODEL 1
REMARK minimizedAffinity -1.15866077
REMARK minimizedRMSD -1
REMARK  1 active torsions:
REMARK  status: ('A' for Active; 'I' for Inactive)
REMARK    1  A    between atoms: C3_4  and  O_7 
ROOT
ATOM      1  C   UNL d   1      -0.485  -1.112   1.792  0.00  0.00    -0.033 A 
ATOM      2  C1  UNL d   1      -0.964  -1.570   3.021  0.00  0.00     0.039 A 
ATOM      3  C2  UNL d   1      -0.233  -2.510   3.750  0.00  0.00    -0.080 A 
ATOM      4  C3  UNL d   1       0.973  -2.983   3.241  0.00  0.00     0.150 A 
ATOM      5  C4  UNL d   1       1.458  -2.528   2.019  0.00  0.00    -0.007 A 
ATOM      6  C5  UNL d   1       0.726  -1.590   1.291  0.00  0.00     0.039 A 
ENDROOT
BRANCH   4   7
ATOM      7  O   UNL d   1       1.719  -3.904   3.914  0.00  0.00    -0.526 OA
ATOM      8  H5  UNL d   1       1.246  -4.147   4.727  0.00  0.00     0.418 HD
ENDBRANCH   4   7
TORSDOF 1
ENDMDL
