MODEL 1
REMARK minimizedAffinity -3.1285224
REMARK minimizedRMSD -1
REMARK  1 active torsions:
REMARK  status: ('A' for Active; 'I' for Inactive)
REMARK    1  A    between atoms: C3_4  and  O_7 
ROOT
ATOM      1  C   UNL d   1      -4.525  -4.044  -6.000  0.00  0.00    -0.033 A 
ATOM      2  C1  UNL d   1      -3.424  -3.193  -5.883  0.00  0.00     0.039 A 
ATOM      3  C2  UNL d   1      -2.139  -3.723  -5.761  0.00  0.00    -0.080 A 
ATOM      4  C3  UNL d   1      -1.967  -5.105  -5.759  0.00  0.00     0.150 A 
ATOM      5  C4  UNL d   1      -3.059  -5.959  -5.879  0.00  0.00    -0.007 A 
ATOM      6  C5  UNL d   1      -4.342  -5.427  -6.000  0.00  0.00     0.039 A 
ENDROOT
BRANCH   4   7
ATOM      7  O   UNL d   1      -0.732  -5.669  -5.637  0.00  0.00    -0.526 OA
ATOM      8  H5  UNL d   1      -0.078  -4.959  -5.534  0.00  0.00     0.418 HD
ENDBRANCH   4   7
TORSDOF 1
ENDMDL
