MODEL 1
REMARK minimizedAffinity -1.90876329
REMARK minimizedRMSD -1
REMARK  0 active torsions:
REMARK  status: ('A' for Active; 'I' for Inactive)
ROOT
ATOM      1  C2' OXE d   1      -0.836   1.031  -0.506  0.00  0.00     0.078 C 
ATOM      2  C1' OXE d   1      -1.118  -0.529   1.811  0.00  0.00     0.078 C 
ATOM      3  C1  OXE d   1       0.228  -0.517   1.131  0.00  0.00    -0.078 A 
ATOM      4  C2  OXE d   1       0.344   0.212  -0.028  0.00  0.00    -0.078 A 
ATOM      5  C3  OXE d   1       1.578   0.301  -0.666  0.00  0.00     0.003 A 
ATOM      6  C4  OXE d   1       2.662  -0.467  -0.223  0.00  0.00    -0.002 A 
ATOM      7  C5  OXE d   1       2.554  -1.247   0.933  0.00  0.00    -0.002 A 
ATOM      8  C6  OXE d   1       1.359  -1.250   1.644  0.00  0.00     0.003 A 
ENDROOT
TORSDOF 0
ENDMDL
