MODEL 1
REMARK minimizedAffinity -2.94332004
REMARK minimizedRMSD -1
REMARK  0 active torsions:
REMARK  status: ('A' for Active; 'I' for Inactive)
ROOT
ATOM      1  C2' OXE d   1      -0.657   0.820  -0.614  0.00  0.00     0.078 C 
ATOM      2  C1' OXE d   1       1.798  -0.541  -0.585  0.00  0.00     0.078 C 
ATOM      3  C1  OXE d   1       0.860  -0.757   0.576  0.00  0.00    -0.078 A 
ATOM      4  C2  OXE d   1      -0.319  -0.051   0.576  0.00  0.00    -0.078 A 
ATOM      5  C3  OXE d   1      -1.244  -0.255   1.596  0.00  0.00     0.003 A 
ATOM      6  C4  OXE d   1      -0.919  -1.055   2.698  0.00  0.00    -0.002 A 
ATOM      7  C5  OXE d   1       0.293  -1.752   2.737  0.00  0.00    -0.002 A 
ATOM      8  C6  OXE d   1       1.173  -1.648   1.666  0.00  0.00     0.003 A 
ENDROOT
TORSDOF 0
ENDMDL
