MODEL 1
REMARK minimizedAffinity -3.6938417
REMARK minimizedRMSD -1
REMARK  0 active torsions:
REMARK  status: ('A' for Active; 'I' for Inactive)
ROOT
ATOM      1  C2' OXE d   1      -0.762   0.992  -0.325  0.00  0.00     0.078 C 
ATOM      2  C1' OXE d   1      -1.079  -0.610   1.958  0.00  0.00     0.078 C 
ATOM      3  C1  OXE d   1       0.215  -0.726   1.191  0.00  0.00    -0.078 A 
ATOM      4  C2  OXE d   1       0.342   0.027   0.049  0.00  0.00    -0.078 A 
ATOM      5  C3  OXE d   1       1.536  -0.001  -0.665  0.00  0.00     0.003 A 
ATOM      6  C4  OXE d   1       2.549  -0.903  -0.318  0.00  0.00    -0.002 A 
ATOM      7  C5  OXE d   1       2.423  -1.709   0.819  0.00  0.00    -0.002 A 
ATOM      8  C6  OXE d   1       1.282  -1.602   1.607  0.00  0.00     0.003 A 
ENDROOT
TORSDOF 0
ENDMDL
