MODEL 1
REMARK minimizedAffinity -1.66286552
REMARK minimizedRMSD -1
REMARK  0 active torsions:
REMARK  status: ('A' for Active; 'I' for Inactive)
ROOT
ATOM      1  C2' OXE d   1      -0.185   1.063  -0.070  0.00  0.00     0.078 C 
ATOM      2  C1' OXE d   1       0.002  -0.716   2.093  0.00  0.00     0.078 C 
ATOM      3  C1  OXE d   1       1.080  -0.774   1.040  0.00  0.00    -0.078 A 
ATOM      4  C2  OXE d   1       0.955   0.068  -0.039  0.00  0.00    -0.078 A 
ATOM      5  C3  OXE d   1       1.950   0.094  -1.012  0.00  0.00     0.003 A 
ATOM      6  C4  OXE d   1       2.996  -0.836  -0.981  0.00  0.00    -0.002 A 
ATOM      7  C5  OXE d   1       3.121  -1.729   0.089  0.00  0.00    -0.002 A 
ATOM      8  C6  OXE d   1       2.196  -1.682   1.127  0.00  0.00     0.003 A 
ENDROOT
TORSDOF 0
ENDMDL
