MODEL 1
REMARK minimizedAffinity -1.84306777
REMARK minimizedRMSD -1
REMARK  0 active torsions:
REMARK  status: ('A' for Active; 'I' for Inactive)
ROOT
ATOM      1  C2' OXE d   1       0.752   0.369  -2.263  0.00  0.00     0.078 C 
ATOM      2  C1' OXE d   1      -1.162   2.312  -1.600  0.00  0.00     0.078 C 
ATOM      3  C1  OXE d   1      -0.905   1.209  -0.604  0.00  0.00    -0.078 A 
ATOM      4  C2  OXE d   1      -0.000   0.237  -0.956  0.00  0.00    -0.078 A 
ATOM      5  C3  OXE d   1       0.314  -0.773  -0.051  0.00  0.00     0.003 A 
ATOM      6  C4  OXE d   1      -0.394  -0.894   1.151  0.00  0.00    -0.002 A 
ATOM      7  C5  OXE d   1      -1.347   0.064   1.512  0.00  0.00    -0.002 A 
ATOM      8  C6  OXE d   1      -1.584   1.143   0.667  0.00  0.00     0.003 A 
ENDROOT
TORSDOF 0
ENDMDL
