MODEL 1
REMARK minimizedAffinity -5.44531155
REMARK minimizedRMSD -1
REMARK  0 active torsions:
REMARK  status: ('A' for Active; 'I' for Inactive)
ROOT
ATOM      1  C2' OXE d   1       3.384   0.463  -0.340  0.00  0.00     0.078 C 
ATOM      2  C1' OXE d   1       3.046  -1.494   1.644  0.00  0.00     0.078 C 
ATOM      3  C1  OXE d   1       1.810  -0.819   1.103  0.00  0.00    -0.078 A 
ATOM      4  C2  OXE d   1       1.989   0.170   0.167  0.00  0.00    -0.078 A 
ATOM      5  C3  OXE d   1       0.879   0.787  -0.404  0.00  0.00     0.003 A 
ATOM      6  C4  OXE d   1      -0.408   0.518   0.077  0.00  0.00    -0.002 A 
ATOM      7  C5  OXE d   1      -0.608  -0.458   1.059  0.00  0.00    -0.002 A 
ATOM      8  C6  OXE d   1       0.484  -1.164   1.551  0.00  0.00     0.003 A 
ENDROOT
TORSDOF 0
ENDMDL
