MODEL 1
REMARK minimizedAffinity -4.59771061
REMARK minimizedRMSD -1
REMARK  0 active torsions:
REMARK  status: ('A' for Active; 'I' for Inactive)
ROOT
ATOM      1  C2' OXE d   1      -1.130  -1.089   1.537  0.00  0.00     0.078 C 
ATOM      2  C1' OXE d   1      -0.501   1.181   0.010  0.00  0.00     0.078 C 
ATOM      3  C1  OXE d   1       0.593   0.171   0.251  0.00  0.00    -0.078 A 
ATOM      4  C2  OXE d   1       0.289  -0.914   1.039  0.00  0.00    -0.078 A 
ATOM      5  C3  OXE d   1       1.245  -1.904   1.247  0.00  0.00     0.003 A 
ATOM      6  C4  OXE d   1       2.557  -1.729   0.791  0.00  0.00    -0.002 A 
ATOM      7  C5  OXE d   1       2.898  -0.613   0.021  0.00  0.00    -0.002 A 
ATOM      8  C6  OXE d   1       1.919   0.324  -0.293  0.00  0.00     0.003 A 
ENDROOT
TORSDOF 0
ENDMDL
