MODEL 1
REMARK minimizedAffinity -5.09044886
REMARK minimizedRMSD -1
REMARK  0 active torsions:
REMARK  status: ('A' for Active; 'I' for Inactive)
ROOT
ATOM      1  C2' OXE d   1       3.649  -0.030  -0.641  0.00  0.00     0.078 C 
ATOM      2  C1' OXE d   1       2.548  -2.159   0.822  0.00  0.00     0.078 C 
ATOM      3  C1  OXE d   1       1.660  -0.977   0.522  0.00  0.00    -0.078 A 
ATOM      4  C2  OXE d   1       2.220   0.080  -0.153  0.00  0.00    -0.078 A 
ATOM      5  C3  OXE d   1       1.430   1.171  -0.503  0.00  0.00     0.003 A 
ATOM      6  C4  OXE d   1       0.113   1.270  -0.040  0.00  0.00    -0.002 A 
ATOM      7  C5  OXE d   1      -0.466   0.222   0.684  0.00  0.00    -0.002 A 
ATOM      8  C6  OXE d   1       0.279  -0.924   0.937  0.00  0.00     0.003 A 
ENDROOT
TORSDOF 0
ENDMDL
