MODEL 1
REMARK minimizedAffinity -4.993999
REMARK minimizedRMSD -1
REMARK  0 active torsions:
REMARK  status: ('A' for Active; 'I' for Inactive)
ROOT
ATOM      1  C2' OXE d   1       1.610  -0.313  -0.323  0.00  0.00     0.078 C 
ATOM      2  C1' OXE d   1       1.815  -2.645   1.226  0.00  0.00     0.078 C 
ATOM      3  C1  OXE d   1       0.498  -1.911   1.231  0.00  0.00    -0.078 A 
ATOM      4  C2  OXE d   1       0.421  -0.745   0.507  0.00  0.00    -0.078 A 
ATOM      5  C3  OXE d   1      -0.787  -0.058   0.434  0.00  0.00     0.003 A 
ATOM      6  C4  OXE d   1      -1.879  -0.458   1.213  0.00  0.00    -0.002 A 
ATOM      7  C5  OXE d   1      -1.810  -1.621   1.989  0.00  0.00    -0.002 A 
ATOM      8  C6  OXE d   1      -0.645  -2.380   1.975  0.00  0.00     0.003 A 
ENDROOT
TORSDOF 0
ENDMDL
