MODEL 1
REMARK minimizedAffinity -4.62787962
REMARK minimizedRMSD -1
REMARK  0 active torsions:
REMARK  status: ('A' for Active; 'I' for Inactive)
ROOT
ATOM      1  C2' OXE d   1      -1.772   1.896  -3.618  0.00  0.00     0.078 C 
ATOM      2  C1' OXE d   1      -2.666  -0.614  -2.735  0.00  0.00     0.078 C 
ATOM      3  C1  OXE d   1      -1.677   0.124  -1.869  0.00  0.00    -0.078 A 
ATOM      4  C2  OXE d   1      -1.209   1.331  -2.332  0.00  0.00    -0.078 A 
ATOM      5  C3  OXE d   1      -0.337   2.079  -1.546  0.00  0.00     0.003 A 
ATOM      6  C4  OXE d   1       0.186   1.545  -0.362  0.00  0.00    -0.002 A 
ATOM      7  C5  OXE d   1      -0.247   0.301   0.107  0.00  0.00    -0.002 A 
ATOM      8  C6  OXE d   1      -1.208  -0.402  -0.611  0.00  0.00     0.003 A 
ENDROOT
TORSDOF 0
ENDMDL
