MODEL 1
REMARK minimizedAffinity -3.73166966
REMARK minimizedRMSD -1
REMARK  0 active torsions:
REMARK  status: ('A' for Active; 'I' for Inactive)
ROOT
ATOM      1  C2' OXE d   1       1.134  -3.220   1.345  0.00  0.00     0.078 C 
ATOM      2  C1' OXE d   1       3.090  -1.736  -0.015  0.00  0.00     0.078 C 
ATOM      3  C1  OXE d   1       1.715  -1.131   0.118  0.00  0.00    -0.078 A 
ATOM      4  C2  OXE d   1       0.751  -1.885   0.745  0.00  0.00    -0.078 A 
ATOM      5  C3  OXE d   1      -0.519  -1.352   0.943  0.00  0.00     0.003 A 
ATOM      6  C4  OXE d   1      -0.868  -0.121   0.375  0.00  0.00    -0.002 A 
ATOM      7  C5  OXE d   1       0.087   0.645  -0.301  0.00  0.00    -0.002 A 
ATOM      8  C6  OXE d   1       1.392   0.175  -0.401  0.00  0.00     0.003 A 
ENDROOT
TORSDOF 0
ENDMDL
