MODEL 1
REMARK minimizedAffinity -5.17915297
REMARK minimizedRMSD -1
REMARK  0 active torsions:
REMARK  status: ('A' for Active; 'I' for Inactive)
ROOT
ATOM      1  C2' OXE d   1      -1.534  -1.338   1.170  0.00  0.00     0.078 C 
ATOM      2  C1' OXE d   1      -0.930   1.213   0.165  0.00  0.00     0.078 C 
ATOM      3  C1  OXE d   1       0.177   0.190   0.198  0.00  0.00    -0.078 A 
ATOM      4  C2  OXE d   1      -0.115  -1.041   0.735  0.00  0.00    -0.078 A 
ATOM      5  C3  OXE d   1       0.856  -2.039   0.739  0.00  0.00     0.003 A 
ATOM      6  C4  OXE d   1       2.168  -1.753   0.344  0.00  0.00    -0.002 A 
ATOM      7  C5  OXE d   1       2.497  -0.494  -0.169  0.00  0.00    -0.002 A 
ATOM      8  C6  OXE d   1       1.505   0.474  -0.288  0.00  0.00     0.003 A 
ENDROOT
TORSDOF 0
ENDMDL
