MODEL 1
REMARK minimizedAffinity -4.1693244
REMARK minimizedRMSD -1
REMARK  0 active torsions:
REMARK  status: ('A' for Active; 'I' for Inactive)
ROOT
ATOM      1  C2' OXE d   1       2.250   0.793  -0.780  0.00  0.00     0.078 C 
ATOM      2  C1' OXE d   1      -0.523   1.176  -0.576  0.00  0.00     0.078 C 
ATOM      3  C1  OXE d   1       0.091   0.048   0.214  0.00  0.00    -0.078 A 
ATOM      4  C2  OXE d   1       1.442  -0.162   0.071  0.00  0.00    -0.078 A 
ATOM      5  C3  OXE d   1       2.068  -1.155   0.819  0.00  0.00     0.003 A 
ATOM      6  C4  OXE d   1       1.311  -2.040   1.597  0.00  0.00    -0.002 A 
ATOM      7  C5  OXE d   1      -0.071  -1.869   1.724  0.00  0.00    -0.002 A 
ATOM      8  C6  OXE d   1      -0.689  -0.807   1.074  0.00  0.00     0.003 A 
ENDROOT
TORSDOF 0
ENDMDL
