MODEL 1
REMARK minimizedAffinity -3.88442636
REMARK minimizedRMSD -1
REMARK  0 active torsions:
REMARK  status: ('A' for Active; 'I' for Inactive)
ROOT
ATOM      1  C2' OXE d   1      -1.396  -0.797   1.900  0.00  0.00     0.078 C 
ATOM      2  C1' OXE d   1      -0.578   1.294   0.215  0.00  0.00     0.078 C 
ATOM      3  C1  OXE d   1       0.419   0.203   0.517  0.00  0.00    -0.078 A 
ATOM      4  C2  OXE d   1       0.025  -0.792   1.380  0.00  0.00    -0.078 A 
ATOM      5  C3  OXE d   1       0.887  -1.852   1.648  0.00  0.00     0.003 A 
ATOM      6  C4  OXE d   1       2.203  -1.834   1.171  0.00  0.00    -0.002 A 
ATOM      7  C5  OXE d   1       2.637  -0.810   0.323  0.00  0.00    -0.002 A 
ATOM      8  C6  OXE d   1       1.746   0.192  -0.047  0.00  0.00     0.003 A 
ENDROOT
TORSDOF 0
ENDMDL
