MODEL 1
REMARK minimizedAffinity -0.525188684
REMARK minimizedRMSD -1
REMARK  0 active torsions:
REMARK  status: ('A' for Active; 'I' for Inactive)
ROOT
ATOM      1  C2' OXE d   1       4.473  -1.245   1.727  0.00  0.00     0.078 C 
ATOM      2  C1' OXE d   1       2.996   0.394  -0.008  0.00  0.00     0.078 C 
ATOM      3  C1  OXE d   1       2.300  -0.802   0.593  0.00  0.00    -0.078 A 
ATOM      4  C2  OXE d   1       3.045  -1.625   1.404  0.00  0.00    -0.078 A 
ATOM      5  C3  OXE d   1       2.437  -2.711   2.027  0.00  0.00     0.003 A 
ATOM      6  C4  OXE d   1       1.118  -3.061   1.714  0.00  0.00    -0.002 A 
ATOM      7  C5  OXE d   1       0.354  -2.259   0.860  0.00  0.00    -0.002 A 
ATOM      8  C6  OXE d   1       0.916  -1.105   0.325  0.00  0.00     0.003 A 
ENDROOT
TORSDOF 0
ENDMDL
