MODEL 1
REMARK minimizedAffinity -4.12609005
REMARK minimizedRMSD -1
REMARK  0 active torsions:
REMARK  status: ('A' for Active; 'I' for Inactive)
ROOT
ATOM      1  C2' OXE d   1      -1.453  -1.871   0.902  0.00  0.00     0.078 C 
ATOM      2  C1' OXE d   1      -0.704   0.476  -0.442  0.00  0.00     0.078 C 
ATOM      3  C1  OXE d   1       0.388  -0.352   0.188  0.00  0.00    -0.078 A 
ATOM      4  C2  OXE d   1       0.007  -1.475   0.884  0.00  0.00    -0.078 A 
ATOM      5  C3  OXE d   1       0.978  -2.304   1.438  0.00  0.00     0.003 A 
ATOM      6  C4  OXE d   1       2.326  -1.925   1.425  0.00  0.00    -0.002 A 
ATOM      7  C5  OXE d   1       2.731  -0.765   0.756  0.00  0.00    -0.002 A 
ATOM      8  C6  OXE d   1       1.781   0.008   0.098  0.00  0.00     0.003 A 
ENDROOT
TORSDOF 0
ENDMDL
