MODEL 1
REMARK minimizedAffinity -1.58764827
REMARK minimizedRMSD -1
REMARK  0 active torsions:
REMARK  status: ('A' for Active; 'I' for Inactive)
ROOT
ATOM      1  C2' OXE d   1      -1.710  -1.031   2.047  0.00  0.00     0.078 C 
ATOM      2  C1' OXE d   1       0.586  -2.165   0.898  0.00  0.00     0.078 C 
ATOM      3  C1  OXE d   1       0.258  -0.734   0.550  0.00  0.00    -0.078 A 
ATOM      4  C2  OXE d   1      -0.892  -0.202   1.080  0.00  0.00    -0.078 A 
ATOM      5  C3  OXE d   1      -1.213   1.130   0.834  0.00  0.00     0.003 A 
ATOM      6  C4  OXE d   1      -0.457   1.886  -0.070  0.00  0.00    -0.002 A 
ATOM      7  C5  OXE d   1       0.697   1.350  -0.652  0.00  0.00    -0.002 A 
ATOM      8  C6  OXE d   1       1.092   0.059  -0.320  0.00  0.00     0.003 A 
ENDROOT
TORSDOF 0
ENDMDL
