MODEL 1
REMARK minimizedAffinity -2.96711636
REMARK minimizedRMSD -1
REMARK  0 active torsions:
REMARK  status: ('A' for Active; 'I' for Inactive)
ROOT
ATOM      1  C2' OXE d   1       1.833   1.165  -0.884  0.00  0.00     0.078 C 
ATOM      2  C1' OXE d   1      -0.907   1.505  -0.379  0.00  0.00     0.078 C 
ATOM      3  C1  OXE d   1      -0.244   0.258   0.150  0.00  0.00    -0.078 A 
ATOM      4  C2  OXE d   1       1.087   0.077  -0.143  0.00  0.00    -0.078 A 
ATOM      5  C3  OXE d   1       1.760  -1.030   0.367  0.00  0.00     0.003 A 
ATOM      6  C4  OXE d   1       1.060  -2.036   1.043  0.00  0.00    -0.002 A 
ATOM      7  C5  OXE d   1      -0.304  -1.890   1.317  0.00  0.00    -0.002 A 
ATOM      8  C6  OXE d   1      -0.960  -0.732   0.915  0.00  0.00     0.003 A 
ENDROOT
TORSDOF 0
ENDMDL
