MODEL 1
REMARK minimizedAffinity 2.48248649
REMARK minimizedRMSD -1
REMARK  0 active torsions:
REMARK  status: ('A' for Active; 'I' for Inactive)
ROOT
ATOM      1  C1  BNZ d   1      -0.985  -5.534   1.669  0.00  0.00     0.000 A 
ATOM      2  C2  BNZ d   1      -0.486  -4.263   1.566  0.00  0.00     0.000 A 
ATOM      3  C3  BNZ d   1      -1.290  -3.223   1.191  0.00  0.00     0.000 A 
ATOM      4  C4  BNZ d   1      -2.581  -3.462   0.881  0.00  0.00     0.000 A 
ATOM      5  C5  BNZ d   1      -3.097  -4.739   0.972  0.00  0.00     0.000 A 
ATOM      6  C6  BNZ d   1      -2.294  -5.776   1.387  0.00  0.00     0.000 A 
ENDROOT
TORSDOF 0
ENDMDL
