MODEL 1
REMARK minimizedAffinity 13.8419561
REMARK minimizedRMSD -1
REMARK  0 active torsions:
REMARK  status: ('A' for Active; 'I' for Inactive)
ROOT
ATOM      1  C1  BNZ d   1      -5.999   5.971   4.786  0.00  0.00     0.000 A 
ATOM      2  C2  BNZ d   1      -5.999   5.528   3.490  0.00  0.00     0.000 A 
ATOM      3  C3  BNZ d   1      -5.286   4.419   3.129  0.00  0.00     0.000 A 
ATOM      4  C4  BNZ d   1      -4.544   3.777   4.055  0.00  0.00     0.000 A 
ATOM      5  C5  BNZ d   1      -4.527   4.217   5.364  0.00  0.00     0.000 A 
ATOM      6  C6  BNZ d   1      -5.276   5.311   5.731  0.00  0.00     0.000 A 
ENDROOT
TORSDOF 0
ENDMDL
