MODEL 1
REMARK minimizedAffinity 13.2556953
REMARK minimizedRMSD -1
REMARK  0 active torsions:
REMARK  status: ('A' for Active; 'I' for Inactive)
ROOT
ATOM      1  C1  BNZ d   1      -1.380   2.264   3.792  0.00  0.00     0.000 A 
ATOM      2  C2  BNZ d   1      -2.569   2.942   3.757  0.00  0.00     0.000 A 
ATOM      3  C3  BNZ d   1      -3.755   2.270   3.645  0.00  0.00     0.000 A 
ATOM      4  C4  BNZ d   1      -3.747   0.927   3.529  0.00  0.00     0.000 A 
ATOM      5  C5  BNZ d   1      -2.555   0.230   3.554  0.00  0.00     0.000 A 
ATOM      6  C6  BNZ d   1      -1.367   0.906   3.705  0.00  0.00     0.000 A 
ENDROOT
TORSDOF 0
ENDMDL
