MODEL 1
REMARK minimizedAffinity 7.54760504
REMARK minimizedRMSD -1
REMARK  0 active torsions:
REMARK  status: ('A' for Active; 'I' for Inactive)
ROOT
ATOM      1  C1  BNZ d   1      -4.279  -5.161  -2.049  0.00  0.00     0.000 A 
ATOM      2  C2  BNZ d   1      -3.028  -4.626  -1.895  0.00  0.00     0.000 A 
ATOM      3  C3  BNZ d   1      -2.781  -3.319  -2.210  0.00  0.00     0.000 A 
ATOM      4  C4  BNZ d   1      -3.775  -2.560  -2.715  0.00  0.00     0.000 A 
ATOM      5  C5  BNZ d   1      -5.040  -3.087  -2.885  0.00  0.00     0.000 A 
ATOM      6  C6  BNZ d   1      -5.294  -4.392  -2.530  0.00  0.00     0.000 A 
ENDROOT
TORSDOF 0
ENDMDL
