MODEL 1
REMARK minimizedAffinity 8.30214882
REMARK minimizedRMSD -1
REMARK  0 active torsions:
REMARK  status: ('A' for Active; 'I' for Inactive)
ROOT
ATOM      1  C1  BNZ d   1      -5.368   0.788   4.487  0.00  0.00     0.000 A 
ATOM      2  C2  BNZ d   1      -5.999   1.363   5.557  0.00  0.00     0.000 A 
ATOM      3  C3  BNZ d   1      -5.772   2.671   5.884  0.00  0.00     0.000 A 
ATOM      4  C4  BNZ d   1      -4.885   3.389   5.165  0.00  0.00     0.000 A 
ATOM      5  C5  BNZ d   1      -4.233   2.821   4.089  0.00  0.00     0.000 A 
ATOM      6  C6  BNZ d   1      -4.494   1.516   3.740  0.00  0.00     0.000 A 
ENDROOT
TORSDOF 0
ENDMDL
