MODEL 1
REMARK minimizedAffinity 7.93003559
REMARK minimizedRMSD -1
REMARK  0 active torsions:
REMARK  status: ('A' for Active; 'I' for Inactive)
ROOT
ATOM      1  C1  BNZ d   1       3.013   5.982  -4.954  0.00  0.00     0.000 A 
ATOM      2  C2  BNZ d   1       2.290   5.455  -5.991  0.00  0.00     0.000 A 
ATOM      3  C3  BNZ d   1       1.929   4.137  -5.995  0.00  0.00     0.000 A 
ATOM      4  C4  BNZ d   1       2.325   3.338  -4.983  0.00  0.00     0.000 A 
ATOM      5  C5  BNZ d   1       3.062   3.852  -3.934  0.00  0.00     0.000 A 
ATOM      6  C6  BNZ d   1       3.390   5.188  -3.915  0.00  0.00     0.000 A 
ENDROOT
TORSDOF 0
ENDMDL
